# generated using pymatgen
data_Cu5NiC32
_symmetry_space_group_name_H-M   'P 1'
_cell_length_a   7.76910000
_cell_length_b   7.82106600
_cell_length_c   7.85238200
_cell_angle_alpha   90.00000000
_cell_angle_beta   90.00000000
_cell_angle_gamma   90.00000000
_symmetry_Int_Tables_number   1
_chemical_formula_structural   Cu5NiC32
_chemical_formula_sum   'Cu5 Ni1 C32'
_cell_volume   477.13149092
_cell_formula_units_Z   1
loop_
 _symmetry_equiv_pos_site_id
 _symmetry_equiv_pos_as_xyz
  1  'x, y, z'
loop_
 _atom_site_type_symbol
 _atom_site_label
 _atom_site_symmetry_multiplicity
 _atom_site_fract_x
 _atom_site_fract_y
 _atom_site_fract_z
 _atom_site_occupancy
  Ni  Ni0  1  0.00000000  0.84297500  0.00000000  1
  Cu  Cu1  1  0.50000000  0.02119800  0.00000000  1
  Cu  Cu2  1  0.00000000  0.50326800  0.50000000  1
  Cu  Cu3  1  0.50000000  0.49465200  0.50000000  1
  Cu  Cu4  1  0.50000000  0.01253500  0.50000000  1
  Cu  Cu5  1  0.00000000  0.99463200  0.50000000  1
  C  C6  1  0.24509800  0.25604000  0.76150500  1
  C  C7  1  0.24509800  0.25604000  0.23849500  1
  C  C8  1  0.75490200  0.25604000  0.76150500  1
  C  C9  1  0.74970100  0.74666800  0.24139700  1
  C  C10  1  0.25029900  0.74666800  0.75860300  1
  C  C11  1  0.74970100  0.74666800  0.75860300  1
  C  C12  1  0.75490200  0.25604000  0.23849500  1
  C  C13  1  0.25029900  0.74666800  0.24139700  1
  C  C14  1  0.75155300  0.50248300  0.27115100  1
  C  C15  1  0.50000000  0.24273900  0.23279600  1
  C  C16  1  0.21140600  0.75195900  0.50000000  1
  C  C17  1  0.78859400  0.75195900  0.50000000  1
  C  C18  1  0.00000000  0.75997100  0.23276700  1
  C  C19  1  0.00000000  0.24903600  0.29774900  1
  C  C20  1  0.24844700  0.50248300  0.72884900  1
  C  C21  1  0.26044800  0.00249100  0.27077300  1
  C  C22  1  0.50000000  0.75138300  0.70771300  1
  C  C23  1  0.23912400  0.22883000  0.00000000  1
  C  C24  1  0.50000000  0.75138300  0.29228700  1
  C  C25  1  0.27363900  0.77929100  0.00000000  1
  C  C26  1  0.26044800  0.00249100  0.72922700  1
  C  C27  1  0.28588900  0.25677900  0.50000000  1
  C  C28  1  0.71411100  0.25677900  0.50000000  1
  C  C29  1  0.00000000  0.24903600  0.70225100  1
  C  C30  1  0.72636100  0.77929100  0.00000000  1
  C  C31  1  0.24844700  0.50248300  0.27115100  1
  C  C32  1  0.73955200  0.00249100  0.72922700  1
  C  C33  1  0.75155300  0.50248300  0.72884900  1
  C  C34  1  0.73955200  0.00249100  0.27077300  1
  C  C35  1  0.76087600  0.22883000  0.00000000  1
  C  C36  1  0.00000000  0.75997100  0.76723300  1
  C  C37  1  0.50000000  0.24273900  0.76720400  1
