# generated using pymatgen
data_Cu2Ni2C45
_symmetry_space_group_name_H-M   'P 1'
_cell_length_a   11.96960772
_cell_length_b   11.96960772
_cell_length_c   9.20199800
_cell_angle_alpha   87.46637923
_cell_angle_beta   87.46637923
_cell_angle_gamma   152.66747169
_symmetry_Int_Tables_number   1
_chemical_formula_structural   Cu2Ni2C45
_chemical_formula_sum   'Cu2 Ni2 C45'
_cell_volume   594.65139936
_cell_formula_units_Z   1
loop_
 _symmetry_equiv_pos_site_id
 _symmetry_equiv_pos_as_xyz
  1  'x, y, z'
loop_
 _atom_site_type_symbol
 _atom_site_label
 _atom_site_symmetry_multiplicity
 _atom_site_fract_x
 _atom_site_fract_y
 _atom_site_fract_z
 _atom_site_occupancy
  C  C0  1  0.93004400  0.63692800  0.64395700  1
  C  C1  1  0.65239700  0.79306800  0.34901800  1
  C  C2  1  0.36307200  0.06995600  0.35604300  1
  C  C3  1  0.06995600  0.36307200  0.35604300  1
  C  C4  1  0.34760300  0.20693200  0.65098200  1
  C  C5  1  0.28686100  0.71313900  0.00000000  1
  C  C6  1  0.20693200  0.34760300  0.65098200  1
  C  C7  1  0.00000000  0.00000000  0.00000000  1
  C  C8  1  0.42731900  0.57268100  0.00000000  1
  C  C9  1  0.79306800  0.65239700  0.34901800  1
  C  C10  1  0.63692800  0.93004400  0.64395700  1
  C  C11  1  0.57268100  0.42731900  0.00000000  1
  C  C12  1  0.71313900  0.28686100  0.00000000  1
  C  C13  1  0.04804600  0.47830900  0.68135800  1
  C  C14  1  0.52169100  0.95195400  0.31864200  1
  C  C15  1  0.95195400  0.52169100  0.31864200  1
  C  C16  1  0.47830900  0.04804600  0.68135800  1
  Ni  Ni17  1  0.23552300  0.23552300  0.31056500  1
  Ni  Ni18  1  0.76447700  0.76447700  0.68943500  1
  Cu  Cu19  1  0.85892900  0.14107100  0.00000000  1
  Cu  Cu20  1  0.14107100  0.85892900  0.00000000  1
  C  C21  1  0.67572000  0.97982100  0.40067700  1
  C  C22  1  0.19319500  0.64475700  0.35281100  1
  C  C23  1  0.94182400  0.94182400  0.35084800  1
  C  C24  1  0.31391200  0.31391200  0.12820700  1
  C  C25  1  0.80680500  0.35524300  0.64718900  1
  C  C26  1  0.32428000  0.02017900  0.59932300  1
  C  C27  1  0.01863400  0.60381400  0.11834300  1
  C  C28  1  0.98136600  0.39618600  0.88165700  1
  C  C29  1  0.68608800  0.68608800  0.87179300  1
  C  C30  1  0.11581700  0.27156800  0.88514700  1
  C  C31  1  0.28583300  0.40304300  0.37942300  1
  C  C32  1  0.02017900  0.32428000  0.59932300  1
  C  C33  1  0.39618600  0.98136600  0.88165700  1
  C  C34  1  0.72843200  0.88418300  0.11485300  1
  C  C35  1  0.59695700  0.71416700  0.62057700  1
  C  C36  1  0.05817600  0.05817600  0.64915200  1
  C  C37  1  0.27156800  0.11581700  0.88514700  1
  C  C38  1  0.88418300  0.72843200  0.11485300  1
  C  C39  1  0.60381400  0.01863400  0.11834300  1
  C  C40  1  0.11736100  0.40812100  0.12022000  1
  C  C41  1  0.88263900  0.59187900  0.87978000  1
  C  C42  1  0.40304300  0.28583300  0.37942300  1
  C  C43  1  0.40812100  0.11736100  0.12022000  1
  C  C44  1  0.64475700  0.19319500  0.35281100  1
  C  C45  1  0.71416700  0.59695700  0.62057700  1
  C  C46  1  0.59187900  0.88263900  0.87978000  1
  C  C47  1  0.97982100  0.67572000  0.40067700  1
  C  C48  1  0.35524300  0.80680500  0.64718900  1
