# generated using pymatgen
data_Cu8Ni9C4
_symmetry_space_group_name_H-M   'P 1'
_cell_length_a   10.22934529
_cell_length_b   10.22934529
_cell_length_c   10.22934529
_cell_angle_alpha   97.90017700
_cell_angle_beta   97.90017700
_cell_angle_gamma   136.47756568
_symmetry_Int_Tables_number   1
_chemical_formula_structural   Cu8Ni9C4
_chemical_formula_sum   'Cu8 Ni9 C4'
_cell_volume   684.58532593
_cell_formula_units_Z   1
loop_
 _symmetry_equiv_pos_site_id
 _symmetry_equiv_pos_as_xyz
  1  'x, y, z'
loop_
 _atom_site_type_symbol
 _atom_site_label
 _atom_site_symmetry_multiplicity
 _atom_site_fract_x
 _atom_site_fract_y
 _atom_site_fract_z
 _atom_site_occupancy
  C  C0  1  0.24232800  0.06679000  0.17553800  1
  C  C1  1  0.06679000  0.89125200  0.82446200  1
  C  C2  1  0.89125200  0.06679000  0.82446200  1
  C  C3  1  0.06679000  0.24232800  0.17553800  1
  Ni  Ni4  1  0.88146000  0.88146000  0.62308800  1
  Ni  Ni5  1  0.25837100  0.88146000  0.00000000  1
  Ni  Ni6  1  0.25837100  0.25837100  0.37691200  1
  Ni  Ni7  1  0.71137300  0.97080900  0.00000000  1
  Ni  Ni8  1  0.16796900  0.16796900  0.00000000  1
  Ni  Ni9  1  0.71137300  0.71137300  0.74056300  1
  Ni  Ni10  1  0.97080900  0.97080900  0.25943700  1
  Ni  Ni11  1  0.88146000  0.25837100  0.00000000  1
  Ni  Ni12  1  0.97080900  0.71137300  0.00000000  1
  Cu  Cu13  1  0.15940200  0.38485700  0.77454500  1
  Cu  Cu14  1  0.61031200  0.38485700  0.22545500  1
  Cu  Cu15  1  0.27915400  0.93334400  0.34581000  1
  Cu  Cu16  1  0.38485700  0.61031200  0.22545500  1
  Cu  Cu17  1  0.93334400  0.58753400  0.65419000  1
  Cu  Cu18  1  0.58753400  0.93334400  0.65419000  1
  Cu  Cu19  1  0.38485700  0.15940200  0.77454500  1
  Cu  Cu20  1  0.93334400  0.27915400  0.34581000  1
