# generated using pymatgen
data_Cu2Ni5C16
_symmetry_space_group_name_H-M   'P 1'
_cell_length_a   6.01733614
_cell_length_b   6.01733614
_cell_length_c   25.17070900
_cell_angle_alpha   90.00000000
_cell_angle_beta   90.00000000
_cell_angle_gamma   120.00000153
_symmetry_Int_Tables_number   1
_chemical_formula_structural   Cu2Ni5C16
_chemical_formula_sum   'Cu4 Ni10 C32'
_cell_volume   789.28639895
_cell_formula_units_Z   2
loop_
 _symmetry_equiv_pos_site_id
 _symmetry_equiv_pos_as_xyz
  1  'x, y, z'
loop_
 _atom_site_type_symbol
 _atom_site_label
 _atom_site_symmetry_multiplicity
 _atom_site_fract_x
 _atom_site_fract_y
 _atom_site_fract_z
 _atom_site_occupancy
  Ni  Ni0  1  0.00000000  0.00000000  0.36274900  1
  Ni  Ni1  1  0.66666700  0.33333300  0.95858000  1
  Ni  Ni2  1  0.00000000  0.00000000  0.63725100  1
  Ni  Ni3  1  0.00000000  0.00000000  0.86274900  1
  Ni  Ni4  1  0.66666700  0.33333300  0.54142000  1
  Ni  Ni5  1  0.33333300  0.66666700  0.45858000  1
  Ni  Ni6  1  0.00000000  0.00000000  0.13725100  1
  Ni  Ni7  1  0.33333300  0.66666700  0.04142000  1
  Ni  Ni8  1  0.66666700  0.33333300  0.25000000  1
  Ni  Ni9  1  0.33333300  0.66666700  0.75000000  1
  Cu  Cu10  1  0.66666700  0.33333300  0.10392300  1
  Cu  Cu11  1  0.33333300  0.66666700  0.89607700  1
  Cu  Cu12  1  0.33333300  0.66666700  0.60392300  1
  Cu  Cu13  1  0.66666700  0.33333300  0.39607700  1
  C  C14  1  0.00000000  0.00000000  0.50000000  1
  C  C15  1  0.00000000  0.00000000  0.00000000  1
  C  C16  1  0.66666700  0.33333300  0.81907800  1
  C  C17  1  0.33333300  0.66666700  0.18092200  1
  C  C18  1  0.66666700  0.33333300  0.68092200  1
  C  C19  1  0.33333300  0.66666700  0.31907800  1
  C  C20  1  0.83681600  0.67363100  0.05037600  1
  C  C21  1  0.83681600  0.67363100  0.44962400  1
  C  C22  1  0.16318400  0.83681600  0.94962400  1
  C  C23  1  0.16318400  0.32636900  0.55037600  1
  C  C24  1  0.50517500  0.49482500  0.84194100  1
  C  C25  1  0.83681600  0.16318400  0.05037600  1
  C  C26  1  0.49482500  0.98964900  0.15805900  1
  C  C27  1  0.01035100  0.50517500  0.15805900  1
  C  C28  1  0.83681600  0.16318400  0.44962400  1
  C  C29  1  0.32636900  0.16318400  0.05037600  1
  C  C30  1  0.98964900  0.49482500  0.65805900  1
  C  C31  1  0.50517500  0.01035100  0.65805900  1
  C  C32  1  0.01035100  0.50517500  0.34194100  1
  C  C33  1  0.67363100  0.83681600  0.55037600  1
  C  C34  1  0.66666700  0.33333300  0.75000000  1
  C  C35  1  0.49482500  0.50517500  0.34194100  1
  C  C36  1  0.67363100  0.83681600  0.94962400  1
  C  C37  1  0.50517500  0.01035100  0.84194100  1
  C  C38  1  0.98964900  0.49482500  0.84194100  1
  C  C39  1  0.50517500  0.49482500  0.65805900  1
  C  C40  1  0.16318400  0.83681600  0.55037600  1
  C  C41  1  0.16318400  0.32636900  0.94962400  1
  C  C42  1  0.49482500  0.50517500  0.15805900  1
  C  C43  1  0.32636900  0.16318400  0.44962400  1
  C  C44  1  0.33333300  0.66666700  0.25000000  1
  C  C45  1  0.49482500  0.98964900  0.34194100  1
