# generated using pymatgen
data_Cu7(Ni8C3)2
_symmetry_space_group_name_H-M   'P 1'
_cell_length_a   7.94442530
_cell_length_b   7.94442530
_cell_length_c   7.94442530
_cell_angle_alpha   60.00000000
_cell_angle_beta   60.00000000
_cell_angle_gamma   60.00000000
_symmetry_Int_Tables_number   1
_chemical_formula_structural   Cu7(Ni8C3)2
_chemical_formula_sum   'Cu7 Ni16 C6'
_cell_volume   354.54589308
_cell_formula_units_Z   1
loop_
 _symmetry_equiv_pos_site_id
 _symmetry_equiv_pos_as_xyz
  1  'x, y, z'
loop_
 _atom_site_type_symbol
 _atom_site_label
 _atom_site_symmetry_multiplicity
 _atom_site_fract_x
 _atom_site_fract_y
 _atom_site_fract_z
 _atom_site_occupancy
  C  C0  1  0.79581500  0.20418500  0.79581500  1
  C  C1  1  0.79581500  0.79581500  0.20418500  1
  C  C2  1  0.20418500  0.79581500  0.20418500  1
  C  C3  1  0.20418500  0.20418500  0.79581500  1
  C  C4  1  0.20418500  0.79581500  0.79581500  1
  C  C5  1  0.79581500  0.20418500  0.20418500  1
  Ni  Ni6  1  0.86002300  0.37999200  0.37999200  1
  Ni  Ni7  1  0.62000800  0.62000800  0.13997700  1
  Ni  Ni8  1  0.37999200  0.37999200  0.86002300  1
  Ni  Ni9  1  0.82613700  0.52159000  0.82613700  1
  Ni  Ni10  1  0.82613700  0.82613700  0.82613700  1
  Ni  Ni11  1  0.82613700  0.82613700  0.52159000  1
  Ni  Ni12  1  0.37999200  0.37999200  0.37999200  1
  Ni  Ni13  1  0.13997700  0.62000800  0.62000800  1
  Ni  Ni14  1  0.62000800  0.62000800  0.62000800  1
  Ni  Ni15  1  0.17386300  0.17386300  0.17386300  1
  Ni  Ni16  1  0.17386300  0.47841000  0.17386300  1
  Ni  Ni17  1  0.52159000  0.82613700  0.82613700  1
  Ni  Ni18  1  0.62000800  0.13997700  0.62000800  1
  Ni  Ni19  1  0.17386300  0.17386300  0.47841000  1
  Ni  Ni20  1  0.37999200  0.86002300  0.37999200  1
  Ni  Ni21  1  0.47841000  0.17386300  0.17386300  1
  Cu  Cu22  1  0.50000000  0.00000000  0.00000000  1
  Cu  Cu23  1  0.00000000  0.50000000  0.00000000  1
  Cu  Cu24  1  0.50000000  0.50000000  0.00000000  1
  Cu  Cu25  1  0.50000000  0.50000000  0.50000000  1
  Cu  Cu26  1  0.00000000  0.50000000  0.50000000  1
  Cu  Cu27  1  0.00000000  0.00000000  0.50000000  1
  Cu  Cu28  1  0.50000000  0.00000000  0.50000000  1
