# generated using pymatgen
data_Cu4Ni4C5
_symmetry_space_group_name_H-M   'P 1'
_cell_length_a   9.26229100
_cell_length_b   7.31402300
_cell_length_c   8.80648756
_cell_angle_alpha   73.29083552
_cell_angle_beta   90.00000000
_cell_angle_gamma   90.00000000
_symmetry_Int_Tables_number   1
_chemical_formula_structural   Cu4Ni4C5
_chemical_formula_sum   'Cu8 Ni8 C10'
_cell_volume   571.40186650
_cell_formula_units_Z   2
loop_
 _symmetry_equiv_pos_site_id
 _symmetry_equiv_pos_as_xyz
  1  'x, y, z'
loop_
 _atom_site_type_symbol
 _atom_site_label
 _atom_site_symmetry_multiplicity
 _atom_site_fract_x
 _atom_site_fract_y
 _atom_site_fract_z
 _atom_site_occupancy
  C  C0  1  0.71986100  0.50281200  0.12173100  1
  C  C1  1  0.21986100  0.49718800  0.37826900  1
  C  C2  1  0.78013900  0.50281200  0.62173100  1
  C  C3  1  0.28013900  0.49718800  0.87826900  1
  C  C4  1  0.00000000  0.00000000  0.00000000  1
  C  C5  1  0.50000000  0.00000000  0.50000000  1
  Ni  Ni6  1  0.45360000  0.19381000  0.29195700  1
  Ni  Ni7  1  0.03744700  0.20202900  0.11024600  1
  Ni  Ni8  1  0.95360000  0.80619000  0.20804300  1
  Ni  Ni9  1  0.54640000  0.80619000  0.70804300  1
  Ni  Ni10  1  0.46255300  0.20202900  0.61024600  1
  Ni  Ni11  1  0.96255300  0.79797100  0.88975400  1
  Ni  Ni12  1  0.53744700  0.79797100  0.38975400  1
  Ni  Ni13  1  0.04640000  0.19381000  0.79195700  1
  C  C14  1  0.23811800  0.89665300  0.53411800  1
  C  C15  1  0.26188200  0.89665300  0.03411800  1
  C  C16  1  0.76188200  0.10334700  0.46588200  1
  C  C17  1  0.73811800  0.10334700  0.96588200  1
  Cu  Cu18  1  0.92748800  0.68695300  0.32556700  1
  Cu  Cu19  1  0.56042200  0.67553000  0.33173500  1
  Cu  Cu20  1  0.43957800  0.32447000  0.66826500  1
  Cu  Cu21  1  0.07251200  0.31304700  0.67443300  1
  Cu  Cu22  1  0.06042200  0.32447000  0.16826500  1
  Cu  Cu23  1  0.93957800  0.67553000  0.83173500  1
  Cu  Cu24  1  0.42748800  0.31304700  0.17443300  1
  Cu  Cu25  1  0.57251200  0.68695300  0.82556700  1
