# generated using pymatgen
data_Cu9NiC7
_symmetry_space_group_name_H-M   'P 1'
_cell_length_a   6.64257500
_cell_length_b   11.51936300
_cell_length_c   11.55035800
_cell_angle_alpha   90.00000000
_cell_angle_beta   90.00000000
_cell_angle_gamma   90.00000000
_symmetry_Int_Tables_number   1
_chemical_formula_structural   Cu9NiC7
_chemical_formula_sum   'Cu36 Ni4 C28'
_cell_volume   883.81298098
_cell_formula_units_Z   4
loop_
 _symmetry_equiv_pos_site_id
 _symmetry_equiv_pos_as_xyz
  1  'x, y, z'
loop_
 _atom_site_type_symbol
 _atom_site_label
 _atom_site_symmetry_multiplicity
 _atom_site_fract_x
 _atom_site_fract_y
 _atom_site_fract_z
 _atom_site_occupancy
  C  C0  1  0.81262700  0.26948000  0.95940300  1
  C  C1  1  0.35155300  0.80057400  0.31671100  1
  C  C2  1  0.53481400  0.21783500  0.28720300  1
  C  C3  1  0.81262700  0.73052000  0.04059700  1
  C  C4  1  0.70139300  0.82174100  0.22786900  1
  C  C5  1  0.31262700  0.23052000  0.45940300  1
  C  C6  1  0.85155300  0.30057400  0.18328900  1
  C  C7  1  0.03481400  0.28216500  0.78720300  1
  C  C8  1  0.47971300  0.99683100  0.24632700  1
  C  C9  1  0.53481400  0.78216500  0.71279700  1
  C  C10  1  0.97971300  0.49683100  0.25367300  1
  C  C11  1  0.35155300  0.19942600  0.68328900  1
  C  C12  1  0.70139300  0.17825900  0.77213100  1
  C  C13  1  0.03481400  0.71783500  0.21279700  1
  C  C14  1  0.31262700  0.76948000  0.54059700  1
  C  C15  1  0.20139300  0.67825900  0.72786900  1
  C  C16  1  0.47971300  0.00316900  0.75367300  1
  C  C17  1  0.85155300  0.69942600  0.81671100  1
  C  C18  1  0.97971300  0.50316900  0.74632700  1
  C  C19  1  0.20139300  0.32174100  0.27213100  1
  C  C20  1  0.32974500  0.75942800  0.97743200  1
  C  C21  1  0.50080100  0.53913000  0.24688900  1
  C  C22  1  0.32974500  0.24057200  0.02256800  1
  C  C23  1  0.50080100  0.46087000  0.75311100  1
  C  C24  1  0.82974500  0.25942800  0.52256800  1
  C  C25  1  0.00080100  0.03913000  0.25311100  1
  C  C26  1  0.82974500  0.74057200  0.47743200  1
  C  C27  1  0.00080100  0.96087000  0.74688900  1
  Ni  Ni28  1  0.12519500  0.00000000  0.00000000  1
  Ni  Ni29  1  0.88251900  0.00000000  0.50000000  1
  Ni  Ni30  1  0.38251900  0.50000000  0.00000000  1
  Ni  Ni31  1  0.62519500  0.50000000  0.50000000  1
  Cu  Cu32  1  0.44222400  0.88699200  0.76850400  1
  Cu  Cu33  1  0.25132100  0.27130900  0.77217500  1
  Cu  Cu34  1  0.91609200  0.18398100  0.73978500  1
  Cu  Cu35  1  0.07041300  0.27248400  0.18111300  1
  Cu  Cu36  1  0.75132100  0.77130900  0.72782500  1
  Cu  Cu37  1  0.66114100  0.05100200  0.78553400  1
  Cu  Cu38  1  0.82725900  0.57240500  0.78826900  1
  Cu  Cu39  1  0.75548000  0.72219300  0.92817100  1
  Cu  Cu40  1  0.50337400  0.20978800  0.41700700  1
  Cu  Cu41  1  0.25548000  0.22219300  0.57182900  1
  Cu  Cu42  1  0.82725900  0.42759500  0.21173100  1
  Cu  Cu43  1  0.66064300  0.76181900  0.11709400  1
  Cu  Cu44  1  0.16064300  0.73818100  0.61709400  1
  Cu  Cu45  1  0.75132100  0.22869100  0.27217500  1
  Cu  Cu46  1  0.25548000  0.77780700  0.42817100  1
  Cu  Cu47  1  0.25132100  0.72869100  0.22782500  1
  Cu  Cu48  1  0.75548000  0.27780700  0.07182900  1
  Cu  Cu49  1  0.44222400  0.11300800  0.23149600  1
  Cu  Cu50  1  0.16114100  0.55100200  0.71446600  1
  Cu  Cu51  1  0.32725900  0.92759500  0.28826900  1
  Cu  Cu52  1  0.57041300  0.77248400  0.31888700  1
  Cu  Cu53  1  0.07041300  0.72751600  0.81888700  1
  Cu  Cu54  1  0.50337400  0.79021200  0.58299300  1
  Cu  Cu55  1  0.32725900  0.07240500  0.71173100  1
  Cu  Cu56  1  0.16064300  0.26181900  0.38290600  1
  Cu  Cu57  1  0.94222400  0.38699200  0.73149600  1
  Cu  Cu58  1  0.00337400  0.70978800  0.08299300  1
  Cu  Cu59  1  0.00337400  0.29021200  0.91700700  1
  Cu  Cu60  1  0.94222400  0.61300800  0.26850400  1
  Cu  Cu61  1  0.66064300  0.23818100  0.88290600  1
  Cu  Cu62  1  0.91609200  0.81601900  0.26021500  1
  Cu  Cu63  1  0.41609200  0.68398100  0.76021500  1
  Cu  Cu64  1  0.57041300  0.22751600  0.68111300  1
  Cu  Cu65  1  0.41609200  0.31601900  0.23978500  1
  Cu  Cu66  1  0.66114100  0.94899800  0.21446600  1
  Cu  Cu67  1  0.16114100  0.44899800  0.28553400  1
