# generated using pymatgen
data_Cu(NiC4)5
_symmetry_space_group_name_H-M   'P 1'
_cell_length_a   10.20332672
_cell_length_b   10.20332672
_cell_length_c   10.20332672
_cell_angle_alpha   108.95005374
_cell_angle_beta   108.95005374
_cell_angle_gamma   110.51865934
_symmetry_Int_Tables_number   1
_chemical_formula_structural   Cu(NiC4)5
_chemical_formula_sum   'Cu2 Ni10 C40'
_cell_volume   817.51247762
_cell_formula_units_Z   2
loop_
 _symmetry_equiv_pos_site_id
 _symmetry_equiv_pos_as_xyz
  1  'x, y, z'
loop_
 _atom_site_type_symbol
 _atom_site_label
 _atom_site_symmetry_multiplicity
 _atom_site_fract_x
 _atom_site_fract_y
 _atom_site_fract_z
 _atom_site_occupancy
  Ni  Ni0  1  0.50000000  0.50000000  0.00000000  1
  Ni  Ni1  1  0.75000000  0.25000000  0.50000000  1
  Ni  Ni2  1  0.58840000  0.76353600  0.41725400  1
  Ni  Ni3  1  0.01353600  0.09628200  0.67513500  1
  Ni  Ni4  1  0.42114600  0.33840000  0.32486400  1
  Ni  Ni5  1  0.34628200  0.17114600  0.58274600  1
  Ni  Ni6  1  0.66160000  0.98646400  0.08274600  1
  Ni  Ni7  1  0.23646400  0.65371800  0.82486500  1
  Ni  Ni8  1  0.82885400  0.41160000  0.17513500  1
  Ni  Ni9  1  0.90371800  0.57885400  0.91725400  1
  Cu  Cu10  1  0.00000000  0.00000000  0.00000000  1
  Cu  Cu11  1  0.25000000  0.75000000  0.50000000  1
  C  C12  1  0.88425000  0.66454000  0.58420400  1
  C  C13  1  0.91454000  0.83033600  0.28029000  1
  C  C14  1  0.55004600  0.63425000  0.71971000  1
  C  C15  1  0.08033600  0.30004600  0.41579600  1
  C  C16  1  0.36575000  0.08546000  0.91579600  1
  C  C17  1  0.33546000  0.91966400  0.21971000  1
  C  C18  1  0.69995400  0.11575000  0.78029000  1
  C  C19  1  0.16966400  0.44995400  0.08420400  1
  C  C20  1  0.96386500  0.64086200  0.44633200  1
  C  C21  1  0.89086200  0.94453000  0.17699700  1
  C  C22  1  0.76753300  0.71386500  0.82300300  1
  C  C23  1  0.19453000  0.51753300  0.55366800  1
  C  C24  1  0.28613500  0.10913800  0.05366800  1
  C  C25  1  0.35913800  0.80547000  0.32300300  1
  C  C26  1  0.48246700  0.03613500  0.67699700  1
  C  C27  1  0.05547000  0.23246700  0.94633200  1
  C  C28  1  0.67018100  0.57286600  0.46267100  1
  C  C29  1  0.82286600  0.86019500  0.40268500  1
  C  C30  1  0.45751000  0.42018100  0.59731500  1
  C  C31  1  0.11019500  0.20751000  0.53732900  1
  C  C32  1  0.57981900  0.17713400  0.03732900  1
  C  C33  1  0.42713400  0.88980500  0.09731500  1
  C  C34  1  0.79249000  0.32981900  0.90268500  1
  C  C35  1  0.13980500  0.54249000  0.96267100  1
  C  C36  1  0.97669600  0.87841800  0.73133800  1
  C  C37  1  0.12841800  0.89707900  0.40172100  1
  C  C38  1  0.49535800  0.72669600  0.59827900  1
  C  C39  1  0.14707900  0.24535800  0.26866200  1
  C  C40  1  0.27330400  0.87158200  0.76866200  1
  C  C41  1  0.12158200  0.85292100  0.09827900  1
  C  C42  1  0.75464200  0.02330400  0.90172100  1
  C  C43  1  0.10292100  0.50464200  0.23133800  1
  C  C44  1  0.91772300  0.54365800  0.67372900  1
  C  C45  1  0.79365800  0.61993000  0.12593500  1
  C  C46  1  0.49399500  0.66772300  0.87406500  1
  C  C47  1  0.86993000  0.24399500  0.32627100  1
  C  C48  1  0.33227700  0.20634200  0.82627100  1
  C  C49  1  0.45634200  0.13007000  0.37406500  1
  C  C50  1  0.75600500  0.08227700  0.62593500  1
  C  C51  1  0.38007000  0.50600500  0.17372900  1
