# generated using pymatgen
data_Cu4NiC
_symmetry_space_group_name_H-M   'P 1'
_cell_length_a   7.87129436
_cell_length_b   7.87129436
_cell_length_c   7.87129495
_cell_angle_alpha   33.65614526
_cell_angle_beta   33.65614526
_cell_angle_gamma   33.65614381
_symmetry_Int_Tables_number   1
_chemical_formula_structural   Cu4NiC
_chemical_formula_sum   'Cu8 Ni2 C2'
_cell_volume   133.44332707
_cell_formula_units_Z   2
loop_
 _symmetry_equiv_pos_site_id
 _symmetry_equiv_pos_as_xyz
  1  'x, y, z'
loop_
 _atom_site_type_symbol
 _atom_site_label
 _atom_site_symmetry_multiplicity
 _atom_site_fract_x
 _atom_site_fract_y
 _atom_site_fract_z
 _atom_site_occupancy
  C  C0  1  0.35251400  0.35251400  0.35251400  1
  C  C1  1  0.85646600  0.85646600  0.85646600  1
  Ni  Ni2  1  0.59212700  0.59212700  0.59212700  1
  Ni  Ni3  1  0.10374600  0.10374600  0.10374600  1
  Cu  Cu4  1  0.85719400  0.36557600  0.14151800  1
  Cu  Cu5  1  0.53708200  0.53708200  0.53708200  1
  Cu  Cu6  1  0.14151800  0.85719400  0.36557600  1
  Cu  Cu7  1  0.31804000  0.75636400  0.75838000  1
  Cu  Cu8  1  0.36557600  0.14151800  0.85719400  1
  Cu  Cu9  1  0.04837300  0.04837300  0.04837300  1
  Cu  Cu10  1  0.75838000  0.31804000  0.75636400  1
  Cu  Cu11  1  0.75636400  0.75838000  0.31804000  1
