# generated using pymatgen
data_Cu(NiC9)2
_symmetry_space_group_name_H-M   'P 1'
_cell_length_a   6.59568500
_cell_length_b   11.93821400
_cell_length_c   18.30832200
_cell_angle_alpha   90.00000000
_cell_angle_beta   90.00000000
_cell_angle_gamma   90.00000000
_symmetry_Int_Tables_number   1
_chemical_formula_structural   Cu(NiC9)2
_chemical_formula_sum   'Cu4 Ni8 C72'
_cell_volume   1441.61007192
_cell_formula_units_Z   4
loop_
 _symmetry_equiv_pos_site_id
 _symmetry_equiv_pos_as_xyz
  1  'x, y, z'
loop_
 _atom_site_type_symbol
 _atom_site_label
 _atom_site_symmetry_multiplicity
 _atom_site_fract_x
 _atom_site_fract_y
 _atom_site_fract_z
 _atom_site_occupancy
  Ni  Ni0  1  0.92113100  0.50329100  0.24616600  1
  Ni  Ni1  1  0.07886900  0.00329100  0.75383400  1
  Ni  Ni2  1  0.57886900  0.00329100  0.74616600  1
  Ni  Ni3  1  0.07886900  0.49670900  0.75383400  1
  Ni  Ni4  1  0.42113100  0.99670900  0.25383400  1
  Ni  Ni5  1  0.42113100  0.50329100  0.25383400  1
  Ni  Ni6  1  0.92113100  0.99670900  0.24616600  1
  Ni  Ni7  1  0.57886900  0.49670900  0.74616600  1
  C  C8  1  0.35559600  0.40739700  0.89476000  1
  C  C9  1  0.59629500  0.75000000  0.29937400  1
  C  C10  1  0.16814700  0.40500100  0.10628000  1
  C  C11  1  0.64440400  0.59260300  0.10524000  1
  C  C12  1  0.14440400  0.59260300  0.39476000  1
  C  C13  1  0.77492900  0.75000000  0.70940500  1
  C  C14  1  0.09629500  0.75000000  0.20062600  1
  C  C15  1  0.27492900  0.75000000  0.79059500  1
  C  C16  1  0.33185300  0.90500100  0.60628000  1
  C  C17  1  0.72507100  0.25000000  0.20940500  1
  C  C18  1  0.16814700  0.09499900  0.10628000  1
  C  C19  1  0.66814700  0.09499900  0.39372000  1
  C  C20  1  0.83185300  0.59499900  0.89372000  1
  C  C21  1  0.85559600  0.40739700  0.60524000  1
  C  C22  1  0.40370500  0.25000000  0.70062600  1
  C  C23  1  0.35559600  0.09260300  0.89476000  1
  C  C24  1  0.90370500  0.25000000  0.79937400  1
  C  C25  1  0.85559600  0.09260300  0.60524000  1
  C  C26  1  0.22507100  0.25000000  0.29059500  1
  C  C27  1  0.14440400  0.90739700  0.39476000  1
  C  C28  1  0.64440400  0.90739700  0.10524000  1
  C  C29  1  0.33185300  0.59499900  0.60628000  1
  C  C30  1  0.83185300  0.90500100  0.89372000  1
  C  C31  1  0.66814700  0.40500100  0.39372000  1
  Cu  Cu32  1  0.78691600  0.75000000  0.50799000  1
  Cu  Cu33  1  0.21308400  0.25000000  0.49201000  1
  Cu  Cu34  1  0.28691600  0.75000000  0.99201000  1
  Cu  Cu35  1  0.71308400  0.25000000  0.00799000  1
  C  C36  1  0.66588800  0.64691800  0.52278200  1
  C  C37  1  0.52686500  0.09978300  0.78441300  1
  C  C38  1  0.57481300  0.49246400  0.66980300  1
  C  C39  1  0.63428800  0.90642300  0.78219400  1
  C  C40  1  0.42581500  0.75000000  0.66415000  1
  C  C41  1  0.34811200  0.75000000  0.07222500  1
  C  C42  1  0.33411200  0.14691800  0.47721800  1
  C  C43  1  0.42518700  0.99246400  0.33019700  1
  C  C44  1  0.78436500  0.75000000  0.14293500  1
  C  C45  1  0.02686500  0.40021700  0.71558700  1
  C  C46  1  0.02243900  0.25000000  0.44754000  1
  C  C47  1  0.15188800  0.25000000  0.57222500  1
  C  C48  1  0.92518700  0.99246400  0.16980300  1
  C  C49  1  0.52686500  0.40021700  0.78441300  1
  C  C50  1  0.21563500  0.25000000  0.85706500  1
  C  C51  1  0.33411200  0.35308200  0.47721800  1
  C  C52  1  0.36571200  0.40642300  0.21780600  1
  C  C53  1  0.47313500  0.90021700  0.21558700  1
  C  C54  1  0.57481300  0.00753600  0.66980300  1
  C  C55  1  0.83411200  0.35308200  0.02278200  1
  C  C56  1  0.47756100  0.75000000  0.94754000  1
  C  C57  1  0.86571200  0.40642300  0.28219400  1
  C  C58  1  0.57418500  0.25000000  0.33585000  1
  C  C59  1  0.84811200  0.75000000  0.42777500  1
  C  C60  1  0.16588800  0.64691800  0.97721800  1
  C  C61  1  0.36571200  0.09357700  0.21780600  1
  C  C62  1  0.07418500  0.25000000  0.16415000  1
  C  C63  1  0.97313500  0.90021700  0.28441300  1
  C  C64  1  0.02686500  0.09978300  0.71558700  1
  C  C65  1  0.92518700  0.50753600  0.16980300  1
  C  C66  1  0.52243900  0.25000000  0.05246000  1
  C  C67  1  0.97756100  0.75000000  0.55246000  1
  C  C68  1  0.92581500  0.75000000  0.83585000  1
  C  C69  1  0.83411200  0.14691800  0.02278200  1
  C  C70  1  0.13428800  0.59357700  0.71780600  1
  C  C71  1  0.13428800  0.90642300  0.71780600  1
  C  C72  1  0.97313500  0.59978300  0.28441300  1
  C  C73  1  0.28436500  0.75000000  0.35706500  1
  C  C74  1  0.42518700  0.50753600  0.33019700  1
  C  C75  1  0.07481300  0.00753600  0.83019700  1
  C  C76  1  0.07481300  0.49246400  0.83019700  1
  C  C77  1  0.63428800  0.59357700  0.78219400  1
  C  C78  1  0.65188800  0.25000000  0.92777500  1
  C  C79  1  0.16588800  0.85308200  0.97721800  1
  C  C80  1  0.71563500  0.25000000  0.64293500  1
  C  C81  1  0.47313500  0.59978300  0.21558700  1
  C  C82  1  0.66588800  0.85308200  0.52278200  1
  C  C83  1  0.86571200  0.09357700  0.28219400  1
