# generated using pymatgen
data_Cu8NiC7
_symmetry_space_group_name_H-M   'P 1'
_cell_length_a   7.57030350
_cell_length_b   7.57030350
_cell_length_c   12.44946100
_cell_angle_alpha   90.00000000
_cell_angle_beta   90.00000000
_cell_angle_gamma   119.99999562
_symmetry_Int_Tables_number   1
_chemical_formula_structural   Cu8NiC7
_chemical_formula_sum   'Cu16 Ni2 C14'
_cell_volume   617.88518455
_cell_formula_units_Z   2
loop_
 _symmetry_equiv_pos_site_id
 _symmetry_equiv_pos_as_xyz
  1  'x, y, z'
loop_
 _atom_site_type_symbol
 _atom_site_label
 _atom_site_symmetry_multiplicity
 _atom_site_fract_x
 _atom_site_fract_y
 _atom_site_fract_z
 _atom_site_occupancy
  C  C0  1  0.83887600  0.67775300  0.10490300  1
  C  C1  1  0.50351200  0.49648800  0.35381100  1
  C  C2  1  0.00702400  0.50351200  0.85381100  1
  C  C3  1  0.83887600  0.16112400  0.10490300  1
  C  C4  1  0.49648800  0.50351200  0.85381100  1
  C  C5  1  0.16112400  0.32224700  0.60490300  1
  C  C6  1  0.50351200  0.00702400  0.35381100  1
  C  C7  1  0.99297600  0.49648800  0.35381100  1
  C  C8  1  0.16112400  0.83887600  0.60490300  1
  C  C9  1  0.49648800  0.99297600  0.85381100  1
  C  C10  1  0.67775300  0.83887600  0.60490300  1
  C  C11  1  0.32224700  0.16112400  0.10490300  1
  Ni  Ni12  1  0.00000000  0.00000000  0.85178600  1
  Ni  Ni13  1  0.00000000  0.00000000  0.35178600  1
  C  C14  1  0.33333300  0.66666700  0.48147600  1
  C  C15  1  0.66666700  0.33333300  0.98147600  1
  Cu  Cu16  1  0.00000000  0.00000000  0.03427700  1
  Cu  Cu17  1  0.32955100  0.16477600  0.28968100  1
  Cu  Cu18  1  0.83522400  0.16477600  0.28968100  1
  Cu  Cu19  1  0.00659900  0.50330000  0.54128800  1
  Cu  Cu20  1  0.83522400  0.67044900  0.28968100  1
  Cu  Cu21  1  0.66666700  0.33333300  0.79941300  1
  Cu  Cu22  1  0.16477600  0.32955100  0.78968100  1
  Cu  Cu23  1  0.49670000  0.50330000  0.54128800  1
  Cu  Cu24  1  0.00000000  0.00000000  0.53427700  1
  Cu  Cu25  1  0.33333300  0.66666700  0.29941300  1
  Cu  Cu26  1  0.99340100  0.49670000  0.04128800  1
  Cu  Cu27  1  0.49670000  0.99340100  0.54128800  1
  Cu  Cu28  1  0.16477600  0.83522400  0.78968100  1
  Cu  Cu29  1  0.67044900  0.83522400  0.78968100  1
  Cu  Cu30  1  0.50330000  0.00659900  0.04128800  1
  Cu  Cu31  1  0.50330000  0.49670000  0.04128800  1
