# generated using pymatgen
data_Cu(NiC)6
_symmetry_space_group_name_H-M   'P 1'
_cell_length_a   20.16560900
_cell_length_b   6.77427500
_cell_length_c   10.60868687
_cell_angle_alpha   60.36239248
_cell_angle_beta   90.00000000
_cell_angle_gamma   90.00000000
_symmetry_Int_Tables_number   1
_chemical_formula_structural   Cu(NiC)6
_chemical_formula_sum   'Cu4 Ni24 C24'
_cell_volume   1259.62360037
_cell_formula_units_Z   4
loop_
 _symmetry_equiv_pos_site_id
 _symmetry_equiv_pos_as_xyz
  1  'x, y, z'
loop_
 _atom_site_type_symbol
 _atom_site_label
 _atom_site_symmetry_multiplicity
 _atom_site_fract_x
 _atom_site_fract_y
 _atom_site_fract_z
 _atom_site_occupancy
  C  C0  1  0.62548600  0.05039300  0.28527300  1
  C  C1  1  0.12548600  0.94960700  0.21472700  1
  C  C2  1  0.37451400  0.94960700  0.71472700  1
  C  C3  1  0.87451400  0.05039300  0.78527300  1
  C  C4  1  0.13725300  0.03894300  0.70715500  1
  C  C5  1  0.94330700  0.96106000  0.36906600  1
  C  C6  1  0.63725300  0.96105700  0.79284500  1
  C  C7  1  0.11759100  0.25548700  0.52378800  1
  C  C8  1  0.44330700  0.03894000  0.13093400  1
  C  C9  1  0.86274700  0.96105700  0.29284500  1
  C  C10  1  0.36274700  0.03894300  0.20715500  1
  C  C11  1  0.88240900  0.74451300  0.47621200  1
  C  C12  1  0.38240900  0.25548700  0.02378800  1
  C  C13  1  0.55669300  0.96106000  0.86906600  1
  C  C14  1  0.61759100  0.74451300  0.97621200  1
  C  C15  1  0.05669300  0.03894000  0.63093400  1
  C  C16  1  0.89041700  0.92196200  0.39157600  1
  C  C17  1  0.39041700  0.07803800  0.10842400  1
  C  C18  1  0.60958300  0.92196200  0.89157600  1
  C  C19  1  0.10958300  0.07803800  0.60842400  1
  C  C20  1  0.64444500  0.08987100  0.96239200  1
  C  C21  1  0.85555500  0.08987100  0.46239200  1
  C  C22  1  0.35555500  0.91012900  0.03760800  1
  C  C23  1  0.14444500  0.91012900  0.53760800  1
  Ni  Ni24  1  0.65648400  0.04566800  0.50169700  1
  Ni  Ni25  1  0.34351600  0.95433200  0.49830300  1
  Ni  Ni26  1  0.20662400  0.66813000  0.35954100  1
  Ni  Ni27  1  0.54077000  0.77372300  0.39112400  1
  Ni  Ni28  1  0.79337600  0.33187000  0.64045900  1
  Ni  Ni29  1  0.62358900  0.40590200  0.79121100  1
  Ni  Ni30  1  0.29337600  0.66813000  0.85954100  1
  Ni  Ni31  1  0.54522400  0.34435800  0.21429800  1
  Ni  Ni32  1  0.70662400  0.33187000  0.14045900  1
  Ni  Ni33  1  0.70340100  0.76258100  0.31735700  1
  Ni  Ni34  1  0.45923000  0.22627700  0.60887600  1
  Ni  Ni35  1  0.37641100  0.59409800  0.20878900  1
  Ni  Ni36  1  0.29659900  0.23741900  0.68264300  1
  Ni  Ni37  1  0.04522400  0.65564200  0.28570200  1
  Ni  Ni38  1  0.20340100  0.23741900  0.18264300  1
  Ni  Ni39  1  0.84351600  0.04566800  0.00169700  1
  Ni  Ni40  1  0.45477600  0.65564200  0.78570200  1
  Ni  Ni41  1  0.79659900  0.76258100  0.81735700  1
  Ni  Ni42  1  0.95923000  0.77372300  0.89112400  1
  Ni  Ni43  1  0.87641100  0.40590200  0.29121100  1
  Ni  Ni44  1  0.15648400  0.95433200  0.99830300  1
  Ni  Ni45  1  0.04077000  0.22627700  0.10887600  1
  Ni  Ni46  1  0.12358900  0.59409800  0.70878900  1
  Ni  Ni47  1  0.95477600  0.34435800  0.71429800  1
  Cu  Cu48  1  0.09470000  0.95214400  0.41722300  1
  Cu  Cu49  1  0.90530000  0.04785600  0.58277700  1
  Cu  Cu50  1  0.59470000  0.04785600  0.08277700  1
  Cu  Cu51  1  0.40530000  0.95214400  0.91722300  1
