# generated using pymatgen
data_Cu4NiC4
_symmetry_space_group_name_H-M   'P 1'
_cell_length_a   5.96307313
_cell_length_b   5.96307313
_cell_length_c   5.96307313
_cell_angle_alpha   102.20480606
_cell_angle_beta   102.20480606
_cell_angle_gamma   125.25289375
_symmetry_Int_Tables_number   1
_chemical_formula_structural   Cu4NiC4
_chemical_formula_sum   'Cu4 Ni1 C4'
_cell_volume   153.76337368
_cell_formula_units_Z   1
loop_
 _symmetry_equiv_pos_site_id
 _symmetry_equiv_pos_as_xyz
  1  'x, y, z'
loop_
 _atom_site_type_symbol
 _atom_site_label
 _atom_site_symmetry_multiplicity
 _atom_site_fract_x
 _atom_site_fract_y
 _atom_site_fract_z
 _atom_site_occupancy
  C  C0  1  0.56094200  0.91274500  0.10591800  1
  C  C1  1  0.08725500  0.19317300  0.64819700  1
  C  C2  1  0.80682700  0.45502400  0.89408200  1
  C  C3  1  0.54497600  0.43905800  0.35180300  1
  Ni  Ni4  1  0.25000000  0.75000000  0.50000000  1
  Cu  Cu5  1  0.24765800  0.93858400  0.38754100  1
  Cu  Cu6  1  0.06141600  0.44895700  0.30907400  1
  Cu  Cu7  1  0.13988300  0.75234200  0.69092600  1
  Cu  Cu8  1  0.55104300  0.86011700  0.61245900  1
