# generated using pymatgen
data_CuNiC5
_symmetry_space_group_name_H-M   'P 1'
_cell_length_a   8.77629400
_cell_length_b   10.28340800
_cell_length_c   10.34009427
_cell_angle_alpha   60.48826606
_cell_angle_beta   90.00000000
_cell_angle_gamma   90.00000000
_symmetry_Int_Tables_number   1
_chemical_formula_structural   CuNiC5
_chemical_formula_sum   'Cu8 Ni8 C40'
_cell_volume   812.11806631
_cell_formula_units_Z   8
loop_
 _symmetry_equiv_pos_site_id
 _symmetry_equiv_pos_as_xyz
  1  'x, y, z'
loop_
 _atom_site_type_symbol
 _atom_site_label
 _atom_site_symmetry_multiplicity
 _atom_site_fract_x
 _atom_site_fract_y
 _atom_site_fract_z
 _atom_site_occupancy
  C  C0  1  0.42227600  0.01766200  0.99138700  1
  C  C1  1  0.92227600  0.98233800  0.00861300  1
  C  C2  1  0.39728600  0.41601200  0.98380600  1
  C  C3  1  0.43328100  0.00329800  0.54874900  1
  C  C4  1  0.93328100  0.99670200  0.45125100  1
  C  C5  1  0.43759600  0.57542700  0.44948300  1
  C  C6  1  0.89728600  0.58398800  0.01619400  1
  C  C7  1  0.93759600  0.42457300  0.55051700  1
  Ni  Ni8  1  0.24180500  0.23642200  0.67074400  1
  Ni  Ni9  1  0.27623600  0.66865900  0.09697200  1
  Ni  Ni10  1  0.74180500  0.76357800  0.32925600  1
  Ni  Ni11  1  0.77623600  0.33134100  0.90302800  1
  Ni  Ni12  1  0.74284200  0.91664200  0.76353800  1
  Ni  Ni13  1  0.68910700  0.34226800  0.33178200  1
  Ni  Ni14  1  0.24284200  0.08335800  0.23646200  1
  Ni  Ni15  1  0.18910700  0.65773200  0.66821800  1
  Cu  Cu16  1  0.60189600  0.24811000  0.66731100  1
  Cu  Cu17  1  0.07360300  0.32026400  0.91237900  1
  Cu  Cu18  1  0.10189600  0.75189000  0.33268900  1
  Cu  Cu19  1  0.68120000  0.66247800  0.67853600  1
  Cu  Cu20  1  0.11420300  0.90609900  0.76480700  1
  Cu  Cu21  1  0.57360300  0.67973600  0.08762100  1
  Cu  Cu22  1  0.18120000  0.33752200  0.32146400  1
  Cu  Cu23  1  0.61420300  0.09390100  0.23519300  1
  C  C24  1  0.75478700  0.95510300  0.28371600  1
  C  C25  1  0.64296300  0.23116600  0.04556000  1
  C  C26  1  0.70390000  0.64364000  0.52107200  1
  C  C27  1  0.11919600  0.62906300  0.52451200  1
  C  C28  1  0.14296300  0.76883400  0.95444000  1
  C  C29  1  0.88966300  0.30207500  0.38307300  1
  C  C30  1  0.92093400  0.71727600  0.28241000  1
  C  C31  1  0.71829300  0.84560100  0.63936900  1
  C  C32  1  0.11884800  0.82844500  0.64703400  1
  C  C33  1  0.43139100  0.01518700  0.25686900  1
  C  C34  1  0.93139100  0.98481300  0.74313100  1
  C  C35  1  0.65982600  0.49687700  0.15708400  1
  C  C36  1  0.10686000  0.94067400  0.28842200  1
  C  C37  1  0.21829300  0.15439900  0.36063100  1
  C  C38  1  0.10006000  0.26342600  0.77319800  1
  C  C39  1  0.61884800  0.17155500  0.35296600  1
  C  C40  1  0.27929900  0.47411000  0.16440300  1
  C  C41  1  0.60686000  0.05932600  0.71157800  1
  C  C42  1  0.61919600  0.37093700  0.47548800  1
  C  C43  1  0.38966300  0.69792500  0.61692700  1
  C  C44  1  0.25478700  0.04489700  0.71628400  1
  C  C45  1  0.98775600  0.38910200  0.24914100  1
  C  C46  1  0.60006000  0.73657400  0.22680200  1
  C  C47  1  0.15982600  0.50312300  0.84291600  1
  C  C48  1  0.74899200  0.28171600  0.76412500  1
  C  C49  1  0.72100400  0.78588200  0.95216300  1
  C  C50  1  0.20390000  0.35636000  0.47892800  1
  C  C51  1  0.42093400  0.28272400  0.71759000  1
  C  C52  1  0.48775600  0.61089800  0.75085900  1
  C  C53  1  0.24899200  0.71828400  0.23587500  1
  C  C54  1  0.22100400  0.21411800  0.04783700  1
  C  C55  1  0.77929900  0.52589000  0.83559700  1
