# generated using pymatgen
data_Cu3Ni2C
_symmetry_space_group_name_H-M   'P 1'
_cell_length_a   23.43563800
_cell_length_b   3.64153500
_cell_length_c   11.24397217
_cell_angle_alpha   80.46659504
_cell_angle_beta   90.00000000
_cell_angle_gamma   90.00000000
_symmetry_Int_Tables_number   1
_chemical_formula_structural   Cu3Ni2C
_chemical_formula_sum   'Cu36 Ni24 C12'
_cell_volume   946.32709924
_cell_formula_units_Z   12
loop_
 _symmetry_equiv_pos_site_id
 _symmetry_equiv_pos_as_xyz
  1  'x, y, z'
loop_
 _atom_site_type_symbol
 _atom_site_label
 _atom_site_symmetry_multiplicity
 _atom_site_fract_x
 _atom_site_fract_y
 _atom_site_fract_z
 _atom_site_occupancy
  C  C0  1  0.38684800  0.76834500  0.92519300  1
  C  C1  1  0.25894300  0.19619300  0.50957400  1
  C  C2  1  0.49085300  0.41246600  0.35110000  1
  C  C3  1  0.50914700  0.58753400  0.64890000  1
  C  C4  1  0.24105700  0.19619300  0.00957400  1
  C  C5  1  0.00914700  0.41246600  0.85110000  1
  C  C6  1  0.61315200  0.23165500  0.07480700  1
  C  C7  1  0.88684800  0.23165500  0.57480700  1
  C  C8  1  0.75894300  0.80380700  0.99042600  1
  C  C9  1  0.99085300  0.58753400  0.14890000  1
  C  C10  1  0.11315200  0.76834500  0.42519300  1
  C  C11  1  0.74105700  0.80380700  0.49042600  1
  Ni  Ni12  1  0.97152200  0.80088500  0.37769600  1
  Ni  Ni13  1  0.29499800  0.72468100  0.22507200  1
  Ni  Ni14  1  0.11715400  0.97641400  0.67638600  1
  Ni  Ni15  1  0.64667700  0.12698900  0.62653300  1
  Ni  Ni16  1  0.40611300  0.04192000  0.52712700  1
  Ni  Ni17  1  0.79499800  0.27531900  0.27492800  1
  Ni  Ni18  1  0.70781900  0.54829400  0.23351100  1
  Ni  Ni19  1  0.14667700  0.87301100  0.87346700  1
  Ni  Ni20  1  0.90611300  0.95808000  0.97287300  1
  Ni  Ni21  1  0.70500200  0.27531900  0.77492800  1
  Ni  Ni22  1  0.47152200  0.19911500  0.12230400  1
  Ni  Ni23  1  0.85332300  0.12698900  0.12653300  1
  Ni  Ni24  1  0.09388700  0.04192000  0.02712700  1
  Ni  Ni25  1  0.59388700  0.95808000  0.47287300  1
  Ni  Ni26  1  0.35332300  0.87301100  0.37346700  1
  Ni  Ni27  1  0.20500200  0.72468100  0.72507200  1
  Ni  Ni28  1  0.88284600  0.02358600  0.32361400  1
  Ni  Ni29  1  0.61715400  0.02358600  0.82361400  1
  Ni  Ni30  1  0.52847800  0.80088500  0.87769600  1
  Ni  Ni31  1  0.20781900  0.45170600  0.26648900  1
  Ni  Ni32  1  0.38284600  0.97641400  0.17638600  1
  Ni  Ni33  1  0.79218100  0.54829400  0.73351100  1
  Ni  Ni34  1  0.02847800  0.19911500  0.62230400  1
  Ni  Ni35  1  0.29218100  0.45170600  0.76648900  1
  Cu  Cu36  1  0.33250400  0.85677900  0.13717500  1
  Cu  Cu37  1  0.89623200  0.02307600  0.20594000  1
  Cu  Cu38  1  0.67214500  0.68156200  0.16472100  1
  Cu  Cu39  1  0.66749600  0.14322100  0.86282500  1
  Cu  Cu40  1  0.05180000  0.15533200  0.06745500  1
  Cu  Cu41  1  0.85872800  0.08454600  0.00887500  1
  Cu  Cu42  1  0.60376800  0.02307600  0.70594000  1
  Cu  Cu43  1  0.80251200  0.26782000  0.15573200  1
  Cu  Cu44  1  0.07863600  0.10364000  0.58838300  1
  Cu  Cu45  1  0.39623200  0.97692400  0.29406000  1
  Cu  Cu46  1  0.44820000  0.15533200  0.56745500  1
  Cu  Cu47  1  0.75459500  0.41646300  0.81426600  1
  Cu  Cu48  1  0.51777600  0.29153900  0.14776600  1
  Cu  Cu49  1  0.48222400  0.70846100  0.85223400  1
  Cu  Cu50  1  0.83250400  0.14322100  0.36282500  1
  Cu  Cu51  1  0.30251200  0.73218000  0.34426800  1
  Cu  Cu52  1  0.82785500  0.68156200  0.66472100  1
  Cu  Cu53  1  0.24540500  0.58353700  0.18573400  1
  Cu  Cu54  1  0.10376800  0.97692400  0.79406000  1
  Cu  Cu55  1  0.57863600  0.89636000  0.91161700  1
  Cu  Cu56  1  0.94820000  0.84466800  0.93254500  1
  Cu  Cu57  1  0.98222400  0.29153900  0.64776600  1
  Cu  Cu58  1  0.64127200  0.08454600  0.50887500  1
  Cu  Cu59  1  0.32785500  0.31843800  0.83527900  1
  Cu  Cu60  1  0.35872800  0.91545400  0.49112500  1
  Cu  Cu61  1  0.42136400  0.10364000  0.08838300  1
  Cu  Cu62  1  0.17214500  0.31843800  0.33527900  1
  Cu  Cu63  1  0.69748800  0.26782000  0.65573200  1
  Cu  Cu64  1  0.01777600  0.70846100  0.35223400  1
  Cu  Cu65  1  0.16749600  0.85677900  0.63717500  1
  Cu  Cu66  1  0.25459500  0.58353700  0.68573400  1
  Cu  Cu67  1  0.74540500  0.41646300  0.31426600  1
  Cu  Cu68  1  0.19748800  0.73218000  0.84426800  1
  Cu  Cu69  1  0.92136400  0.89636000  0.41161700  1
  Cu  Cu70  1  0.14127200  0.91545400  0.99112500  1
  Cu  Cu71  1  0.55180000  0.84466800  0.43254500  1
