# generated using pymatgen
data_CuNi3C23
_symmetry_space_group_name_H-M   'P 1'
_cell_length_a   10.68098582
_cell_length_b   10.68098582
_cell_length_c   8.47265800
_cell_angle_alpha   90.00000000
_cell_angle_beta   90.00000000
_cell_angle_gamma   119.99999885
_symmetry_Int_Tables_number   1
_chemical_formula_structural   CuNi3C23
_chemical_formula_sum   'Cu2 Ni6 C46'
_cell_volume   837.09161118
_cell_formula_units_Z   2
loop_
 _symmetry_equiv_pos_site_id
 _symmetry_equiv_pos_as_xyz
  1  'x, y, z'
loop_
 _atom_site_type_symbol
 _atom_site_label
 _atom_site_symmetry_multiplicity
 _atom_site_fract_x
 _atom_site_fract_y
 _atom_site_fract_z
 _atom_site_occupancy
  C  C0  1  0.86104200  0.58284500  0.75000000  1
  C  C1  1  0.41715500  0.27819600  0.75000000  1
  C  C2  1  0.58284500  0.72180400  0.25000000  1
  C  C3  1  0.72180400  0.13895800  0.75000000  1
  C  C4  1  0.13895800  0.41715500  0.25000000  1
  C  C5  1  0.27819600  0.86104200  0.25000000  1
  Ni  Ni6  1  0.43270000  0.27037600  0.25000000  1
  Ni  Ni7  1  0.72962400  0.16232400  0.25000000  1
  Ni  Ni8  1  0.27037600  0.83767600  0.75000000  1
  Ni  Ni9  1  0.83767600  0.56730000  0.25000000  1
  Ni  Ni10  1  0.16232400  0.43270000  0.75000000  1
  Ni  Ni11  1  0.56730000  0.72962400  0.75000000  1
  Cu  Cu12  1  0.00000000  0.00000000  0.25000000  1
  Cu  Cu13  1  0.00000000  0.00000000  0.75000000  1
  C  C14  1  0.05630300  0.58472700  0.75000000  1
  C  C15  1  0.79713400  0.76456600  0.25000000  1
  C  C16  1  0.94369700  0.41527300  0.25000000  1
  C  C17  1  0.36602200  0.55139100  0.25000000  1
  C  C18  1  0.81463100  0.36602200  0.75000000  1
  C  C19  1  0.58472700  0.52842400  0.25000000  1
  C  C20  1  0.14550700  0.42523900  0.48530100  1
  C  C21  1  0.23543400  0.03256700  0.25000000  1
  C  C22  1  0.05808300  0.77468400  0.25000000  1
  C  C23  1  0.71660100  0.94191700  0.25000000  1
  C  C24  1  0.20286600  0.23543400  0.75000000  1
  C  C25  1  0.55139100  0.18536900  0.75000000  1
  C  C26  1  0.94191700  0.22531600  0.75000000  1
  C  C27  1  0.14550700  0.42523900  0.01469900  1
  C  C28  1  0.96743300  0.20286600  0.25000000  1
  C  C29  1  0.42523900  0.27973100  0.98530100  1
  C  C30  1  0.77468400  0.71660100  0.75000000  1
  C  C31  1  0.85449300  0.57476100  0.98530100  1
  C  C32  1  0.85449300  0.57476100  0.51469900  1
  C  C33  1  0.57476100  0.72026900  0.48530100  1
  C  C34  1  0.76456600  0.96743300  0.75000000  1
  C  C35  1  0.27973100  0.85449300  0.01469900  1
  C  C36  1  0.41527300  0.47157600  0.75000000  1
  C  C37  1  0.22531600  0.28339900  0.25000000  1
  C  C38  1  0.47157600  0.05630300  0.25000000  1
  C  C39  1  0.52842400  0.94369700  0.75000000  1
  C  C40  1  0.72026900  0.14550700  0.51469900  1
  C  C41  1  0.27973100  0.85449300  0.48530100  1
  C  C42  1  0.42523900  0.27973100  0.51469900  1
  C  C43  1  0.44860900  0.81463100  0.25000000  1
  C  C44  1  0.28339900  0.05808300  0.75000000  1
  C  C45  1  0.00000000  0.00000000  0.50000000  1
  C  C46  1  0.57476100  0.72026900  0.01469900  1
  C  C47  1  0.03256700  0.79713400  0.75000000  1
  C  C48  1  0.18536900  0.63397800  0.25000000  1
  C  C49  1  0.63397800  0.44860900  0.75000000  1
  C  C50  1  0.66666700  0.33333300  0.25000000  1
  C  C51  1  0.00000000  0.00000000  0.00000000  1
  C  C52  1  0.33333300  0.66666700  0.75000000  1
  C  C53  1  0.72026900  0.14550700  0.98530100  1
