# generated using pymatgen
data_Cu5NiC3
_symmetry_space_group_name_H-M   'P 1'
_cell_length_a   8.10431700
_cell_length_b   9.84199307
_cell_length_c   9.93477644
_cell_angle_alpha   107.52487343
_cell_angle_beta   97.36418032
_cell_angle_gamma   105.22936225
_symmetry_Int_Tables_number   1
_chemical_formula_structural   Cu5NiC3
_chemical_formula_sum   'Cu10 Ni2 C6'
_cell_volume   710.36637066
_cell_formula_units_Z   2
loop_
 _symmetry_equiv_pos_site_id
 _symmetry_equiv_pos_as_xyz
  1  'x, y, z'
loop_
 _atom_site_type_symbol
 _atom_site_label
 _atom_site_symmetry_multiplicity
 _atom_site_fract_x
 _atom_site_fract_y
 _atom_site_fract_z
 _atom_site_occupancy
  C  C0  1  0.62194600  0.86113300  0.81579100  1
  C  C1  1  0.02751200  0.72933700  0.92171100  1
  C  C2  1  0.10618300  0.03927700  0.77397600  1
  C  C3  1  0.97248800  0.27066300  0.07828900  1
  C  C4  1  0.89381700  0.96072300  0.22602400  1
  C  C5  1  0.37805400  0.13886700  0.18420900  1
  Ni  Ni6  1  0.08706600  0.03082000  0.04155500  1
  Ni  Ni7  1  0.91293400  0.96918000  0.95844500  1
  Cu  Cu8  1  0.18175400  0.72777900  0.63914700  1
  Cu  Cu9  1  0.90999200  0.62856100  0.18198400  1
  Cu  Cu10  1  0.09000800  0.37143900  0.81801600  1
  Cu  Cu11  1  0.74048800  0.91341100  0.53371200  1
  Cu  Cu12  1  0.25951200  0.08658900  0.46628800  1
  Cu  Cu13  1  0.64687100  0.53400600  0.72320000  1
  Cu  Cu14  1  0.45501300  0.80967100  0.09214900  1
  Cu  Cu15  1  0.81824600  0.27222100  0.36085300  1
  Cu  Cu16  1  0.35312900  0.46599400  0.27680000  1
  Cu  Cu17  1  0.54498700  0.19032900  0.90785100  1
