# generated using pymatgen
data_Cu2NiC5
_symmetry_space_group_name_H-M   'P 1'
_cell_length_a   5.17893400
_cell_length_b   8.99587200
_cell_length_c   16.97968850
_cell_angle_alpha   70.80553545
_cell_angle_beta   90.00000000
_cell_angle_gamma   90.00000000
_symmetry_Int_Tables_number   1
_chemical_formula_structural   Cu2NiC5
_chemical_formula_sum   'Cu16 Ni8 C40'
_cell_volume   747.09027503
_cell_formula_units_Z   8
loop_
 _symmetry_equiv_pos_site_id
 _symmetry_equiv_pos_as_xyz
  1  'x, y, z'
loop_
 _atom_site_type_symbol
 _atom_site_label
 _atom_site_symmetry_multiplicity
 _atom_site_fract_x
 _atom_site_fract_y
 _atom_site_fract_z
 _atom_site_occupancy
  C  C0  1  0.75674100  0.24090000  0.01276000  1
  C  C1  1  0.25674100  0.75910000  0.48724000  1
  C  C2  1  0.24325900  0.75910000  0.98724000  1
  C  C3  1  0.74325900  0.24090000  0.51276000  1
  Ni  Ni4  1  0.25871400  0.00417500  0.10533400  1
  Ni  Ni5  1  0.75871400  0.99582500  0.39466600  1
  Ni  Ni6  1  0.74128600  0.99582500  0.89466600  1
  Ni  Ni7  1  0.24128600  0.00417500  0.60533400  1
  Ni  Ni8  1  0.73842300  0.53686600  0.09617900  1
  Ni  Ni9  1  0.23842300  0.46313400  0.40382100  1
  Ni  Ni10  1  0.26157700  0.46313400  0.90382100  1
  Ni  Ni11  1  0.76157700  0.53686600  0.59617900  1
  Cu  Cu12  1  0.77311700  0.58603800  0.72228800  1
  Cu  Cu13  1  0.27311700  0.41396200  0.77771200  1
  Cu  Cu14  1  0.22688300  0.41396200  0.27771200  1
  Cu  Cu15  1  0.72688300  0.58603800  0.22228800  1
  Cu  Cu16  1  0.07701100  0.84649600  0.73090600  1
  Cu  Cu17  1  0.57701100  0.15350400  0.76909400  1
  Cu  Cu18  1  0.92298900  0.15350400  0.26909400  1
  Cu  Cu19  1  0.42298900  0.84649600  0.23090600  1
  Cu  Cu20  1  0.62255800  0.79869700  0.75318800  1
  Cu  Cu21  1  0.12255800  0.20130300  0.74681200  1
  Cu  Cu22  1  0.37744200  0.20130300  0.24681200  1
  Cu  Cu23  1  0.87744200  0.79869700  0.25318800  1
  Cu  Cu24  1  0.30944300  0.30126200  0.67654300  1
  Cu  Cu25  1  0.80944300  0.69873800  0.82345700  1
  Cu  Cu26  1  0.69055700  0.69873800  0.32345700  1
  Cu  Cu27  1  0.19055700  0.30126200  0.17654300  1
  C  C28  1  0.36617500  0.87348700  0.05923200  1
  C  C29  1  0.86617500  0.12651300  0.44076800  1
  C  C30  1  0.63382500  0.12651300  0.94076800  1
  C  C31  1  0.13382500  0.87348700  0.55923200  1
  C  C32  1  0.94324200  0.05737900  0.08637600  1
  C  C33  1  0.44324200  0.94262100  0.41362400  1
  C  C34  1  0.05675800  0.94262100  0.91362400  1
  C  C35  1  0.55675800  0.05737900  0.58637600  1
  C  C36  1  0.45495100  0.16527300  0.08637300  1
  C  C37  1  0.95495100  0.83472700  0.41362700  1
  C  C38  1  0.54504900  0.83472700  0.91362700  1
  C  C39  1  0.04504900  0.16527300  0.58637300  1
  C  C40  1  0.25450400  0.90353700  0.21315400  1
  C  C41  1  0.75450400  0.09646300  0.28684600  1
  C  C42  1  0.74549600  0.09646300  0.78684600  1
  C  C43  1  0.24549600  0.90353700  0.71315400  1
  C  C44  1  0.93280200  0.69699600  0.05446100  1
  C  C45  1  0.43280200  0.30300400  0.44553900  1
  C  C46  1  0.06719800  0.30300400  0.94553900  1
  C  C47  1  0.56719800  0.69699600  0.55446100  1
  C  C48  1  0.42780400  0.57260900  0.06050300  1
  C  C49  1  0.92780400  0.42739100  0.43949700  1
  C  C50  1  0.57219600  0.42739100  0.93949700  1
  C  C51  1  0.07219600  0.57260900  0.56050300  1
  C  C52  1  0.85999100  0.36888500  0.08394300  1
  C  C53  1  0.35999100  0.63111500  0.41605700  1
  C  C54  1  0.14000900  0.63111500  0.91605700  1
  C  C55  1  0.64000900  0.36888500  0.58394300  1
  C  C56  1  0.73886500  0.49039800  0.20410900  1
  C  C57  1  0.23886500  0.50960200  0.29589100  1
  C  C58  1  0.26113500  0.50960200  0.79589100  1
  C  C59  1  0.76113500  0.49039800  0.70410900  1
  C  C60  1  0.21274200  0.25904400  0.23730600  1
  C  C61  1  0.71274200  0.74095600  0.26269400  1
  C  C62  1  0.78725800  0.74095600  0.76269400  1
  C  C63  1  0.28725800  0.25904400  0.73730600  1
