# generated using pymatgen
data_Cu(NiC4)2
_symmetry_space_group_name_H-M   'P 1'
_cell_length_a   7.24026100
_cell_length_b   13.82861100
_cell_length_c   21.34111100
_cell_angle_alpha   90.00000000
_cell_angle_beta   90.00000000
_cell_angle_gamma   90.00000000
_symmetry_Int_Tables_number   1
_chemical_formula_structural   Cu(NiC4)2
_chemical_formula_sum   'Cu12 Ni24 C96'
_cell_volume   2136.73078342
_cell_formula_units_Z   12
loop_
 _symmetry_equiv_pos_site_id
 _symmetry_equiv_pos_as_xyz
  1  'x, y, z'
loop_
 _atom_site_type_symbol
 _atom_site_label
 _atom_site_symmetry_multiplicity
 _atom_site_fract_x
 _atom_site_fract_y
 _atom_site_fract_z
 _atom_site_occupancy
  C  C0  1  0.22496400  0.84150300  0.83136700  1
  C  C1  1  0.22496400  0.65849700  0.33136700  1
  C  C2  1  0.21295100  0.86645400  0.16360900  1
  C  C3  1  0.71295100  0.36645400  0.33639100  1
  C  C4  1  0.22798400  0.85492700  0.50778800  1
  C  C5  1  0.72798400  0.35492700  0.99221200  1
  C  C6  1  0.72496400  0.34150300  0.66863300  1
  C  C7  1  0.72798400  0.14507300  0.49221200  1
  C  C8  1  0.21295100  0.63354600  0.66360900  1
  C  C9  1  0.22798400  0.64507300  0.00778800  1
  C  C10  1  0.71295100  0.13354600  0.83639100  1
  C  C11  1  0.72496400  0.15849700  0.16863300  1
  Ni  Ni12  1  0.70130800  0.63969400  0.73059500  1
  Ni  Ni13  1  0.22288600  0.38097400  0.92819300  1
  Ni  Ni14  1  0.22288600  0.11902600  0.42819300  1
  Ni  Ni15  1  0.72160800  0.85020200  0.42674300  1
  Ni  Ni16  1  0.75344200  0.65283700  0.58422800  1
  Ni  Ni17  1  0.75344200  0.84716300  0.08422800  1
  Ni  Ni18  1  0.70061000  0.86202700  0.75122600  1
  Ni  Ni19  1  0.74987500  0.62770000  0.40128500  1
  Ni  Ni20  1  0.22160800  0.14979800  0.57325700  1
  Ni  Ni21  1  0.22160800  0.35020200  0.07325700  1
  Ni  Ni22  1  0.25344200  0.15283700  0.91577200  1
  Ni  Ni23  1  0.25344200  0.34716300  0.41577200  1
  Ni  Ni24  1  0.72288600  0.61902600  0.07180700  1
  Ni  Ni25  1  0.20061000  0.36202700  0.74877400  1
  Ni  Ni26  1  0.20061000  0.13797300  0.24877400  1
  Ni  Ni27  1  0.74987500  0.87230000  0.90128500  1
  Ni  Ni28  1  0.24987500  0.12770000  0.09871500  1
  Ni  Ni29  1  0.20130800  0.13969400  0.76940500  1
  Ni  Ni30  1  0.70130800  0.86030600  0.23059500  1
  Ni  Ni31  1  0.24987500  0.37230000  0.59871500  1
  Ni  Ni32  1  0.72160800  0.64979800  0.92674300  1
  Ni  Ni33  1  0.70061000  0.63797300  0.25122600  1
  Ni  Ni34  1  0.20130800  0.36030600  0.26940500  1
  Ni  Ni35  1  0.72288600  0.88097400  0.57180700  1
  Cu  Cu36  1  0.99688300  0.49601200  0.49963500  1
  Cu  Cu37  1  0.46449700  0.01607500  0.66879600  1
  Cu  Cu38  1  0.99688300  0.00398800  0.99963500  1
  Cu  Cu39  1  0.46407400  0.98664400  0.33308800  1
  Cu  Cu40  1  0.96449700  0.51607500  0.83120400  1
  Cu  Cu41  1  0.96407400  0.48664400  0.16691200  1
  Cu  Cu42  1  0.96449700  0.98392500  0.33120400  1
  Cu  Cu43  1  0.96407400  0.01335600  0.66691200  1
  Cu  Cu44  1  0.49688300  0.50398800  0.50036500  1
  Cu  Cu45  1  0.46449700  0.48392500  0.16879600  1
  Cu  Cu46  1  0.49688300  0.99601200  0.00036500  1
  Cu  Cu47  1  0.46407400  0.51335600  0.83308800  1
  C  C48  1  0.89895300  0.95300400  0.58347400  1
  C  C49  1  0.78236400  0.73025700  0.08599300  1
  C  C50  1  0.05790000  0.42659500  0.58017400  1
  C  C51  1  0.74446400  0.05511100  0.01029300  1
  C  C52  1  0.02575200  0.42869600  0.25077400  1
  C  C53  1  0.71612600  0.07544500  0.67278100  1
  C  C54  1  0.94002700  0.61311300  0.55063200  1
  C  C55  1  0.74446400  0.44488900  0.51029300  1
  C  C56  1  0.26222800  0.23450000  0.06635400  1
  C  C57  1  0.04055800  0.40708000  0.88733200  1
  C  C58  1  0.28236400  0.23025700  0.41400700  1
  C  C59  1  0.75475700  0.88545700  0.15748700  1
  C  C60  1  0.04736800  0.13326900  0.62063600  1
  C  C61  1  0.88409800  0.87594400  0.27408000  1
  C  C62  1  0.63186400  0.75263200  0.73286500  1
  C  C63  1  0.54055800  0.90708000  0.61266800  1
  C  C64  1  0.55884500  0.62331800  0.55064900  1
  C  C65  1  0.13186400  0.25263200  0.76713500  1
  C  C66  1  0.93169200  0.56393500  0.41932800  1
  C  C67  1  0.54055800  0.59292000  0.11266800  1
  C  C68  1  0.25475700  0.38545700  0.34251300  1
  C  C69  1  0.39895300  0.04699600  0.41652600  1
  C  C70  1  0.21481700  0.95527100  0.66261600  1
  C  C71  1  0.21481700  0.54472900  0.16261600  1
  C  C72  1  0.26222800  0.26550000  0.56635400  1
  C  C73  1  0.43169200  0.06393500  0.08067200  1
  C  C74  1  0.91537600  0.59777900  0.90673800  1
  C  C75  1  0.38150000  0.10821100  0.28967300  1
  C  C76  1  0.76222800  0.76550000  0.93364600  1
  C  C77  1  0.16510400  0.38985600  0.00282700  1
  C  C78  1  0.38409800  0.12405600  0.72592000  1
  C  C79  1  0.76222800  0.73450000  0.43364600  1
  C  C80  1  0.28236400  0.26974300  0.91400700  1
  C  C81  1  0.39895300  0.45300400  0.91652600  1
  C  C82  1  0.88150000  0.89178900  0.71032700  1
  C  C83  1  0.66510400  0.88985600  0.49717300  1
  C  C84  1  0.54736800  0.86673100  0.37936400  1
  C  C85  1  0.75886400  0.85913900  0.82534900  1
  C  C86  1  0.55884500  0.87668200  0.05064900  1
  C  C87  1  0.44002700  0.11311300  0.94936800  1
  C  C88  1  0.24446400  0.94488900  0.98970700  1
  C  C89  1  0.38150000  0.39178900  0.78967300  1
  C  C90  1  0.52575200  0.57130400  0.74922600  1
  C  C91  1  0.13186400  0.24736800  0.26713500  1
  C  C92  1  0.55790000  0.57340500  0.41982600  1
  C  C93  1  0.21612600  0.57544500  0.82721900  1
  C  C94  1  0.05884500  0.12331800  0.94935100  1
  C  C95  1  0.24446400  0.55511100  0.48970700  1
  C  C96  1  0.02396100  0.43543500  0.75514600  1
  C  C97  1  0.71481700  0.45527100  0.83738400  1
  C  C98  1  0.04055800  0.09292000  0.38733200  1
  C  C99  1  0.41537600  0.40222100  0.09326200  1
  C  C100  1  0.04736800  0.36673100  0.12063600  1
  C  C101  1  0.88150000  0.60821100  0.21032700  1
  C  C102  1  0.43169200  0.43606500  0.58067200  1
  C  C103  1  0.02396100  0.06456500  0.25514600  1
  C  C104  1  0.25886400  0.35913900  0.67465100  1
  C  C105  1  0.52396100  0.93543500  0.74485400  1
  C  C106  1  0.25886400  0.14086100  0.17465100  1
  C  C107  1  0.75475700  0.61454300  0.65748700  1
  C  C108  1  0.88409800  0.62405600  0.77408000  1
  C  C109  1  0.21612600  0.92455500  0.32721900  1
  C  C110  1  0.05790000  0.07340500  0.08017400  1
  C  C111  1  0.71481700  0.04472900  0.33738400  1
  C  C112  1  0.63186400  0.74736800  0.23286500  1
  C  C113  1  0.93169200  0.93606500  0.91932800  1
  C  C114  1  0.05884500  0.37668200  0.44935100  1
  C  C115  1  0.78236400  0.76974300  0.58599300  1
  C  C116  1  0.89895300  0.54699600  0.08347400  1
  C  C117  1  0.71612600  0.42455500  0.17278100  1
  C  C118  1  0.54736800  0.63326900  0.87936400  1
  C  C119  1  0.02575200  0.07130400  0.75077400  1
  C  C120  1  0.25475700  0.11454300  0.84251300  1
  C  C121  1  0.66510400  0.61014400  0.99717300  1
  C  C122  1  0.52396100  0.56456500  0.24485400  1
  C  C123  1  0.94002700  0.88688700  0.05063200  1
  C  C124  1  0.52575200  0.92869600  0.24922600  1
  C  C125  1  0.38409800  0.37594400  0.22592000  1
  C  C126  1  0.44002700  0.38688700  0.44936800  1
  C  C127  1  0.91537600  0.90222100  0.40673800  1
  C  C128  1  0.75886400  0.64086100  0.32534900  1
  C  C129  1  0.16510400  0.11014400  0.50282700  1
  C  C130  1  0.55790000  0.92659500  0.91982600  1
  C  C131  1  0.41537600  0.09777900  0.59326200  1
