# generated using pymatgen
data_CuNiC3
_symmetry_space_group_name_H-M   'P 1'
_cell_length_a   6.97422700
_cell_length_b   5.82076600
_cell_length_c   5.93660770
_cell_angle_alpha   89.92791468
_cell_angle_beta   90.00000000
_cell_angle_gamma   90.00000000
_symmetry_Int_Tables_number   1
_chemical_formula_structural   CuNiC3
_chemical_formula_sum   'Cu4 Ni4 C12'
_cell_volume   240.99843740
_cell_formula_units_Z   4
loop_
 _symmetry_equiv_pos_site_id
 _symmetry_equiv_pos_as_xyz
  1  'x, y, z'
loop_
 _atom_site_type_symbol
 _atom_site_label
 _atom_site_symmetry_multiplicity
 _atom_site_fract_x
 _atom_site_fract_y
 _atom_site_fract_z
 _atom_site_occupancy
  Ni  Ni0  1  0.10567000  0.63245000  0.40945800  1
  Ni  Ni1  1  0.89433000  0.36755000  0.59054200  1
  Ni  Ni2  1  0.39433000  0.63245000  0.90945800  1
  Ni  Ni3  1  0.60567000  0.36755000  0.09054200  1
  Cu  Cu4  1  0.62674800  0.02247000  0.75746700  1
  Cu  Cu5  1  0.37325200  0.97753000  0.24253300  1
  Cu  Cu6  1  0.87325200  0.02247000  0.25746700  1
  Cu  Cu7  1  0.12674800  0.97753000  0.74253300  1
  C  C8  1  0.35958400  0.37585700  0.57828900  1
  C  C9  1  0.14041600  0.37585700  0.07828900  1
  C  C10  1  0.64041600  0.62414300  0.42171100  1
  C  C11  1  0.85958400  0.62414300  0.92171100  1
  C  C12  1  0.13768100  0.25946600  0.40223800  1
  C  C13  1  0.63768100  0.74053400  0.09776200  1
  C  C14  1  0.11148400  0.72182400  0.06930600  1
  C  C15  1  0.86231900  0.74053400  0.59776200  1
  C  C16  1  0.38851600  0.72182400  0.56930600  1
  C  C17  1  0.88851600  0.27817600  0.93069400  1
  C  C18  1  0.61148400  0.27817600  0.43069400  1
  C  C19  1  0.36231900  0.25946600  0.90223800  1
