# generated using pymatgen
data_Cu4NiC3
_symmetry_space_group_name_H-M   'P 1'
_cell_length_a   8.71854700
_cell_length_b   9.14427000
_cell_length_c   9.82544900
_cell_angle_alpha   90.00000000
_cell_angle_beta   90.00000000
_cell_angle_gamma   90.00000000
_symmetry_Int_Tables_number   1
_chemical_formula_structural   Cu4NiC3
_chemical_formula_sum   'Cu32 Ni8 C24'
_cell_volume   783.33144331
_cell_formula_units_Z   8
loop_
 _symmetry_equiv_pos_site_id
 _symmetry_equiv_pos_as_xyz
  1  'x, y, z'
loop_
 _atom_site_type_symbol
 _atom_site_label
 _atom_site_symmetry_multiplicity
 _atom_site_fract_x
 _atom_site_fract_y
 _atom_site_fract_z
 _atom_site_occupancy
  C  C0  1  0.61744000  0.96047400  0.85436700  1
  C  C1  1  0.20289800  0.24091800  0.38466500  1
  C  C2  1  0.38256000  0.53952600  0.35436700  1
  C  C3  1  0.29710200  0.74091800  0.61533500  1
  C  C4  1  0.29710200  0.24091800  0.88466500  1
  C  C5  1  0.54726300  0.87685600  0.39335300  1
  C  C6  1  0.88256000  0.46047400  0.14563300  1
  C  C7  1  0.45273700  0.12314400  0.60664700  1
  C  C8  1  0.95273700  0.37685600  0.60664700  1
  C  C9  1  0.20289800  0.74091800  0.11533500  1
  C  C10  1  0.70289800  0.75908200  0.11533500  1
  C  C11  1  0.11744000  0.03952600  0.64563300  1
  C  C12  1  0.61744000  0.46047400  0.64563300  1
  C  C13  1  0.79710200  0.25908200  0.88466500  1
  C  C14  1  0.95273700  0.87685600  0.89335300  1
  C  C15  1  0.88256000  0.96047400  0.35436700  1
  C  C16  1  0.11744000  0.53952600  0.85436700  1
  C  C17  1  0.54726300  0.37685600  0.10664700  1
  C  C18  1  0.04726300  0.62314400  0.39335300  1
  C  C19  1  0.79710200  0.75908200  0.61533500  1
  C  C20  1  0.70289800  0.25908200  0.38466500  1
  C  C21  1  0.04726300  0.12314400  0.10664700  1
  C  C22  1  0.45273700  0.62314400  0.89335300  1
  C  C23  1  0.38256000  0.03952600  0.14563300  1
  Ni  Ni24  1  0.71169600  0.09823500  0.11948300  1
  Ni  Ni25  1  0.78830400  0.09823500  0.61948300  1
  Ni  Ni26  1  0.71169600  0.59823500  0.38051700  1
  Ni  Ni27  1  0.21169600  0.90176500  0.38051700  1
  Ni  Ni28  1  0.78830400  0.59823500  0.88051700  1
  Ni  Ni29  1  0.28830400  0.40176500  0.61948300  1
  Ni  Ni30  1  0.28830400  0.90176500  0.88051700  1
  Ni  Ni31  1  0.21169600  0.40176500  0.11948300  1
  Cu  Cu32  1  0.60554000  0.14382700  0.02183600  1
  Cu  Cu33  1  0.20094900  0.28112300  0.66143100  1
  Cu  Cu34  1  0.89446000  0.64382700  0.97816400  1
  Cu  Cu35  1  0.19068000  0.50717100  0.56393300  1
  Cu  Cu36  1  0.20094900  0.78112300  0.83856900  1
  Cu  Cu37  1  0.30932000  0.00717100  0.43606700  1
  Cu  Cu38  1  0.63616800  0.54006700  0.26722900  1
  Cu  Cu39  1  0.10554000  0.85617300  0.47816400  1
  Cu  Cu40  1  0.70094900  0.21887700  0.66143100  1
  Cu  Cu41  1  0.39446000  0.35617300  0.52183600  1
  Cu  Cu42  1  0.13616800  0.95993300  0.26722900  1
  Cu  Cu43  1  0.79905100  0.71887700  0.33856900  1
  Cu  Cu44  1  0.29905100  0.78112300  0.33856900  1
  Cu  Cu45  1  0.13616800  0.45993300  0.23277100  1
  Cu  Cu46  1  0.39446000  0.85617300  0.97816400  1
  Cu  Cu47  1  0.80932000  0.99282900  0.06393300  1
  Cu  Cu48  1  0.19068000  0.00717100  0.93606700  1
  Cu  Cu49  1  0.36383200  0.95993300  0.76722900  1
  Cu  Cu50  1  0.36383200  0.45993300  0.73277100  1
  Cu  Cu51  1  0.86383200  0.54006700  0.76722900  1
  Cu  Cu52  1  0.79905100  0.21887700  0.16143100  1
  Cu  Cu53  1  0.60554000  0.64382700  0.47816400  1
  Cu  Cu54  1  0.10554000  0.35617300  0.02183600  1
  Cu  Cu55  1  0.80932000  0.49282900  0.43606700  1
  Cu  Cu56  1  0.29905100  0.28112300  0.16143100  1
  Cu  Cu57  1  0.89446000  0.14382700  0.52183600  1
  Cu  Cu58  1  0.86383200  0.04006700  0.73277100  1
  Cu  Cu59  1  0.70094900  0.71887700  0.83856900  1
  Cu  Cu60  1  0.63616800  0.04006700  0.23277100  1
  Cu  Cu61  1  0.30932000  0.50717100  0.06393300  1
  Cu  Cu62  1  0.69068000  0.99282900  0.56393300  1
  Cu  Cu63  1  0.69068000  0.49282900  0.93606700  1
