# generated using pymatgen
data_Cu4NiC4
_symmetry_space_group_name_H-M   'P 1'
_cell_length_a   10.56218600
_cell_length_b   14.18828600
_cell_length_c   19.01542000
_cell_angle_alpha   90.00000000
_cell_angle_beta   90.00000000
_cell_angle_gamma   90.00000000
_symmetry_Int_Tables_number   1
_chemical_formula_structural   Cu4NiC4
_chemical_formula_sum   'Cu32 Ni8 C32'
_cell_volume   2849.63782996
_cell_formula_units_Z   8
loop_
 _symmetry_equiv_pos_site_id
 _symmetry_equiv_pos_as_xyz
  1  'x, y, z'
loop_
 _atom_site_type_symbol
 _atom_site_label
 _atom_site_symmetry_multiplicity
 _atom_site_fract_x
 _atom_site_fract_y
 _atom_site_fract_z
 _atom_site_occupancy
  Ni  Ni0  1  0.47830200  0.79714700  0.17494700  1
  Ni  Ni1  1  0.99391200  0.98486800  0.00186300  1
  Ni  Ni2  1  0.49391200  0.48486800  0.49813700  1
  Ni  Ni3  1  0.97830200  0.29714700  0.32505300  1
  Ni  Ni4  1  0.02169800  0.79714700  0.67494700  1
  Ni  Ni5  1  0.50608800  0.98486800  0.50186300  1
  Ni  Ni6  1  0.52169800  0.29714700  0.82505300  1
  Ni  Ni7  1  0.00608800  0.48486800  0.99813700  1
  Cu  Cu8  1  0.04198700  0.37012800  0.56779900  1
  Cu  Cu9  1  0.03763100  0.72709500  0.20307400  1
  Cu  Cu10  1  0.61248300  0.08612100  0.17905700  1
  Cu  Cu11  1  0.70938600  0.24773100  0.08378100  1
  Cu  Cu12  1  0.29061400  0.74773100  0.91621900  1
  Cu  Cu13  1  0.45801300  0.37012800  0.06779900  1
  Cu  Cu14  1  0.46236900  0.72709500  0.70307400  1
  Cu  Cu15  1  0.88751700  0.08612100  0.67905700  1
  Cu  Cu16  1  0.95801300  0.87012800  0.43220100  1
  Cu  Cu17  1  0.66149000  0.85410900  0.78407200  1
  Cu  Cu18  1  0.53763100  0.22709500  0.29692600  1
  Cu  Cu19  1  0.63657200  0.38810600  0.20134900  1
  Cu  Cu20  1  0.36342800  0.88810600  0.79865100  1
  Cu  Cu21  1  0.13657200  0.88810600  0.29865100  1
  Cu  Cu22  1  0.11248300  0.58612100  0.32094300  1
  Cu  Cu23  1  0.94120000  0.65277100  0.44841800  1
  Cu  Cu24  1  0.44120000  0.15277100  0.05158200  1
  Cu  Cu25  1  0.79061400  0.24773100  0.58378100  1
  Cu  Cu26  1  0.17760400  0.13768500  0.69979900  1
  Cu  Cu27  1  0.16149000  0.35410900  0.71592800  1
  Cu  Cu28  1  0.32239600  0.13768500  0.19979900  1
  Cu  Cu29  1  0.54198700  0.87012800  0.93220100  1
  Cu  Cu30  1  0.96236900  0.22709500  0.79692600  1
  Cu  Cu31  1  0.86342800  0.38810600  0.70134900  1
  Cu  Cu32  1  0.55880000  0.65277100  0.94841800  1
  Cu  Cu33  1  0.33851000  0.35410900  0.21592800  1
  Cu  Cu34  1  0.83851000  0.85410900  0.28407200  1
  Cu  Cu35  1  0.20938600  0.74773100  0.41621900  1
  Cu  Cu36  1  0.38751700  0.58612100  0.82094300  1
  Cu  Cu37  1  0.05880000  0.15277100  0.55158200  1
  Cu  Cu38  1  0.82239600  0.63768500  0.30020100  1
  Cu  Cu39  1  0.67760400  0.63768500  0.80020100  1
  C  C40  1  0.83102200  0.81768400  0.61090600  1
  C  C41  1  0.68777700  0.37610600  0.88415800  1
  C  C42  1  0.81413800  0.05129700  0.94483600  1
  C  C43  1  0.68586200  0.05129700  0.44483600  1
  C  C44  1  0.66897800  0.81768400  0.11090600  1
  C  C45  1  0.93974900  0.13439500  0.31370000  1
  C  C46  1  0.99683200  0.04096100  0.11933200  1
  C  C47  1  0.49840300  0.36488800  0.71142800  1
  C  C48  1  0.51989600  0.81881900  0.49901700  1
  C  C49  1  0.33102200  0.31768400  0.88909400  1
  C  C50  1  0.06025100  0.63439500  0.68630000  1
  C  C51  1  0.43974900  0.63439500  0.18630000  1
  C  C52  1  0.48010400  0.31881900  0.50098300  1
  C  C53  1  0.18777700  0.87610600  0.61584200  1
  C  C54  1  0.49683200  0.54096100  0.38066800  1
  C  C55  1  0.18586200  0.55129700  0.05516400  1
  C  C56  1  0.81222300  0.37610600  0.38415800  1
  C  C57  1  0.98010400  0.81881900  0.99901700  1
  C  C58  1  0.67936500  0.53511900  0.55842400  1
  C  C59  1  0.99840300  0.86488800  0.78857200  1
  C  C60  1  0.82063500  0.53511900  0.05842400  1
  C  C61  1  0.00316800  0.54096100  0.88066800  1
  C  C62  1  0.16897800  0.31768400  0.38909400  1
  C  C63  1  0.56025100  0.13439500  0.81370000  1
  C  C64  1  0.50316800  0.04096100  0.61933200  1
  C  C65  1  0.32063500  0.03511900  0.44157600  1
  C  C66  1  0.01989600  0.31881900  0.00098300  1
  C  C67  1  0.50159700  0.86488800  0.28857200  1
  C  C68  1  0.17936500  0.03511900  0.94157600  1
  C  C69  1  0.31413800  0.55129700  0.55516400  1
  C  C70  1  0.31222300  0.87610600  0.11584200  1
  C  C71  1  0.00159700  0.36488800  0.21142800  1
