# generated using pymatgen
data_Cu3Ni2C3
_symmetry_space_group_name_H-M   'P 1'
_cell_length_a   9.28985456
_cell_length_b   9.28985456
_cell_length_c   9.28985456
_cell_angle_alpha   105.63688098
_cell_angle_beta   105.63688098
_cell_angle_gamma   117.44652200
_symmetry_Int_Tables_number   1
_chemical_formula_structural   Cu3Ni2C3
_chemical_formula_sum   'Cu12 Ni8 C12'
_cell_volume   608.08562711
_cell_formula_units_Z   4
loop_
 _symmetry_equiv_pos_site_id
 _symmetry_equiv_pos_as_xyz
  1  'x, y, z'
loop_
 _atom_site_type_symbol
 _atom_site_label
 _atom_site_symmetry_multiplicity
 _atom_site_fract_x
 _atom_site_fract_y
 _atom_site_fract_z
 _atom_site_occupancy
  C  C0  1  0.69178800  0.02330500  0.16908800  1
  C  C1  1  0.14578300  0.47730000  0.16908800  1
  C  C2  1  0.85421700  0.52270000  0.83091200  1
  C  C3  1  0.52270000  0.69178800  0.66848300  1
  C  C4  1  0.02330500  0.85421700  0.33151700  1
  C  C5  1  0.30821200  0.97669500  0.83091200  1
  C  C6  1  0.47730000  0.30821200  0.33151700  1
  C  C7  1  0.97669500  0.14578300  0.66848300  1
  C  C8  1  0.31712700  0.59699000  0.91411700  1
  C  C9  1  0.68287300  0.40301000  0.08588300  1
  C  C10  1  0.59699000  0.68287300  0.27986300  1
  C  C11  1  0.40301000  0.31712700  0.72013700  1
  Ni  Ni12  1  0.79756800  0.79756800  0.00000000  1
  Ni  Ni13  1  0.09579100  0.25195900  0.34774900  1
  Ni  Ni14  1  0.25195900  0.90420900  0.15616800  1
  Ni  Ni15  1  0.90420900  0.74804100  0.65225100  1
  Ni  Ni16  1  0.75000000  0.25000000  0.50000000  1
  Ni  Ni17  1  0.74804100  0.09579100  0.84383200  1
  Ni  Ni18  1  0.25000000  0.75000000  0.50000000  1
  Ni  Ni19  1  0.20243200  0.20243200  0.00000000  1
  Cu  Cu20  1  0.55076300  0.33473800  0.88550200  1
  Cu  Cu21  1  0.48328400  0.59899100  0.37527700  1
  Cu  Cu22  1  0.44923700  0.66526200  0.11449800  1
  Cu  Cu23  1  0.10800700  0.48328400  0.88429300  1
  Cu  Cu24  1  0.59899100  0.22371400  0.11570700  1
  Cu  Cu25  1  0.89199300  0.51671600  0.11570700  1
  Cu  Cu26  1  0.22371400  0.10800700  0.62472300  1
  Cu  Cu27  1  0.33473800  0.44923700  0.78397500  1
  Cu  Cu28  1  0.40100900  0.77628600  0.88429300  1
  Cu  Cu29  1  0.77628600  0.89199300  0.37527700  1
  Cu  Cu30  1  0.51671600  0.40100900  0.62472300  1
  Cu  Cu31  1  0.66526200  0.55076300  0.21602500  1
