# generated using pymatgen
data_Cu6Ni2C
_symmetry_space_group_name_H-M   'P 1'
_cell_length_a   7.63775220
_cell_length_b   7.63775220
_cell_length_c   7.63775281
_cell_angle_alpha   96.55859279
_cell_angle_beta   96.55859279
_cell_angle_gamma   96.55859069
_symmetry_Int_Tables_number   1
_chemical_formula_structural   Cu6Ni2C
_chemical_formula_sum   'Cu18 Ni6 C3'
_cell_volume   436.06644097
_cell_formula_units_Z   3
loop_
 _symmetry_equiv_pos_site_id
 _symmetry_equiv_pos_as_xyz
  1  'x, y, z'
loop_
 _atom_site_type_symbol
 _atom_site_label
 _atom_site_symmetry_multiplicity
 _atom_site_fract_x
 _atom_site_fract_y
 _atom_site_fract_z
 _atom_site_occupancy
  C  C0  1  0.32160800  0.32160800  0.32160800  1
  C  C1  1  0.67839200  0.67839200  0.67839200  1
  C  C2  1  0.00000000  0.00000000  0.00000000  1
  Ni  Ni3  1  0.83262000  0.64156100  0.20464800  1
  Ni  Ni4  1  0.64156100  0.20464800  0.83262000  1
  Ni  Ni5  1  0.16738000  0.35843900  0.79535200  1
  Ni  Ni6  1  0.20464800  0.83262000  0.64156100  1
  Ni  Ni7  1  0.35843900  0.79535200  0.16738000  1
  Ni  Ni8  1  0.79535200  0.16738000  0.35843900  1
  Cu  Cu9  1  0.81862600  0.82389800  0.05222600  1
  Cu  Cu10  1  0.58780800  0.12237800  0.20679500  1
  Cu  Cu11  1  0.20679500  0.58780800  0.12237800  1
  Cu  Cu12  1  0.17610200  0.94777400  0.18137400  1
  Cu  Cu13  1  0.59104100  0.59114600  0.18311300  1
  Cu  Cu14  1  0.18311300  0.59104100  0.59114600  1
  Cu  Cu15  1  0.79320500  0.41219200  0.87762200  1
  Cu  Cu16  1  0.41219200  0.87762200  0.79320500  1
  Cu  Cu17  1  0.12237800  0.20679500  0.58780800  1
  Cu  Cu18  1  0.94777400  0.18137400  0.17610200  1
  Cu  Cu19  1  0.05222600  0.81862600  0.82389800  1
  Cu  Cu20  1  0.18137400  0.17610200  0.94777400  1
  Cu  Cu21  1  0.82389800  0.05222600  0.81862600  1
  Cu  Cu22  1  0.59114600  0.18311300  0.59104100  1
  Cu  Cu23  1  0.87762200  0.79320500  0.41219200  1
  Cu  Cu24  1  0.40895900  0.40885400  0.81688700  1
  Cu  Cu25  1  0.40885400  0.81688700  0.40895900  1
  Cu  Cu26  1  0.81688700  0.40895900  0.40885400  1
