# generated using pymatgen
data_Cu2NiC5
_symmetry_space_group_name_H-M   'P 1'
_cell_length_a   8.18338449
_cell_length_b   8.18338449
_cell_length_c   10.76352500
_cell_angle_alpha   90.00000000
_cell_angle_beta   90.00000000
_cell_angle_gamma   120.00000397
_symmetry_Int_Tables_number   1
_chemical_formula_structural   Cu2NiC5
_chemical_formula_sum   'Cu12 Ni6 C30'
_cell_volume   624.23922051
_cell_formula_units_Z   6
loop_
 _symmetry_equiv_pos_site_id
 _symmetry_equiv_pos_as_xyz
  1  'x, y, z'
loop_
 _atom_site_type_symbol
 _atom_site_label
 _atom_site_symmetry_multiplicity
 _atom_site_fract_x
 _atom_site_fract_y
 _atom_site_fract_z
 _atom_site_occupancy
  Ni  Ni0  1  0.43023200  0.00000000  0.72642400  1
  Ni  Ni1  1  0.56976800  0.00000000  0.22642400  1
  Ni  Ni2  1  0.43023200  0.43023200  0.22642400  1
  Ni  Ni3  1  0.00000000  0.56976800  0.22642400  1
  Ni  Ni4  1  0.00000000  0.43023200  0.72642400  1
  Ni  Ni5  1  0.56976800  0.56976800  0.72642400  1
  Cu  Cu6  1  0.22529400  0.00000000  0.07930400  1
  Cu  Cu7  1  0.73281100  0.00000000  0.94078900  1
  Cu  Cu8  1  0.00000000  0.22529400  0.07930400  1
  Cu  Cu9  1  0.00000000  0.73281100  0.94078900  1
  Cu  Cu10  1  0.77470600  0.00000000  0.57930400  1
  Cu  Cu11  1  0.73281100  0.73281100  0.44078900  1
  Cu  Cu12  1  0.00000000  0.77470600  0.57930400  1
  Cu  Cu13  1  0.22529400  0.22529400  0.57930400  1
  Cu  Cu14  1  0.00000000  0.26718900  0.44078900  1
  Cu  Cu15  1  0.26718900  0.00000000  0.44078900  1
  Cu  Cu16  1  0.26718900  0.26718900  0.94078900  1
  Cu  Cu17  1  0.77470600  0.77470600  0.07930400  1
  C  C18  1  0.66666700  0.33333300  0.98235900  1
  C  C19  1  0.33333300  0.66666700  0.98235900  1
  C  C20  1  0.00000000  0.00000000  0.31171800  1
  C  C21  1  0.66666700  0.33333300  0.48235900  1
  C  C22  1  0.00000000  0.00000000  0.81171800  1
  C  C23  1  0.33333300  0.66666700  0.48235900  1
  C  C24  1  0.19278400  0.00000000  0.26509400  1
  C  C25  1  0.33333300  0.66666700  0.32956000  1
  C  C26  1  0.19278400  0.19278400  0.76509400  1
  C  C27  1  0.80721600  0.00000000  0.76509400  1
  C  C28  1  0.77533000  0.22159000  0.03336800  1
  C  C29  1  0.22159000  0.44626000  0.53336800  1
  C  C30  1  0.44626000  0.22159000  0.53336800  1
  C  C31  1  0.66666700  0.33333300  0.82956000  1
  C  C32  1  0.00000000  0.00000000  0.96929400  1
  C  C33  1  0.77533000  0.55374000  0.53336800  1
  C  C34  1  0.22467000  0.77841000  0.53336800  1
  C  C35  1  0.44626000  0.22467000  0.03336800  1
  C  C36  1  0.77841000  0.55374000  0.03336800  1
  C  C37  1  0.00000000  0.80721600  0.76509400  1
  C  C38  1  0.22159000  0.77533000  0.03336800  1
  C  C39  1  0.22467000  0.44626000  0.03336800  1
  C  C40  1  0.00000000  0.19278400  0.26509400  1
  C  C41  1  0.55374000  0.77533000  0.53336800  1
  C  C42  1  0.80721600  0.80721600  0.26509400  1
  C  C43  1  0.00000000  0.00000000  0.46929400  1
  C  C44  1  0.77841000  0.22467000  0.53336800  1
  C  C45  1  0.33333300  0.66666700  0.82956000  1
  C  C46  1  0.66666700  0.33333300  0.32956000  1
  C  C47  1  0.55374000  0.77841000  0.03336800  1
