# generated using pymatgen
data_Cu2Ni4C15
_symmetry_space_group_name_H-M   'P 1'
_cell_length_a   8.87383145
_cell_length_b   8.87383145
_cell_length_c   8.87383209
_cell_angle_alpha   63.26192974
_cell_angle_beta   63.26192974
_cell_angle_gamma   63.26193560
_symmetry_Int_Tables_number   1
_chemical_formula_structural   Cu2Ni4C15
_chemical_formula_sum   'Cu4 Ni8 C30'
_cell_volume   529.81243788
_cell_formula_units_Z   2
loop_
 _symmetry_equiv_pos_site_id
 _symmetry_equiv_pos_as_xyz
  1  'x, y, z'
loop_
 _atom_site_type_symbol
 _atom_site_label
 _atom_site_symmetry_multiplicity
 _atom_site_fract_x
 _atom_site_fract_y
 _atom_site_fract_z
 _atom_site_occupancy
  Ni  Ni0  1  0.38624300  0.11375700  0.75000000  1
  Ni  Ni1  1  0.88624300  0.25000000  0.61375700  1
  Ni  Ni2  1  0.11375700  0.75000000  0.38624300  1
  Ni  Ni3  1  0.75000000  0.38624300  0.11375700  1
  Ni  Ni4  1  0.25000000  0.61375700  0.88624300  1
  Ni  Ni5  1  0.00000000  0.00000000  0.00000000  1
  Ni  Ni6  1  0.61375700  0.88624300  0.25000000  1
  Ni  Ni7  1  0.50000000  0.50000000  0.50000000  1
  Cu  Cu8  1  0.65592100  0.65592100  0.65592100  1
  Cu  Cu9  1  0.15592100  0.15592100  0.15592100  1
  Cu  Cu10  1  0.84407900  0.84407900  0.84407900  1
  Cu  Cu11  1  0.34407900  0.34407900  0.34407900  1
  C  C12  1  0.05812500  0.44187500  0.75000000  1
  C  C13  1  0.55812500  0.25000000  0.94187500  1
  C  C14  1  0.94187500  0.55812500  0.25000000  1
  C  C15  1  0.75000000  0.05812500  0.44187500  1
  C  C16  1  0.25000000  0.94187500  0.55812500  1
  C  C17  1  0.44187500  0.75000000  0.05812500  1
  C  C18  1  0.58992100  0.23104600  0.42354100  1
  C  C19  1  0.42354100  0.58992100  0.23104600  1
  C  C20  1  0.29624200  0.10386300  0.52936000  1
  C  C21  1  0.26895400  0.91007900  0.07645900  1
  C  C22  1  0.39613700  0.20375800  0.97064000  1
  C  C23  1  0.07645900  0.26895400  0.91007900  1
  C  C24  1  0.02936000  0.60386300  0.79624200  1
  C  C25  1  0.92354100  0.73104600  0.08992100  1
  C  C26  1  0.97064000  0.39613700  0.20375800  1
  C  C27  1  0.73104600  0.08992100  0.92354100  1
  C  C28  1  0.57645900  0.41007900  0.76895400  1
  C  C29  1  0.20375800  0.97064000  0.39613700  1
  C  C30  1  0.10386300  0.52936000  0.29624200  1
  C  C31  1  0.23104600  0.42354100  0.58992100  1
  C  C32  1  0.89613700  0.47064000  0.70375800  1
  C  C33  1  0.47064000  0.70375800  0.89613700  1
  C  C34  1  0.60386300  0.79624200  0.02936000  1
  C  C35  1  0.08992100  0.92354100  0.73104600  1
  C  C36  1  0.41007900  0.76895400  0.57645900  1
  C  C37  1  0.91007900  0.07645900  0.26895400  1
  C  C38  1  0.76895400  0.57645900  0.41007900  1
  C  C39  1  0.70375800  0.89613700  0.47064000  1
  C  C40  1  0.79624200  0.02936000  0.60386300  1
  C  C41  1  0.52936000  0.29624200  0.10386300  1
