# generated using pymatgen
data_Cu(NiC3)2
_symmetry_space_group_name_H-M   'P 1'
_cell_length_a   7.58869399
_cell_length_b   7.58608754
_cell_length_c   30.39835104
_cell_angle_alpha   90.00000000
_cell_angle_beta   90.00000000
_cell_angle_gamma   90.00000000
_symmetry_Int_Tables_number   1
_chemical_formula_structural   Cu(NiC3)2
_chemical_formula_sum   'Cu16 Ni32 C96'
_cell_volume   1749.98737829
_cell_formula_units_Z   16
loop_
 _symmetry_equiv_pos_site_id
 _symmetry_equiv_pos_as_xyz
  1  'x, y, z'
loop_
 _atom_site_type_symbol
 _atom_site_label
 _atom_site_symmetry_multiplicity
 _atom_site_fract_x
 _atom_site_fract_y
 _atom_site_fract_z
 _atom_site_occupancy
  Cu  Cu0  1  0.00000000  0.50000000  0.00031865  1
  Cu  Cu1  1  0.00000000  0.00000000  0.12527269  1
  Cu  Cu2  1  0.00000000  0.50000000  0.24970049  1
  Cu  Cu3  1  0.00000000  0.50000000  0.37538780  1
  Cu  Cu4  1  0.00000000  0.00000000  0.37477591  1
  Cu  Cu5  1  0.00000000  0.00000000  0.62560323  1
  Cu  Cu6  1  0.00000000  0.50000000  0.62458959  1
  Cu  Cu7  1  0.00000000  0.50000000  0.87599327  1
  Cu  Cu8  1  0.00000000  0.00000000  0.87498849  1
  Cu  Cu9  1  0.50000000  0.00000000  0.24881665  1
  Cu  Cu10  1  0.50000000  0.00000000  0.75032512  1
  Cu  Cu11  1  0.50000000  0.00000000  0.12488228  1
  Cu  Cu12  1  0.50000000  0.00000000  0.62521216  1
  Cu  Cu13  1  0.50000000  0.50000000  0.49992624  1
  Cu  Cu14  1  0.50000000  0.00000000  0.37628397  1
  Cu  Cu15  1  0.50000000  0.00000000  0.87362866  1
  C  C16  1  0.00000000  0.68876206  0.04600796  1
  C  C17  1  0.00000000  0.30745863  0.29481994  1
  C  C18  1  0.00000000  0.69115032  0.20560688  1
  C  C19  1  0.00000000  0.69254137  0.29481994  1
  C  C20  1  0.00000000  0.29642742  0.44959376  1
  C  C21  1  0.00000000  0.29543063  0.55001383  1
  C  C22  1  0.00000000  0.70357258  0.44959376  1
  C  C23  1  0.00000000  0.70456937  0.55001383  1
  C  C24  1  0.00000000  0.28615464  0.79676210  1
  C  C25  1  0.00000000  0.71416599  0.70174177  1
  C  C26  1  0.00000000  0.71384536  0.79676210  1
  C  C27  1  0.00000000  0.68786962  0.95402538  1
  C  C28  1  0.17849806  0.00000000  0.07726096  1
  C  C29  1  0.17832767  0.00000000  0.17411926  1
  C  C30  1  0.18151088  0.00000000  0.32798045  1
  C  C31  1  0.18607678  0.00000000  0.42134289  1
  C  C32  1  0.18593963  0.00000000  0.57811341  1
  C  C33  1  0.18877799  0.00000000  0.67018491  1
  C  C34  1  0.18729036  0.00000000  0.82979071  1
  C  C35  1  0.18017958  0.00000000  0.92213750  1
  C  C36  1  0.20295502  0.70091809  0.12535603  1
  C  C37  1  0.20295502  0.29908191  0.12535603  1
  C  C38  1  0.18922370  0.68331726  0.37457195  1
  C  C39  1  0.18922370  0.31668274  0.37457195  1
  C  C40  1  0.19127397  0.31921053  0.62458803  1
  C  C41  1  0.19127397  0.68078947  0.62458803  1
  C  C42  1  0.18524587  0.31440806  0.87490913  1
  C  C43  1  0.18524587  0.68559194  0.87490913  1
  C  C44  1  0.29616182  0.19509237  0.99984309  1
  C  C45  1  0.31229518  0.18230393  0.25090593  1
  C  C46  1  0.29616182  0.80490763  0.99984309  1
  C  C47  1  0.29354601  0.19344782  0.49980011  1
  C  C48  1  0.31229518  0.81769607  0.25090593  1
  C  C49  1  0.31128309  0.18128610  0.74993566  1
  C  C50  1  0.29354601  0.80655218  0.49980011  1
  C  C51  1  0.31128309  0.81871390  0.74993566  1
  C  C52  1  0.30907536  0.50000000  0.05341694  1
  C  C53  1  0.30673687  0.50000000  0.19918771  1
  C  C54  1  0.30593937  0.50000000  0.30144446  1
  C  C55  1  0.32109072  0.50000000  0.45170236  1
  C  C56  1  0.32115265  0.50000000  0.54748362  1
  C  C57  1  0.30446361  0.50000000  0.80158621  1
  C  C58  1  0.30383688  0.50000000  0.69856160  1
  C  C59  1  0.30905388  0.50000000  0.94671142  1
  C  C60  1  0.50000000  0.18492118  0.07865968  1
  C  C61  1  0.50000000  0.18435077  0.17211898  1
  C  C62  1  0.50000000  0.18852610  0.33027454  1
  C  C63  1  0.50000000  0.18864837  0.57940070  1
  C  C64  1  0.50000000  0.81507882  0.07865968  1
  C  C65  1  0.50000000  0.18911699  0.42053257  1
  C  C66  1  0.50000000  0.81147390  0.33027454  1
  C  C67  1  0.50000000  0.18876412  0.67054082  1
  C  C68  1  0.50000000  0.18891443  0.82893515  1
  C  C69  1  0.50000000  0.81088301  0.42053257  1
  C  C70  1  0.50000000  0.81135163  0.57940070  1
  C  C71  1  0.50000000  0.18738886  0.91997049  1
  C  C72  1  0.50000000  0.81564923  0.17211898  1
  C  C73  1  0.50000000  0.81108557  0.82893515  1
  C  C74  1  0.50000000  0.81261114  0.91997049  1
  C  C75  1  0.50000000  0.81123588  0.67054082  1
  C  C76  1  0.69092464  0.50000000  0.05341694  1
  C  C77  1  0.69326313  0.50000000  0.19918771  1
  C  C78  1  0.69406063  0.50000000  0.30144446  1
  C  C79  1  0.67890928  0.50000000  0.45170236  1
  C  C80  1  0.67884735  0.50000000  0.54748362  1
  C  C81  1  0.69616312  0.50000000  0.69856160  1
  C  C82  1  0.69553639  0.50000000  0.80158621  1
  C  C83  1  0.69094612  0.50000000  0.94671142  1
  C  C84  1  0.70383818  0.19509237  0.99984309  1
  C  C85  1  0.70383818  0.80490763  0.99984309  1
  C  C86  1  0.68770482  0.18230393  0.25090593  1
  C  C87  1  0.70645399  0.19344782  0.49980011  1
  C  C88  1  0.68770482  0.81769607  0.25090593  1
  C  C89  1  0.70645399  0.80655218  0.49980011  1
  C  C90  1  0.68871691  0.18128610  0.74993566  1
  C  C91  1  0.68871691  0.81871390  0.74993566  1
  C  C92  1  0.79704498  0.29908191  0.12535603  1
  C  C93  1  0.79704498  0.70091809  0.12535603  1
  C  C94  1  0.81077630  0.31668274  0.37457195  1
  C  C95  1  0.80872603  0.31921053  0.62458803  1
  C  C96  1  0.81077630  0.68331726  0.37457195  1
  C  C97  1  0.80872603  0.68078947  0.62458803  1
  C  C98  1  0.81475413  0.31440806  0.87490913  1
  C  C99  1  0.81475413  0.68559194  0.87490913  1
  C  C100  1  0.82150194  0.00000000  0.07726096  1
  C  C101  1  0.81848912  0.00000000  0.32798045  1
  C  C102  1  0.81406037  0.00000000  0.57811341  1
  C  C103  1  0.82167233  0.00000000  0.17411926  1
  C  C104  1  0.81392322  0.00000000  0.42134289  1
  C  C105  1  0.81122201  0.00000000  0.67018491  1
  C  C106  1  0.81270964  0.00000000  0.82979071  1
  C  C107  1  0.81982042  0.00000000  0.92213750  1
  C  C108  1  0.00000000  0.31123794  0.04600796  1
  C  C109  1  0.00000000  0.30884968  0.20560688  1
  C  C110  1  0.00000000  0.28583401  0.70174177  1
  C  C111  1  0.00000000  0.31213038  0.95402538  1
  Ni  Ni112  1  0.24833301  0.74286093  0.18533453  1
  Ni  Ni113  1  0.24774099  0.75057406  0.43925527  1
  Ni  Ni114  1  0.24815242  0.74488271  0.68862636  1
  Ni  Ni115  1  0.25519423  0.74852628  0.93969362  1
  Ni  Ni116  1  0.25224221  0.74678849  0.06164094  1
  Ni  Ni117  1  0.24833301  0.25713907  0.18533453  1
  Ni  Ni118  1  0.25294854  0.74666850  0.31146527  1
  Ni  Ni119  1  0.24774099  0.24942594  0.43925527  1
  Ni  Ni120  1  0.24776528  0.75034229  0.56149029  1
  Ni  Ni121  1  0.24566435  0.74350416  0.81239302  1
  Ni  Ni122  1  0.24815242  0.25511729  0.68862636  1
  Ni  Ni123  1  0.25519423  0.25147372  0.93969362  1
  Ni  Ni124  1  0.25224221  0.25321151  0.06164094  1
  Ni  Ni125  1  0.25294854  0.25333150  0.31146527  1
  Ni  Ni126  1  0.24776528  0.24965771  0.56149029  1
  Ni  Ni127  1  0.24566435  0.25649584  0.81239302  1
  Ni  Ni128  1  0.75166699  0.74286093  0.18533453  1
  Ni  Ni129  1  0.75225901  0.75057406  0.43925527  1
  Ni  Ni130  1  0.75184758  0.74488271  0.68862636  1
  Ni  Ni131  1  0.74480577  0.74852628  0.93969362  1
  Ni  Ni132  1  0.75166699  0.25713907  0.18533453  1
  Ni  Ni133  1  0.74775779  0.74678849  0.06164094  1
  Ni  Ni134  1  0.74705146  0.74666850  0.31146527  1
  Ni  Ni135  1  0.75223472  0.75034229  0.56149029  1
  Ni  Ni136  1  0.75433565  0.74350416  0.81239302  1
  Ni  Ni137  1  0.75225901  0.24942594  0.43925527  1
  Ni  Ni138  1  0.75184758  0.25511729  0.68862636  1
  Ni  Ni139  1  0.74480577  0.25147372  0.93969362  1
  Ni  Ni140  1  0.74775779  0.25321151  0.06164094  1
  Ni  Ni141  1  0.74705146  0.25333150  0.31146527  1
  Ni  Ni142  1  0.75223472  0.24965771  0.56149029  1
  Ni  Ni143  1  0.75433565  0.25649584  0.81239302  1
