# generated using pymatgen
data_Cu5Ni4C
_symmetry_space_group_name_H-M   'P 1'
_cell_length_a   6.50688200
_cell_length_b   11.07943165
_cell_length_c   11.49968444
_cell_angle_alpha   114.11241492
_cell_angle_beta   89.19050100
_cell_angle_gamma   97.56432820
_symmetry_Int_Tables_number   1
_chemical_formula_structural   Cu5Ni4C
_chemical_formula_sum   'Cu20 Ni16 C4'
_cell_volume   749.39848374
_cell_formula_units_Z   4
loop_
 _symmetry_equiv_pos_site_id
 _symmetry_equiv_pos_as_xyz
  1  'x, y, z'
loop_
 _atom_site_type_symbol
 _atom_site_label
 _atom_site_symmetry_multiplicity
 _atom_site_fract_x
 _atom_site_fract_y
 _atom_site_fract_z
 _atom_site_occupancy
  Ni  Ni0  1  0.91713100  0.23347400  0.05285000  1
  Ni  Ni1  1  0.08286900  0.76652600  0.94715000  1
  Ni  Ni2  1  0.31668300  0.17142300  0.08111000  1
  Ni  Ni3  1  0.68331700  0.82857700  0.91889000  1
  Ni  Ni4  1  0.99677500  0.16420800  0.25129400  1
  Ni  Ni5  1  0.00322500  0.83579200  0.74870600  1
  Ni  Ni6  1  0.98546200  0.43950100  0.30524400  1
  Ni  Ni7  1  0.01453800  0.56049900  0.69475600  1
  Ni  Ni8  1  0.21246400  0.13455200  0.62305700  1
  Ni  Ni9  1  0.78753600  0.86544800  0.37694300  1
  Ni  Ni10  1  0.52654500  0.22468000  0.49320500  1
  Ni  Ni11  1  0.47345500  0.77532000  0.50679500  1
  Ni  Ni12  1  0.61918400  0.18009100  0.71320700  1
  Ni  Ni13  1  0.38081600  0.81990900  0.28679300  1
  Ni  Ni14  1  0.34808200  0.37098600  0.84667000  1
  Ni  Ni15  1  0.65191800  0.62901400  0.15333000  1
  Cu  Cu16  1  0.14906600  0.20187200  0.99958600  1
  Cu  Cu17  1  0.85093400  0.79812800  0.00041400  1
  Cu  Cu18  1  0.23155400  0.14115300  0.19823000  1
  Cu  Cu19  1  0.76844600  0.85884700  0.80177000  1
  Cu  Cu20  1  0.01855800  0.33102200  0.35483300  1
  Cu  Cu21  1  0.98144200  0.66897800  0.64516700  1
  Cu  Cu22  1  0.95939600  0.39893200  0.15868500  1
  Cu  Cu23  1  0.04060400  0.60106800  0.84131500  1
  Cu  Cu24  1  0.83531000  0.14976500  0.13688700  1
  Cu  Cu25  1  0.16469000  0.85023500  0.86311300  1
  Cu  Cu26  1  0.29145100  0.16479600  0.50015000  1
  Cu  Cu27  1  0.70854900  0.83520400  0.49985000  1
  Cu  Cu28  1  0.68858800  0.21889800  0.59390500  1
  Cu  Cu29  1  0.31141200  0.78110200  0.40609500  1
  Cu  Cu30  1  0.57022200  0.32906000  0.83446700  1
  Cu  Cu31  1  0.42977800  0.67094000  0.16553300  1
  Cu  Cu32  1  0.17849600  0.28910500  0.73881300  1
  Cu  Cu33  1  0.82150400  0.71089500  0.26118700  1
  Cu  Cu34  1  0.39439300  0.08508100  0.68320400  1
  Cu  Cu35  1  0.60560700  0.91491900  0.31679600  1
  C  C36  1  0.45947800  0.32820400  0.15702300  1
  C  C37  1  0.54052200  0.67179600  0.84297700  1
  C  C38  1  0.51439800  0.39182700  0.55255500  1
  C  C39  1  0.48560200  0.60817300  0.44744500  1
