# generated using pymatgen
data_Cu(Ni4C)2
_symmetry_space_group_name_H-M   'P 1'
_cell_length_a   8.42120000
_cell_length_b   9.30231400
_cell_length_c   17.23894500
_cell_angle_alpha   90.00000000
_cell_angle_beta   90.00000000
_cell_angle_gamma   90.00000000
_symmetry_Int_Tables_number   1
_chemical_formula_structural   Cu(Ni4C)2
_chemical_formula_sum   'Cu4 Ni32 C8'
_cell_volume   1350.44114320
_cell_formula_units_Z   4
loop_
 _symmetry_equiv_pos_site_id
 _symmetry_equiv_pos_as_xyz
  1  'x, y, z'
loop_
 _atom_site_type_symbol
 _atom_site_label
 _atom_site_symmetry_multiplicity
 _atom_site_fract_x
 _atom_site_fract_y
 _atom_site_fract_z
 _atom_site_occupancy
  C  C0  1  0.75000000  0.07804100  0.85300600  1
  C  C1  1  0.25000000  0.92195900  0.14699400  1
  C  C2  1  0.25000000  0.57804100  0.64699400  1
  C  C3  1  0.75000000  0.42195900  0.35300600  1
  C  C4  1  0.75000000  0.71886600  0.92384400  1
  C  C5  1  0.25000000  0.21886600  0.57615600  1
  C  C6  1  0.25000000  0.28113400  0.07615600  1
  C  C7  1  0.75000000  0.78113400  0.42384400  1
  Ni  Ni8  1  0.47828000  0.05012300  0.86154900  1
  Ni  Ni9  1  0.25000000  0.43316200  0.76118800  1
  Ni  Ni10  1  0.25000000  0.71745100  0.22114400  1
  Ni  Ni11  1  0.47828000  0.44987700  0.36154900  1
  Ni  Ni12  1  0.25000000  0.06683800  0.26118800  1
  Ni  Ni13  1  0.25000000  0.71522600  0.53225000  1
  Ni  Ni14  1  0.75000000  0.93316200  0.73881200  1
  Ni  Ni15  1  0.25000000  0.78477400  0.03225000  1
  Ni  Ni16  1  0.56158900  0.63547400  0.87153700  1
  Ni  Ni17  1  0.02172000  0.05012300  0.86154900  1
  Ni  Ni18  1  0.06158900  0.13547400  0.62846300  1
  Ni  Ni19  1  0.75000000  0.28477400  0.46775000  1
  Ni  Ni20  1  0.75000000  0.56683800  0.23881200  1
  Ni  Ni21  1  0.75000000  0.85843800  0.53105500  1
  Ni  Ni22  1  0.06158900  0.36452600  0.12846300  1
  Ni  Ni23  1  0.75000000  0.21745100  0.27885600  1
  Ni  Ni24  1  0.25000000  0.35843800  0.96894500  1
  Ni  Ni25  1  0.02172000  0.44987700  0.36154900  1
  Ni  Ni26  1  0.97828000  0.94987700  0.13845100  1
  Ni  Ni27  1  0.75000000  0.64156200  0.03105500  1
  Ni  Ni28  1  0.52172000  0.55012300  0.63845100  1
  Ni  Ni29  1  0.93841100  0.86452600  0.37153700  1
  Ni  Ni30  1  0.93841100  0.63547400  0.87153700  1
  Ni  Ni31  1  0.43841100  0.36452600  0.12846300  1
  Ni  Ni32  1  0.97828000  0.55012300  0.63845100  1
  Ni  Ni33  1  0.56158900  0.86452600  0.37153700  1
  Ni  Ni34  1  0.75000000  0.28254900  0.77885600  1
  Ni  Ni35  1  0.75000000  0.21522600  0.96775000  1
  Ni  Ni36  1  0.52172000  0.94987700  0.13845100  1
  Ni  Ni37  1  0.25000000  0.14156200  0.46894500  1
  Ni  Ni38  1  0.25000000  0.78254900  0.72114400  1
  Ni  Ni39  1  0.43841100  0.13547400  0.62846300  1
  Cu  Cu40  1  0.75000000  0.87932500  0.92555600  1
  Cu  Cu41  1  0.25000000  0.12067500  0.07444400  1
  Cu  Cu42  1  0.25000000  0.37932500  0.57444400  1
  Cu  Cu43  1  0.75000000  0.62067500  0.42555600  1
