# generated using pymatgen
data_Cu6NiC4
_symmetry_space_group_name_H-M   'P 1'
_cell_length_a   14.98411000
_cell_length_b   5.42640200
_cell_length_c   9.46809386
_cell_angle_alpha   81.44559738
_cell_angle_beta   90.00000000
_cell_angle_gamma   90.00000000
_symmetry_Int_Tables_number   1
_chemical_formula_structural   Cu6NiC4
_chemical_formula_sum   'Cu24 Ni4 C16'
_cell_volume   761.28434754
_cell_formula_units_Z   4
loop_
 _symmetry_equiv_pos_site_id
 _symmetry_equiv_pos_as_xyz
  1  'x, y, z'
loop_
 _atom_site_type_symbol
 _atom_site_label
 _atom_site_symmetry_multiplicity
 _atom_site_fract_x
 _atom_site_fract_y
 _atom_site_fract_z
 _atom_site_occupancy
  C  C0  1  0.58752300  0.25266100  0.98140600  1
  C  C1  1  0.41247700  0.74733900  0.01859400  1
  C  C2  1  0.08752300  0.74733900  0.51859400  1
  C  C3  1  0.91247700  0.25266100  0.48140600  1
  C  C4  1  0.23152700  0.73519300  0.80393000  1
  C  C5  1  0.73152700  0.26480700  0.69607000  1
  C  C6  1  0.76847300  0.26480700  0.19607000  1
  C  C7  1  0.26847300  0.73519300  0.30393000  1
  C  C8  1  0.90380000  0.76911200  0.21927200  1
  C  C9  1  0.64416900  0.74777300  0.22577700  1
  C  C10  1  0.59620000  0.76911200  0.71927200  1
  C  C11  1  0.09620000  0.23088800  0.78072800  1
  C  C12  1  0.40380000  0.23088800  0.28072800  1
  C  C13  1  0.35583100  0.25222700  0.77422300  1
  C  C14  1  0.85583100  0.74777300  0.72577700  1
  C  C15  1  0.14416900  0.25222700  0.27422300  1
  Ni  Ni16  1  0.90014600  0.25695100  0.95406800  1
  Ni  Ni17  1  0.59985400  0.25695100  0.45406800  1
  Ni  Ni18  1  0.40014600  0.74304900  0.54593200  1
  Ni  Ni19  1  0.09985400  0.74304900  0.04593200  1
  Cu  Cu20  1  0.68474400  0.52316800  0.79505100  1
  Cu  Cu21  1  0.47861700  0.37673100  0.12936800  1
  Cu  Cu22  1  0.85524300  0.03260400  0.30982000  1
  Cu  Cu23  1  0.97861700  0.62326900  0.37063200  1
  Cu  Cu24  1  0.14475700  0.96739600  0.69018000  1
  Cu  Cu25  1  0.35524300  0.96739600  0.19018000  1
  Cu  Cu26  1  0.95988400  0.88035500  0.62504900  1
  Cu  Cu27  1  0.70932900  0.01045100  0.10904400  1
  Cu  Cu28  1  0.29067100  0.98954900  0.89095600  1
  Cu  Cu29  1  0.02138300  0.37673100  0.62936800  1
  Cu  Cu30  1  0.18474400  0.47683200  0.70494900  1
  Cu  Cu31  1  0.79067100  0.01045100  0.60904400  1
  Cu  Cu32  1  0.17152000  0.50582100  0.38832200  1
  Cu  Cu33  1  0.81525600  0.52316800  0.29505100  1
  Cu  Cu34  1  0.31525600  0.47683200  0.20494900  1
  Cu  Cu35  1  0.54011600  0.88035500  0.12504900  1
  Cu  Cu36  1  0.20932900  0.98954900  0.39095600  1
  Cu  Cu37  1  0.45988400  0.11964500  0.87495100  1
  Cu  Cu38  1  0.52138300  0.62326900  0.87063200  1
  Cu  Cu39  1  0.67152000  0.49417900  0.11167800  1
  Cu  Cu40  1  0.64475700  0.03260400  0.80982000  1
  Cu  Cu41  1  0.32848000  0.50582100  0.88832200  1
  Cu  Cu42  1  0.82848000  0.49417900  0.61167800  1
  Cu  Cu43  1  0.04011600  0.11964500  0.37495100  1
