# generated using pymatgen
data_Cu2Ni4C21
_symmetry_space_group_name_H-M   'P 1'
_cell_length_a   12.25963200
_cell_length_b   8.94329700
_cell_length_c   16.63346608
_cell_angle_alpha   57.63509831
_cell_angle_beta   90.00000000
_cell_angle_gamma   90.00000000
_symmetry_Int_Tables_number   1
_chemical_formula_structural   Cu2Ni4C21
_chemical_formula_sum   'Cu8 Ni16 C84'
_cell_volume   1540.41492652
_cell_formula_units_Z   4
loop_
 _symmetry_equiv_pos_site_id
 _symmetry_equiv_pos_as_xyz
  1  'x, y, z'
loop_
 _atom_site_type_symbol
 _atom_site_label
 _atom_site_symmetry_multiplicity
 _atom_site_fract_x
 _atom_site_fract_y
 _atom_site_fract_z
 _atom_site_occupancy
  C  C0  1  0.79957600  0.25876100  0.91918400  1
  C  C1  1  0.20042400  0.74123900  0.08081600  1
  C  C2  1  0.70042400  0.25876100  0.41918400  1
  C  C3  1  0.29957600  0.74123900  0.58081600  1
  C  C4  1  0.69757100  0.56067400  0.57146400  1
  C  C5  1  0.99057600  0.77930400  0.25977100  1
  C  C6  1  0.31603700  0.56395000  0.86478700  1
  C  C7  1  0.49057600  0.22069600  0.24022900  1
  C  C8  1  0.18396300  0.56395000  0.36478700  1
  C  C9  1  0.90026600  0.77438800  0.81441700  1
  C  C10  1  0.57823000  0.91868100  0.79076400  1
  C  C11  1  0.04299100  0.39425100  0.31734400  1
  C  C12  1  0.92561200  0.96984600  0.87010200  1
  C  C13  1  0.71601900  0.82380300  0.04389300  1
  C  C14  1  0.40026600  0.22561200  0.68558300  1
  C  C15  1  0.97751200  0.71824700  0.55656500  1
  C  C16  1  0.80242900  0.56067400  0.07146400  1
  C  C17  1  0.42561200  0.03015400  0.62989800  1
  C  C18  1  0.78398100  0.82380300  0.54389300  1
  C  C19  1  0.17511900  0.39843600  0.48995000  1
  C  C20  1  0.21601900  0.17619700  0.45610700  1
  C  C21  1  0.47663500  0.33090400  0.57680600  1
  C  C22  1  0.95700900  0.60574900  0.68265600  1
  C  C23  1  0.59973400  0.77438800  0.31441700  1
  C  C24  1  0.32488100  0.39843600  0.98995000  1
  C  C25  1  0.93204500  0.10338500  0.69855800  1
  C  C26  1  0.02336500  0.33090400  0.07680600  1
  C  C27  1  0.05481700  0.15738700  0.39057800  1
  C  C28  1  0.44518300  0.15738700  0.89057800  1
  C  C29  1  0.06795500  0.89661500  0.30144200  1
  C  C30  1  0.22853500  0.32792400  0.33829200  1
  C  C31  1  0.04615600  0.75356700  0.81208200  1
  C  C32  1  0.56177900  0.06030000  0.62284500  1
  C  C33  1  0.52248800  0.71824700  0.05656500  1
  C  C34  1  0.68396300  0.43605000  0.13521300  1
  C  C35  1  0.28398100  0.17619700  0.95610700  1
  C  C36  1  0.30242900  0.43932600  0.42853600  1
  C  C37  1  0.67511900  0.60156400  0.01005000  1
  C  C38  1  0.07823000  0.08131900  0.70923600  1
  C  C39  1  0.06177900  0.93970000  0.87715500  1
  C  C40  1  0.42177000  0.08131900  0.20923600  1
  C  C41  1  0.55481700  0.84261300  0.10942200  1
  C  C42  1  0.07438800  0.03015400  0.12989800  1
  C  C43  1  0.97663500  0.66909600  0.92319400  1
  C  C44  1  0.47751200  0.28175300  0.94343500  1
  C  C45  1  0.54615600  0.24643300  0.68791800  1
  C  C46  1  0.19757100  0.43932600  0.92853600  1
  C  C47  1  0.50942400  0.77930400  0.75977100  1
  C  C48  1  0.27146500  0.32792400  0.83829200  1
  C  C49  1  0.45700900  0.39425100  0.81734400  1
  C  C50  1  0.54299100  0.60574900  0.18265600  1
  C  C51  1  0.43822100  0.93970000  0.37715500  1
  C  C52  1  0.43204500  0.89661500  0.80144200  1
  C  C53  1  0.93822100  0.06030000  0.12284500  1
  C  C54  1  0.77146500  0.67207600  0.66170800  1
  C  C55  1  0.52336500  0.66909600  0.42319400  1
  C  C56  1  0.45384400  0.75356700  0.31208200  1
  C  C57  1  0.72853500  0.67207600  0.16170800  1
  C  C58  1  0.92177000  0.91868100  0.29076400  1
  C  C59  1  0.57438800  0.96984600  0.37010200  1
  C  C60  1  0.09973400  0.22561200  0.18558300  1
  C  C61  1  0.56795500  0.10338500  0.19855800  1
  C  C62  1  0.95384400  0.24643300  0.18791800  1
  C  C63  1  0.00942400  0.22069600  0.74022900  1
  C  C64  1  0.02248800  0.28175300  0.44343500  1
  C  C65  1  0.81603700  0.43605000  0.63521300  1
  C  C66  1  0.94518300  0.84261300  0.60942200  1
  C  C67  1  0.82488100  0.60156400  0.51005000  1
  Ni  Ni68  1  0.99644300  0.90050700  0.26074800  1
  Ni  Ni69  1  0.52233800  0.77369600  0.34756100  1
  Ni  Ni70  1  0.50355700  0.90050700  0.76074800  1
  Ni  Ni71  1  0.21369400  0.43499400  0.42237700  1
  Ni  Ni72  1  0.47766200  0.22630400  0.65243900  1
  Ni  Ni73  1  0.02233800  0.22630400  0.15243900  1
  Ni  Ni74  1  0.56843900  0.71809500  0.11307600  1
  Ni  Ni75  1  0.97766200  0.77369600  0.84756100  1
  Ni  Ni76  1  0.43156100  0.28190500  0.88692400  1
  Ni  Ni77  1  0.49644300  0.09949300  0.23925200  1
  Ni  Ni78  1  0.93156100  0.71809500  0.61307600  1
  Ni  Ni79  1  0.78630600  0.56500600  0.57762300  1
  Ni  Ni80  1  0.00355700  0.09949300  0.73925200  1
  Ni  Ni81  1  0.71369400  0.56500600  0.07762300  1
  Ni  Ni82  1  0.06843900  0.28190500  0.38692400  1
  Ni  Ni83  1  0.28630600  0.43499400  0.92237700  1
  C  C84  1  0.21254600  0.45557400  0.67975200  1
  C  C85  1  0.24622100  0.88343100  0.41363500  1
  C  C86  1  0.74622100  0.11656900  0.08636500  1
  C  C87  1  0.25377900  0.88343100  0.91363500  1
  C  C88  1  0.76288100  0.04846700  0.37464900  1
  C  C89  1  0.49597700  0.71073300  0.59765100  1
  C  C90  1  0.75377900  0.11656900  0.58636500  1
  C  C91  1  0.50402300  0.28926700  0.40234900  1
  C  C92  1  0.71254600  0.54442600  0.82024800  1
  C  C93  1  0.99597700  0.28926700  0.90234900  1
  C  C94  1  0.78745400  0.54442600  0.32024800  1
  C  C95  1  0.28745400  0.45557400  0.17975200  1
  C  C96  1  0.23711900  0.95153300  0.62535100  1
  C  C97  1  0.00402300  0.71073300  0.09765100  1
  C  C98  1  0.73711900  0.04846700  0.87464900  1
  C  C99  1  0.26288100  0.95153300  0.12535100  1
  Cu  Cu100  1  0.00780900  0.05309500  0.16079100  1
  Cu  Cu101  1  0.18728600  0.29785400  0.40041900  1
  Cu  Cu102  1  0.49219100  0.05309500  0.66079100  1
  Cu  Cu103  1  0.31271400  0.29785400  0.90041900  1
  Cu  Cu104  1  0.81271400  0.70214600  0.59958100  1
  Cu  Cu105  1  0.50780900  0.94690500  0.33920900  1
  Cu  Cu106  1  0.68728600  0.70214600  0.09958100  1
  Cu  Cu107  1  0.99219100  0.94690500  0.83920900  1
