# generated using pymatgen
data_Cu7Ni4C5
_symmetry_space_group_name_H-M   'P 1'
_cell_length_a   16.50873400
_cell_length_b   7.90043800
_cell_length_c   8.99859345
_cell_angle_alpha   67.49518687
_cell_angle_beta   90.00000000
_cell_angle_gamma   90.00000000
_symmetry_Int_Tables_number   1
_chemical_formula_structural   Cu7Ni4C5
_chemical_formula_sum   'Cu28 Ni16 C20'
_cell_volume   1084.27589459
_cell_formula_units_Z   4
loop_
 _symmetry_equiv_pos_site_id
 _symmetry_equiv_pos_as_xyz
  1  'x, y, z'
loop_
 _atom_site_type_symbol
 _atom_site_label
 _atom_site_symmetry_multiplicity
 _atom_site_fract_x
 _atom_site_fract_y
 _atom_site_fract_z
 _atom_site_occupancy
  C  C0  1  0.50684500  0.26453700  0.35314200  1
  C  C1  1  0.99315500  0.76453700  0.35314200  1
  C  C2  1  0.82981400  0.08694800  0.02794900  1
  C  C3  1  0.17018600  0.91305200  0.97205100  1
  C  C4  1  0.32981400  0.41305200  0.97205100  1
  C  C5  1  0.00684500  0.23546300  0.64685800  1
  C  C6  1  0.67018600  0.58694800  0.02794900  1
  C  C7  1  0.49315500  0.73546300  0.64685800  1
  C  C8  1  0.76049300  0.99455600  0.54238100  1
  C  C9  1  0.57967900  0.16985800  0.85138700  1
  C  C10  1  0.92032100  0.66985800  0.85138700  1
  C  C11  1  0.23950700  0.00544400  0.45761900  1
  C  C12  1  0.07967900  0.33014200  0.14861300  1
  C  C13  1  0.73950700  0.49455600  0.54238100  1
  C  C14  1  0.26049300  0.50544400  0.45761900  1
  C  C15  1  0.42032100  0.83014200  0.14861300  1
  C  C16  1  0.62686200  0.88257600  0.27174000  1
  C  C17  1  0.37313800  0.11742400  0.72826000  1
  C  C18  1  0.12686200  0.61742400  0.72826000  1
  C  C19  1  0.87313800  0.38257600  0.27174000  1
  Ni  Ni20  1  0.32712100  0.30374200  0.67580900  1
  Ni  Ni21  1  0.67287900  0.69625800  0.32419100  1
  Ni  Ni22  1  0.64555900  0.00318400  0.09287300  1
  Ni  Ni23  1  0.34710500  0.01127100  0.62231200  1
  Ni  Ni24  1  0.82712100  0.19625800  0.32419100  1
  Ni  Ni25  1  0.53480800  0.83875700  0.29325500  1
  Ni  Ni26  1  0.03480800  0.66124300  0.70674500  1
  Ni  Ni27  1  0.17287900  0.80374200  0.67580900  1
  Ni  Ni28  1  0.35444100  0.99681600  0.90712700  1
  Ni  Ni29  1  0.65289500  0.98872900  0.37768800  1
  Ni  Ni30  1  0.96519200  0.33875700  0.29325500  1
  Ni  Ni31  1  0.15289500  0.51127100  0.62231200  1
  Ni  Ni32  1  0.85444100  0.50318400  0.09287300  1
  Ni  Ni33  1  0.14555900  0.49681600  0.90712700  1
  Ni  Ni34  1  0.84710500  0.48872900  0.37768800  1
  Ni  Ni35  1  0.46519200  0.16124300  0.70674500  1
  Cu  Cu36  1  0.40134800  0.58881600  0.39477500  1
  Cu  Cu37  1  0.90134800  0.91118400  0.60522500  1
  Cu  Cu38  1  0.35185400  0.97853600  0.28259600  1
  Cu  Cu39  1  0.69348400  0.69922900  0.65119400  1
  Cu  Cu40  1  0.79562400  0.81362900  0.82417900  1
  Cu  Cu41  1  0.30484500  0.70102000  0.56699600  1
  Cu  Cu42  1  0.14814600  0.47853600  0.28259600  1
  Cu  Cu43  1  0.94883400  0.91096200  0.90109100  1
  Cu  Cu44  1  0.44883400  0.58903800  0.09890900  1
  Cu  Cu45  1  0.52745100  0.87481800  0.95347900  1
  Cu  Cu46  1  0.59865200  0.41118400  0.60522500  1
  Cu  Cu47  1  0.05116600  0.08903800  0.09890900  1
  Cu  Cu48  1  0.70437600  0.31362900  0.82417900  1
  Cu  Cu49  1  0.30651600  0.30077100  0.34880600  1
  Cu  Cu50  1  0.97254900  0.37481800  0.95347900  1
  Cu  Cu51  1  0.80651600  0.19922900  0.65119400  1
  Cu  Cu52  1  0.55116600  0.41096200  0.90109100  1
  Cu  Cu53  1  0.80484500  0.79898000  0.43300400  1
  Cu  Cu54  1  0.29562400  0.68637100  0.17582100  1
  Cu  Cu55  1  0.69515500  0.29898000  0.43300400  1
  Cu  Cu56  1  0.85185400  0.52146400  0.71740400  1
  Cu  Cu57  1  0.19348400  0.80077100  0.34880600  1
  Cu  Cu58  1  0.64814600  0.02146400  0.71740400  1
  Cu  Cu59  1  0.19515500  0.20102000  0.56699600  1
  Cu  Cu60  1  0.47254900  0.12518200  0.04652100  1
  Cu  Cu61  1  0.09865200  0.08881600  0.39477500  1
  Cu  Cu62  1  0.02745100  0.62518200  0.04652100  1
  Cu  Cu63  1  0.20437600  0.18637100  0.17582100  1
