# generated using pymatgen
data_Cu2Ni3C8
_symmetry_space_group_name_H-M   'P 1'
_cell_length_a   10.40503022
_cell_length_b   10.40503022
_cell_length_c   10.40503022
_cell_angle_alpha   109.47122063
_cell_angle_beta   109.47122063
_cell_angle_gamma   109.47122063
_symmetry_Int_Tables_number   1
_chemical_formula_structural   Cu2Ni3C8
_chemical_formula_sum   'Cu8 Ni12 C32'
_cell_volume   867.17779203
_cell_formula_units_Z   4
loop_
 _symmetry_equiv_pos_site_id
 _symmetry_equiv_pos_as_xyz
  1  'x, y, z'
loop_
 _atom_site_type_symbol
 _atom_site_label
 _atom_site_symmetry_multiplicity
 _atom_site_fract_x
 _atom_site_fract_y
 _atom_site_fract_z
 _atom_site_occupancy
  C  C0  1  0.99242100  0.49237300  0.25762400  1
  C  C1  1  0.00000000  0.71305000  0.50000000  1
  C  C2  1  0.76520400  0.49995200  0.50757900  1
  C  C3  1  0.73479600  0.24237600  0.73474800  1
  C  C4  1  0.50000000  0.00000000  0.71305000  1
  C  C5  1  0.00004800  0.76525200  0.00762700  1
  C  C6  1  0.50762700  0.26525200  0.50004800  1
  C  C7  1  0.76525200  0.00762700  0.00004800  1
  C  C8  1  0.28695000  0.28695000  0.28695000  1
  C  C9  1  0.49995200  0.50757900  0.76520400  1
  C  C10  1  0.71305000  0.50000000  0.00000000  1
  C  C11  1  0.21305000  0.50000000  0.00000000  1
  C  C12  1  0.26525200  0.50004800  0.50762700  1
  C  C13  1  0.50757900  0.76520400  0.49995200  1
  C  C14  1  0.50000000  0.00000000  0.21305000  1
  C  C15  1  0.99237300  0.49242100  0.75762400  1
  C  C16  1  0.78695000  0.78695000  0.78695000  1
  C  C17  1  0.00000000  0.21305000  0.50000000  1
  C  C18  1  0.49242100  0.75762400  0.99237300  1
  C  C19  1  0.00762700  0.00004800  0.76525200  1
  C  C20  1  0.75762400  0.99237300  0.49242100  1
  C  C21  1  0.50004800  0.50762700  0.26525200  1
  C  C22  1  0.74237600  0.23479600  0.23474800  1
  C  C23  1  0.24237600  0.73474800  0.73479600  1
  C  C24  1  0.23474800  0.74237600  0.23479600  1
  C  C25  1  0.99995200  0.26520400  0.00757900  1
  C  C26  1  0.00757900  0.99995200  0.26520400  1
  C  C27  1  0.73474800  0.73479600  0.24237600  1
  C  C28  1  0.26520400  0.00757900  0.99995200  1
  C  C29  1  0.23479600  0.23474800  0.74237600  1
  C  C30  1  0.25762400  0.99242100  0.49237300  1
  C  C31  1  0.49237300  0.25762400  0.99242100  1
  Ni  Ni32  1  0.75000000  0.23564500  0.48564500  1
  Ni  Ni33  1  0.23564500  0.48564500  0.75000000  1
  Ni  Ni34  1  0.76435500  0.75000000  0.51435500  1
  Ni  Ni35  1  0.48564500  0.75000000  0.23564500  1
  Ni  Ni36  1  0.25000000  0.98564500  0.73564500  1
  Ni  Ni37  1  0.98564500  0.73564500  0.25000000  1
  Ni  Ni38  1  0.73564500  0.25000000  0.98564500  1
  Ni  Ni39  1  0.75000000  0.51435500  0.76435500  1
  Ni  Ni40  1  0.25000000  0.26435500  0.01435500  1
  Ni  Ni41  1  0.26435500  0.01435500  0.25000000  1
  Ni  Ni42  1  0.51435500  0.76435500  0.75000000  1
  Ni  Ni43  1  0.01435500  0.25000000  0.26435500  1
  Cu  Cu44  1  0.50000000  0.00000000  0.96075200  1
  Cu  Cu45  1  0.46075200  0.50000000  0.00000000  1
  Cu  Cu46  1  0.96075200  0.50000000  0.00000000  1
  Cu  Cu47  1  0.53924800  0.53924800  0.53924800  1
  Cu  Cu48  1  0.00000000  0.46075200  0.50000000  1
  Cu  Cu49  1  0.00000000  0.96075200  0.50000000  1
  Cu  Cu50  1  0.50000000  0.00000000  0.46075200  1
  Cu  Cu51  1  0.03924800  0.03924800  0.03924800  1
