# generated using pymatgen
data_CuNiC4
_symmetry_space_group_name_H-M   'P 1'
_cell_length_a   7.66786608
_cell_length_b   7.66786608
_cell_length_c   6.71167100
_cell_angle_alpha   90.00000000
_cell_angle_beta   90.00000000
_cell_angle_gamma   117.12688928
_symmetry_Int_Tables_number   1
_chemical_formula_structural   CuNiC4
_chemical_formula_sum   'Cu4 Ni4 C16'
_cell_volume   351.21186259
_cell_formula_units_Z   4
loop_
 _symmetry_equiv_pos_site_id
 _symmetry_equiv_pos_as_xyz
  1  'x, y, z'
loop_
 _atom_site_type_symbol
 _atom_site_label
 _atom_site_symmetry_multiplicity
 _atom_site_fract_x
 _atom_site_fract_y
 _atom_site_fract_z
 _atom_site_occupancy
  C  C0  1  0.22883500  0.22883500  0.25000000  1
  C  C1  1  0.77116500  0.77116500  0.75000000  1
  Ni  Ni2  1  0.27576800  0.72423200  0.50000000  1
  Ni  Ni3  1  0.72423200  0.27576800  0.50000000  1
  Ni  Ni4  1  0.27576800  0.72423200  0.00000000  1
  Ni  Ni5  1  0.72423200  0.27576800  0.00000000  1
  Cu  Cu6  1  0.08679900  0.32418000  0.75000000  1
  Cu  Cu7  1  0.32418000  0.08679900  0.75000000  1
  Cu  Cu8  1  0.67582000  0.91320100  0.25000000  1
  Cu  Cu9  1  0.91320100  0.67582000  0.25000000  1
  C  C10  1  0.77001400  0.15642700  0.25000000  1
  C  C11  1  0.82031900  0.55860100  0.45545300  1
  C  C12  1  0.84357300  0.22998600  0.75000000  1
  C  C13  1  0.82031900  0.55860100  0.04454700  1
  C  C14  1  0.22998600  0.84357300  0.75000000  1
  C  C15  1  0.11949900  0.11949900  0.75000000  1
  C  C16  1  0.17968100  0.44139900  0.54454700  1
  C  C17  1  0.55860100  0.82031900  0.45545300  1
  C  C18  1  0.17968100  0.44139900  0.95545300  1
  C  C19  1  0.44139900  0.17968100  0.95545300  1
  C  C20  1  0.88050100  0.88050100  0.25000000  1
  C  C21  1  0.55860100  0.82031900  0.04454700  1
  C  C22  1  0.44139900  0.17968100  0.54454700  1
  C  C23  1  0.15642700  0.77001400  0.25000000  1
