# generated using pymatgen
data_Cu3(NiC4)2
_symmetry_space_group_name_H-M   'P 1'
_cell_length_a   11.39876637
_cell_length_b   11.39876637
_cell_length_c   11.39876637
_cell_angle_alpha   60.00000000
_cell_angle_beta   60.00000000
_cell_angle_gamma   60.00000000
_symmetry_Int_Tables_number   1
_chemical_formula_structural   Cu3(NiC4)2
_chemical_formula_sum   'Cu12 Ni8 C32'
_cell_volume   1047.26975135
_cell_formula_units_Z   4
loop_
 _symmetry_equiv_pos_site_id
 _symmetry_equiv_pos_as_xyz
  1  'x, y, z'
loop_
 _atom_site_type_symbol
 _atom_site_label
 _atom_site_symmetry_multiplicity
 _atom_site_fract_x
 _atom_site_fract_y
 _atom_site_fract_z
 _atom_site_occupancy
  Ni  Ni0  1  0.42485200  0.72544500  0.42485200  1
  Ni  Ni1  1  0.82514800  0.82514800  0.52455500  1
  Ni  Ni2  1  0.52455500  0.82514800  0.82514800  1
  Ni  Ni3  1  0.82514800  0.82514800  0.82514800  1
  Ni  Ni4  1  0.72544500  0.42485200  0.42485200  1
  Ni  Ni5  1  0.42485200  0.42485200  0.42485200  1
  Ni  Ni6  1  0.42485200  0.42485200  0.72544500  1
  Ni  Ni7  1  0.82514800  0.52455500  0.82514800  1
  C  C8  1  0.35155100  0.94534600  0.35155100  1
  C  C9  1  0.89844900  0.89844900  0.30465400  1
  C  C10  1  0.30465400  0.89844900  0.89844900  1
  C  C11  1  0.89844900  0.89844900  0.89844900  1
  C  C12  1  0.94534600  0.35155100  0.35155100  1
  C  C13  1  0.35155100  0.35155100  0.35155100  1
  C  C14  1  0.35155100  0.35155100  0.94534600  1
  C  C15  1  0.89844900  0.30465400  0.89844900  1
  Cu  Cu16  1  0.66455500  0.66455500  0.33544500  1
  Cu  Cu17  1  0.91455500  0.58544500  0.58544500  1
  Cu  Cu18  1  0.58544500  0.91455500  0.91455500  1
  Cu  Cu19  1  0.91455500  0.91455500  0.58544500  1
  Cu  Cu20  1  0.91455500  0.58544500  0.91455500  1
  Cu  Cu21  1  0.58544500  0.91455500  0.58544500  1
  Cu  Cu22  1  0.33544500  0.66455500  0.33544500  1
  Cu  Cu23  1  0.33544500  0.66455500  0.66455500  1
  Cu  Cu24  1  0.66455500  0.33544500  0.33544500  1
  Cu  Cu25  1  0.66455500  0.33544500  0.66455500  1
  Cu  Cu26  1  0.58544500  0.58544500  0.91455500  1
  Cu  Cu27  1  0.33544500  0.33544500  0.66455500  1
  C  C28  1  0.26972200  0.99788700  0.46266800  1
  C  C29  1  0.98027800  0.98027800  0.25211300  1
  C  C30  1  0.25211300  0.78733200  0.98027800  1
  C  C31  1  0.98027800  0.78733200  0.98027800  1
  C  C32  1  0.78733200  0.98027800  0.25211300  1
  C  C33  1  0.78733200  0.98027800  0.98027800  1
  C  C34  1  0.25211300  0.98027800  0.98027800  1
  C  C35  1  0.46266800  0.99788700  0.26972200  1
  C  C36  1  0.26972200  0.99788700  0.26972200  1
  C  C37  1  0.99788700  0.26972200  0.46266800  1
  C  C38  1  0.26972200  0.26972200  0.46266800  1
  C  C39  1  0.99788700  0.46266800  0.26972200  1
  C  C40  1  0.46266800  0.26972200  0.99788700  1
  C  C41  1  0.26972200  0.26972200  0.99788700  1
  C  C42  1  0.26972200  0.46266800  0.26972200  1
  C  C43  1  0.25211300  0.98027800  0.78733200  1
  C  C44  1  0.98027800  0.98027800  0.78733200  1
  C  C45  1  0.98027800  0.78733200  0.25211300  1
  C  C46  1  0.98027800  0.25211300  0.78733200  1
  C  C47  1  0.78733200  0.25211300  0.98027800  1
  C  C48  1  0.98027800  0.25211300  0.98027800  1
  C  C49  1  0.46266800  0.26972200  0.26972200  1
  C  C50  1  0.99788700  0.26972200  0.26972200  1
  C  C51  1  0.26972200  0.46266800  0.99788700  1
