# generated using pymatgen
data_Cu(NiC2)2
_symmetry_space_group_name_H-M   'P 1'
_cell_length_a   19.35845150
_cell_length_b   19.35845150
_cell_length_c   19.35845197
_cell_angle_alpha   17.30542905
_cell_angle_beta   17.30542905
_cell_angle_gamma   17.30543025
_symmetry_Int_Tables_number   1
_chemical_formula_structural   Cu(NiC2)2
_chemical_formula_sum   'Cu8 Ni16 C32'
_cell_volume   560.14935894
_cell_formula_units_Z   8
loop_
 _symmetry_equiv_pos_site_id
 _symmetry_equiv_pos_as_xyz
  1  'x, y, z'
loop_
 _atom_site_type_symbol
 _atom_site_label
 _atom_site_symmetry_multiplicity
 _atom_site_fract_x
 _atom_site_fract_y
 _atom_site_fract_z
 _atom_site_occupancy
  Ni  Ni0  1  0.37739100  0.37739100  0.87169400  1
  Ni  Ni1  1  0.37739100  0.87169400  0.37739100  1
  Ni  Ni2  1  0.25002300  0.25002300  0.25002300  1
  Ni  Ni3  1  0.12469400  0.12469400  0.62548100  1
  Ni  Ni4  1  0.87169400  0.37739100  0.37739100  1
  Ni  Ni5  1  0.12469400  0.62548100  0.12469400  1
  Ni  Ni6  1  0.99995500  0.99995500  0.99995500  1
  Ni  Ni7  1  0.87501200  0.87501200  0.37479300  1
  Ni  Ni8  1  0.62548100  0.12469400  0.12469400  1
  Ni  Ni9  1  0.87501200  0.37479300  0.87501200  1
  Ni  Ni10  1  0.12033200  0.62671200  0.62671200  1
  Ni  Ni11  1  0.74947000  0.74947000  0.74947000  1
  Ni  Ni12  1  0.62671200  0.62671200  0.12033100  1
  Ni  Ni13  1  0.37479300  0.87501200  0.87501200  1
  Ni  Ni14  1  0.62671200  0.12033200  0.62671200  1
  Ni  Ni15  1  0.15543800  0.15543800  0.15543800  1
  Cu  Cu16  1  0.84430900  0.84430900  0.84430900  1
  Cu  Cu17  1  0.50042500  0.50042500  0.50042500  1
  Cu  Cu18  1  0.59423800  0.59423800  0.59423800  1
  Cu  Cu19  1  0.34367800  0.34367800  0.34367800  1
  Cu  Cu20  1  0.09353200  0.09353200  0.09353200  1
  Cu  Cu21  1  0.90551900  0.90551900  0.90551900  1
  Cu  Cu22  1  0.65631200  0.65631200  0.65631200  1
  Cu  Cu23  1  0.40667200  0.40667200  0.40667200  1
  C  C24  1  0.67930800  0.21568600  0.67930800  1
  C  C25  1  0.67930800  0.67930800  0.21568600  1
  C  C26  1  0.55959700  0.55959700  0.55959700  1
  C  C27  1  0.21568600  0.67930800  0.67930800  1
  C  C28  1  0.41812600  0.98032500  0.41812600  1
  C  C29  1  0.51396100  0.08469500  0.08469500  1
  C  C30  1  0.18773700  0.18773700  0.18773700  1
  C  C31  1  0.30859800  0.30859800  0.30859800  1
  C  C32  1  0.41812600  0.41812600  0.98032500  1
  C  C33  1  0.08469500  0.08469500  0.51396100  1
  C  C34  1  0.08469500  0.51396100  0.08469500  1
  C  C35  1  0.98032500  0.41812600  0.41812600  1
  C  C36  1  0.16800200  0.73000900  0.16800200  1
  C  C37  1  0.26972100  0.83183100  0.83183100  1
  C  C38  1  0.94111600  0.94111600  0.94111600  1
  C  C39  1  0.16800200  0.16800200  0.73000900  1
  C  C40  1  0.05843300  0.05843300  0.05843300  1
  C  C41  1  0.83183100  0.83183100  0.26972100  1
  C  C42  1  0.73000900  0.16800200  0.16800200  1
  C  C43  1  0.83183100  0.26972100  0.83183100  1
  C  C44  1  0.91634700  0.48234000  0.91634700  1
  C  C45  1  0.02010700  0.58153900  0.58153900  1
  C  C46  1  0.69134300  0.69134300  0.69134300  1
  C  C47  1  0.91634700  0.91634700  0.48234000  1
  C  C48  1  0.80880100  0.80880100  0.80880100  1
  C  C49  1  0.58153900  0.58153900  0.02010700  1
  C  C50  1  0.48234000  0.91634700  0.91634700  1
  C  C51  1  0.58153900  0.02010700  0.58153900  1
  C  C52  1  0.80884900  0.31065800  0.31065800  1
  C  C53  1  0.44287600  0.44287600  0.44287600  1
  C  C54  1  0.31065800  0.31065800  0.80884900  1
  C  C55  1  0.31065800  0.80884900  0.31065800  1
