# generated using pymatgen
data_Cu2NiC4
_symmetry_space_group_name_H-M   'P 1'
_cell_length_a   6.05165528
_cell_length_b   6.05165528
_cell_length_c   29.60790800
_cell_angle_alpha   90.00000000
_cell_angle_beta   90.00000000
_cell_angle_gamma   119.99999213
_symmetry_Int_Tables_number   1
_chemical_formula_structural   Cu2NiC4
_chemical_formula_sum   'Cu24 Ni12 C48'
_cell_volume   939.04575015
_cell_formula_units_Z   12
loop_
 _symmetry_equiv_pos_site_id
 _symmetry_equiv_pos_as_xyz
  1  'x, y, z'
loop_
 _atom_site_type_symbol
 _atom_site_label
 _atom_site_symmetry_multiplicity
 _atom_site_fract_x
 _atom_site_fract_y
 _atom_site_fract_z
 _atom_site_occupancy
  Ni  Ni0  1  0.33333300  0.66666700  0.97797600  1
  Ni  Ni1  1  0.66666700  0.33333300  0.99911100  1
  Ni  Ni2  1  0.66666700  0.33333300  0.81082400  1
  Ni  Ni3  1  0.00000000  0.00000000  0.83237600  1
  Ni  Ni4  1  0.00000000  0.00000000  0.64577700  1
  Ni  Ni5  1  0.33333300  0.66666700  0.47933200  1
  Ni  Ni6  1  0.66666700  0.33333300  0.68800900  1
  Ni  Ni7  1  0.66666700  0.33333300  0.31270800  1
  Ni  Ni8  1  0.00000000  0.00000000  0.52103200  1
  Ni  Ni9  1  0.00000000  0.00000000  0.14607900  1
  Ni  Ni10  1  0.33333300  0.66666700  0.35447600  1
  Ni  Ni11  1  0.66666700  0.33333300  0.18781700  1
  Cu  Cu12  1  0.83072000  0.16928000  0.91684000  1
  Cu  Cu13  1  0.83072000  0.66144100  0.91684000  1
  Cu  Cu14  1  0.16478800  0.83521200  0.75012700  1
  Cu  Cu15  1  0.33855900  0.16928000  0.91684000  1
  Cu  Cu16  1  0.33333300  0.66666700  0.85499500  1
  Cu  Cu17  1  0.33333300  0.66666700  0.66729500  1
  Cu  Cu18  1  0.16478800  0.32957700  0.75012700  1
  Cu  Cu19  1  0.67042300  0.83521200  0.75012700  1
  Cu  Cu20  1  0.49963000  0.50037000  0.58377500  1
  Cu  Cu21  1  0.66666700  0.33333300  0.50048800  1
  Cu  Cu22  1  0.49963000  0.99926000  0.58377500  1
  Cu  Cu23  1  0.83317100  0.16682900  0.41686900  1
  Cu  Cu24  1  0.00074000  0.50037000  0.58377500  1
  Cu  Cu25  1  0.66691100  0.83345500  0.25021500  1
  Cu  Cu26  1  0.83317100  0.66634100  0.41686900  1
  Cu  Cu27  1  0.00000000  0.00000000  0.33372600  1
  Cu  Cu28  1  0.16654500  0.83345500  0.25021500  1
  Cu  Cu29  1  0.33365900  0.16682900  0.41686900  1
  Cu  Cu30  1  0.33333300  0.66666700  0.16695900  1
  Cu  Cu31  1  0.16654500  0.33308900  0.25021500  1
  Cu  Cu32  1  0.49909400  0.50090600  0.08329100  1
  Cu  Cu33  1  0.49909400  0.99818900  0.08329100  1
  Cu  Cu34  1  0.00181100  0.50090600  0.08329100  1
  Cu  Cu35  1  0.00000000  0.00000000  0.02110200  1
  C  C36  1  0.51105600  0.48894400  0.95515600  1
  C  C37  1  0.66666700  0.33333300  0.87976600  1
  C  C38  1  0.51105600  0.02211300  0.95515600  1
  C  C39  1  0.97788700  0.48894400  0.95515600  1
  C  C40  1  0.84393000  0.15607000  0.78809900  1
  C  C41  1  0.68120200  0.84060100  0.87792900  1
  C  C42  1  0.00000000  0.00000000  0.95515400  1
  C  C43  1  0.15939900  0.31879800  0.87792900  1
  C  C44  1  0.00000000  0.00000000  0.71307900  1
  C  C45  1  0.84393000  0.68786000  0.78809900  1
  C  C46  1  0.31214000  0.15607000  0.78809900  1
  C  C47  1  0.15939900  0.84060100  0.87792900  1
  C  C48  1  0.18068900  0.81931100  0.62359900  1
  C  C49  1  0.02997200  0.51498600  0.70976500  1
  C  C50  1  0.33333300  0.66666700  0.78911500  1
  C  C51  1  0.48501400  0.97002800  0.70976500  1
  C  C52  1  0.33333300  0.66666700  0.54676100  1
  C  C53  1  0.18068900  0.36137900  0.62359900  1
  C  C54  1  0.63862100  0.81931100  0.62359900  1
  C  C55  1  0.48501400  0.51498600  0.70976500  1
  C  C56  1  0.51353400  0.48646600  0.45640800  1
  C  C57  1  0.36069500  0.18034800  0.54329900  1
  C  C58  1  0.66666700  0.33333300  0.61985200  1
  C  C59  1  0.81965200  0.63930500  0.54329900  1
  C  C60  1  0.51353400  0.02706800  0.45640800  1
  C  C61  1  0.66666700  0.33333300  0.38003100  1
  C  C62  1  0.97293200  0.48646600  0.45640800  1
  C  C63  1  0.81965200  0.18034800  0.54329900  1
  C  C64  1  0.84687500  0.15312500  0.28977600  1
  C  C65  1  0.69415600  0.84707800  0.37650800  1
  C  C66  1  0.15292200  0.30584400  0.37650800  1
  C  C67  1  0.00000000  0.00000000  0.45306500  1
  C  C68  1  0.00000000  0.00000000  0.21338700  1
  C  C69  1  0.84687500  0.69375100  0.28977600  1
  C  C70  1  0.30624900  0.15312500  0.28977600  1
  C  C71  1  0.15292200  0.84707800  0.37650800  1
  C  C72  1  0.18069700  0.81930300  0.12320100  1
  C  C73  1  0.02722000  0.51361000  0.20985500  1
  C  C74  1  0.18069700  0.36139500  0.12320100  1
  C  C75  1  0.33333300  0.66666700  0.28643100  1
  C  C76  1  0.33333300  0.66666700  0.04659900  1
  C  C77  1  0.48639000  0.97278000  0.20985500  1
  C  C78  1  0.63860500  0.81930300  0.12320100  1
  C  C79  1  0.48639000  0.51361000  0.20985500  1
  C  C80  1  0.34453000  0.17226500  0.04452600  1
  C  C81  1  0.66666700  0.33333300  0.11896300  1
  C  C82  1  0.82773500  0.65547000  0.04452600  1
  C  C83  1  0.82773500  0.17226500  0.04452600  1
