# generated using pymatgen
data_Cu12Ni4C3
_symmetry_space_group_name_H-M   'P 1'
_cell_length_a   8.17163900
_cell_length_b   8.03707700
_cell_length_c   9.97541411
_cell_angle_alpha   79.68347948
_cell_angle_beta   90.00000000
_cell_angle_gamma   90.00000000
_symmetry_Int_Tables_number   1
_chemical_formula_structural   Cu12Ni4C3
_chemical_formula_sum   'Cu24 Ni8 C6'
_cell_volume   644.55475422
_cell_formula_units_Z   2
loop_
 _symmetry_equiv_pos_site_id
 _symmetry_equiv_pos_as_xyz
  1  'x, y, z'
loop_
 _atom_site_type_symbol
 _atom_site_label
 _atom_site_symmetry_multiplicity
 _atom_site_fract_x
 _atom_site_fract_y
 _atom_site_fract_z
 _atom_site_occupancy
  C  C0  1  0.57052700  0.34076100  0.32198000  1
  C  C1  1  0.42947300  0.65923900  0.67802000  1
  C  C2  1  0.07052700  0.65923900  0.17802000  1
  C  C3  1  0.92947300  0.34076100  0.82198000  1
  C  C4  1  0.00000000  0.00000000  0.50000000  1
  C  C5  1  0.50000000  0.00000000  0.00000000  1
  Ni  Ni6  1  0.45385200  0.83440100  0.28352000  1
  Ni  Ni7  1  0.54614800  0.16559900  0.71648000  1
  Ni  Ni8  1  0.15493700  0.32379400  0.51843100  1
  Ni  Ni9  1  0.34506300  0.32379400  0.01843100  1
  Ni  Ni10  1  0.65493700  0.67620600  0.98156900  1
  Ni  Ni11  1  0.84506300  0.67620600  0.48156900  1
  Ni  Ni12  1  0.04614800  0.83440100  0.78352000  1
  Ni  Ni13  1  0.95385200  0.16559900  0.21648000  1
  Cu  Cu14  1  0.17817100  0.44726400  0.57627300  1
  Cu  Cu15  1  0.67817100  0.55273600  0.92372700  1
  Cu  Cu16  1  0.10604500  0.84203400  0.65854800  1
  Cu  Cu17  1  0.78417600  0.69170200  0.59291400  1
  Cu  Cu18  1  0.71582400  0.69170200  0.09291400  1
  Cu  Cu19  1  0.89395500  0.15796600  0.34145200  1
  Cu  Cu20  1  0.82182900  0.55273600  0.42372700  1
  Cu  Cu21  1  0.94081900  0.93612800  0.80662800  1
  Cu  Cu22  1  0.28417600  0.30829800  0.90708600  1
  Cu  Cu23  1  0.60462000  0.28183000  0.62902900  1
  Cu  Cu24  1  0.44285000  0.20532500  0.08408900  1
  Cu  Cu25  1  0.44081900  0.06387200  0.69337200  1
  Cu  Cu26  1  0.94285000  0.79467500  0.41591100  1
  Cu  Cu27  1  0.60604500  0.15796600  0.84145200  1
  Cu  Cu28  1  0.55715000  0.79467500  0.91591100  1
  Cu  Cu29  1  0.05715000  0.20532500  0.58408900  1
  Cu  Cu30  1  0.10462000  0.71817000  0.87097100  1
  Cu  Cu31  1  0.39538000  0.71817000  0.37097100  1
  Cu  Cu32  1  0.89538000  0.28183000  0.12902900  1
  Cu  Cu33  1  0.05918100  0.06387200  0.19337200  1
  Cu  Cu34  1  0.55918100  0.93612800  0.30662800  1
  Cu  Cu35  1  0.21582400  0.30829800  0.40708600  1
  Cu  Cu36  1  0.32182900  0.44726400  0.07627300  1
  Cu  Cu37  1  0.39395500  0.84203400  0.15854800  1
