# generated using pymatgen
data_Cu3(Ni4C7)2
_symmetry_space_group_name_H-M   'P 1'
_cell_length_a   15.06385949
_cell_length_b   15.06385949
_cell_length_c   15.06385933
_cell_angle_alpha   46.95391026
_cell_angle_beta   46.95391026
_cell_angle_gamma   46.95390894
_symmetry_Int_Tables_number   1
_chemical_formula_structural   Cu3(Ni4C7)2
_chemical_formula_sum   'Cu6 Ni16 C28'
_cell_volume   1668.65157359
_cell_formula_units_Z   2
loop_
 _symmetry_equiv_pos_site_id
 _symmetry_equiv_pos_as_xyz
  1  'x, y, z'
loop_
 _atom_site_type_symbol
 _atom_site_label
 _atom_site_symmetry_multiplicity
 _atom_site_fract_x
 _atom_site_fract_y
 _atom_site_fract_z
 _atom_site_occupancy
  C  C0  1  0.69294700  0.20557300  0.19192400  1
  C  C1  1  0.92659400  0.58683100  0.61683500  1
  C  C2  1  0.79413900  0.14681000  0.41566000  1
  C  C3  1  0.19192400  0.69294700  0.20557300  1
  C  C4  1  0.41316900  0.38316500  0.07340600  1
  C  C5  1  0.14681000  0.41566000  0.79413900  1
  C  C6  1  0.38316500  0.07340600  0.41316900  1
  C  C7  1  0.79442700  0.80807600  0.30705300  1
  C  C8  1  0.41566000  0.79413900  0.14681000  1
  C  C9  1  0.50650500  0.94586300  0.19392600  1
  C  C10  1  0.80607400  0.49349500  0.05413700  1
  C  C11  1  0.90922500  0.90922500  0.90922500  1
  C  C12  1  0.09077500  0.09077500  0.09077500  1
  C  C13  1  0.85319000  0.58434000  0.20586100  1
  C  C14  1  0.80807600  0.30705300  0.79442700  1
  C  C15  1  0.20586100  0.85319000  0.58434000  1
  C  C16  1  0.58434000  0.20586100  0.85319000  1
  C  C17  1  0.05413700  0.80607400  0.49349500  1
  C  C18  1  0.49349500  0.05413700  0.80607400  1
  C  C19  1  0.19392600  0.50650500  0.94586300  1
  C  C20  1  0.07340600  0.41316900  0.38316500  1
  C  C21  1  0.50000000  0.50000000  0.50000000  1
  C  C22  1  0.61683500  0.92659400  0.58683100  1
  C  C23  1  0.58683100  0.61683500  0.92659400  1
  C  C24  1  0.00000000  0.00000000  0.00000000  1
  C  C25  1  0.94586300  0.19392600  0.50650500  1
  C  C26  1  0.30705300  0.79442700  0.80807600  1
  C  C27  1  0.20557300  0.19192400  0.69294700  1
  Ni  Ni28  1  0.52826100  0.73312600  0.49194200  1
  Ni  Ni29  1  0.03105900  0.29003200  0.18239500  1
  Ni  Ni30  1  0.50805800  0.47173900  0.26687400  1
  Ni  Ni31  1  0.29003200  0.18239500  0.03105900  1
  Ni  Ni32  1  0.26687400  0.50805800  0.47173900  1
  Ni  Ni33  1  0.64046900  0.64046900  0.64046900  1
  Ni  Ni34  1  0.73312600  0.49194200  0.52826100  1
  Ni  Ni35  1  0.18239500  0.03105900  0.29003200  1
  Ni  Ni36  1  0.35953100  0.35953100  0.35953100  1
  Ni  Ni37  1  0.77630100  0.77630100  0.77630100  1
  Ni  Ni38  1  0.47173900  0.26687400  0.50805800  1
  Ni  Ni39  1  0.81760500  0.96894100  0.70996800  1
  Ni  Ni40  1  0.96894100  0.70996800  0.81760500  1
  Ni  Ni41  1  0.49194200  0.52826100  0.73312600  1
  Ni  Ni42  1  0.70996800  0.81760500  0.96894100  1
  Ni  Ni43  1  0.22369900  0.22369900  0.22369900  1
  Cu  Cu44  1  0.67020000  0.09587800  0.08227400  1
  Cu  Cu45  1  0.08227400  0.67020000  0.09587800  1
  Cu  Cu46  1  0.32980000  0.90412200  0.91772600  1
  Cu  Cu47  1  0.90412200  0.91772600  0.32980000  1
  Cu  Cu48  1  0.91772600  0.32980000  0.90412200  1
  Cu  Cu49  1  0.09587800  0.08227400  0.67020000  1
