# generated using pymatgen
data_CuNiC10
_symmetry_space_group_name_H-M   'P 1'
_cell_length_a   10.16437255
_cell_length_b   10.16437255
_cell_length_c   6.12937800
_cell_angle_alpha   90.00000000
_cell_angle_beta   90.00000000
_cell_angle_gamma   120.00000358
_symmetry_Int_Tables_number   1
_chemical_formula_structural   CuNiC10
_chemical_formula_sum   'Cu2 Ni2 C20'
_cell_volume   548.41354229
_cell_formula_units_Z   2
loop_
 _symmetry_equiv_pos_site_id
 _symmetry_equiv_pos_as_xyz
  1  'x, y, z'
loop_
 _atom_site_type_symbol
 _atom_site_label
 _atom_site_symmetry_multiplicity
 _atom_site_fract_x
 _atom_site_fract_y
 _atom_site_fract_z
 _atom_site_occupancy
  C  C0  1  0.86210400  0.21926700  0.26087000  1
  C  C1  1  0.35716300  0.13789600  0.26087000  1
  C  C2  1  0.13789600  0.78073300  0.76087000  1
  C  C3  1  0.21926700  0.35716300  0.76087000  1
  C  C4  1  0.64283700  0.86210400  0.76087000  1
  C  C5  1  0.78073300  0.64283700  0.26087000  1
  Ni  Ni6  1  0.00000000  0.00000000  0.70169700  1
  Ni  Ni7  1  0.00000000  0.00000000  0.20169700  1
  Cu  Cu8  1  0.66666700  0.33333300  0.83296800  1
  Cu  Cu9  1  0.33333300  0.66666700  0.33296800  1
  C  C10  1  0.57170000  0.08771900  0.00540500  1
  C  C11  1  0.25458300  0.10100700  0.71802500  1
  C  C12  1  0.91228100  0.48398100  0.00540500  1
  C  C13  1  0.15357500  0.25458300  0.21802500  1
  C  C14  1  0.48398100  0.57170000  0.50540500  1
  C  C15  1  0.42830000  0.91228100  0.50540500  1
  C  C16  1  0.33333300  0.66666700  0.94443500  1
  C  C17  1  0.66666700  0.33333300  0.44443500  1
  C  C18  1  0.84642500  0.74541700  0.71802500  1
  C  C19  1  0.74541700  0.89899300  0.21802500  1
  C  C20  1  0.08771900  0.51601900  0.50540500  1
  C  C21  1  0.10100700  0.84642500  0.21802500  1
  C  C22  1  0.51601900  0.42830000  0.00540500  1
  C  C23  1  0.89899300  0.15357500  0.71802500  1
