# generated using pymatgen
data_CuNiC7
_symmetry_space_group_name_H-M   'P 1'
_cell_length_a   5.51573400
_cell_length_b   5.56834958
_cell_length_c   6.65093874
_cell_angle_alpha   97.17663586
_cell_angle_beta   94.36122782
_cell_angle_gamma   107.21620288
_symmetry_Int_Tables_number   1
_chemical_formula_structural   CuNiC7
_chemical_formula_sum   'Cu2 Ni2 C14'
_cell_volume   192.21108515
_cell_formula_units_Z   2
loop_
 _symmetry_equiv_pos_site_id
 _symmetry_equiv_pos_as_xyz
  1  'x, y, z'
loop_
 _atom_site_type_symbol
 _atom_site_label
 _atom_site_symmetry_multiplicity
 _atom_site_fract_x
 _atom_site_fract_y
 _atom_site_fract_z
 _atom_site_occupancy
  Ni  Ni0  1  0.13905500  0.73316800  0.22138600  1
  Ni  Ni1  1  0.86094500  0.26683200  0.77861400  1
  Cu  Cu2  1  0.76546600  0.12383700  0.25622700  1
  Cu  Cu3  1  0.23453400  0.87616300  0.74377300  1
  C  C4  1  0.58037800  0.62902200  0.21461700  1
  C  C5  1  0.41962200  0.37097800  0.78538300  1
  C  C6  1  0.40635900  0.35389200  0.26017800  1
  C  C7  1  0.59364100  0.64610800  0.73982200  1
  C  C8  1  0.13981300  0.66222300  0.88234000  1
  C  C9  1  0.86018700  0.33777700  0.11766000  1
  C  C10  1  0.82196000  0.87853400  0.16159400  1
  C  C11  1  0.17804000  0.12146600  0.83840600  1
  C  C12  1  0.47214000  0.06918700  0.25343700  1
  C  C13  1  0.52786000  0.93081300  0.74656300  1
  C  C14  1  0.08407100  0.77067900  0.53273600  1
  C  C15  1  0.91592900  0.22932100  0.46726400  1
  C  C16  1  0.42068200  0.53789900  0.26844100  1
  C  C17  1  0.57931800  0.46210100  0.73155900  1
