# generated using pymatgen
data_CuNi3C5
_symmetry_space_group_name_H-M   'P 1'
_cell_length_a   8.50610800
_cell_length_b   8.50610800
_cell_length_c   8.50610800
_cell_angle_alpha   90.00000000
_cell_angle_beta   90.00000000
_cell_angle_gamma   90.00000000
_symmetry_Int_Tables_number   1
_chemical_formula_structural   CuNi3C5
_chemical_formula_sum   'Cu4 Ni12 C20'
_cell_volume   615.44986057
_cell_formula_units_Z   4
loop_
 _symmetry_equiv_pos_site_id
 _symmetry_equiv_pos_as_xyz
  1  'x, y, z'
loop_
 _atom_site_type_symbol
 _atom_site_label
 _atom_site_symmetry_multiplicity
 _atom_site_fract_x
 _atom_site_fract_y
 _atom_site_fract_z
 _atom_site_occupancy
  Ni  Ni0  1  0.35565300  0.95733100  0.11303800  1
  Ni  Ni1  1  0.38696200  0.64434700  0.45733100  1
  Ni  Ni2  1  0.88696200  0.85565300  0.54266900  1
  Ni  Ni3  1  0.61303800  0.14434700  0.04266900  1
  Ni  Ni4  1  0.64434700  0.45733100  0.38696200  1
  Ni  Ni5  1  0.45733100  0.38696200  0.64434700  1
  Ni  Ni6  1  0.95733100  0.11303800  0.35565300  1
  Ni  Ni7  1  0.04266900  0.61303800  0.14434700  1
  Ni  Ni8  1  0.54266900  0.88696200  0.85565300  1
  Ni  Ni9  1  0.85565300  0.54266900  0.88696200  1
  Ni  Ni10  1  0.14434700  0.04266900  0.61303800  1
  Ni  Ni11  1  0.11303800  0.35565300  0.95733100  1
  Cu  Cu12  1  0.51593700  0.01593700  0.48406300  1
  Cu  Cu13  1  0.98406300  0.98406300  0.98406300  1
  Cu  Cu14  1  0.01593700  0.48406300  0.51593700  1
  Cu  Cu15  1  0.48406300  0.51593700  0.01593700  1
  C  C16  1  0.23526000  0.23526000  0.23526000  1
  C  C17  1  0.73526000  0.26474000  0.76474000  1
  C  C18  1  0.26474000  0.76474000  0.73526000  1
  C  C19  1  0.76474000  0.73526000  0.26474000  1
  C  C20  1  0.40727700  0.90266400  0.38379300  1
  C  C21  1  0.40266400  0.11620700  0.59272300  1
  C  C22  1  0.59272300  0.40266400  0.11620700  1
  C  C23  1  0.38033800  0.61966200  0.11966200  1
  C  C24  1  0.88033800  0.88033800  0.88033800  1
  C  C25  1  0.61620700  0.90727700  0.59733600  1
  C  C26  1  0.88379300  0.09272300  0.09733600  1
  C  C27  1  0.09733600  0.88379300  0.09272300  1
  C  C28  1  0.90266400  0.38379300  0.40727700  1
  C  C29  1  0.11966200  0.38033800  0.61966200  1
  C  C30  1  0.61966200  0.11966200  0.38033800  1
  C  C31  1  0.90727700  0.59733600  0.61620700  1
  C  C32  1  0.09272300  0.09733600  0.88379300  1
  C  C33  1  0.11620700  0.59272300  0.40266400  1
  C  C34  1  0.59733600  0.61620700  0.90727700  1
  C  C35  1  0.38379300  0.40727700  0.90266400  1
