# generated using pymatgen
data_Cu36Ni7C22
_symmetry_space_group_name_H-M   'P 1'
_cell_length_a   13.38475496
_cell_length_b   13.38475496
_cell_length_c   13.38475496
_cell_angle_alpha   60.00000000
_cell_angle_beta   60.00000000
_cell_angle_gamma   60.00000000
_symmetry_Int_Tables_number   1
_chemical_formula_structural   Cu36Ni7C22
_chemical_formula_sum   'Cu36 Ni7 C22'
_cell_volume   1695.57215934
_cell_formula_units_Z   1
loop_
 _symmetry_equiv_pos_site_id
 _symmetry_equiv_pos_as_xyz
  1  'x, y, z'
loop_
 _atom_site_type_symbol
 _atom_site_label
 _atom_site_symmetry_multiplicity
 _atom_site_fract_x
 _atom_site_fract_y
 _atom_site_fract_z
 _atom_site_occupancy
  Ni  Ni0  1  0.23381900  0.76618100  0.76618100  1
  Ni  Ni1  1  0.76618100  0.76618100  0.23381900  1
  Ni  Ni2  1  0.76618100  0.23381900  0.76618100  1
  Ni  Ni3  1  0.23381900  0.76618100  0.23381900  1
  Ni  Ni4  1  0.00000000  0.00000000  0.00000000  1
  Ni  Ni5  1  0.23381900  0.23381900  0.76618100  1
  Ni  Ni6  1  0.76618100  0.23381900  0.23381900  1
  Cu  Cu7  1  0.25791100  0.00548800  0.25791100  1
  Cu  Cu8  1  0.47869000  0.25791100  0.25791100  1
  Cu  Cu9  1  0.00548800  0.25791100  0.47869000  1
  Cu  Cu10  1  0.38664800  0.00000000  0.00000000  1
  Cu  Cu11  1  0.99451200  0.52131000  0.74208900  1
  Cu  Cu12  1  0.00548800  0.47869000  0.25791100  1
  Cu  Cu13  1  0.00000000  0.38664800  0.61335200  1
  Cu  Cu14  1  0.00000000  0.61335200  0.38664800  1
  Cu  Cu15  1  0.52131000  0.99451200  0.74208900  1
  Cu  Cu16  1  0.47869000  0.00548800  0.25791100  1
  Cu  Cu17  1  0.74208900  0.52131000  0.74208900  1
  Cu  Cu18  1  0.47869000  0.25791100  0.00548800  1
  Cu  Cu19  1  0.74208900  0.52131000  0.99451200  1
  Cu  Cu20  1  0.00548800  0.25791100  0.25791100  1
  Cu  Cu21  1  0.25791100  0.47869000  0.00548800  1
  Cu  Cu22  1  0.74208900  0.74208900  0.52131000  1
  Cu  Cu23  1  0.52131000  0.74208900  0.74208900  1
  Cu  Cu24  1  0.38664800  0.61335200  0.00000000  1
  Cu  Cu25  1  0.74208900  0.99451200  0.74208900  1
  Cu  Cu26  1  0.00000000  0.38664800  0.00000000  1
  Cu  Cu27  1  0.25791100  0.00548800  0.47869000  1
  Cu  Cu28  1  0.52131000  0.74208900  0.99451200  1
  Cu  Cu29  1  0.25791100  0.25791100  0.00548800  1
  Cu  Cu30  1  0.61335200  0.38664800  0.00000000  1
  Cu  Cu31  1  0.74208900  0.74208900  0.99451200  1
  Cu  Cu32  1  0.25791100  0.25791100  0.47869000  1
  Cu  Cu33  1  0.00000000  0.00000000  0.38664800  1
  Cu  Cu34  1  0.00000000  0.61335200  0.00000000  1
  Cu  Cu35  1  0.99451200  0.74208900  0.74208900  1
  Cu  Cu36  1  0.25791100  0.47869000  0.25791100  1
  Cu  Cu37  1  0.61335200  0.00000000  0.38664800  1
  Cu  Cu38  1  0.74208900  0.99451200  0.52131000  1
  Cu  Cu39  1  0.00000000  0.00000000  0.61335200  1
  Cu  Cu40  1  0.99451200  0.74208900  0.52131000  1
  Cu  Cu41  1  0.38664800  0.00000000  0.61335200  1
  Cu  Cu42  1  0.61335200  0.00000000  0.00000000  1
  C  C43  1  0.32774100  0.89075300  0.89075300  1
  C  C44  1  0.10924700  0.10924700  0.10924700  1
  C  C45  1  0.18501600  0.81498400  0.50000000  1
  C  C46  1  0.18501600  0.50000000  0.50000000  1
  C  C47  1  0.50000000  0.18501600  0.50000000  1
  C  C48  1  0.81498400  0.50000000  0.50000000  1
  C  C49  1  0.18501600  0.50000000  0.81498400  1
  C  C50  1  0.50000000  0.81498400  0.18501600  1
  C  C51  1  0.50000000  0.50000000  0.18501600  1
  C  C52  1  0.50000000  0.18501600  0.81498400  1
  C  C53  1  0.10924700  0.10924700  0.67225900  1
  C  C54  1  0.67225900  0.10924700  0.10924700  1
  C  C55  1  0.89075300  0.32774100  0.89075300  1
  C  C56  1  0.10924700  0.67225900  0.10924700  1
  C  C57  1  0.81498400  0.18501600  0.50000000  1
  C  C58  1  0.89075300  0.89075300  0.32774100  1
  C  C59  1  0.81498400  0.50000000  0.18501600  1
  C  C60  1  0.75000000  0.75000000  0.75000000  1
  C  C61  1  0.50000000  0.81498400  0.50000000  1
  C  C62  1  0.50000000  0.50000000  0.81498400  1
  C  C63  1  0.89075300  0.89075300  0.89075300  1
  C  C64  1  0.25000000  0.25000000  0.25000000  1
