# generated using pymatgen
data_Cu2NiC9
_symmetry_space_group_name_H-M   'P 1'
_cell_length_a   7.71397600
_cell_length_b   6.08203900
_cell_length_c   8.36858332
_cell_angle_alpha   79.19387431
_cell_angle_beta   90.00000000
_cell_angle_gamma   90.00000000
_symmetry_Int_Tables_number   1
_chemical_formula_structural   Cu2NiC9
_chemical_formula_sum   'Cu4 Ni2 C18'
_cell_volume   385.66397724
_cell_formula_units_Z   2
loop_
 _symmetry_equiv_pos_site_id
 _symmetry_equiv_pos_as_xyz
  1  'x, y, z'
loop_
 _atom_site_type_symbol
 _atom_site_label
 _atom_site_symmetry_multiplicity
 _atom_site_fract_x
 _atom_site_fract_y
 _atom_site_fract_z
 _atom_site_occupancy
  C  C0  1  0.75000000  0.98106800  0.22106000  1
  C  C1  1  0.25000000  0.01893200  0.77894000  1
  Ni  Ni2  1  0.25000000  0.68423600  0.20543700  1
  Ni  Ni3  1  0.75000000  0.31576400  0.79456300  1
  Cu  Cu4  1  0.75000000  0.57246600  0.83211300  1
  Cu  Cu5  1  0.75000000  0.30647700  0.59630700  1
  Cu  Cu6  1  0.25000000  0.42753400  0.16788700  1
  Cu  Cu7  1  0.25000000  0.69352300  0.40369300  1
  C  C8  1  0.75000000  0.51222900  0.49248400  1
  C  C9  1  0.60731200  0.69817600  0.77195600  1
  C  C10  1  0.09956900  0.79598800  0.13197000  1
  C  C11  1  0.59956900  0.20401200  0.86803000  1
  C  C12  1  0.10731200  0.30182400  0.22804400  1
  C  C13  1  0.39207600  0.80532900  0.45083900  1
  C  C14  1  0.89268800  0.69817600  0.77195600  1
  C  C15  1  0.90043100  0.20401200  0.86803000  1
  C  C16  1  0.39268800  0.30182400  0.22804400  1
  C  C17  1  0.10792400  0.80532900  0.45083900  1
  C  C18  1  0.89207600  0.19467100  0.54916100  1
  C  C19  1  0.25000000  0.42885200  0.00161600  1
  C  C20  1  0.40043100  0.79598800  0.13197000  1
  C  C21  1  0.75000000  0.57114800  0.99838400  1
  C  C22  1  0.25000000  0.48777100  0.50751600  1
  C  C23  1  0.60792400  0.19467100  0.54916100  1
