# generated using pymatgen
data_Cu(Ni5C3)2
_symmetry_space_group_name_H-M   'P 1'
_cell_length_a   7.68215300
_cell_length_b   12.93657000
_cell_length_c   18.15251500
_cell_angle_alpha   90.00000000
_cell_angle_beta   90.00000000
_cell_angle_gamma   90.00000000
_symmetry_Int_Tables_number   1
_chemical_formula_structural   Cu(Ni5C3)2
_chemical_formula_sum   'Cu4 Ni40 C24'
_cell_volume   1804.00982962
_cell_formula_units_Z   4
loop_
 _symmetry_equiv_pos_site_id
 _symmetry_equiv_pos_as_xyz
  1  'x, y, z'
loop_
 _atom_site_type_symbol
 _atom_site_label
 _atom_site_symmetry_multiplicity
 _atom_site_fract_x
 _atom_site_fract_y
 _atom_site_fract_z
 _atom_site_occupancy
  C  C0  1  0.78906200  0.93999100  0.83516300  1
  C  C1  1  0.85646700  0.90240300  0.53555800  1
  C  C2  1  0.21093800  0.43999100  0.83516300  1
  C  C3  1  0.85646700  0.59759700  0.03555800  1
  C  C4  1  0.21093800  0.06000900  0.33516300  1
  C  C5  1  0.14353300  0.40240300  0.53555800  1
  C  C6  1  0.81387900  0.24015300  0.20023000  1
  C  C7  1  0.14353300  0.09759700  0.03555800  1
  C  C8  1  0.66758700  0.23512700  0.96826900  1
  C  C9  1  0.18612100  0.75984700  0.70023000  1
  C  C10  1  0.78906200  0.56000900  0.33516300  1
  C  C11  1  0.81387900  0.25984700  0.70023000  1
  C  C12  1  0.66758700  0.26487300  0.46826900  1
  C  C13  1  0.18612100  0.74015300  0.20023000  1
  C  C14  1  0.33241300  0.76487300  0.46826900  1
  C  C15  1  0.33241300  0.73512700  0.96826900  1
  C  C16  1  0.74249400  0.96306500  0.10458000  1
  C  C17  1  0.25750600  0.03693500  0.60458000  1
  C  C18  1  0.21446500  0.39840600  0.29418000  1
  C  C19  1  0.74249400  0.53693500  0.60458000  1
  C  C20  1  0.21446500  0.10159400  0.79418000  1
  C  C21  1  0.78553500  0.89840600  0.29418000  1
  C  C22  1  0.25750600  0.46306500  0.10458000  1
  C  C23  1  0.78553500  0.60159400  0.79418000  1
  Ni  Ni24  1  0.02636500  0.35082600  0.04927100  1
  Ni  Ni25  1  0.75238100  0.77209200  0.19028000  1
  Ni  Ni26  1  0.25032700  0.93031300  0.85255900  1
  Ni  Ni27  1  0.53754100  0.48927400  0.70590900  1
  Ni  Ni28  1  0.57665200  0.43617800  0.11640700  1
  Ni  Ni29  1  0.26643300  0.34033100  0.99664300  1
  Ni  Ni30  1  0.46245900  0.51072600  0.20590900  1
  Ni  Ni31  1  0.75238100  0.72790800  0.69028000  1
  Ni  Ni32  1  0.03042900  0.49559600  0.20237900  1
  Ni  Ni33  1  0.97363500  0.85082600  0.04927100  1
  Ni  Ni34  1  0.46245900  0.98927400  0.70590900  1
  Ni  Ni35  1  0.99301700  0.17340300  0.85966200  1
  Ni  Ni36  1  0.24761900  0.27209200  0.19028000  1
  Ni  Ni37  1  0.57665200  0.06382200  0.61640700  1
  Ni  Ni38  1  0.42556900  0.24205300  0.77591000  1
  Ni  Ni39  1  0.59007700  0.54383700  0.89776500  1
  Ni  Ni40  1  0.03042900  0.00440400  0.70237900  1
  Ni  Ni41  1  0.96957100  0.99559600  0.20237900  1
  Ni  Ni42  1  0.24761900  0.22790800  0.69028000  1
  Ni  Ni43  1  0.00698300  0.82659700  0.35966200  1
  Ni  Ni44  1  0.42334800  0.56382200  0.61640700  1
  Ni  Ni45  1  0.02636500  0.14917400  0.54927100  1
  Ni  Ni46  1  0.99301700  0.32659700  0.35966200  1
  Ni  Ni47  1  0.00698300  0.67340300  0.85966200  1
  Ni  Ni48  1  0.42556900  0.25794700  0.27591000  1
  Ni  Ni49  1  0.74967300  0.43031300  0.85255900  1
  Ni  Ni50  1  0.97363500  0.64917400  0.54927100  1
  Ni  Ni51  1  0.42334800  0.93617800  0.11640700  1
  Ni  Ni52  1  0.96957100  0.50440400  0.70237900  1
  Ni  Ni53  1  0.57443100  0.75794700  0.27591000  1
  Ni  Ni54  1  0.73356700  0.84033100  0.99664300  1
  Ni  Ni55  1  0.53754100  0.01072600  0.20590900  1
  Ni  Ni56  1  0.26643300  0.15966900  0.49664300  1
  Ni  Ni57  1  0.40992300  0.45616300  0.39776500  1
  Ni  Ni58  1  0.57443100  0.74205300  0.77591000  1
  Ni  Ni59  1  0.59007700  0.95616300  0.39776500  1
  Ni  Ni60  1  0.40992300  0.04383700  0.89776500  1
  Ni  Ni61  1  0.25032700  0.56968700  0.35255900  1
  Ni  Ni62  1  0.74967300  0.06968700  0.35255900  1
  Ni  Ni63  1  0.73356700  0.65966900  0.49664300  1
  Cu  Cu64  1  0.77194800  0.41615300  0.55728400  1
  Cu  Cu65  1  0.77194800  0.08384700  0.05728400  1
  Cu  Cu66  1  0.22805200  0.91615300  0.55728400  1
  Cu  Cu67  1  0.22805200  0.58384700  0.05728400  1
