# generated using pymatgen
data_Cu2Ni12C17
_symmetry_space_group_name_H-M   'P 1'
_cell_length_a   12.76890300
_cell_length_b   6.41074100
_cell_length_c   9.48938793
_cell_angle_alpha   75.78437885
_cell_angle_beta   90.00000000
_cell_angle_gamma   90.00000000
_symmetry_Int_Tables_number   1
_chemical_formula_structural   Cu2Ni12C17
_chemical_formula_sum   'Cu4 Ni24 C34'
_cell_volume   752.99722099
_cell_formula_units_Z   2
loop_
 _symmetry_equiv_pos_site_id
 _symmetry_equiv_pos_as_xyz
  1  'x, y, z'
loop_
 _atom_site_type_symbol
 _atom_site_label
 _atom_site_symmetry_multiplicity
 _atom_site_fract_x
 _atom_site_fract_y
 _atom_site_fract_z
 _atom_site_occupancy
  C  C0  1  0.34925200  0.65352700  0.12393900  1
  C  C1  1  0.84925200  0.34647300  0.37606100  1
  C  C2  1  0.65074800  0.34647300  0.87606100  1
  C  C3  1  0.15074800  0.65352700  0.62393900  1
  C  C4  1  0.00000000  0.00000000  0.00000000  1
  C  C5  1  0.50000000  0.00000000  0.50000000  1
  Ni  Ni6  1  0.86493500  0.69138900  0.03189900  1
  Ni  Ni7  1  0.36493500  0.30861100  0.46810100  1
  Ni  Ni8  1  0.13506500  0.30861100  0.96810100  1
  Ni  Ni9  1  0.63506500  0.69138900  0.53189900  1
  Ni  Ni10  1  0.94206400  0.67964000  0.90098200  1
  Ni  Ni11  1  0.44206400  0.32036000  0.59901800  1
  Ni  Ni12  1  0.05793600  0.32036000  0.09901800  1
  Ni  Ni13  1  0.55793600  0.67964000  0.40098200  1
  Ni  Ni14  1  0.87554200  0.08615400  0.77268400  1
  Ni  Ni15  1  0.37554200  0.91384600  0.72731600  1
  Ni  Ni16  1  0.12445800  0.91384600  0.22731600  1
  Ni  Ni17  1  0.62445800  0.08615400  0.27268400  1
  Ni  Ni18  1  0.91051500  0.31010800  0.80881800  1
  Ni  Ni19  1  0.41051500  0.68989200  0.69118200  1
  Ni  Ni20  1  0.08948500  0.68989200  0.19118200  1
  Ni  Ni21  1  0.58948500  0.31010800  0.30881800  1
  Ni  Ni22  1  0.81177100  0.00382700  0.16750100  1
  Ni  Ni23  1  0.31177100  0.99617300  0.33249900  1
  Ni  Ni24  1  0.18822900  0.99617300  0.83249900  1
  Ni  Ni25  1  0.68822900  0.00382700  0.66750100  1
  Ni  Ni26  1  0.89920200  0.92638900  0.28660300  1
  Ni  Ni27  1  0.39920200  0.07361100  0.21339700  1
  Ni  Ni28  1  0.10079800  0.07361100  0.71339700  1
  Ni  Ni29  1  0.60079800  0.92638900  0.78660300  1
  Cu  Cu30  1  0.35864200  0.27002000  0.89144700  1
  Cu  Cu31  1  0.85864200  0.72998000  0.60855300  1
  Cu  Cu32  1  0.64135800  0.72998000  0.10855300  1
  Cu  Cu33  1  0.14135800  0.27002000  0.39144700  1
  C  C34  1  0.93894900  0.71948600  0.99679600  1
  C  C35  1  0.43894900  0.28051400  0.50320400  1
  C  C36  1  0.06105100  0.28051400  0.00320400  1
  C  C37  1  0.56105100  0.71948600  0.49679600  1
  C  C38  1  0.88981200  0.15768000  0.85305300  1
  C  C39  1  0.38981200  0.84232000  0.64694700  1
  C  C40  1  0.11018800  0.84232000  0.14694700  1
  C  C41  1  0.61018800  0.15768000  0.35305300  1
  C  C42  1  0.88458200  0.03292400  0.19345700  1
  C  C43  1  0.38458200  0.96707600  0.30654300  1
  C  C44  1  0.11541800  0.96707600  0.80654300  1
  C  C45  1  0.61541800  0.03292400  0.69345700  1
  C  C46  1  0.43009000  0.24015400  0.04227100  1
  C  C47  1  0.93009000  0.75984600  0.45772900  1
  C  C48  1  0.56991000  0.75984600  0.95772900  1
  C  C49  1  0.06991000  0.24015400  0.54227100  1
  C  C50  1  0.25065400  0.41386500  0.90339400  1
  C  C51  1  0.75065400  0.58613500  0.59660600  1
  C  C52  1  0.74934600  0.58613500  0.09660600  1
  C  C53  1  0.24934600  0.41386500  0.40339400  1
  C  C54  1  0.43101700  0.40963000  0.75087800  1
  C  C55  1  0.93101700  0.59037000  0.74912200  1
  C  C56  1  0.56898300  0.59037000  0.24912200  1
  C  C57  1  0.06898300  0.40963000  0.25087800  1
  C  C58  1  0.32485000  0.02979000  0.86283200  1
  C  C59  1  0.82485000  0.97021000  0.63716800  1
  C  C60  1  0.67515000  0.97021000  0.13716800  1
  C  C61  1  0.17515000  0.02979000  0.36283200  1
