# generated using pymatgen
data_CuNiC
_symmetry_space_group_name_H-M   'P 1'
_cell_length_a   6.25208800
_cell_length_b   8.39107800
_cell_length_c   16.74038029
_cell_angle_alpha   86.59998028
_cell_angle_beta   90.00000000
_cell_angle_gamma   90.00000000
_symmetry_Int_Tables_number   1
_chemical_formula_structural   CuNiC
_chemical_formula_sum   'Cu24 Ni24 C24'
_cell_volume   876.68392741
_cell_formula_units_Z   24
loop_
 _symmetry_equiv_pos_site_id
 _symmetry_equiv_pos_as_xyz
  1  'x, y, z'
loop_
 _atom_site_type_symbol
 _atom_site_label
 _atom_site_symmetry_multiplicity
 _atom_site_fract_x
 _atom_site_fract_y
 _atom_site_fract_z
 _atom_site_occupancy
  C  C0  1  0.14719600  0.31980400  0.80988000  1
  C  C1  1  0.13957900  0.05823700  0.32581400  1
  C  C2  1  0.86875500  0.66679800  0.43069200  1
  C  C3  1  0.63124500  0.16679800  0.43069200  1
  C  C4  1  0.36875500  0.83320200  0.56930800  1
  C  C5  1  0.14448500  0.30047500  0.05513900  1
  C  C6  1  0.85280400  0.68019600  0.19012000  1
  C  C7  1  0.36042100  0.55823700  0.32581400  1
  C  C8  1  0.63957900  0.44176300  0.67418600  1
  C  C9  1  0.13124500  0.33320200  0.56930800  1
  C  C10  1  0.35551500  0.80047500  0.05513900  1
  C  C11  1  0.85551500  0.69952500  0.94486100  1
  C  C12  1  0.35280400  0.81980400  0.80988000  1
  C  C13  1  0.86042100  0.94176300  0.67418600  1
  C  C14  1  0.64448500  0.19952500  0.94486100  1
  C  C15  1  0.64719600  0.18019600  0.19012000  1
  C  C16  1  0.15853600  0.04054500  0.94685900  1
  C  C17  1  0.84797300  0.40121200  0.32791300  1
  C  C18  1  0.15202700  0.59878800  0.67208700  1
  C  C19  1  0.34146400  0.54054500  0.94685900  1
  C  C20  1  0.65202700  0.90121200  0.32791300  1
  C  C21  1  0.65853600  0.45945500  0.05314100  1
  C  C22  1  0.34797300  0.09878800  0.67208700  1
  C  C23  1  0.84146400  0.95945500  0.05314100  1
  Ni  Ni24  1  0.69429200  0.43705800  0.38501500  1
  Ni  Ni25  1  0.19429200  0.06294200  0.61498500  1
  Ni  Ni26  1  0.64813000  0.61467200  0.07693800  1
  Ni  Ni27  1  0.85655100  0.24498700  0.30520100  1
  Ni  Ni28  1  0.35655100  0.25501300  0.69479900  1
  Ni  Ni29  1  0.80570800  0.93705800  0.38501500  1
  Ni  Ni30  1  0.69598900  0.92883700  0.99196100  1
  Ni  Ni31  1  0.30570800  0.56294200  0.61498500  1
  Ni  Ni32  1  0.19598900  0.57116300  0.00803900  1
  Ni  Ni33  1  0.01253800  0.47842500  0.69645000  1
  Ni  Ni34  1  0.80401100  0.42883700  0.99196100  1
  Ni  Ni35  1  0.14344900  0.75501300  0.69479900  1
  Ni  Ni36  1  0.51253800  0.02157500  0.30355000  1
  Ni  Ni37  1  0.48746200  0.97842500  0.69645000  1
  Ni  Ni38  1  0.64344900  0.74498700  0.30520100  1
  Ni  Ni39  1  0.85187000  0.11467200  0.07693800  1
  Ni  Ni40  1  0.52054600  0.33673200  0.07687700  1
  Ni  Ni41  1  0.47945400  0.66326800  0.92312300  1
  Ni  Ni42  1  0.02054600  0.16326800  0.92312300  1
  Ni  Ni43  1  0.35187000  0.38532800  0.92306200  1
  Ni  Ni44  1  0.97945400  0.83673200  0.07687700  1
  Ni  Ni45  1  0.30401100  0.07116300  0.00803900  1
  Ni  Ni46  1  0.14813000  0.88532800  0.92306200  1
  Ni  Ni47  1  0.98746200  0.52157500  0.30355000  1
  Cu  Cu48  1  0.17425100  0.50989100  0.45134300  1
  Cu  Cu49  1  0.42911100  0.09467700  0.84972000  1
  Cu  Cu50  1  0.17222500  0.78484800  0.35337200  1
  Cu  Cu51  1  0.92911100  0.40532300  0.15028000  1
  Cu  Cu52  1  0.22862600  0.67880100  0.18813200  1
  Cu  Cu53  1  0.27137400  0.17880100  0.18813200  1
  Cu  Cu54  1  0.72862600  0.82119900  0.81186800  1
  Cu  Cu55  1  0.42938100  0.54183500  0.77095400  1
  Cu  Cu56  1  0.52379100  0.70352400  0.46710800  1
  Cu  Cu57  1  0.07088900  0.59467700  0.84972000  1
  Cu  Cu58  1  0.82777500  0.21515200  0.64662800  1
  Cu  Cu59  1  0.57088900  0.90532300  0.15028000  1
  Cu  Cu60  1  0.67222500  0.71515200  0.64662800  1
  Cu  Cu61  1  0.57061900  0.45816500  0.22904600  1
  Cu  Cu62  1  0.47620900  0.29647600  0.53289200  1
  Cu  Cu63  1  0.32777500  0.28484800  0.35337200  1
  Cu  Cu64  1  0.97620900  0.20352400  0.46710800  1
  Cu  Cu65  1  0.02379100  0.79647600  0.53289200  1
  Cu  Cu66  1  0.92938100  0.95816500  0.22904600  1
  Cu  Cu67  1  0.32574900  0.00989100  0.45134300  1
  Cu  Cu68  1  0.82574900  0.49010900  0.54865700  1
  Cu  Cu69  1  0.07061900  0.04183500  0.77095400  1
  Cu  Cu70  1  0.77137400  0.32119900  0.81186800  1
  Cu  Cu71  1  0.67425100  0.99010900  0.54865700  1
