# generated using pymatgen
data_Cu5NiC3
_symmetry_space_group_name_H-M   'P 1'
_cell_length_a   3.72974700
_cell_length_b   6.78048000
_cell_length_c   9.49823713
_cell_angle_alpha   81.59573921
_cell_angle_beta   90.00000000
_cell_angle_gamma   90.00000000
_symmetry_Int_Tables_number   1
_chemical_formula_structural   Cu5NiC3
_chemical_formula_sum   'Cu10 Ni2 C6'
_cell_volume   237.62597600
_cell_formula_units_Z   2
loop_
 _symmetry_equiv_pos_site_id
 _symmetry_equiv_pos_as_xyz
  1  'x, y, z'
loop_
 _atom_site_type_symbol
 _atom_site_label
 _atom_site_symmetry_multiplicity
 _atom_site_fract_x
 _atom_site_fract_y
 _atom_site_fract_z
 _atom_site_occupancy
  Ni  Ni0  1  0.25000000  0.18000000  0.21713500  1
  Ni  Ni1  1  0.75000000  0.82000000  0.78286500  1
  Cu  Cu2  1  0.25000000  0.67836200  0.27805200  1
  Cu  Cu3  1  0.75000000  0.32163800  0.72194800  1
  Cu  Cu4  1  0.25000000  0.84202700  0.50841000  1
  Cu  Cu5  1  0.75000000  0.15797300  0.49159000  1
  Cu  Cu6  1  0.25000000  0.45889500  0.92867700  1
  Cu  Cu7  1  0.75000000  0.54110500  0.07132300  1
  Cu  Cu8  1  0.25000000  0.08479100  0.89898500  1
  Cu  Cu9  1  0.75000000  0.91520900  0.10101500  1
  Cu  Cu10  1  0.25000000  0.39487900  0.48755800  1
  Cu  Cu11  1  0.75000000  0.60512100  0.51244200  1
  C  C12  1  0.25000000  0.55865800  0.68604200  1
  C  C13  1  0.75000000  0.44134200  0.31395800  1
  C  C14  1  0.25000000  0.76198000  0.01964000  1
  C  C15  1  0.75000000  0.23802000  0.98036000  1
  C  C16  1  0.25000000  0.10143300  0.65286600  1
  C  C17  1  0.75000000  0.89856700  0.34713400  1
