# generated using pymatgen
data_Cu8NiC18
_symmetry_space_group_name_H-M   'P 1'
_cell_length_a   11.60062500
_cell_length_b   10.32519600
_cell_length_c   12.91839359
_cell_angle_alpha   88.83451516
_cell_angle_beta   90.00000000
_cell_angle_gamma   90.00000000
_symmetry_Int_Tables_number   1
_chemical_formula_structural   Cu8NiC18
_chemical_formula_sum   'Cu32 Ni4 C72'
_cell_volume   1547.02861770
_cell_formula_units_Z   4
loop_
 _symmetry_equiv_pos_site_id
 _symmetry_equiv_pos_as_xyz
  1  'x, y, z'
loop_
 _atom_site_type_symbol
 _atom_site_label
 _atom_site_symmetry_multiplicity
 _atom_site_fract_x
 _atom_site_fract_y
 _atom_site_fract_z
 _atom_site_occupancy
  C  C0  1  0.87178600  0.11217900  0.93836700  1
  C  C1  1  0.37178600  0.88782100  0.56163300  1
  C  C2  1  0.62821400  0.11217900  0.43836700  1
  C  C3  1  0.40049600  0.10966100  0.89607600  1
  C  C4  1  0.63658500  0.52656000  0.22187300  1
  C  C5  1  0.13658500  0.47344000  0.27812700  1
  C  C6  1  0.12821400  0.88782100  0.06163300  1
  C  C7  1  0.59950400  0.89033900  0.10392400  1
  C  C8  1  0.90049600  0.89033900  0.60392400  1
  C  C9  1  0.36341500  0.47344000  0.77812700  1
  C  C10  1  0.09950400  0.10966100  0.39607600  1
  C  C11  1  0.86341500  0.52656000  0.72187300  1
  Ni  Ni12  1  0.33457000  0.25213000  0.53912500  1
  Ni  Ni13  1  0.16543000  0.25213000  0.03912500  1
  Ni  Ni14  1  0.66543000  0.74787000  0.46087500  1
  Ni  Ni15  1  0.83457000  0.74787000  0.96087500  1
  Cu  Cu16  1  0.09863900  0.65507000  0.47655300  1
  Cu  Cu17  1  0.30162200  0.49208100  0.08325000  1
  Cu  Cu18  1  0.83766900  0.86831800  0.35551500  1
  Cu  Cu19  1  0.61852800  0.77907000  0.68789100  1
  Cu  Cu20  1  0.66233100  0.86831800  0.85551500  1
  Cu  Cu21  1  0.90136100  0.34493000  0.52344700  1
  Cu  Cu22  1  0.94788800  0.22532600  0.16418900  1
  Cu  Cu23  1  0.55211200  0.22532600  0.66418900  1
  Cu  Cu24  1  0.44788800  0.77467400  0.33581100  1
  Cu  Cu25  1  0.25085500  0.82881100  0.28435600  1
  Cu  Cu26  1  0.87197800  0.30668000  0.33397200  1
  Cu  Cu27  1  0.03873800  0.80784000  0.31981200  1
  Cu  Cu28  1  0.69837800  0.50791900  0.91675000  1
  Cu  Cu29  1  0.80162200  0.50791900  0.41675000  1
  Cu  Cu30  1  0.24914500  0.82881100  0.78435600  1
  Cu  Cu31  1  0.59863900  0.34493000  0.02344700  1
  Cu  Cu32  1  0.75085500  0.17118900  0.21564400  1
  Cu  Cu33  1  0.12802200  0.69332000  0.66602800  1
  Cu  Cu34  1  0.96126200  0.19216000  0.68018800  1
  Cu  Cu35  1  0.40136100  0.65507000  0.97655300  1
  Cu  Cu36  1  0.33766900  0.13168200  0.14448500  1
  Cu  Cu37  1  0.88147200  0.77907000  0.18789100  1
  Cu  Cu38  1  0.11852800  0.22093000  0.81210900  1
  Cu  Cu39  1  0.38147200  0.22093000  0.31210900  1
  Cu  Cu40  1  0.05211200  0.77467400  0.83581100  1
  Cu  Cu41  1  0.74914500  0.17118900  0.71564400  1
  Cu  Cu42  1  0.37197800  0.69332000  0.16602800  1
  Cu  Cu43  1  0.53873800  0.19216000  0.18018800  1
  Cu  Cu44  1  0.46126200  0.80784000  0.81981200  1
  Cu  Cu45  1  0.62802200  0.30668000  0.83397200  1
  Cu  Cu46  1  0.19837800  0.49208100  0.58325000  1
  Cu  Cu47  1  0.16233100  0.13168200  0.64448500  1
  C  C48  1  0.84428000  0.46538500  0.51339100  1
  C  C49  1  0.84008300  0.16820900  0.14269900  1
  C  C50  1  0.56338600  0.31425500  0.12159300  1
  C  C51  1  0.03400700  0.71462600  0.74305200  1
  C  C52  1  0.15991700  0.83179100  0.85730100  1
  C  C53  1  0.74302300  0.88309600  0.93172200  1
  C  C54  1  0.27079100  0.77566300  0.19010600  1
  C  C55  1  0.22920900  0.77566300  0.69010600  1
  C  C56  1  0.46599300  0.71462600  0.24305200  1
  C  C57  1  0.24302300  0.11690400  0.56827800  1
  C  C58  1  0.14688800  0.88314900  0.30944800  1
  C  C59  1  0.77079100  0.22433700  0.30989400  1
  C  C60  1  0.22682900  0.39135100  0.09040700  1
  C  C61  1  0.30051000  0.17143000  0.24195000  1
  C  C62  1  0.45296300  0.11206700  0.12522200  1
  C  C63  1  0.65991700  0.16820900  0.64269900  1
  C  C64  1  0.96599300  0.28537400  0.25694800  1
  C  C65  1  0.54703700  0.88793300  0.87477800  1
  C  C66  1  0.08343100  0.73019600  0.56191500  1
  C  C67  1  0.35311200  0.88314900  0.80944800  1
  C  C68  1  0.02862100  0.21469100  0.08918800  1
  C  C69  1  0.15572000  0.53461500  0.48660900  1
  C  C70  1  0.34428000  0.53461500  0.98660900  1
  C  C71  1  0.65927400  0.74162100  0.59519200  1
  C  C72  1  0.85311200  0.11685100  0.69055200  1
  C  C73  1  0.41656900  0.73019600  0.06191500  1
  C  C74  1  0.95296300  0.88793300  0.37477800  1
  C  C75  1  0.99557400  0.77175400  0.21564100  1
  C  C76  1  0.53400700  0.28537400  0.75694800  1
  C  C77  1  0.49557400  0.22824600  0.28435900  1
  C  C78  1  0.93661400  0.31425500  0.62159300  1
  C  C79  1  0.04703700  0.11206700  0.62522200  1
  C  C80  1  0.64688800  0.11685100  0.19055200  1
  C  C81  1  0.06338600  0.68574500  0.37840700  1
  C  C82  1  0.00442600  0.22824600  0.78435900  1
  C  C83  1  0.50442600  0.77175400  0.71564100  1
  C  C84  1  0.16692700  0.55736900  0.67087000  1
  C  C85  1  0.91656900  0.26980400  0.43808500  1
  C  C86  1  0.69949000  0.82857000  0.75805000  1
  C  C87  1  0.34008300  0.83179100  0.35730100  1
  C  C88  1  0.34072600  0.25837900  0.40480800  1
  C  C89  1  0.97137900  0.78530900  0.91081200  1
  C  C90  1  0.75697700  0.88309600  0.43172200  1
  C  C91  1  0.43661400  0.68574500  0.87840700  1
  C  C92  1  0.52862100  0.78530900  0.41081200  1
  C  C93  1  0.19949000  0.17143000  0.74195000  1
  C  C94  1  0.58343100  0.26980400  0.93808500  1
  C  C95  1  0.72920900  0.22433700  0.80989400  1
  C  C96  1  0.84072600  0.74162100  0.09519200  1
  C  C97  1  0.25697700  0.11690400  0.06827800  1
  C  C98  1  0.83307300  0.44263100  0.32913000  1
  C  C99  1  0.15927400  0.25837900  0.90480800  1
  C  C100  1  0.65572000  0.46538500  0.01339100  1
  C  C101  1  0.66692700  0.44263100  0.82913000  1
  C  C102  1  0.47137900  0.21469100  0.58918800  1
  C  C103  1  0.77317100  0.60864900  0.90959300  1
  C  C104  1  0.72682900  0.60864900  0.40959300  1
  C  C105  1  0.80051000  0.82857000  0.25805000  1
  C  C106  1  0.33307300  0.55736900  0.17087000  1
  C  C107  1  0.27317100  0.39135100  0.59040700  1
