# generated using pymatgen
data_CuNiC
_symmetry_space_group_name_H-M   'P 1'
_cell_length_a   4.95443600
_cell_length_b   14.68714500
_cell_length_c   18.92680658
_cell_angle_alpha   64.71770377
_cell_angle_beta   90.00000000
_cell_angle_gamma   90.00000000
_symmetry_Int_Tables_number   1
_chemical_formula_structural   CuNiC
_chemical_formula_sum   'Cu12 Ni12 C12'
_cell_volume   1245.31850875
_cell_formula_units_Z   12
loop_
 _symmetry_equiv_pos_site_id
 _symmetry_equiv_pos_as_xyz
  1  'x, y, z'
loop_
 _atom_site_type_symbol
 _atom_site_label
 _atom_site_symmetry_multiplicity
 _atom_site_fract_x
 _atom_site_fract_y
 _atom_site_fract_z
 _atom_site_occupancy
  Ni  Ni0  1  0.26116300  0.82461100  0.23096600  1
  Ni  Ni1  1  0.84587000  0.24787900  0.10029700  1
  Ni  Ni2  1  0.15413000  0.75212100  0.89970300  1
  Ni  Ni3  1  0.34011900  0.61252500  0.83605900  1
  Ni  Ni4  1  0.65988100  0.38747500  0.16394100  1
  Ni  Ni5  1  0.15988100  0.61252500  0.33605900  1
  Ni  Ni6  1  0.23883700  0.82461100  0.73096600  1
  Ni  Ni7  1  0.73883700  0.17538900  0.76903400  1
  Ni  Ni8  1  0.34587000  0.75212100  0.39970300  1
  Ni  Ni9  1  0.76116300  0.17538900  0.26903400  1
  Ni  Ni10  1  0.65413000  0.24787900  0.60029700  1
  Ni  Ni11  1  0.84011900  0.38747500  0.66394100  1
  Cu  Cu12  1  0.64424400  0.29429100  0.26422700  1
  Cu  Cu13  1  0.36595600  0.86091200  0.30664700  1
  Cu  Cu14  1  0.14424400  0.70570900  0.23577300  1
  Cu  Cu15  1  0.13404400  0.86091200  0.80664700  1
  Cu  Cu16  1  0.63404400  0.13908800  0.69335300  1
  Cu  Cu17  1  0.86595600  0.13908800  0.19335300  1
  Cu  Cu18  1  0.74418600  0.37691200  0.57576700  1
  Cu  Cu19  1  0.85575600  0.29429100  0.76422700  1
  Cu  Cu20  1  0.75581400  0.37691200  0.07576700  1
  Cu  Cu21  1  0.24418600  0.62308800  0.92423300  1
  Cu  Cu22  1  0.25581400  0.62308800  0.42423300  1
  Cu  Cu23  1  0.35575600  0.70570900  0.73577300  1
  C  C24  1  0.55921000  0.22205200  0.51162100  1
  C  C25  1  0.72644100  0.06806200  0.87329000  1
  C  C26  1  0.94623900  0.52097500  0.64828900  1
  C  C27  1  0.44079000  0.77794800  0.48837900  1
  C  C28  1  0.22644100  0.93193800  0.62671000  1
  C  C29  1  0.94079000  0.22205200  0.01162100  1
  C  C30  1  0.05921000  0.77794800  0.98837900  1
  C  C31  1  0.55376100  0.52097500  0.14828900  1
  C  C32  1  0.05376100  0.47902500  0.35171100  1
  C  C33  1  0.77355900  0.06806200  0.37329000  1
  C  C34  1  0.27355900  0.93193800  0.12671000  1
  C  C35  1  0.44623900  0.47902500  0.85171100  1
