# generated using pymatgen
data_CuNiC9
_symmetry_space_group_name_H-M   'P 1'
_cell_length_a   7.99446400
_cell_length_b   9.72084300
_cell_length_c   10.16176200
_cell_angle_alpha   90.00000000
_cell_angle_beta   90.00000000
_cell_angle_gamma   90.00000000
_symmetry_Int_Tables_number   1
_chemical_formula_structural   CuNiC9
_chemical_formula_sum   'Cu8 Ni8 C72'
_cell_volume   789.70029302
_cell_formula_units_Z   8
loop_
 _symmetry_equiv_pos_site_id
 _symmetry_equiv_pos_as_xyz
  1  'x, y, z'
loop_
 _atom_site_type_symbol
 _atom_site_label
 _atom_site_symmetry_multiplicity
 _atom_site_fract_x
 _atom_site_fract_y
 _atom_site_fract_z
 _atom_site_occupancy
  C  C0  1  0.00000000  0.50000000  0.50000000  1
  C  C1  1  0.50000000  0.50000000  0.50000000  1
  C  C2  1  0.50000000  0.00000000  0.00000000  1
  C  C3  1  0.00000000  0.00000000  0.00000000  1
  C  C4  1  0.25000000  0.49771000  0.14926700  1
  C  C5  1  0.86163200  0.42248200  0.16457200  1
  C  C6  1  0.85659700  0.17856700  0.21740000  1
  C  C7  1  0.86157700  0.13236400  0.55887800  1
  C  C8  1  0.75000000  0.50229000  0.85073300  1
  C  C9  1  0.13842300  0.86763600  0.44112200  1
  C  C10  1  0.36163200  0.57751800  0.83542800  1
  C  C11  1  0.85659700  0.67856700  0.28260000  1
  C  C12  1  0.25000000  0.67668100  0.95661900  1
  C  C13  1  0.25000000  0.17668100  0.54338100  1
  C  C14  1  0.63842300  0.13236400  0.55887800  1
  C  C15  1  0.36157700  0.36763600  0.05887800  1
  C  C16  1  0.35479100  0.81554600  0.20375000  1
  C  C17  1  0.75000000  0.77193100  0.16966300  1
  C  C18  1  0.13836800  0.07751800  0.66457200  1
  C  C19  1  0.64520900  0.68445400  0.70375000  1
  C  C20  1  0.75000000  0.32331900  0.04338100  1
  C  C21  1  0.36163200  0.07751800  0.66457200  1
  C  C22  1  0.25000000  0.72806900  0.66966300  1
  C  C23  1  0.25000000  0.19878500  0.20704300  1
  C  C24  1  0.14340300  0.82143300  0.78260000  1
  C  C25  1  0.36157700  0.86763600  0.44112200  1
  C  C26  1  0.35479100  0.31554600  0.29625000  1
  C  C27  1  0.86163200  0.92248200  0.33542800  1
  C  C28  1  0.75000000  0.82331900  0.45661900  1
  C  C29  1  0.35659700  0.32143300  0.71740000  1
  C  C30  1  0.35659700  0.82143300  0.78260000  1
  C  C31  1  0.63836800  0.42248200  0.16457200  1
  C  C32  1  0.25000000  0.69878500  0.29295700  1
  C  C33  1  0.64520900  0.18445400  0.79625000  1
  C  C34  1  0.14520900  0.31554600  0.29625000  1
  C  C35  1  0.25000000  0.22806900  0.83033700  1
  C  C36  1  0.14520900  0.81554600  0.20375000  1
  C  C37  1  0.13842300  0.36763600  0.05887800  1
  C  C38  1  0.64340300  0.17856700  0.21740000  1
  C  C39  1  0.63842300  0.63236400  0.94112200  1
  C  C40  1  0.13836800  0.57751800  0.83542800  1
  C  C41  1  0.63836800  0.92248200  0.33542800  1
  C  C42  1  0.75000000  0.30121500  0.70704300  1
  C  C43  1  0.64340300  0.67856700  0.28260000  1
  C  C44  1  0.85479100  0.18445400  0.79625000  1
  C  C45  1  0.75000000  0.27193100  0.33033700  1
  C  C46  1  0.75000000  0.80121500  0.79295700  1
  C  C47  1  0.75000000  0.00229000  0.64926700  1
  C  C48  1  0.25000000  0.99771000  0.35073300  1
  C  C49  1  0.86157700  0.63236400  0.94112200  1
  C  C50  1  0.85479100  0.68445400  0.70375000  1
  C  C51  1  0.14340300  0.32143300  0.71740000  1
  Ni  Ni52  1  0.25000000  0.39029600  0.11762500  1
  Ni  Ni53  1  0.25000000  0.63951600  0.85510600  1
  Ni  Ni54  1  0.75000000  0.60970400  0.88237500  1
  Ni  Ni55  1  0.75000000  0.10970400  0.61762500  1
  Ni  Ni56  1  0.75000000  0.86048400  0.35510600  1
  Ni  Ni57  1  0.75000000  0.36048400  0.14489400  1
  Ni  Ni58  1  0.25000000  0.89029600  0.38237500  1
  Ni  Ni59  1  0.25000000  0.13951600  0.64489400  1
  Cu  Cu60  1  0.25000000  0.80046000  0.26435200  1
  Cu  Cu61  1  0.75000000  0.19954000  0.73564800  1
  Cu  Cu62  1  0.75000000  0.23933500  0.23407900  1
  Cu  Cu63  1  0.75000000  0.69954000  0.76435200  1
  Cu  Cu64  1  0.25000000  0.26066500  0.73407900  1
  Cu  Cu65  1  0.75000000  0.73933500  0.26592100  1
  Cu  Cu66  1  0.25000000  0.76066500  0.76592100  1
  Cu  Cu67  1  0.25000000  0.30046000  0.23564800  1
  C  C68  1  0.49508300  0.31877500  0.41914300  1
  C  C69  1  0.75000000  0.00407800  0.02237700  1
  C  C70  1  0.52314900  0.41718500  0.67407400  1
  C  C71  1  0.75000000  0.50407800  0.47762300  1
  C  C72  1  0.99508300  0.18122500  0.91914300  1
  C  C73  1  0.25000000  0.99592200  0.97762300  1
  C  C74  1  0.50491700  0.18122500  0.91914300  1
  C  C75  1  0.99508300  0.68122500  0.58085700  1
  C  C76  1  0.02314900  0.08281500  0.17407400  1
  C  C77  1  0.02314900  0.58281500  0.32592600  1
  C  C78  1  0.97685100  0.91718500  0.82592600  1
  C  C79  1  0.50491700  0.68122500  0.58085700  1
  C  C80  1  0.00491700  0.81877500  0.08085700  1
  C  C81  1  0.47685100  0.58281500  0.32592600  1
  C  C82  1  0.49508300  0.81877500  0.08085700  1
  C  C83  1  0.97685100  0.41718500  0.67407400  1
  C  C84  1  0.47685100  0.08281500  0.17407400  1
  C  C85  1  0.52314900  0.91718500  0.82592600  1
  C  C86  1  0.25000000  0.49592200  0.52237700  1
  C  C87  1  0.00491700  0.31877500  0.41914300  1
