# generated using pymatgen
data_CuNiC10
_symmetry_space_group_name_H-M   'P 1'
_cell_length_a   10.24871200
_cell_length_b   5.90337500
_cell_length_c   12.95598407
_cell_angle_alpha   77.45283771
_cell_angle_beta   90.00000000
_cell_angle_gamma   90.00000000
_symmetry_Int_Tables_number   1
_chemical_formula_structural   CuNiC10
_chemical_formula_sum   'Cu4 Ni4 C40'
_cell_volume   765.14223073
_cell_formula_units_Z   4
loop_
 _symmetry_equiv_pos_site_id
 _symmetry_equiv_pos_as_xyz
  1  'x, y, z'
loop_
 _atom_site_type_symbol
 _atom_site_label
 _atom_site_symmetry_multiplicity
 _atom_site_fract_x
 _atom_site_fract_y
 _atom_site_fract_z
 _atom_site_occupancy
  Ni  Ni0  1  0.74847800  0.49773800  0.49063100  1
  Ni  Ni1  1  0.24847800  0.50226200  0.00936900  1
  Ni  Ni2  1  0.75152200  0.49773800  0.99063100  1
  Ni  Ni3  1  0.25152200  0.50226200  0.50936900  1
  Cu  Cu4  1  0.99109800  0.22663500  0.68136200  1
  Cu  Cu5  1  0.00890200  0.77336500  0.31863800  1
  Cu  Cu6  1  0.49109800  0.77336500  0.81863800  1
  Cu  Cu7  1  0.50890200  0.22663500  0.18136200  1
  C  C8  1  0.58491600  0.70053200  0.94230900  1
  C  C9  1  0.91508400  0.70053200  0.44230900  1
  C  C10  1  0.15359800  0.59460700  0.36456700  1
  C  C11  1  0.34640200  0.59460700  0.86456700  1
  C  C12  1  0.08491600  0.29946800  0.55769100  1
  C  C13  1  0.41508400  0.29946800  0.05769100  1
  C  C14  1  0.65359800  0.40539300  0.13543300  1
  C  C15  1  0.84640200  0.40539300  0.63543300  1
  C  C16  1  0.17198500  0.38990700  0.14373000  1
  C  C17  1  0.90589700  0.12883600  0.80989400  1
  C  C18  1  0.33230000  0.75250300  0.05338200  1
  C  C19  1  0.60593000  0.31108600  0.54943200  1
  C  C20  1  0.06215500  0.46023200  0.73980600  1
  C  C21  1  0.87451000  0.96281000  0.25247800  1
  C  C22  1  0.89407000  0.31108600  0.04943200  1
  C  C23  1  0.16770000  0.75250300  0.55338200  1
  C  C24  1  0.62549000  0.96281000  0.75247800  1
  C  C25  1  0.57520300  0.96229000  0.14428900  1
  C  C26  1  0.59410300  0.12883600  0.30989400  1
  C  C27  1  0.43784500  0.46023200  0.23980600  1
  C  C28  1  0.30632500  0.24763700  0.45319600  1
  C  C29  1  0.56215500  0.53976800  0.76019400  1
  C  C30  1  0.39407000  0.68891400  0.45056800  1
  C  C31  1  0.69367500  0.75236300  0.54680400  1
  C  C32  1  0.82801500  0.61009300  0.85627000  1
  C  C33  1  0.93784500  0.53976800  0.26019400  1
  C  C34  1  0.66770000  0.24749700  0.94661800  1
  C  C35  1  0.83230000  0.24749700  0.44661800  1
  C  C36  1  0.19367500  0.24763700  0.95319600  1
  C  C37  1  0.80632500  0.75236300  0.04680400  1
  C  C38  1  0.92479700  0.96229000  0.64428900  1
  C  C39  1  0.07520300  0.03771000  0.35571100  1
  C  C40  1  0.09410300  0.87116400  0.19010600  1
  C  C41  1  0.32801500  0.38990700  0.64373000  1
  C  C42  1  0.42479700  0.03771000  0.85571100  1
  C  C43  1  0.40589700  0.87116400  0.69010600  1
  C  C44  1  0.37451000  0.03719000  0.24752200  1
  C  C45  1  0.12549000  0.03719000  0.74752200  1
  C  C46  1  0.67198500  0.61009300  0.35627000  1
  C  C47  1  0.10593000  0.68891400  0.95056800  1
