# generated using pymatgen
data_Cu18Ni12C67
_symmetry_space_group_name_H-M   'P 1'
_cell_length_a   11.70973373
_cell_length_b   11.70973373
_cell_length_c   11.70921533
_cell_angle_alpha   70.56586440
_cell_angle_beta   70.56586440
_cell_angle_gamma   109.44843388
_symmetry_Int_Tables_number   1
_chemical_formula_structural   Cu18Ni12C67
_chemical_formula_sum   'Cu18 Ni12 C67'
_cell_volume   1237.42394340
_cell_formula_units_Z   1
loop_
 _symmetry_equiv_pos_site_id
 _symmetry_equiv_pos_as_xyz
  1  'x, y, z'
loop_
 _atom_site_type_symbol
 _atom_site_label
 _atom_site_symmetry_multiplicity
 _atom_site_fract_x
 _atom_site_fract_y
 _atom_site_fract_z
 _atom_site_occupancy
  C  C0  1  0.99906900  0.99906900  0.00085000  1
  C  C1  1  0.00036300  0.57535100  0.67991300  1
  C  C2  1  0.57535100  0.00036300  0.67991300  1
  C  C3  1  0.67467500  0.67467500  0.74807700  1
  C  C4  1  0.57564500  0.32386500  0.99867800  1
  C  C5  1  0.67569000  0.24953100  0.32967600  1
  C  C6  1  0.75046400  0.42620400  0.57829500  1
  C  C7  1  0.32421900  0.99851700  0.42492800  1
  C  C8  1  0.99851700  0.32421900  0.42492800  1
  C  C9  1  0.42620400  0.75046400  0.57829500  1
  C  C10  1  0.32386500  0.57564500  0.99867800  1
  C  C11  1  0.24953100  0.67569000  0.32967600  1
  C  C12  1  0.42377300  0.42377300  0.25195700  1
  Ni  Ni13  1  0.16248400  0.16248400  0.59073200  1
  Ni  Ni14  1  0.75421200  0.75421200  0.40782900  1
  Ni  Ni15  1  0.40867500  0.16182400  0.83736500  1
  Ni  Ni16  1  0.99954600  0.83717800  0.75412500  1
  Ni  Ni17  1  0.75280100  0.58995000  0.24682900  1
  Ni  Ni18  1  0.24637400  0.00042000  0.16272100  1
  Ni  Ni19  1  0.83776500  0.24648400  0.99960200  1
  Ni  Ni20  1  0.16182400  0.40867500  0.83736500  1
  Ni  Ni21  1  0.00042000  0.24637400  0.16272100  1
  Ni  Ni22  1  0.24648400  0.83776500  0.99960200  1
  Ni  Ni23  1  0.58995000  0.75280100  0.24682900  1
  Ni  Ni24  1  0.83717800  0.99954600  0.75412500  1
  Cu  Cu25  1  0.30011600  0.30011600  0.99985500  1
  Cu  Cu26  1  0.16060300  0.16060300  0.30093500  1
  Cu  Cu27  1  0.46119000  0.46119000  0.69905400  1
  Cu  Cu28  1  0.69881600  0.69881600  0.00033700  1
  Cu  Cu29  1  0.46076100  0.30054600  0.53884600  1
  Cu  Cu30  1  0.99989800  0.83922700  0.46219200  1
  Cu  Cu31  1  0.69837700  0.15796300  0.84078200  1
  Cu  Cu32  1  0.83880300  0.53782500  0.00144800  1
  Cu  Cu33  1  0.99958200  0.29995100  0.69987000  1
  Cu  Cu34  1  0.29995100  0.99958200  0.69987000  1
  Cu  Cu35  1  0.00095400  0.70154200  0.29913400  1
  Cu  Cu36  1  0.15796300  0.69837700  0.84078200  1
  Cu  Cu37  1  0.00051900  0.53880100  0.16102400  1
  Cu  Cu38  1  0.53880100  0.00051900  0.16102400  1
  Cu  Cu39  1  0.30054600  0.46076100  0.53884600  1
  Cu  Cu40  1  0.70154200  0.00095400  0.29913400  1
  Cu  Cu41  1  0.53782500  0.83880300  0.00144800  1
  Cu  Cu42  1  0.83922700  0.99989800  0.46219200  1
  C  C43  1  0.47729600  0.32724600  0.67256300  1
  C  C44  1  0.31109700  0.15720600  0.99999600  1
  C  C45  1  0.69425900  0.54860500  0.00141600  1
  C  C46  1  0.00001900  0.69735000  0.44809600  1
  C  C47  1  0.44832300  0.14570200  0.54979000  1
  C  C48  1  0.14980100  0.00036200  0.32738100  1
  C  C49  1  0.30548800  0.99975600  0.84482800  1
  C  C50  1  0.67211600  0.14990200  0.00054100  1
  C  C51  1  0.85264700  0.30054600  0.69616900  1
  C  C52  1  0.15702500  0.00029000  0.68848600  1
  C  C53  1  0.84727700  0.69074400  0.30812700  1
  C  C54  1  0.84916300  0.52024500  0.15222400  1
  C  C55  1  0.99784100  0.67422400  0.85592000  1
  C  C56  1  0.14570200  0.44832300  0.54979000  1
  C  C57  1  0.99975600  0.30548800  0.84482800  1
  C  C58  1  0.84487900  0.15375800  0.15560000  1
  C  C59  1  0.00414800  0.55340300  0.30234300  1
  C  C60  1  0.30054600  0.85264700  0.69616900  1
  C  C61  1  0.14990200  0.67211600  0.00054100  1
  C  C62  1  0.15375800  0.84487900  0.15560000  1
  C  C63  1  0.55340300  0.00414800  0.30234300  1
  C  C64  1  0.15720600  0.31109700  0.99999600  1
  C  C65  1  0.00036200  0.14980100  0.32738100  1
  C  C66  1  0.32724600  0.47729600  0.67256300  1
  C  C67  1  0.69735000  0.00001900  0.44809600  1
  C  C68  1  0.00029000  0.15702500  0.68848600  1
  C  C69  1  0.69074400  0.84727700  0.30812700  1
  C  C70  1  0.30431500  0.30431500  0.14535600  1
  C  C71  1  0.44851500  0.44851500  0.85487600  1
  C  C72  1  0.52024500  0.84916300  0.15222400  1
  C  C73  1  0.67422400  0.99784100  0.85592000  1
  C  C74  1  0.54860500  0.69425900  0.00141600  1
  C  C75  1  0.85017600  0.85017600  0.47664700  1
  C  C76  1  0.32698700  0.32698700  0.52345100  1
  C  C77  1  0.68740700  0.68740700  0.15458400  1
  C  C78  1  0.84205500  0.84205500  0.84785700  1
  C  C79  1  0.18899700  0.18899700  0.42128200  1
  C  C80  1  0.60967700  0.60967700  0.57619900  1
  C  C81  1  0.57667700  0.18588100  0.81402500  1
  C  C82  1  0.49805300  0.24986700  0.25113000  1
  C  C83  1  0.73459800  0.49389200  0.75495800  1
  C  C84  1  0.00072500  0.81673100  0.60890400  1
  C  C85  1  0.60817100  0.42254500  0.38992600  1
  C  C86  1  0.81164900  0.38946200  0.00058000  1
  C  C87  1  0.39065300  0.00167600  0.18723800  1
  C  C88  1  0.26606600  0.75936400  0.48784100  1
  C  C89  1  0.75936400  0.26606600  0.48784100  1
  C  C90  1  0.00167600  0.39065300  0.18723800  1
  C  C91  1  0.18588100  0.57667700  0.81402500  1
  C  C92  1  0.42254500  0.60817100  0.38992600  1
  C  C93  1  0.38946300  0.81164900  0.00058000  1
  C  C94  1  0.24986700  0.49805300  0.25113000  1
  C  C95  1  0.49389200  0.73459800  0.75495800  1
  C  C96  1  0.81673200  0.00072500  0.60890400  1
