# generated using pymatgen
data_Cu22Ni36C7
_symmetry_space_group_name_H-M   'P 1'
_cell_length_a   13.38475496
_cell_length_b   13.38475496
_cell_length_c   13.38475496
_cell_angle_alpha   60.00000000
_cell_angle_beta   60.00000000
_cell_angle_gamma   60.00000000
_symmetry_Int_Tables_number   1
_chemical_formula_structural   Cu22Ni36C7
_chemical_formula_sum   'Cu22 Ni36 C7'
_cell_volume   1695.57215934
_cell_formula_units_Z   1
loop_
 _symmetry_equiv_pos_site_id
 _symmetry_equiv_pos_as_xyz
  1  'x, y, z'
loop_
 _atom_site_type_symbol
 _atom_site_label
 _atom_site_symmetry_multiplicity
 _atom_site_fract_x
 _atom_site_fract_y
 _atom_site_fract_z
 _atom_site_occupancy
  C  C0  1  0.23381900  0.76618100  0.76618100  1
  C  C1  1  0.76618100  0.76618100  0.23381900  1
  C  C2  1  0.76618100  0.23381900  0.76618100  1
  C  C3  1  0.23381900  0.76618100  0.23381900  1
  C  C4  1  0.00000000  0.00000000  0.00000000  1
  C  C5  1  0.23381900  0.23381900  0.76618100  1
  C  C6  1  0.76618100  0.23381900  0.23381900  1
  Ni  Ni7  1  0.25791100  0.00548800  0.25791100  1
  Ni  Ni8  1  0.47869000  0.25791100  0.25791100  1
  Ni  Ni9  1  0.00548800  0.25791100  0.47869000  1
  Ni  Ni10  1  0.38664800  0.00000000  0.00000000  1
  Ni  Ni11  1  0.99451200  0.52131000  0.74208900  1
  Ni  Ni12  1  0.00548800  0.47869000  0.25791100  1
  Ni  Ni13  1  0.00000000  0.38664800  0.61335200  1
  Ni  Ni14  1  0.00000000  0.61335200  0.38664800  1
  Ni  Ni15  1  0.52131000  0.99451200  0.74208900  1
  Ni  Ni16  1  0.47869000  0.00548800  0.25791100  1
  Ni  Ni17  1  0.74208900  0.52131000  0.74208900  1
  Ni  Ni18  1  0.47869000  0.25791100  0.00548800  1
  Ni  Ni19  1  0.74208900  0.52131000  0.99451200  1
  Ni  Ni20  1  0.00548800  0.25791100  0.25791100  1
  Ni  Ni21  1  0.25791100  0.47869000  0.00548800  1
  Ni  Ni22  1  0.74208900  0.74208900  0.52131000  1
  Ni  Ni23  1  0.52131000  0.74208900  0.74208900  1
  Ni  Ni24  1  0.38664800  0.61335200  0.00000000  1
  Ni  Ni25  1  0.74208900  0.99451200  0.74208900  1
  Ni  Ni26  1  0.00000000  0.38664800  0.00000000  1
  Ni  Ni27  1  0.25791100  0.00548800  0.47869000  1
  Ni  Ni28  1  0.52131000  0.74208900  0.99451200  1
  Ni  Ni29  1  0.25791100  0.25791100  0.00548800  1
  Ni  Ni30  1  0.61335200  0.38664800  0.00000000  1
  Ni  Ni31  1  0.74208900  0.74208900  0.99451200  1
  Ni  Ni32  1  0.25791100  0.25791100  0.47869000  1
  Ni  Ni33  1  0.00000000  0.00000000  0.38664800  1
  Ni  Ni34  1  0.00000000  0.61335200  0.00000000  1
  Ni  Ni35  1  0.99451200  0.74208900  0.74208900  1
  Ni  Ni36  1  0.25791100  0.47869000  0.25791100  1
  Ni  Ni37  1  0.61335200  0.00000000  0.38664800  1
  Ni  Ni38  1  0.74208900  0.99451200  0.52131000  1
  Ni  Ni39  1  0.00000000  0.00000000  0.61335200  1
  Ni  Ni40  1  0.99451200  0.74208900  0.52131000  1
  Ni  Ni41  1  0.38664800  0.00000000  0.61335200  1
  Ni  Ni42  1  0.61335200  0.00000000  0.00000000  1
  Cu  Cu43  1  0.32774100  0.89075300  0.89075300  1
  Cu  Cu44  1  0.10924700  0.10924700  0.10924700  1
  Cu  Cu45  1  0.18501600  0.81498400  0.50000000  1
  Cu  Cu46  1  0.18501600  0.50000000  0.50000000  1
  Cu  Cu47  1  0.50000000  0.18501600  0.50000000  1
  Cu  Cu48  1  0.81498400  0.50000000  0.50000000  1
  Cu  Cu49  1  0.18501600  0.50000000  0.81498400  1
  Cu  Cu50  1  0.50000000  0.81498400  0.18501600  1
  Cu  Cu51  1  0.50000000  0.50000000  0.18501600  1
  Cu  Cu52  1  0.50000000  0.18501600  0.81498400  1
  Cu  Cu53  1  0.10924700  0.10924700  0.67225900  1
  Cu  Cu54  1  0.67225900  0.10924700  0.10924700  1
  Cu  Cu55  1  0.89075300  0.32774100  0.89075300  1
  Cu  Cu56  1  0.10924700  0.67225900  0.10924700  1
  Cu  Cu57  1  0.81498400  0.18501600  0.50000000  1
  Cu  Cu58  1  0.89075300  0.89075300  0.32774100  1
  Cu  Cu59  1  0.81498400  0.50000000  0.18501600  1
  Cu  Cu60  1  0.75000000  0.75000000  0.75000000  1
  Cu  Cu61  1  0.50000000  0.81498400  0.50000000  1
  Cu  Cu62  1  0.50000000  0.50000000  0.81498400  1
  Cu  Cu63  1  0.89075300  0.89075300  0.89075300  1
  Cu  Cu64  1  0.25000000  0.25000000  0.25000000  1
