# generated using pymatgen
data_Cu6Ni23C4
_symmetry_space_group_name_H-M   'P 1'
_cell_length_a   8.25974503
_cell_length_b   8.25974503
_cell_length_c   18.31018825
_cell_angle_alpha   67.52733959
_cell_angle_beta   67.52733959
_cell_angle_gamma   28.84865871
_symmetry_Int_Tables_number   1
_chemical_formula_structural   Cu6Ni23C4
_chemical_formula_sum   'Cu6 Ni23 C4'
_cell_volume   553.79666600
_cell_formula_units_Z   1
loop_
 _symmetry_equiv_pos_site_id
 _symmetry_equiv_pos_as_xyz
  1  'x, y, z'
loop_
 _atom_site_type_symbol
 _atom_site_label
 _atom_site_symmetry_multiplicity
 _atom_site_fract_x
 _atom_site_fract_y
 _atom_site_fract_z
 _atom_site_occupancy
  C  C0  1  0.73487300  0.73487300  0.71774900  1
  C  C1  1  0.57023500  0.57023500  0.09269800  1
  C  C2  1  0.42976500  0.42976500  0.90730200  1
  C  C3  1  0.26512700  0.26512700  0.28225100  1
  Ni  Ni4  1  0.85728400  0.85728400  0.35757200  1
  Ni  Ni5  1  0.43152200  0.43152200  0.43937700  1
  Ni  Ni6  1  0.91785100  0.91785100  0.18679900  1
  Ni  Ni7  1  0.46813200  0.46813200  0.28082600  1
  Ni  Ni8  1  0.74414700  0.74414700  0.54608100  1
  Ni  Ni9  1  0.20289500  0.20289500  0.97844500  1
  Ni  Ni10  1  0.91099400  0.91099400  0.77825100  1
  Ni  Ni11  1  0.08214900  0.08214900  0.81320100  1
  Ni  Ni12  1  0.37685800  0.37685800  0.09594100  1
  Ni  Ni13  1  0.39166700  0.39166700  0.66075400  1
  Ni  Ni14  1  0.56847800  0.56847800  0.56062300  1
  Ni  Ni15  1  0.72322900  0.72322900  0.17741300  1
  Ni  Ni16  1  0.25585300  0.25585300  0.45391900  1
  Ni  Ni17  1  0.53186800  0.53186800  0.71917400  1
  Ni  Ni18  1  0.00000000  0.00000000  0.00000000  1
  Ni  Ni19  1  0.08900600  0.08900600  0.22174900  1
  Ni  Ni20  1  0.62314200  0.62314200  0.90405900  1
  Ni  Ni21  1  0.27677100  0.27677100  0.82258700  1
  Ni  Ni22  1  0.79710500  0.79710500  0.02155500  1
  Ni  Ni23  1  0.09015200  0.09015200  0.45230700  1
  Ni  Ni24  1  0.90984800  0.90984800  0.54769300  1
  Ni  Ni25  1  0.14271600  0.14271600  0.64242800  1
  Ni  Ni26  1  0.60833300  0.60833300  0.33924600  1
  Cu  Cu27  1  0.99237100  0.99237100  0.63332900  1
  Cu  Cu28  1  0.22600900  0.22600900  0.10249400  1
  Cu  Cu29  1  0.69045500  0.69045500  0.43233900  1
  Cu  Cu30  1  0.77399100  0.77399100  0.89750600  1
  Cu  Cu31  1  0.30954500  0.30954500  0.56766100  1
  Cu  Cu32  1  0.00762900  0.00762900  0.36667100  1
