# generated using pymatgen
data_Cu4(NiC)3
_symmetry_space_group_name_H-M   'P 1'
_cell_length_a   7.60433738
_cell_length_b   7.60433738
_cell_length_c   9.07872500
_cell_angle_alpha   90.00000000
_cell_angle_beta   90.00000000
_cell_angle_gamma   120.23884630
_symmetry_Int_Tables_number   1
_chemical_formula_structural   Cu4(NiC)3
_chemical_formula_sum   'Cu8 Ni6 C6'
_cell_volume   453.55291067
_cell_formula_units_Z   2
loop_
 _symmetry_equiv_pos_site_id
 _symmetry_equiv_pos_as_xyz
  1  'x, y, z'
loop_
 _atom_site_type_symbol
 _atom_site_label
 _atom_site_symmetry_multiplicity
 _atom_site_fract_x
 _atom_site_fract_y
 _atom_site_fract_z
 _atom_site_occupancy
  C  C0  1  0.05785900  0.94214100  0.25000000  1
  C  C1  1  0.94214100  0.05785900  0.75000000  1
  C  C2  1  0.77463500  0.22536500  0.62452200  1
  C  C3  1  0.22536500  0.77463500  0.12452200  1
  C  C4  1  0.22536500  0.77463500  0.37547800  1
  C  C5  1  0.77463500  0.22536500  0.87547800  1
  Ni  Ni6  1  0.72091400  0.27908600  0.75000000  1
  Ni  Ni7  1  0.87346800  0.12653200  0.60138400  1
  Ni  Ni8  1  0.87346800  0.12653200  0.89861600  1
  Ni  Ni9  1  0.12653200  0.87346800  0.39861600  1
  Ni  Ni10  1  0.27908600  0.72091400  0.25000000  1
  Ni  Ni11  1  0.12653200  0.87346800  0.10138400  1
  Cu  Cu12  1  0.69990100  0.30009900  0.03353200  1
  Cu  Cu13  1  0.30009900  0.69990100  0.53353200  1
  Cu  Cu14  1  0.75809400  0.82748900  0.25000000  1
  Cu  Cu15  1  0.30009900  0.69990100  0.96646800  1
  Cu  Cu16  1  0.69990100  0.30009900  0.46646800  1
  Cu  Cu17  1  0.24190600  0.17251100  0.75000000  1
  Cu  Cu18  1  0.17251100  0.24190600  0.25000000  1
  Cu  Cu19  1  0.82748900  0.75809400  0.75000000  1
