# generated using pymatgen
data_Cu(NiC5)2
_symmetry_space_group_name_H-M   'P 1'
_cell_length_a   19.99068700
_cell_length_b   9.54553600
_cell_length_c   12.49592628
_cell_angle_alpha   57.60320467
_cell_angle_beta   90.00000000
_cell_angle_gamma   90.00000000
_symmetry_Int_Tables_number   1
_chemical_formula_structural   Cu(NiC5)2
_chemical_formula_sum   'Cu8 Ni16 C80'
_cell_volume   2013.36753633
_cell_formula_units_Z   8
loop_
 _symmetry_equiv_pos_site_id
 _symmetry_equiv_pos_as_xyz
  1  'x, y, z'
loop_
 _atom_site_type_symbol
 _atom_site_label
 _atom_site_symmetry_multiplicity
 _atom_site_fract_x
 _atom_site_fract_y
 _atom_site_fract_z
 _atom_site_occupancy
  C  C0  1  0.96503300  0.49970900  0.24791700  1
  C  C1  1  0.20771000  0.02954600  0.40027800  1
  C  C2  1  0.70771000  0.97045400  0.09972200  1
  C  C3  1  0.53496700  0.49970900  0.74791700  1
  C  C4  1  0.03496700  0.50029100  0.75208300  1
  C  C5  1  0.29229000  0.02954600  0.90027800  1
  C  C6  1  0.46503300  0.50029100  0.25208300  1
  C  C7  1  0.79229000  0.97045400  0.59972200  1
  C  C8  1  0.27830600  0.39291900  0.46914600  1
  C  C9  1  0.48476200  0.14139500  0.67613500  1
  C  C10  1  0.98476200  0.85860500  0.82386500  1
  C  C11  1  0.22169400  0.39291900  0.96914600  1
  C  C12  1  0.51523800  0.85860500  0.32386500  1
  C  C13  1  0.77830600  0.60708100  0.03085400  1
  C  C14  1  0.72169400  0.60708100  0.53085400  1
  C  C15  1  0.01523800  0.14139500  0.17613500  1
  C  C16  1  0.64955900  0.43779800  0.10092100  1
  C  C17  1  0.49267000  0.91625800  0.88726300  1
  C  C18  1  0.10313700  0.06778100  0.75407000  1
  C  C19  1  0.73576900  0.38867100  0.74330100  1
  C  C20  1  0.76423100  0.38867100  0.24330100  1
  C  C21  1  0.23576900  0.61132900  0.75669900  1
  C  C22  1  0.89686300  0.93221900  0.24593000  1
  C  C23  1  0.50733000  0.08374200  0.11273700  1
  C  C24  1  0.60313700  0.93221900  0.74593000  1
  C  C25  1  0.00733000  0.91625800  0.38726300  1
  C  C26  1  0.99267000  0.08374200  0.61273700  1
  C  C27  1  0.39686300  0.06778100  0.25407000  1
  C  C28  1  0.26423100  0.61132900  0.25669900  1
  C  C29  1  0.35044100  0.56220200  0.89907900  1
  C  C30  1  0.85044100  0.43779800  0.60092100  1
  C  C31  1  0.14955900  0.56220200  0.39907900  1
  Ni  Ni32  1  0.80573600  0.58747500  0.49586000  1
  Ni  Ni33  1  0.80988800  0.34146100  0.72750200  1
  Ni  Ni34  1  0.93459500  0.09777700  0.14263100  1
  Ni  Ni35  1  0.56540500  0.09777700  0.64263100  1
  Ni  Ni36  1  0.30573600  0.41252500  0.00414000  1
  Ni  Ni37  1  0.69426400  0.58747500  0.99586000  1
  Ni  Ni38  1  0.43459500  0.90222300  0.35736900  1
  Ni  Ni39  1  0.06540500  0.90222300  0.85736900  1
  Ni  Ni40  1  0.93809400  0.84578100  0.37210300  1
  Ni  Ni41  1  0.30988800  0.65853900  0.77249800  1
  Ni  Ni42  1  0.06190600  0.15421900  0.62789700  1
  Ni  Ni43  1  0.43809400  0.15421900  0.12789700  1
  Ni  Ni44  1  0.19426400  0.41252500  0.50414000  1
  Ni  Ni45  1  0.19011200  0.65853900  0.27249800  1
  Ni  Ni46  1  0.69011200  0.34146100  0.22750200  1
  Ni  Ni47  1  0.56190600  0.84578100  0.87210300  1
  Cu  Cu48  1  0.58657400  0.96252000  0.40236400  1
  Cu  Cu49  1  0.66030600  0.47774100  0.45874700  1
  Cu  Cu50  1  0.91342600  0.96252000  0.90236400  1
  Cu  Cu51  1  0.83969400  0.47774100  0.95874700  1
  Cu  Cu52  1  0.33969400  0.52225900  0.54125300  1
  Cu  Cu53  1  0.16030600  0.52225900  0.04125300  1
  Cu  Cu54  1  0.08657400  0.03748000  0.09763600  1
  Cu  Cu55  1  0.41342600  0.03748000  0.59763600  1
  C  C56  1  0.01407000  0.44577900  0.90791300  1
  C  C57  1  0.76761200  0.76167600  0.65810600  1
  C  C58  1  0.50228300  0.69049000  0.71605800  1
  C  C59  1  0.61579900  0.59302400  0.69196600  1
  C  C60  1  0.45632300  0.40205200  0.80443600  1
  C  C61  1  0.31792300  0.82325500  0.95744900  1
  C  C62  1  0.23238800  0.23832400  0.34189400  1
  C  C63  1  0.23171200  0.05725400  0.25344700  1
  C  C64  1  0.04367700  0.40205200  0.30443600  1
  C  C65  1  0.18283600  0.00750700  0.54428300  1
  C  C66  1  0.68283600  0.99249300  0.95571700  1
  C  C67  1  0.76828800  0.94274600  0.74655300  1
  C  C68  1  0.44234900  0.55418100  0.09733800  1
  C  C69  1  0.56867100  0.30829900  0.77868500  1
  C  C70  1  0.94234900  0.44581900  0.40266200  1
  C  C71  1  0.28926900  0.95899900  0.46098600  1
  C  C72  1  0.81792300  0.17674500  0.54255100  1
  C  C73  1  0.81716400  0.99249300  0.45571700  1
  C  C74  1  0.99771700  0.69049000  0.21605800  1
  C  C75  1  0.31716400  0.00750700  0.04428300  1
  C  C76  1  0.11579900  0.40697600  0.80803400  1
  C  C77  1  0.87475300  0.89824100  0.66231000  1
  C  C78  1  0.78926900  0.04100100  0.03901400  1
  C  C79  1  0.18207700  0.82325500  0.45744900  1
  C  C80  1  0.12524700  0.10175900  0.33769000  1
  C  C81  1  0.48593000  0.44577900  0.40791300  1
  C  C82  1  0.00228300  0.30951000  0.78394200  1
  C  C83  1  0.26761200  0.23832400  0.84189400  1
  C  C84  1  0.93132900  0.30829900  0.27868500  1
  C  C85  1  0.55765100  0.44581900  0.90266200  1
  C  C86  1  0.73171200  0.94274600  0.24655300  1
  C  C87  1  0.43132900  0.69170100  0.22131500  1
  C  C88  1  0.73238800  0.76167600  0.15810600  1
  C  C89  1  0.62524700  0.89824100  0.16231000  1
  C  C90  1  0.21073100  0.95899900  0.96098600  1
  C  C91  1  0.51407000  0.55422100  0.59208700  1
  C  C92  1  0.71073100  0.04100100  0.53901400  1
  C  C93  1  0.88420100  0.59302400  0.19196600  1
  C  C94  1  0.06867100  0.69170100  0.72131500  1
  C  C95  1  0.49771700  0.30951000  0.28394200  1
  C  C96  1  0.95632300  0.59794800  0.69556400  1
  C  C97  1  0.37475300  0.10175900  0.83769000  1
  C  C98  1  0.54367700  0.59794800  0.19556400  1
  C  C99  1  0.26828800  0.05725400  0.75344700  1
  C  C100  1  0.38420100  0.40697600  0.30803400  1
  C  C101  1  0.98593000  0.55422100  0.09208700  1
  C  C102  1  0.05765100  0.55418100  0.59733800  1
  C  C103  1  0.68207700  0.17674500  0.04255100  1
