# generated using pymatgen
data_Cu3NiC15
_symmetry_space_group_name_H-M   'P 1'
_cell_length_a   8.21668900
_cell_length_b   8.22261137
_cell_length_c   16.43745739
_cell_angle_alpha   100.22879372
_cell_angle_beta   100.20026607
_cell_angle_gamma   100.18870057
_symmetry_Int_Tables_number   1
_chemical_formula_structural   Cu3NiC15
_chemical_formula_sum   'Cu12 Ni4 C60'
_cell_volume   1050.45473155
_cell_formula_units_Z   4
loop_
 _symmetry_equiv_pos_site_id
 _symmetry_equiv_pos_as_xyz
  1  'x, y, z'
loop_
 _atom_site_type_symbol
 _atom_site_label
 _atom_site_symmetry_multiplicity
 _atom_site_fract_x
 _atom_site_fract_y
 _atom_site_fract_z
 _atom_site_occupancy
  Ni  Ni0  1  0.32331800  0.17732600  0.87447900  1
  Ni  Ni1  1  0.24930700  0.67793400  0.41117900  1
  Ni  Ni2  1  0.75069300  0.32206600  0.58882100  1
  Ni  Ni3  1  0.67668200  0.82267400  0.12552100  1
  Cu  Cu4  1  0.24839500  0.67665600  0.91238500  1
  Cu  Cu5  1  0.17669300  0.74877600  0.66233500  1
  Cu  Cu6  1  0.25007000  0.24937900  0.62399800  1
  Cu  Cu7  1  0.17599500  0.75027200  0.16084700  1
  Cu  Cu8  1  0.32339800  0.17736500  0.37439500  1
  Cu  Cu9  1  0.25120600  0.25041400  0.12534400  1
  Cu  Cu10  1  0.74879400  0.74958600  0.87465600  1
  Cu  Cu11  1  0.67660200  0.82263500  0.62560500  1
  Cu  Cu12  1  0.82400500  0.24972800  0.83915300  1
  Cu  Cu13  1  0.74993000  0.75062100  0.37600200  1
  Cu  Cu14  1  0.82330700  0.25122400  0.33766500  1
  Cu  Cu15  1  0.75160500  0.32334400  0.08761500  1
  C  C16  1  0.00610800  0.77406300  0.88736400  1
  C  C17  1  0.03527700  0.46610300  0.87912400  1
  C  C18  1  0.03853400  0.15303200  0.84008100  1
  C  C19  1  0.00415800  0.78163200  0.38923900  1
  C  C20  1  0.18730700  0.65160700  0.77873700  1
  C  C21  1  0.24482400  0.95386500  0.76319900  1
  C  C22  1  0.02667700  0.45472000  0.36835000  1
  C  C23  1  0.31299900  0.93515100  0.92391700  1
  C  C24  1  0.21841300  0.22198600  0.99866400  1
  C  C25  1  0.22337800  0.99261100  0.61143600  1
  C  C26  1  0.15054300  0.68609200  0.53292800  1
  C  C27  1  0.05378700  0.15279000  0.34266000  1
  C  C28  1  0.34515700  0.46032500  0.90863200  1
  C  C29  1  0.27602500  0.28021300  0.75106700  1
  C  C30  1  0.27796500  0.50840900  0.63995800  1
  C  C31  1  0.17769700  0.65464900  0.26786800  1
  C  C32  1  0.25198300  0.96730200  0.26793100  1
  C  C33  1  0.31816400  0.96098400  0.42256300  1
  C  C34  1  0.22134300  0.22515800  0.49551500  1
  C  C35  1  0.22316100  0.99366800  0.11123700  1
  C  C36  1  0.15040100  0.68513800  0.02647000  1
  C  C37  1  0.49393700  0.72359800  0.85992700  1
  C  C38  1  0.44730200  0.81357700  0.67421300  1
  C  C39  1  0.34813800  0.43616100  0.40670500  1
  C  C40  1  0.27583100  0.27553200  0.25386300  1
  C  C41  1  0.27644500  0.50600300  0.13669700  1
  C  C42  1  0.54516600  0.25291200  0.98594900  1
  C  C43  1  0.47149200  0.75277100  0.52260900  1
  C  C44  1  0.56547000  0.18397800  0.82494700  1
  C  C45  1  0.50471900  0.27636400  0.64024300  1
  C  C46  1  0.49528100  0.72363600  0.35975700  1
  C  C47  1  0.43453000  0.81602200  0.17505300  1
  C  C48  1  0.52850800  0.24722900  0.47739100  1
  C  C49  1  0.45483400  0.74708800  0.01405100  1
  C  C50  1  0.72355500  0.49399700  0.86330300  1
  C  C51  1  0.72416900  0.72446800  0.74613700  1
  C  C52  1  0.65186200  0.56383900  0.59329500  1
  C  C53  1  0.55269800  0.18642300  0.32578700  1
  C  C54  1  0.50606300  0.27640200  0.14007300  1
  C  C55  1  0.84959900  0.31486200  0.97353000  1
  C  C56  1  0.77683900  0.00633200  0.88876300  1
  C  C57  1  0.77865700  0.77484200  0.50448500  1
  C  C58  1  0.68183600  0.03901600  0.57743700  1
  C  C59  1  0.74801700  0.03269800  0.73206900  1
  C  C60  1  0.82230300  0.34535100  0.73213200  1
  C  C61  1  0.72203500  0.49159100  0.36004200  1
  C  C62  1  0.72397500  0.71978700  0.24893300  1
  C  C63  1  0.65484300  0.53967500  0.09136800  1
  C  C64  1  0.94621300  0.84721000  0.65734000  1
  C  C65  1  0.84945700  0.31390800  0.46707200  1
  C  C66  1  0.77662200  0.00738900  0.38856400  1
  C  C67  1  0.78158700  0.77801400  0.00133600  1
  C  C68  1  0.68700100  0.06484900  0.07608300  1
  C  C69  1  0.97332300  0.54528000  0.63165000  1
  C  C70  1  0.75517600  0.04613500  0.23680100  1
  C  C71  1  0.81269300  0.34839300  0.22126300  1
  C  C72  1  0.99584200  0.21836800  0.61076100  1
  C  C73  1  0.96146600  0.84696800  0.15991900  1
  C  C74  1  0.96472300  0.53389700  0.12087600  1
  C  C75  1  0.99389200  0.22593700  0.11263600  1
