# generated using pymatgen
data_Cu2Ni11C25
_symmetry_space_group_name_H-M   'P 1'
_cell_length_a   8.99270409
_cell_length_b   8.99270409
_cell_length_c   8.99270409
_cell_angle_alpha   120.62408937
_cell_angle_beta   120.62408937
_cell_angle_gamma   88.92240224
_symmetry_Int_Tables_number   1
_chemical_formula_structural   Cu2Ni11C25
_chemical_formula_sum   'Cu2 Ni11 C25'
_cell_volume   509.27976714
_cell_formula_units_Z   1
loop_
 _symmetry_equiv_pos_site_id
 _symmetry_equiv_pos_as_xyz
  1  'x, y, z'
loop_
 _atom_site_type_symbol
 _atom_site_label
 _atom_site_symmetry_multiplicity
 _atom_site_fract_x
 _atom_site_fract_y
 _atom_site_fract_z
 _atom_site_occupancy
  C  C0  1  0.80750400  0.50000000  0.30750400  1
  C  C1  1  0.50000000  0.19249600  0.69249600  1
  C  C2  1  0.50000000  0.80750400  0.30750400  1
  C  C3  1  0.19249600  0.50000000  0.69249600  1
  Ni  Ni4  1  0.99895500  0.67606300  0.00000000  1
  Ni  Ni5  1  0.67606300  0.99895500  0.00000000  1
  Ni  Ni6  1  0.67606300  0.67606300  0.67710800  1
  Ni  Ni7  1  0.00104500  0.00104500  0.67710800  1
  Ni  Ni8  1  0.99895500  0.99895500  0.32289200  1
  Ni  Ni9  1  0.32393700  0.32393700  0.32289200  1
  Ni  Ni10  1  0.32393700  0.00104500  0.00000000  1
  Ni  Ni11  1  0.00000000  0.00000000  0.00000000  1
  Ni  Ni12  1  0.68473700  0.68473700  0.00000000  1
  Ni  Ni13  1  0.31526300  0.31526300  0.00000000  1
  Ni  Ni14  1  0.00104500  0.32393700  0.00000000  1
  Cu  Cu15  1  0.75000000  0.25000000  0.50000000  1
  Cu  Cu16  1  0.25000000  0.75000000  0.50000000  1
  C  C17  1  0.15987300  0.49058000  0.00000000  1
  C  C18  1  0.84012700  0.50942000  0.00000000  1
  C  C19  1  0.16628000  0.82715000  0.66087000  1
  C  C20  1  0.16628000  0.50541000  0.33913000  1
  C  C21  1  0.15987300  0.15987300  0.66929300  1
  C  C22  1  0.50942000  0.50942000  0.66929300  1
  C  C23  1  0.83032900  0.83032900  0.66065700  1
  C  C24  1  0.16967100  0.83032900  0.00000000  1
  C  C25  1  0.50942000  0.84012700  0.00000000  1
  C  C26  1  0.83032900  0.16967100  0.00000000  1
  C  C27  1  0.49058000  0.15987300  0.00000000  1
  C  C28  1  0.16967100  0.16967100  0.33934300  1
  C  C29  1  0.83372000  0.49459000  0.66087000  1
  C  C30  1  0.49058000  0.49058000  0.33070700  1
  C  C31  1  0.84012700  0.84012700  0.33070700  1
  C  C32  1  0.50541000  0.16628000  0.33913000  1
  C  C33  1  0.83372000  0.17285000  0.33913000  1
  C  C34  1  0.82715000  0.16628000  0.66087000  1
  C  C35  1  0.49459000  0.83372000  0.66087000  1
  C  C36  1  0.17285000  0.83372000  0.33913000  1
  C  C37  1  0.50000000  0.50000000  0.00000000  1
