# generated using pymatgen
data_Cu2NiC4
_symmetry_space_group_name_H-M   'P 1'
_cell_length_a   5.78452937
_cell_length_b   5.78452937
_cell_length_c   33.17801425
_cell_angle_alpha   84.81009908
_cell_angle_beta   84.81009908
_cell_angle_gamma   59.73024688
_symmetry_Int_Tables_number   1
_chemical_formula_structural   Cu2NiC4
_chemical_formula_sum   'Cu28 Ni14 C56'
_cell_volume   953.57431412
_cell_formula_units_Z   14
loop_
 _symmetry_equiv_pos_site_id
 _symmetry_equiv_pos_as_xyz
  1  'x, y, z'
loop_
 _atom_site_type_symbol
 _atom_site_label
 _atom_site_symmetry_multiplicity
 _atom_site_fract_x
 _atom_site_fract_y
 _atom_site_fract_z
 _atom_site_occupancy
  Ni  Ni0  1  0.65652800  0.65652800  0.02030100  1
  Ni  Ni1  1  0.14252900  0.14252900  0.07171400  1
  Ni  Ni2  1  0.63007300  0.63007300  0.12515800  1
  Ni  Ni3  1  0.43026400  0.43026400  0.21437300  1
  Ni  Ni4  1  0.91569900  0.91569900  0.26871600  1
  Ni  Ni5  1  0.80347000  0.80347000  0.58680900  1
  Ni  Ni6  1  0.71629300  0.71629300  0.35702600  1
  Ni  Ni7  1  0.09006600  0.09006600  0.73158900  1
  Ni  Ni8  1  0.20132000  0.20132000  0.41165100  1
  Ni  Ni9  1  0.00205400  0.00205400  0.49970700  1
  Ni  Ni10  1  0.48619600  0.48619600  0.55408600  1
  Ni  Ni11  1  0.37584400  0.37584400  0.87448000  1
  Ni  Ni12  1  0.76763200  0.76763200  0.69550700  1
  Ni  Ni13  1  0.05299400  0.05299400  0.83936000  1
  Cu  Cu14  1  0.94002200  0.94002200  0.16097800  1
  Cu  Cu15  1  0.64303700  0.14268300  0.07236100  1
  Cu  Cu16  1  0.28564100  0.28564100  0.14119500  1
  Cu  Cu17  1  0.22530400  0.22530400  0.30270100  1
  Cu  Cu18  1  0.14268300  0.64303700  0.07236100  1
  Cu  Cu19  1  0.91897900  0.43363600  0.21493300  1
  Cu  Cu20  1  0.57106700  0.57106700  0.28427200  1
  Cu  Cu21  1  0.51107400  0.51107400  0.44435700  1
  Cu  Cu22  1  0.43363600  0.91897900  0.21493300  1
  Cu  Cu23  1  0.20391100  0.71932300  0.35762500  1
  Cu  Cu24  1  0.85679900  0.85679900  0.42676000  1
  Cu  Cu25  1  0.00401800  0.49274900  0.50017100  1
  Cu  Cu26  1  0.71932300  0.20391100  0.35762500  1
  Cu  Cu27  1  0.49274900  0.00401800  0.50017100  1
  Cu  Cu28  1  0.14539700  0.14539700  0.57124900  1
  Cu  Cu29  1  0.28539800  0.78713400  0.64258000  1
  Cu  Cu30  1  0.78713400  0.28539800  0.64258000  1
  Cu  Cu31  1  0.57109000  0.57109000  0.78536600  1
  Cu  Cu32  1  0.42906300  0.42906300  0.71366900  1
  Cu  Cu33  1  0.57113800  0.07254900  0.78536700  1
  Cu  Cu34  1  0.07254900  0.57113800  0.78536700  1
  Cu  Cu35  1  0.85397100  0.85397100  0.92857400  1
  Cu  Cu36  1  0.28599000  0.28599000  0.64287900  1
  Cu  Cu37  1  0.71430900  0.71430900  0.85636400  1
  Cu  Cu38  1  0.36239100  0.85485700  0.92882700  1
  Cu  Cu39  1  0.85485700  0.36239100  0.92882700  1
  Cu  Cu40  1  0.99564700  0.99564700  0.00354400  1
  Cu  Cu41  1  0.33981900  0.33981900  0.98291500  1
  C  C42  1  0.28065500  0.82360900  0.03617100  1
  C  C43  1  0.82360900  0.28065500  0.03617100  1
  C  C44  1  0.95826200  0.95826200  0.10594100  1
  C  C45  1  0.83576400  0.83576400  0.03840500  1
  C  C46  1  0.58466100  0.10742200  0.17750500  1
  C  C47  1  0.45139900  0.45139900  0.10349900  1
  C  C48  1  0.32684600  0.32684600  0.03606600  1
  C  C49  1  0.10742200  0.58466100  0.17750500  1
  C  C50  1  0.46079600  0.00399100  0.10515000  1
  C  C51  1  0.24285800  0.24285800  0.24639200  1
  C  C52  1  0.11359500  0.11359500  0.17832300  1
  C  C53  1  0.00399100  0.46079600  0.10515000  1
  C  C54  1  0.87171400  0.39229600  0.32016400  1
  C  C55  1  0.73832200  0.73832200  0.24765400  1
  C  C56  1  0.61593000  0.61593000  0.18332300  1
  C  C57  1  0.52846100  0.52846100  0.38840600  1
  C  C58  1  0.39229600  0.87171400  0.32016400  1
  C  C59  1  0.74698600  0.28715700  0.24877300  1
  C  C60  1  0.39817900  0.39817900  0.32071100  1
  C  C61  1  0.28715700  0.74698600  0.24877300  1
  C  C62  1  0.16047600  0.67679600  0.46259400  1
  C  C63  1  0.02390200  0.02390200  0.39069800  1
  C  C64  1  0.67679600  0.16047600  0.46259400  1
  C  C65  1  0.03277700  0.57219000  0.39170800  1
  C  C66  1  0.90150600  0.90150600  0.32655600  1
  C  C67  1  0.81385000  0.81385000  0.52721900  1
  C  C68  1  0.68133700  0.68133700  0.46293400  1
  C  C69  1  0.57219000  0.03277700  0.39170800  1
  C  C70  1  0.43055800  0.98228900  0.61041400  1
  C  C71  1  0.30917900  0.30917900  0.53452000  1
  C  C72  1  0.98228900  0.43055800  0.61041400  1
  C  C73  1  0.31836400  0.86007800  0.53657900  1
  C  C74  1  0.10844500  0.10844500  0.67320500  1
  C  C75  1  0.18660800  0.18660800  0.47014700  1
  C  C76  1  0.98064800  0.98064800  0.60970800  1
  C  C77  1  0.86007800  0.31836400  0.53657900  1
  C  C78  1  0.71438200  0.26642200  0.75301500  1
  C  C79  1  0.58872900  0.58872900  0.67777100  1
  C  C80  1  0.58911700  0.14468400  0.67788300  1
  C  C81  1  0.46261800  0.46261800  0.61408800  1
  C  C82  1  0.39458900  0.39458900  0.81613300  1
  C  C83  1  0.26642200  0.71438200  0.75301500  1
  C  C84  1  0.26673100  0.26673100  0.75301200  1
  C  C85  1  0.14468400  0.58911700  0.67788300  1
  C  C86  1  0.99920400  0.55231000  0.89560600  1
  C  C87  1  0.87463000  0.87463000  0.82061900  1
  C  C88  1  0.87485800  0.42939400  0.82063800  1
  C  C89  1  0.55231000  0.99920400  0.89560600  1
  C  C90  1  0.74785400  0.74785400  0.75649100  1
  C  C91  1  0.67967700  0.67967700  0.95935900  1
  C  C92  1  0.55269500  0.55269500  0.89579400  1
  C  C93  1  0.42939400  0.87485800  0.82063800  1
  C  C94  1  0.16974000  0.16974000  0.96384100  1
  C  C95  1  0.03332600  0.03332600  0.90130200  1
  C  C96  1  0.16677300  0.69645300  0.96323100  1
  C  C97  1  0.69645300  0.16677300  0.96323100  1
