# generated using pymatgen
data_Cu25NiC12
_symmetry_space_group_name_H-M   'P 1'
_cell_length_a   11.74658371
_cell_length_b   11.74658371
_cell_length_c   11.74658371
_cell_angle_alpha   60.00000000
_cell_angle_beta   60.00000000
_cell_angle_gamma   60.00000000
_symmetry_Int_Tables_number   1
_chemical_formula_structural   Cu25NiC12
_chemical_formula_sum   'Cu50 Ni2 C24'
_cell_volume   1146.09267409
_cell_formula_units_Z   2
loop_
 _symmetry_equiv_pos_site_id
 _symmetry_equiv_pos_as_xyz
  1  'x, y, z'
loop_
 _atom_site_type_symbol
 _atom_site_label
 _atom_site_symmetry_multiplicity
 _atom_site_fract_x
 _atom_site_fract_y
 _atom_site_fract_z
 _atom_site_occupancy
  C  C0  1  0.91451100  0.91451100  0.91451100  1
  C  C1  1  0.30577400  0.69422600  0.69422600  1
  C  C2  1  0.94422600  0.94422600  0.55577400  1
  C  C3  1  0.55577400  0.94422600  0.94422600  1
  C  C4  1  0.33548900  0.33548900  0.99353300  1
  C  C5  1  0.33548900  0.99353300  0.33548900  1
  C  C6  1  0.99353300  0.33548900  0.33548900  1
  C  C7  1  0.94422600  0.55577400  0.94422600  1
  C  C8  1  0.33548900  0.33548900  0.33548900  1
  C  C9  1  0.55577400  0.55577400  0.94422600  1
  C  C10  1  0.69422600  0.69422600  0.30577400  1
  C  C11  1  0.30577400  0.69422600  0.30577400  1
  C  C12  1  0.30577400  0.30577400  0.69422600  1
  C  C13  1  0.94422600  0.55577400  0.55577400  1
  C  C14  1  0.55577400  0.94422600  0.55577400  1
  C  C15  1  0.91451100  0.25646700  0.91451100  1
  C  C16  1  0.25646700  0.91451100  0.91451100  1
  C  C17  1  0.91451100  0.91451100  0.25646700  1
  C  C18  1  0.69422600  0.30577400  0.30577400  1
  C  C19  1  0.69422600  0.30577400  0.69422600  1
  C  C20  1  0.12500000  0.12500000  0.12500000  1
  C  C21  1  0.12500000  0.62500000  0.12500000  1
  C  C22  1  0.12500000  0.12500000  0.62500000  1
  C  C23  1  0.62500000  0.12500000  0.12500000  1
  Ni  Ni24  1  0.50000000  0.50000000  0.50000000  1
  Ni  Ni25  1  0.75000000  0.75000000  0.75000000  1
  Cu  Cu26  1  0.08743100  0.30703700  0.51810200  1
  Cu  Cu27  1  0.48221700  0.81105300  0.22451400  1
  Cu  Cu28  1  0.08743100  0.30703700  0.08743100  1
  Cu  Cu29  1  0.16256900  0.94296300  0.73189800  1
  Cu  Cu30  1  0.02548600  0.76778300  0.43894700  1
  Cu  Cu31  1  0.51810200  0.30703700  0.08743100  1
  Cu  Cu32  1  0.16256900  0.16256900  0.94296300  1
  Cu  Cu33  1  0.08743100  0.51810200  0.08743100  1
  Cu  Cu34  1  0.25000000  0.25000000  0.25000000  1
  Cu  Cu35  1  0.22451400  0.81105300  0.48221700  1
  Cu  Cu36  1  0.48221700  0.22451400  0.48221700  1
  Cu  Cu37  1  0.30703700  0.51810200  0.08743100  1
  Cu  Cu38  1  0.16256900  0.16256900  0.73189800  1
  Cu  Cu39  1  0.02548600  0.43894700  0.76778300  1
  Cu  Cu40  1  0.76778300  0.76778300  0.02548600  1
  Cu  Cu41  1  0.76778300  0.02548600  0.76778300  1
  Cu  Cu42  1  0.73189800  0.16256900  0.16256900  1
  Cu  Cu43  1  0.43894700  0.76778300  0.76778300  1
  Cu  Cu44  1  0.16256900  0.94296300  0.16256900  1
  Cu  Cu45  1  0.94296300  0.73189800  0.16256900  1
  Cu  Cu46  1  0.81105300  0.22451400  0.48221700  1
  Cu  Cu47  1  0.00000000  0.00000000  0.00000000  1
  Cu  Cu48  1  0.94296300  0.16256900  0.73189800  1
  Cu  Cu49  1  0.08743100  0.51810200  0.30703700  1
  Cu  Cu50  1  0.08743100  0.08743100  0.30703700  1
  Cu  Cu51  1  0.81105300  0.48221700  0.22451400  1
  Cu  Cu52  1  0.51810200  0.08743100  0.08743100  1
  Cu  Cu53  1  0.48221700  0.22451400  0.81105300  1
  Cu  Cu54  1  0.81105300  0.48221700  0.48221700  1
  Cu  Cu55  1  0.76778300  0.76778300  0.43894700  1
  Cu  Cu56  1  0.73189800  0.94296300  0.16256900  1
  Cu  Cu57  1  0.22451400  0.48221700  0.81105300  1
  Cu  Cu58  1  0.76778300  0.43894700  0.76778300  1
  Cu  Cu59  1  0.48221700  0.48221700  0.22451400  1
  Cu  Cu60  1  0.76778300  0.02548600  0.43894700  1
  Cu  Cu61  1  0.30703700  0.08743100  0.08743100  1
  Cu  Cu62  1  0.73189800  0.16256900  0.94296300  1
  Cu  Cu63  1  0.16256900  0.73189800  0.94296300  1
  Cu  Cu64  1  0.48221700  0.81105300  0.48221700  1
  Cu  Cu65  1  0.43894700  0.76778300  0.02548600  1
  Cu  Cu66  1  0.76778300  0.43894700  0.02548600  1
  Cu  Cu67  1  0.08743100  0.08743100  0.51810200  1
  Cu  Cu68  1  0.02548600  0.76778300  0.76778300  1
  Cu  Cu69  1  0.16256900  0.73189800  0.16256900  1
  Cu  Cu70  1  0.94296300  0.16256900  0.16256900  1
  Cu  Cu71  1  0.30703700  0.08743100  0.51810200  1
  Cu  Cu72  1  0.22451400  0.48221700  0.48221700  1
  Cu  Cu73  1  0.43894700  0.02548600  0.76778300  1
  Cu  Cu74  1  0.51810200  0.08743100  0.30703700  1
  Cu  Cu75  1  0.48221700  0.48221700  0.81105300  1
