# generated using pymatgen
data_Cu3(NiC)4
_symmetry_space_group_name_H-M   'P 1'
_cell_length_a   7.07310400
_cell_length_b   6.27161900
_cell_length_c   11.99361663
_cell_angle_alpha   77.16589988
_cell_angle_beta   90.00000000
_cell_angle_gamma   90.00000000
_symmetry_Int_Tables_number   1
_chemical_formula_structural   Cu3(NiC)4
_chemical_formula_sum   'Cu6 Ni8 C8'
_cell_volume   518.74294856
_cell_formula_units_Z   2
loop_
 _symmetry_equiv_pos_site_id
 _symmetry_equiv_pos_as_xyz
  1  'x, y, z'
loop_
 _atom_site_type_symbol
 _atom_site_label
 _atom_site_symmetry_multiplicity
 _atom_site_fract_x
 _atom_site_fract_y
 _atom_site_fract_z
 _atom_site_occupancy
  C  C0  1  0.02866400  0.56022600  0.80795800  1
  C  C1  1  0.97133600  0.43977400  0.19204200  1
  C  C2  1  0.47133600  0.56022600  0.80795800  1
  C  C3  1  0.52866400  0.43977400  0.19204200  1
  Ni  Ni4  1  0.25000000  0.98322100  0.10737100  1
  Ni  Ni5  1  0.42800000  0.73548100  0.39504300  1
  Ni  Ni6  1  0.25000000  0.07498400  0.40583900  1
  Ni  Ni7  1  0.07200000  0.73548100  0.39504300  1
  Ni  Ni8  1  0.57200000  0.26451900  0.60495700  1
  Ni  Ni9  1  0.75000000  0.01677900  0.89262900  1
  Ni  Ni10  1  0.75000000  0.92501600  0.59416100  1
  Ni  Ni11  1  0.92800000  0.26451900  0.60495700  1
  Cu  Cu12  1  0.00175300  0.79672600  0.20421100  1
  Cu  Cu13  1  0.50175300  0.20327400  0.79578900  1
  Cu  Cu14  1  0.49824700  0.79672600  0.20421100  1
  Cu  Cu15  1  0.75000000  0.74415400  0.78465300  1
  Cu  Cu16  1  0.25000000  0.25584600  0.21534700  1
  Cu  Cu17  1  0.99824700  0.20327400  0.79578900  1
  C  C18  1  0.25000000  0.70246200  0.64539300  1
  C  C19  1  0.75000000  0.39168600  0.05765700  1
  C  C20  1  0.25000000  0.60831400  0.94234300  1
  C  C21  1  0.75000000  0.29753800  0.35460700  1
