# generated using pymatgen
data_CuNi
_symmetry_space_group_name_H-M   'P 1'
_cell_length_a   4.24666494
_cell_length_b   4.24666494
_cell_length_c   32.82622700
_cell_angle_alpha   90.00000000
_cell_angle_beta   90.00000000
_cell_angle_gamma   90.02615936
_symmetry_Int_Tables_number   1
_chemical_formula_structural   CuNi
_chemical_formula_sum   'Cu4 Ni4'
_cell_volume   591.99347108
_cell_formula_units_Z   4
loop_
 _symmetry_equiv_pos_site_id
 _symmetry_equiv_pos_as_xyz
  1  'x, y, z'
loop_
 _atom_site_type_symbol
 _atom_site_label
 _atom_site_symmetry_multiplicity
 _atom_site_fract_x
 _atom_site_fract_y
 _atom_site_fract_z
 _atom_site_occupancy
  Ni  Ni0  1  0.83701200  0.16298800  0.20672400  1
  Ni  Ni1  1  0.16298800  0.83701200  0.79327600  1
  Ni  Ni2  1  0.33701200  0.66298800  0.29327600  1
  Ni  Ni3  1  0.66298800  0.33701200  0.70672400  1
  Cu  Cu4  1  0.16105400  0.83894600  0.71126500  1
  Cu  Cu5  1  0.83894600  0.16105400  0.28873500  1
  Cu  Cu6  1  0.66105400  0.33894600  0.78873500  1
  Cu  Cu7  1  0.33894600  0.66105400  0.21126500  1
