# generated using pymatgen
data_Cu3Ni5C2
_symmetry_space_group_name_H-M   'P 1'
_cell_length_a   8.39675476
_cell_length_b   8.39675476
_cell_length_c   8.39675476
_cell_angle_alpha   137.77938735
_cell_angle_beta   104.21826540
_cell_angle_gamma   90.79189211
_symmetry_Int_Tables_number   1
_chemical_formula_structural   Cu3Ni5C2
_chemical_formula_sum   'Cu6 Ni10 C4'
_cell_volume   367.82353237
_cell_formula_units_Z   2
loop_
 _symmetry_equiv_pos_site_id
 _symmetry_equiv_pos_as_xyz
  1  'x, y, z'
loop_
 _atom_site_type_symbol
 _atom_site_label
 _atom_site_symmetry_multiplicity
 _atom_site_fract_x
 _atom_site_fract_y
 _atom_site_fract_z
 _atom_site_occupancy
  C  C0  1  0.63983600  0.36588200  0.27395400  1
  C  C1  1  0.36016400  0.63411800  0.72604600  1
  C  C2  1  0.90807100  0.13411800  0.77395400  1
  C  C3  1  0.09192900  0.86588200  0.22604600  1
  Ni  Ni4  1  0.43574400  0.09808400  0.33766000  1
  Ni  Ni5  1  0.56425600  0.90191600  0.66234000  1
  Ni  Ni6  1  0.23957600  0.40191600  0.83766000  1
  Ni  Ni7  1  0.76042400  0.59808400  0.16234000  1
  Ni  Ni8  1  0.27652000  0.52652000  0.25000000  1
  Ni  Ni9  1  0.72348000  0.97348000  0.25000000  1
  Ni  Ni10  1  0.72348000  0.47348000  0.75000000  1
  Ni  Ni11  1  0.27652000  0.02652000  0.75000000  1
  Ni  Ni12  1  0.00000000  0.25000000  0.25000000  1
  Ni  Ni13  1  0.00000000  0.75000000  0.75000000  1
  Cu  Cu14  1  0.25330100  0.14200300  0.11129800  1
  Cu  Cu15  1  0.74669900  0.85799700  0.88870200  1
  Cu  Cu16  1  0.96929400  0.35799700  0.61129800  1
  Cu  Cu17  1  0.03070600  0.64200300  0.38870200  1
  Cu  Cu18  1  0.50000000  0.25000000  0.75000000  1
  Cu  Cu19  1  0.50000000  0.75000000  0.25000000  1
