# generated using pymatgen
data_CuNiC5
_symmetry_space_group_name_H-M   'P 1'
_cell_length_a   3.54370100
_cell_length_b   8.68484500
_cell_length_c   9.95542200
_cell_angle_alpha   90.00000000
_cell_angle_beta   90.00000000
_cell_angle_gamma   90.00000000
_symmetry_Int_Tables_number   1
_chemical_formula_structural   CuNiC5
_chemical_formula_sum   'Cu4 Ni4 C20'
_cell_volume   306.39298457
_cell_formula_units_Z   4
loop_
 _symmetry_equiv_pos_site_id
 _symmetry_equiv_pos_as_xyz
  1  'x, y, z'
loop_
 _atom_site_type_symbol
 _atom_site_label
 _atom_site_symmetry_multiplicity
 _atom_site_fract_x
 _atom_site_fract_y
 _atom_site_fract_z
 _atom_site_occupancy
  C  C0  1  0.25000000  0.07205500  0.39654900  1
  C  C1  1  0.75000000  0.92794500  0.60345100  1
  C  C2  1  0.75000000  0.32750000  0.55331400  1
  C  C3  1  0.75000000  0.42794500  0.89654900  1
  C  C4  1  0.75000000  0.82750000  0.94668600  1
  C  C5  1  0.25000000  0.17250000  0.05331400  1
  C  C6  1  0.25000000  0.67250000  0.44668600  1
  C  C7  1  0.25000000  0.57205500  0.10345100  1
  Ni  Ni8  1  0.25000000  0.13735100  0.75881600  1
  Ni  Ni9  1  0.25000000  0.63735100  0.74118400  1
  Ni  Ni10  1  0.75000000  0.86264900  0.24118400  1
  Ni  Ni11  1  0.75000000  0.36264900  0.25881600  1
  Cu  Cu12  1  0.25000000  0.90311800  0.77132300  1
  Cu  Cu13  1  0.25000000  0.40311800  0.72867700  1
  Cu  Cu14  1  0.75000000  0.59688200  0.27132300  1
  Cu  Cu15  1  0.75000000  0.09688200  0.22867700  1
  C  C16  1  0.75000000  0.00375900  0.16303200  1
  C  C17  1  0.25000000  0.12848800  0.62181600  1
  C  C18  1  0.25000000  0.99624100  0.83696800  1
  C  C19  1  0.75000000  0.87151200  0.37818400  1
  C  C20  1  0.25000000  0.27087900  0.83164600  1
  C  C21  1  0.25000000  0.49624100  0.66303200  1
  C  C22  1  0.75000000  0.72912100  0.16835400  1
  C  C23  1  0.25000000  0.62848800  0.87818400  1
  C  C24  1  0.75000000  0.22912100  0.33164600  1
  C  C25  1  0.75000000  0.37151200  0.12181600  1
  C  C26  1  0.75000000  0.50375900  0.33696800  1
  C  C27  1  0.25000000  0.77087900  0.66835400  1
