# generated using pymatgen
data_Cu6Ni2C5
_symmetry_space_group_name_H-M   'P 1'
_cell_length_a   8.77851018
_cell_length_b   8.77851018
_cell_length_c   14.03070732
_cell_angle_alpha   76.06931790
_cell_angle_beta   76.06931790
_cell_angle_gamma   103.32207635
_symmetry_Int_Tables_number   1
_chemical_formula_structural   Cu6Ni2C5
_chemical_formula_sum   'Cu24 Ni8 C20'
_cell_volume   969.66882998
_cell_formula_units_Z   4
loop_
 _symmetry_equiv_pos_site_id
 _symmetry_equiv_pos_as_xyz
  1  'x, y, z'
loop_
 _atom_site_type_symbol
 _atom_site_label
 _atom_site_symmetry_multiplicity
 _atom_site_fract_x
 _atom_site_fract_y
 _atom_site_fract_z
 _atom_site_occupancy
  C  C0  1  0.23546800  0.53321000  0.73132200  1
  C  C1  1  0.73546800  0.03321000  0.73132200  1
  C  C2  1  0.26453200  0.96679000  0.26867800  1
  C  C3  1  0.76453200  0.46679000  0.26867800  1
  C  C4  1  0.21679000  0.01453200  0.76867800  1
  C  C5  1  0.71679000  0.51453200  0.76867800  1
  C  C6  1  0.78321000  0.98546800  0.23132200  1
  C  C7  1  0.28321000  0.48546800  0.23132200  1
  C  C8  1  0.25000000  0.25000000  0.00000000  1
  C  C9  1  0.50000000  0.00000000  0.50000000  1
  C  C10  1  0.75000000  0.75000000  0.00000000  1
  C  C11  1  0.00000000  0.50000000  0.50000000  1
  C  C12  1  0.41341400  0.65937500  0.42721100  1
  C  C13  1  0.91341400  0.15937500  0.42721100  1
  C  C14  1  0.08658600  0.84062500  0.57278900  1
  C  C15  1  0.58658600  0.34062500  0.57278900  1
  C  C16  1  0.59062500  0.33658600  0.07278900  1
  C  C17  1  0.09062500  0.83658600  0.07278900  1
  C  C18  1  0.40937500  0.66341400  0.92721100  1
  C  C19  1  0.90937500  0.16341400  0.92721100  1
  Ni  Ni20  1  0.96043500  0.64221600  0.89734900  1
  Ni  Ni21  1  0.46043500  0.14221600  0.89734900  1
  Ni  Ni22  1  0.53956500  0.85778400  0.10265100  1
  Ni  Ni23  1  0.03956500  0.35778400  0.10265100  1
  Ni  Ni24  1  0.60778400  0.78956500  0.60265100  1
  Ni  Ni25  1  0.10778400  0.28956500  0.60265100  1
  Ni  Ni26  1  0.39221600  0.21043500  0.39734900  1
  Ni  Ni27  1  0.89221600  0.71043500  0.39734900  1
  Cu  Cu28  1  0.38134900  0.79307300  0.82557800  1
  Cu  Cu29  1  0.88134900  0.29307300  0.82557800  1
  Cu  Cu30  1  0.61865100  0.20692700  0.17442200  1
  Cu  Cu31  1  0.11865100  0.70692700  0.17442200  1
  Cu  Cu32  1  0.54307300  0.63134900  0.32557800  1
  Cu  Cu33  1  0.04307300  0.13134900  0.32557800  1
  Cu  Cu34  1  0.95692700  0.86865100  0.67442200  1
  Cu  Cu35  1  0.45692700  0.36865100  0.67442200  1
  Cu  Cu36  1  0.11687900  0.01669700  0.10829000  1
  Cu  Cu37  1  0.61687900  0.51669700  0.10829000  1
  Cu  Cu38  1  0.47516800  0.87498700  0.39171000  1
  Cu  Cu39  1  0.97516800  0.37498700  0.39171000  1
  Cu  Cu40  1  0.23330300  0.63312100  0.39171000  1
  Cu  Cu41  1  0.73330300  0.13312100  0.39171000  1
  Cu  Cu42  1  0.02483200  0.62501300  0.60829000  1
  Cu  Cu43  1  0.52483200  0.12501300  0.60829000  1
  Cu  Cu44  1  0.38312100  0.48330300  0.89171000  1
  Cu  Cu45  1  0.88312100  0.98330300  0.89171000  1
  Cu  Cu46  1  0.37501300  0.27483200  0.10829000  1
  Cu  Cu47  1  0.87501300  0.77483200  0.10829000  1
  Cu  Cu48  1  0.26669700  0.86687900  0.60829000  1
  Cu  Cu49  1  0.76669700  0.36687900  0.60829000  1
  Cu  Cu50  1  0.12498700  0.22516800  0.89171000  1
  Cu  Cu51  1  0.62498700  0.72516800  0.89171000  1
