# generated using pymatgen
data_Cu3NiC16
_symmetry_space_group_name_H-M   'P 1'
_cell_length_a   6.23971717
_cell_length_b   6.23971717
_cell_length_c   6.23971714
_cell_angle_alpha   100.91667242
_cell_angle_beta   100.91667242
_cell_angle_gamma   100.91667864
_symmetry_Int_Tables_number   1
_chemical_formula_structural   Cu3NiC16
_chemical_formula_sum   'Cu3 Ni1 C16'
_cell_volume   227.74279399
_cell_formula_units_Z   1
loop_
 _symmetry_equiv_pos_site_id
 _symmetry_equiv_pos_as_xyz
  1  'x, y, z'
loop_
 _atom_site_type_symbol
 _atom_site_label
 _atom_site_symmetry_multiplicity
 _atom_site_fract_x
 _atom_site_fract_y
 _atom_site_fract_z
 _atom_site_occupancy
  Ni  Ni0  1  0.00000000  0.00000000  0.00000000  1
  Cu  Cu1  1  0.50625500  0.49374500  0.00000000  1
  Cu  Cu2  1  0.49374500  0.00000000  0.50625500  1
  Cu  Cu3  1  0.00000000  0.50625500  0.49374500  1
  C  C4  1  0.50000000  0.98845600  0.01154400  1
  C  C5  1  0.98845600  0.01154400  0.50000000  1
  C  C6  1  0.50000000  0.50000000  0.50000000  1
  C  C7  1  0.01154400  0.50000000  0.98845600  1
  C  C8  1  0.17292300  0.37643800  0.00320600  1
  C  C9  1  0.82707700  0.99679400  0.62356200  1
  C  C10  1  0.64473300  0.35526700  0.50000000  1
  C  C11  1  0.37643800  0.00320600  0.17292300  1
  C  C12  1  0.62356200  0.82707700  0.99679400  1
  C  C13  1  0.86722600  0.50000000  0.13277400  1
  C  C14  1  0.13277400  0.86722600  0.50000000  1
  C  C15  1  0.35526700  0.50000000  0.64473300  1
  C  C16  1  0.99679400  0.62356200  0.82707700  1
  C  C17  1  0.00320600  0.17292300  0.37643800  1
  C  C18  1  0.50000000  0.13277400  0.86722600  1
  C  C19  1  0.50000000  0.64473300  0.35526700  1
