# generated using pymatgen
data_Cu3NiC
_symmetry_space_group_name_H-M   'P 1'
_cell_length_a   7.60059941
_cell_length_b   7.60059941
_cell_length_c   19.60394800
_cell_angle_alpha   90.00000000
_cell_angle_beta   90.00000000
_cell_angle_gamma   119.99999484
_symmetry_Int_Tables_number   1
_chemical_formula_structural   Cu3NiC
_chemical_formula_sum   'Cu18 Ni6 C6'
_cell_volume   980.77612006
_cell_formula_units_Z   6
loop_
 _symmetry_equiv_pos_site_id
 _symmetry_equiv_pos_as_xyz
  1  'x, y, z'
loop_
 _atom_site_type_symbol
 _atom_site_label
 _atom_site_symmetry_multiplicity
 _atom_site_fract_x
 _atom_site_fract_y
 _atom_site_fract_z
 _atom_site_occupancy
  C  C0  1  0.58230500  0.26868300  0.24903300  1
  C  C1  1  0.31362200  0.73131700  0.41763400  1
  C  C2  1  0.41769500  0.68637800  0.08430100  1
  C  C3  1  0.73131700  0.31362200  0.58236600  1
  C  C4  1  0.68637800  0.41769500  0.91569900  1
  C  C5  1  0.26868300  0.58230500  0.75096700  1
  Ni  Ni6  1  0.92445000  0.89760100  0.71923300  1
  Ni  Ni7  1  0.10239900  0.02684900  0.05256600  1
  Ni  Ni8  1  0.02684900  0.10239900  0.94743400  1
  Ni  Ni9  1  0.07555000  0.97315100  0.61410000  1
  Ni  Ni10  1  0.89760100  0.92445000  0.28076700  1
  Ni  Ni11  1  0.97315100  0.07555000  0.38590000  1
  Cu  Cu12  1  0.29908800  0.25533600  0.39289900  1
  Cu  Cu13  1  0.70091200  0.95624700  0.94043400  1
  Cu  Cu14  1  0.84233300  0.76048100  0.44676700  1
  Cu  Cu15  1  0.15766700  0.91814700  0.88656600  1
  Cu  Cu16  1  0.21943100  0.79682500  0.59186300  1
  Cu  Cu17  1  0.08185300  0.23951900  0.21989900  1
  Cu  Cu18  1  0.95624700  0.70091200  0.05956600  1
  Cu  Cu19  1  0.23951900  0.08185300  0.78010100  1
  Cu  Cu20  1  0.79682500  0.21943100  0.40813700  1
  Cu  Cu21  1  0.78056900  0.57739400  0.74147000  1
  Cu  Cu22  1  0.04375300  0.74466400  0.27376700  1
  Cu  Cu23  1  0.42260600  0.20317500  0.07480300  1
  Cu  Cu24  1  0.20317500  0.42260600  0.92519700  1
  Cu  Cu25  1  0.25533600  0.29908800  0.60710100  1
  Cu  Cu26  1  0.57739400  0.78056900  0.25853000  1
  Cu  Cu27  1  0.91814700  0.15766700  0.11343400  1
  Cu  Cu28  1  0.76048100  0.84233300  0.55323300  1
  Cu  Cu29  1  0.74466400  0.04375300  0.72623300  1
