# generated using pymatgen
data_Cu5NiC
_symmetry_space_group_name_H-M   'P 1'
_cell_length_a   5.16551100
_cell_length_b   8.88246900
_cell_length_c   9.68595100
_cell_angle_alpha   90.00000000
_cell_angle_beta   90.00000000
_cell_angle_gamma   90.00000000
_symmetry_Int_Tables_number   1
_chemical_formula_structural   Cu5NiC
_chemical_formula_sum   'Cu20 Ni4 C4'
_cell_volume   444.41556275
_cell_formula_units_Z   4
loop_
 _symmetry_equiv_pos_site_id
 _symmetry_equiv_pos_as_xyz
  1  'x, y, z'
loop_
 _atom_site_type_symbol
 _atom_site_label
 _atom_site_symmetry_multiplicity
 _atom_site_fract_x
 _atom_site_fract_y
 _atom_site_fract_z
 _atom_site_occupancy
  C  C0  1  0.91838000  0.16657500  0.37247000  1
  C  C1  1  0.41838000  0.66657500  0.12753000  1
  C  C2  1  0.58162000  0.16657500  0.87247000  1
  C  C3  1  0.08162000  0.66657500  0.62753000  1
  Ni  Ni4  1  0.05050300  0.02879400  0.27416500  1
  Ni  Ni5  1  0.94949700  0.52879400  0.72583500  1
  Ni  Ni6  1  0.55050300  0.52879400  0.22583500  1
  Ni  Ni7  1  0.44949700  0.02879400  0.77416500  1
  Cu  Cu8  1  0.80199200  0.67842600  0.50368900  1
  Cu  Cu9  1  0.93934300  0.82544800  0.73146100  1
  Cu  Cu10  1  0.75265400  0.03553300  0.99476000  1
  Cu  Cu11  1  0.43934300  0.32544800  0.76853900  1
  Cu  Cu12  1  0.69800800  0.67842600  0.00368900  1
  Cu  Cu13  1  0.27223500  0.82267300  0.01796500  1
  Cu  Cu14  1  0.30199200  0.17842600  0.99631100  1
  Cu  Cu15  1  0.72776500  0.32267300  0.98203500  1
  Cu  Cu16  1  0.22776500  0.82267300  0.51796500  1
  Cu  Cu17  1  0.77223500  0.32267300  0.48203500  1
  Cu  Cu18  1  0.11090700  0.68154900  0.23106900  1
  Cu  Cu19  1  0.24734600  0.53553300  0.00524000  1
  Cu  Cu20  1  0.25265400  0.53553300  0.50524000  1
  Cu  Cu21  1  0.19800800  0.17842600  0.49631100  1
  Cu  Cu22  1  0.38909300  0.68154900  0.73106900  1
  Cu  Cu23  1  0.06065700  0.32544800  0.26853900  1
  Cu  Cu24  1  0.61090700  0.18154900  0.26893100  1
  Cu  Cu25  1  0.56065700  0.82544800  0.23146100  1
  Cu  Cu26  1  0.74734600  0.03553300  0.49476000  1
  Cu  Cu27  1  0.88909300  0.18154900  0.76893100  1
