# generated using pymatgen
data_CuNiC3
_symmetry_space_group_name_H-M   'P 1'
_cell_length_a   7.73822104
_cell_length_b   7.73822104
_cell_length_c   8.71447000
_cell_angle_alpha   90.00000000
_cell_angle_beta   90.00000000
_cell_angle_gamma   100.64867754
_symmetry_Int_Tables_number   1
_chemical_formula_structural   CuNiC3
_chemical_formula_sum   'Cu8 Ni8 C24'
_cell_volume   512.83656410
_cell_formula_units_Z   8
loop_
 _symmetry_equiv_pos_site_id
 _symmetry_equiv_pos_as_xyz
  1  'x, y, z'
loop_
 _atom_site_type_symbol
 _atom_site_label
 _atom_site_symmetry_multiplicity
 _atom_site_fract_x
 _atom_site_fract_y
 _atom_site_fract_z
 _atom_site_occupancy
  Ni  Ni0  1  0.24781400  0.75218600  0.50000000  1
  Ni  Ni1  1  0.00000000  0.00000000  0.50000000  1
  Ni  Ni2  1  0.74781400  0.25218600  0.00000000  1
  Ni  Ni3  1  0.00000000  0.00000000  0.00000000  1
  Ni  Ni4  1  0.50000000  0.50000000  0.50000000  1
  Ni  Ni5  1  0.75218600  0.24781400  0.50000000  1
  Ni  Ni6  1  0.25218600  0.74781400  0.00000000  1
  Ni  Ni7  1  0.50000000  0.50000000  0.00000000  1
  Cu  Cu8  1  0.67129100  0.92144300  0.25052200  1
  Cu  Cu9  1  0.32870900  0.07855700  0.74947800  1
  Cu  Cu10  1  0.42144300  0.17129100  0.24947800  1
  Cu  Cu11  1  0.57855700  0.82870900  0.75052200  1
  Cu  Cu12  1  0.82870900  0.57855700  0.75052200  1
  Cu  Cu13  1  0.92144300  0.67129100  0.25052200  1
  Cu  Cu14  1  0.17129100  0.42144300  0.24947800  1
  Cu  Cu15  1  0.07855700  0.32870900  0.74947800  1
  C  C16  1  0.73170900  0.48322500  0.92173900  1
  C  C17  1  0.19519100  0.19519100  0.25160400  1
  C  C18  1  0.02760400  0.77573100  0.08689200  1
  C  C19  1  0.44474100  0.94474100  0.25000000  1
  C  C20  1  0.22426900  0.97239600  0.91310800  1
  C  C21  1  0.80480900  0.80480900  0.74839600  1
  C  C22  1  0.30480900  0.30480900  0.75160400  1
  C  C23  1  0.97239600  0.22426900  0.91310800  1
  C  C24  1  0.69519100  0.69519100  0.24839600  1
  C  C25  1  0.26829100  0.51677500  0.07826100  1
  C  C26  1  0.48322500  0.73170900  0.92173900  1
  C  C27  1  0.27573100  0.52760400  0.41310800  1
  C  C28  1  0.51677500  0.26829100  0.07826100  1
  C  C29  1  0.76829100  0.01677500  0.42173900  1
  C  C30  1  0.01677500  0.76829100  0.42173900  1
  C  C31  1  0.94474100  0.44474100  0.25000000  1
  C  C32  1  0.77573100  0.02760400  0.08689200  1
  C  C33  1  0.23170900  0.98322500  0.57826100  1
  C  C34  1  0.98322500  0.23170900  0.57826100  1
  C  C35  1  0.05525900  0.55525900  0.75000000  1
  C  C36  1  0.52760400  0.27573100  0.41310800  1
  C  C37  1  0.47239600  0.72426900  0.58689200  1
  C  C38  1  0.55525900  0.05525900  0.75000000  1
  C  C39  1  0.72426900  0.47239600  0.58689200  1
