# generated using pymatgen
data_Cu2NiC4
_symmetry_space_group_name_H-M   'P 1'
_cell_length_a   6.47834167
_cell_length_b   6.47834167
_cell_length_c   6.47834167
_cell_angle_alpha   131.02102227
_cell_angle_beta   131.02102227
_cell_angle_gamma   71.77968120
_symmetry_Int_Tables_number   1
_chemical_formula_structural   Cu2NiC4
_chemical_formula_sum   'Cu2 Ni1 C4'
_cell_volume   151.39753196
_cell_formula_units_Z   1
loop_
 _symmetry_equiv_pos_site_id
 _symmetry_equiv_pos_as_xyz
  1  'x, y, z'
loop_
 _atom_site_type_symbol
 _atom_site_label
 _atom_site_symmetry_multiplicity
 _atom_site_fract_x
 _atom_site_fract_y
 _atom_site_fract_z
 _atom_site_occupancy
  Ni  Ni0  1  0.00000000  0.00000000  0.00000000  1
  Cu  Cu1  1  0.25000000  0.75000000  0.50000000  1
  Cu  Cu2  1  0.50000000  0.50000000  0.00000000  1
  C  C3  1  0.11939300  0.12899200  0.50899500  1
  C  C4  1  0.87100800  0.38000200  0.99040000  1
  C  C5  1  0.38960200  0.88060700  0.00960000  1
  C  C6  1  0.61999800  0.61039800  0.49100500  1
