# generated using pymatgen
data_Cu(NiC5)3
_symmetry_space_group_name_H-M   'P 1'
_cell_length_a   9.41848724
_cell_length_b   9.41848724
_cell_length_c   8.33884200
_cell_angle_alpha   90.00000000
_cell_angle_beta   90.00000000
_cell_angle_gamma   119.99999469
_symmetry_Int_Tables_number   1
_chemical_formula_structural   Cu(NiC5)3
_chemical_formula_sum   'Cu2 Ni6 C30'
_cell_volume   640.61736668
_cell_formula_units_Z   2
loop_
 _symmetry_equiv_pos_site_id
 _symmetry_equiv_pos_as_xyz
  1  'x, y, z'
loop_
 _atom_site_type_symbol
 _atom_site_label
 _atom_site_symmetry_multiplicity
 _atom_site_fract_x
 _atom_site_fract_y
 _atom_site_fract_z
 _atom_site_occupancy
  Ni  Ni0  1  0.70303600  0.70303600  0.00000000  1
  Ni  Ni1  1  0.70303600  0.70303600  0.50000000  1
  Ni  Ni2  1  0.00000000  0.29696400  0.00000000  1
  Ni  Ni3  1  0.29696400  0.00000000  0.50000000  1
  Ni  Ni4  1  0.00000000  0.29696400  0.50000000  1
  Ni  Ni5  1  0.29696400  0.00000000  0.00000000  1
  Cu  Cu6  1  0.66666700  0.33333300  0.75000000  1
  Cu  Cu7  1  0.33333300  0.66666700  0.25000000  1
  C  C8  1  0.66666700  0.33333300  0.25000000  1
  C  C9  1  0.33333300  0.66666700  0.75000000  1
  C  C10  1  0.37073300  0.35824200  0.25000000  1
  C  C11  1  0.62926700  0.98750900  0.75000000  1
  C  C12  1  0.64175800  0.01249100  0.25000000  1
  C  C13  1  0.35824200  0.37073300  0.75000000  1
  C  C14  1  0.01249100  0.64175800  0.75000000  1
  C  C15  1  0.98750900  0.62926700  0.25000000  1
  C  C16  1  0.52022600  0.48677800  0.25000000  1
  C  C17  1  0.75689200  0.12710800  0.75000000  1
  C  C18  1  0.33333300  0.66666700  0.52880300  1
  C  C19  1  0.15115700  0.78311400  0.75000000  1
  C  C20  1  0.66666700  0.33333300  0.02880300  1
  C  C21  1  0.03344900  0.51322200  0.75000000  1
  C  C22  1  0.84884300  0.63195700  0.25000000  1
  C  C23  1  0.12710800  0.75689200  0.25000000  1
  C  C24  1  0.21688600  0.36804300  0.75000000  1
  C  C25  1  0.51322200  0.03344900  0.25000000  1
  C  C26  1  0.48677800  0.52022600  0.75000000  1
  C  C27  1  0.78311400  0.15115700  0.25000000  1
  C  C28  1  0.47977400  0.96655100  0.75000000  1
  C  C29  1  0.36804300  0.21688600  0.25000000  1
  C  C30  1  0.33333300  0.66666700  0.97119700  1
  C  C31  1  0.66666700  0.33333300  0.47119700  1
  C  C32  1  0.96655100  0.47977400  0.25000000  1
  C  C33  1  0.63195700  0.84884300  0.75000000  1
  C  C34  1  0.37021600  0.24310800  0.75000000  1
  C  C35  1  0.24310800  0.37021600  0.25000000  1
  C  C36  1  0.87289200  0.62978400  0.75000000  1
  C  C37  1  0.62978400  0.87289200  0.25000000  1
