# generated using pymatgen
data_Cu6Ni23C4
_symmetry_space_group_name_H-M   'P 1'
_cell_length_a   8.23126509
_cell_length_b   8.23126509
_cell_length_c   18.33628783
_cell_angle_alpha   67.68343086
_cell_angle_beta   67.68343086
_cell_angle_gamma   28.90068908
_symmetry_Int_Tables_number   1
_chemical_formula_structural   Cu6Ni23C4
_chemical_formula_sum   'Cu6 Ni23 C4'
_cell_volume   552.33234325
_cell_formula_units_Z   1
loop_
 _symmetry_equiv_pos_site_id
 _symmetry_equiv_pos_as_xyz
  1  'x, y, z'
loop_
 _atom_site_type_symbol
 _atom_site_label
 _atom_site_symmetry_multiplicity
 _atom_site_fract_x
 _atom_site_fract_y
 _atom_site_fract_z
 _atom_site_occupancy
  C  C0  1  0.26478700  0.26478700  0.78165800  1
  C  C1  1  0.57096400  0.57096400  0.59318600  1
  C  C2  1  0.73521300  0.73521300  0.21834200  1
  C  C3  1  0.42903600  0.42903600  0.40681400  1
  Ni  Ni4  1  0.46781400  0.46781400  0.78218400  1
  Ni  Ni5  1  0.08162800  0.08162800  0.31350900  1
  Ni  Ni6  1  0.60902300  0.60902300  0.83846300  1
  Ni  Ni7  1  0.25533200  0.25533200  0.95412700  1
  Ni  Ni8  1  0.62338600  0.62338600  0.40479400  1
  Ni  Ni9  1  0.08994500  0.08994500  0.95030200  1
  Ni  Ni10  1  0.53218600  0.53218600  0.21781600  1
  Ni  Ni11  1  0.20225000  0.20225000  0.47916600  1
  Ni  Ni12  1  0.90976200  0.90976200  0.27969500  1
  Ni  Ni13  1  0.39097700  0.39097700  0.16153700  1
  Ni  Ni14  1  0.91005500  0.91005500  0.04969800  1
  Ni  Ni15  1  0.74466800  0.74466800  0.04587300  1
  Ni  Ni16  1  0.37661400  0.37661400  0.59520600  1
  Ni  Ni17  1  0.27585300  0.27585300  0.32428600  1
  Ni  Ni18  1  0.85575000  0.85575000  0.85768300  1
  Ni  Ni19  1  0.14425000  0.14425000  0.14231700  1
  Ni  Ni20  1  0.43254100  0.43254100  0.94014500  1
  Ni  Ni21  1  0.79775000  0.79775000  0.52083400  1
  Ni  Ni22  1  0.56745900  0.56745900  0.05985500  1
  Ni  Ni23  1  0.72414700  0.72414700  0.67571400  1
  Ni  Ni24  1  0.91837200  0.91837200  0.68649100  1
  Ni  Ni25  1  0.09023800  0.09023800  0.72030500  1
  Ni  Ni26  1  0.00000000  0.00000000  0.50000000  1
  Cu  Cu27  1  0.99232400  0.99232400  0.13559300  1
  Cu  Cu28  1  0.00767600  0.00767600  0.86440700  1
  Cu  Cu29  1  0.31044800  0.31044800  0.06720400  1
  Cu  Cu30  1  0.68955200  0.68955200  0.93279600  1
  Cu  Cu31  1  0.77305000  0.77305000  0.39831800  1
  Cu  Cu32  1  0.22695000  0.22695000  0.60168200  1
