# generated using pymatgen
data_Cu2NiC9
_symmetry_space_group_name_H-M   'P 1'
_cell_length_a   7.81411000
_cell_length_b   9.22347000
_cell_length_c   9.97541635
_cell_angle_alpha   58.30888707
_cell_angle_beta   90.00000000
_cell_angle_gamma   90.00000000
_symmetry_Int_Tables_number   1
_chemical_formula_structural   Cu2NiC9
_chemical_formula_sum   'Cu8 Ni4 C36'
_cell_volume   611.75797595
_cell_formula_units_Z   4
loop_
 _symmetry_equiv_pos_site_id
 _symmetry_equiv_pos_as_xyz
  1  'x, y, z'
loop_
 _atom_site_type_symbol
 _atom_site_label
 _atom_site_symmetry_multiplicity
 _atom_site_fract_x
 _atom_site_fract_y
 _atom_site_fract_z
 _atom_site_occupancy
  C  C0  1  0.55616500  0.08084700  0.19883400  1
  C  C1  1  0.71800500  0.56920500  0.97383100  1
  C  C2  1  0.78199500  0.56920500  0.47383100  1
  C  C3  1  0.05616500  0.91915300  0.30116600  1
  C  C4  1  0.44383500  0.91915300  0.80116600  1
  C  C5  1  0.94383500  0.08084700  0.69883400  1
  C  C6  1  0.21800500  0.43079500  0.52616900  1
  C  C7  1  0.28199500  0.43079500  0.02616900  1
  Ni  Ni8  1  0.89656300  0.28393900  0.88733500  1
  Ni  Ni9  1  0.60343700  0.28393900  0.38733500  1
  Ni  Ni10  1  0.10343700  0.71606100  0.11266500  1
  Ni  Ni11  1  0.39656300  0.71606100  0.61266500  1
  Cu  Cu12  1  0.27127000  0.11328100  0.41699600  1
  Cu  Cu13  1  0.96004700  0.33972400  0.28848600  1
  Cu  Cu14  1  0.72873000  0.88671900  0.58300400  1
  Cu  Cu15  1  0.46004700  0.66027600  0.21151400  1
  Cu  Cu16  1  0.77127000  0.88671900  0.08300400  1
  Cu  Cu17  1  0.03995300  0.66027600  0.71151400  1
  Cu  Cu18  1  0.22873000  0.11328100  0.91699600  1
  Cu  Cu19  1  0.53995300  0.33972400  0.78848600  1
  C  C20  1  0.72746700  0.32244100  0.72546500  1
  C  C21  1  0.56244200  0.50400100  0.35966100  1
  C  C22  1  0.07148800  0.15994800  0.34062400  1
  C  C23  1  0.42851200  0.15994800  0.84062400  1
  C  C24  1  0.57148800  0.84005200  0.15937600  1
  C  C25  1  0.04846900  0.64254800  0.55565500  1
  C  C26  1  0.06244200  0.49599900  0.14033900  1
  C  C27  1  0.09397000  0.24807500  0.78165600  1
  C  C28  1  0.45153100  0.64254800  0.05565500  1
  C  C29  1  0.31250900  0.93083400  0.43254600  1
  C  C30  1  0.59397000  0.75192500  0.71834400  1
  C  C31  1  0.54846900  0.35745200  0.94434500  1
  C  C32  1  0.90603000  0.75192500  0.21834400  1
  C  C33  1  0.77253300  0.32244100  0.22546500  1
  C  C34  1  0.93755800  0.50400100  0.85966100  1
  C  C35  1  0.27797300  0.12615000  0.57323100  1
  C  C36  1  0.95153100  0.35745200  0.44434500  1
  C  C37  1  0.77797300  0.87385000  0.92676900  1
  C  C38  1  0.27253300  0.67755900  0.27453500  1
  C  C39  1  0.92851200  0.84005200  0.65937600  1
  C  C40  1  0.22202700  0.12615000  0.07323100  1
  C  C41  1  0.68749100  0.06916600  0.56745400  1
  C  C42  1  0.22746700  0.67755900  0.77453500  1
  C  C43  1  0.43755800  0.49599900  0.64033900  1
  C  C44  1  0.81250900  0.06916600  0.06745400  1
  C  C45  1  0.18749100  0.93083400  0.93254600  1
  C  C46  1  0.72202700  0.87385000  0.42676900  1
  C  C47  1  0.40603000  0.24807500  0.28165600  1
