# generated using pymatgen
data_Cu3Ni4C11
_symmetry_space_group_name_H-M   'P 1'
_cell_length_a   12.24444346
_cell_length_b   12.24444346
_cell_length_c   12.24444346
_cell_angle_alpha   60.00000000
_cell_angle_beta   60.00000000
_cell_angle_gamma   60.00000000
_symmetry_Int_Tables_number   1
_chemical_formula_structural   Cu3Ni4C11
_chemical_formula_sum   'Cu6 Ni8 C22'
_cell_volume   1298.08207327
_cell_formula_units_Z   2
loop_
 _symmetry_equiv_pos_site_id
 _symmetry_equiv_pos_as_xyz
  1  'x, y, z'
loop_
 _atom_site_type_symbol
 _atom_site_label
 _atom_site_symmetry_multiplicity
 _atom_site_fract_x
 _atom_site_fract_y
 _atom_site_fract_z
 _atom_site_occupancy
  C  C0  1  0.86929300  0.86929300  0.39212000  1
  C  C1  1  0.60788000  0.13070700  0.13070700  1
  C  C2  1  0.86929300  0.39212000  0.86929300  1
  C  C3  1  0.13070700  0.13070700  0.13070700  1
  C  C4  1  0.39212000  0.86929300  0.86929300  1
  C  C5  1  0.86929300  0.86929300  0.86929300  1
  C  C6  1  0.16552700  0.83447300  0.50000000  1
  C  C7  1  0.83447300  0.50000000  0.50000000  1
  C  C8  1  0.13070700  0.13070700  0.60788000  1
  C  C9  1  0.83447300  0.16552700  0.50000000  1
  C  C10  1  0.16552700  0.50000000  0.50000000  1
  C  C11  1  0.13070700  0.60788000  0.13070700  1
  C  C12  1  0.50000000  0.50000000  0.16552700  1
  C  C13  1  0.50000000  0.16552700  0.83447300  1
  C  C14  1  0.50000000  0.83447300  0.16552700  1
  C  C15  1  0.50000000  0.50000000  0.50000000  1
  C  C16  1  0.50000000  0.50000000  0.83447300  1
  C  C17  1  0.50000000  0.16552700  0.50000000  1
  C  C18  1  0.16552700  0.50000000  0.83447300  1
  C  C19  1  0.00000000  0.00000000  0.00000000  1
  C  C20  1  0.50000000  0.83447300  0.50000000  1
  C  C21  1  0.83447300  0.50000000  0.16552700  1
  Ni  Ni22  1  0.69369700  0.91891000  0.69369700  1
  Ni  Ni23  1  0.69369700  0.69369700  0.91891000  1
  Ni  Ni24  1  0.69369700  0.69369700  0.69369700  1
  Ni  Ni25  1  0.30630300  0.08109000  0.30630300  1
  Ni  Ni26  1  0.91891000  0.69369700  0.69369700  1
  Ni  Ni27  1  0.30630300  0.30630300  0.08109000  1
  Ni  Ni28  1  0.08109000  0.30630300  0.30630300  1
  Ni  Ni29  1  0.30630300  0.30630300  0.30630300  1
  Cu  Cu30  1  0.78315500  0.21684500  0.78315500  1
  Cu  Cu31  1  0.78315500  0.21684500  0.21684500  1
  Cu  Cu32  1  0.21684500  0.78315500  0.21684500  1
  Cu  Cu33  1  0.21684500  0.78315500  0.78315500  1
  Cu  Cu34  1  0.78315500  0.78315500  0.21684500  1
  Cu  Cu35  1  0.21684500  0.21684500  0.78315500  1
