# generated using pymatgen
data_Cu2(NiC4)3
_symmetry_space_group_name_H-M   'P 1'
_cell_length_a   6.77767485
_cell_length_b   6.77767485
_cell_length_c   5.18312500
_cell_angle_alpha   90.00000000
_cell_angle_beta   90.00000000
_cell_angle_gamma   114.28024307
_symmetry_Int_Tables_number   1
_chemical_formula_structural   Cu2(NiC4)3
_chemical_formula_sum   'Cu2 Ni3 C12'
_cell_volume   217.03576939
_cell_formula_units_Z   1
loop_
 _symmetry_equiv_pos_site_id
 _symmetry_equiv_pos_as_xyz
  1  'x, y, z'
loop_
 _atom_site_type_symbol
 _atom_site_label
 _atom_site_symmetry_multiplicity
 _atom_site_fract_x
 _atom_site_fract_y
 _atom_site_fract_z
 _atom_site_occupancy
  Ni  Ni0  1  0.45756900  0.45756900  0.00000000  1
  Ni  Ni1  1  0.12908200  0.12908200  0.50000000  1
  Ni  Ni2  1  0.71145700  0.71145700  0.50000000  1
  Cu  Cu3  1  0.61687800  0.04325100  0.00000000  1
  Cu  Cu4  1  0.04325100  0.61687800  0.00000000  1
  C  C5  1  0.72156100  0.29185700  0.50000000  1
  C  C6  1  0.05800600  0.05800600  0.00000000  1
  C  C7  1  0.29185700  0.72156100  0.50000000  1
  C  C8  1  0.86772600  0.86772600  0.00000000  1
  C  C9  1  0.04515700  0.25541900  0.00000000  1
  C  C10  1  0.09970000  0.74973400  0.50000000  1
  C  C11  1  0.70064900  0.38290300  0.73362400  1
  C  C12  1  0.25541900  0.04515700  0.00000000  1
  C  C13  1  0.74973400  0.09970000  0.50000000  1
  C  C14  1  0.38290300  0.70064900  0.73362400  1
  C  C15  1  0.70064900  0.38290300  0.26637600  1
  C  C16  1  0.38290300  0.70064900  0.26637600  1
