# generated using pymatgen
data_CuNi5C3
_symmetry_space_group_name_H-M   'P 1'
_cell_length_a   6.69231400
_cell_length_b   7.10535000
_cell_length_c   10.23653795
_cell_angle_alpha   86.38892104
_cell_angle_beta   90.00000000
_cell_angle_gamma   90.00000000
_symmetry_Int_Tables_number   1
_chemical_formula_structural   CuNi5C3
_chemical_formula_sum   'Cu4 Ni20 C12'
_cell_volume   485.79357515
_cell_formula_units_Z   4
loop_
 _symmetry_equiv_pos_site_id
 _symmetry_equiv_pos_as_xyz
  1  'x, y, z'
loop_
 _atom_site_type_symbol
 _atom_site_label
 _atom_site_symmetry_multiplicity
 _atom_site_fract_x
 _atom_site_fract_y
 _atom_site_fract_z
 _atom_site_occupancy
  C  C0  1  0.74949000  0.37230100  0.53500700  1
  C  C1  1  0.56897500  0.12280700  0.96544400  1
  C  C2  1  0.06897500  0.87719300  0.03455600  1
  C  C3  1  0.37859500  0.13051200  0.33862700  1
  C  C4  1  0.43903000  0.62732800  0.83916600  1
  C  C5  1  0.93903000  0.37267200  0.16083400  1
  C  C6  1  0.87859500  0.86948800  0.66137300  1
  C  C7  1  0.24949000  0.62769900  0.46499300  1
  C  C8  1  0.80957500  0.88720400  0.32257100  1
  C  C9  1  0.30957500  0.11279600  0.67742900  1
  C  C10  1  0.01284200  0.39039700  0.82157800  1
  C  C11  1  0.51284200  0.60960300  0.17842200  1
  Ni  Ni12  1  0.31160300  0.30024500  0.82502100  1
  Ni  Ni13  1  0.72929900  0.04824200  0.46439200  1
  Ni  Ni14  1  0.58713300  0.05580000  0.72758100  1
  Ni  Ni15  1  0.01025400  0.19945600  0.67639400  1
  Ni  Ni16  1  0.09114700  0.55229800  0.96389100  1
  Ni  Ni17  1  0.89370500  0.69047200  0.46144700  1
  Ni  Ni18  1  0.08713300  0.94420000  0.27241900  1
  Ni  Ni19  1  0.22929900  0.95175800  0.53560800  1
  Ni  Ni20  1  0.11584100  0.58462500  0.68799100  1
  Ni  Ni21  1  0.71706200  0.08278900  0.18640700  1
  Ni  Ni22  1  0.74218000  0.46508100  0.76701700  1
  Ni  Ni23  1  0.42392300  0.80600000  0.04161000  1
  Ni  Ni24  1  0.59114700  0.44770200  0.03610900  1
  Ni  Ni25  1  0.81160300  0.69975500  0.17497900  1
  Ni  Ni26  1  0.61584100  0.41537500  0.31200900  1
  Ni  Ni27  1  0.21706200  0.91721100  0.81359300  1
  Ni  Ni28  1  0.51025400  0.80054400  0.32360600  1
  Ni  Ni29  1  0.39370500  0.30952800  0.53855300  1
  Ni  Ni30  1  0.92392300  0.19400000  0.95839000  1
  Ni  Ni31  1  0.24218000  0.53491900  0.23298300  1
  Cu  Cu32  1  0.03792700  0.32426800  0.39217000  1
  Cu  Cu33  1  0.53792700  0.67573200  0.60783000  1
  Cu  Cu34  1  0.77692100  0.83138800  0.89307900  1
  Cu  Cu35  1  0.27692100  0.16861200  0.10692100  1
