# generated using pymatgen
data_Cu3Ni2C
_symmetry_space_group_name_H-M   'P 1'
_cell_length_a   7.74579232
_cell_length_b   7.74579232
_cell_length_c   13.87851600
_cell_angle_alpha   90.00000000
_cell_angle_beta   90.00000000
_cell_angle_gamma   95.33161811
_symmetry_Int_Tables_number   1
_chemical_formula_structural   Cu3Ni2C
_chemical_formula_sum   'Cu24 Ni16 C8'
_cell_volume   829.07096928
_cell_formula_units_Z   8
loop_
 _symmetry_equiv_pos_site_id
 _symmetry_equiv_pos_as_xyz
  1  'x, y, z'
loop_
 _atom_site_type_symbol
 _atom_site_label
 _atom_site_symmetry_multiplicity
 _atom_site_fract_x
 _atom_site_fract_y
 _atom_site_fract_z
 _atom_site_occupancy
  C  C0  1  0.23898300  0.76101700  0.50000000  1
  C  C1  1  0.73898300  0.26101700  0.00000000  1
  C  C2  1  0.66836800  0.66836800  0.67633700  1
  C  C3  1  0.76101700  0.23898300  0.50000000  1
  C  C4  1  0.83163200  0.83163200  0.17633700  1
  C  C5  1  0.26101700  0.73898300  0.00000000  1
  C  C6  1  0.16836800  0.16836800  0.82366300  1
  C  C7  1  0.33163200  0.33163200  0.32366300  1
  Ni  Ni8  1  0.15332500  0.38487200  0.26266900  1
  Ni  Ni9  1  0.92361000  0.21450300  0.58022700  1
  Ni  Ni10  1  0.84667500  0.61512800  0.73733100  1
  Ni  Ni11  1  0.65332500  0.88487200  0.23733100  1
  Ni  Ni12  1  0.42361000  0.71450300  0.91977300  1
  Ni  Ni13  1  0.61512800  0.84667500  0.73733100  1
  Ni  Ni14  1  0.07639000  0.78549700  0.41977300  1
  Ni  Ni15  1  0.21450300  0.92361000  0.58022700  1
  Ni  Ni16  1  0.71450300  0.42361000  0.91977300  1
  Ni  Ni17  1  0.34667500  0.11512800  0.76266900  1
  Ni  Ni18  1  0.78549700  0.07639000  0.41977300  1
  Ni  Ni19  1  0.88487200  0.65332500  0.23733100  1
  Ni  Ni20  1  0.11512800  0.34667500  0.76266900  1
  Ni  Ni21  1  0.38487200  0.15332500  0.26266900  1
  Ni  Ni22  1  0.28549700  0.57639000  0.08022700  1
  Ni  Ni23  1  0.57639000  0.28549700  0.08022700  1
  Cu  Cu24  1  0.78490000  0.78490000  0.57331200  1
  Cu  Cu25  1  0.68744200  0.45564500  0.58009500  1
  Cu  Cu26  1  0.81255800  0.04435500  0.08009500  1
  Cu  Cu27  1  0.42074100  0.87035600  0.42726400  1
  Cu  Cu28  1  0.99484600  0.99484600  0.23221200  1
  Cu  Cu29  1  0.49484600  0.49484600  0.26778800  1
  Cu  Cu30  1  0.21510000  0.21510000  0.42668800  1
  Cu  Cu31  1  0.37035600  0.92074100  0.07273600  1
  Cu  Cu32  1  0.87035600  0.42074100  0.42726400  1
  Cu  Cu33  1  0.07925900  0.62964400  0.92726400  1
  Cu  Cu34  1  0.28490000  0.28490000  0.92668800  1
  Cu  Cu35  1  0.00515400  0.00515400  0.76778800  1
  Cu  Cu36  1  0.54435500  0.31255800  0.41990500  1
  Cu  Cu37  1  0.50515400  0.50515400  0.73221200  1
  Cu  Cu38  1  0.18744200  0.95564500  0.91990500  1
  Cu  Cu39  1  0.12964400  0.57925900  0.57273600  1
  Cu  Cu40  1  0.92074100  0.37035600  0.07273600  1
  Cu  Cu41  1  0.95564500  0.18744200  0.91990500  1
  Cu  Cu42  1  0.71510000  0.71510000  0.07331200  1
  Cu  Cu43  1  0.45564500  0.68744200  0.58009500  1
  Cu  Cu44  1  0.62964400  0.07925900  0.92726400  1
  Cu  Cu45  1  0.57925900  0.12964400  0.57273600  1
  Cu  Cu46  1  0.31255800  0.54435500  0.41990500  1
  Cu  Cu47  1  0.04435500  0.81255800  0.08009500  1
