# generated using pymatgen
data_Cu2Ni3C8
_symmetry_space_group_name_H-M   'P 1'
_cell_length_a   11.08429700
_cell_length_b   7.24930800
_cell_length_c   8.16132857
_cell_angle_alpha   70.91383137
_cell_angle_beta   90.00000000
_cell_angle_gamma   90.00000000
_symmetry_Int_Tables_number   1
_chemical_formula_structural   Cu2Ni3C8
_chemical_formula_sum   'Cu8 Ni12 C32'
_cell_volume   619.74094168
_cell_formula_units_Z   4
loop_
 _symmetry_equiv_pos_site_id
 _symmetry_equiv_pos_as_xyz
  1  'x, y, z'
loop_
 _atom_site_type_symbol
 _atom_site_label
 _atom_site_symmetry_multiplicity
 _atom_site_fract_x
 _atom_site_fract_y
 _atom_site_fract_z
 _atom_site_occupancy
  C  C0  1  0.71055600  0.78235000  0.82645900  1
  C  C1  1  0.59621000  0.50594500  0.38591300  1
  C  C2  1  0.30828900  0.07508000  0.39756300  1
  C  C3  1  0.17638200  0.96387400  0.73126800  1
  C  C4  1  0.55517600  0.25875200  0.41403000  1
  C  C5  1  0.21055600  0.21765000  0.67354100  1
  C  C6  1  0.78944400  0.78235000  0.32645900  1
  C  C7  1  0.32361800  0.96387400  0.23126800  1
  C  C8  1  0.15901100  0.76627200  0.54369000  1
  C  C9  1  0.98650900  0.25313900  0.54158700  1
  C  C10  1  0.44482400  0.74124800  0.58597000  1
  C  C11  1  0.80828900  0.92492000  0.10243700  1
  C  C12  1  0.09621000  0.49405500  0.11408700  1
  C  C13  1  0.84098900  0.23372800  0.45631000  1
  C  C14  1  0.65901100  0.23372800  0.95631000  1
  C  C15  1  0.67638200  0.03612600  0.76873200  1
  C  C16  1  0.90379000  0.50594500  0.88591300  1
  C  C17  1  0.40379000  0.49405500  0.61408700  1
  C  C18  1  0.51349100  0.25313900  0.04158700  1
  C  C19  1  0.19171100  0.07508000  0.89756300  1
  C  C20  1  0.34098900  0.76627200  0.04369000  1
  C  C21  1  0.47369100  0.45749000  0.26358600  1
  C  C22  1  0.02630900  0.45749000  0.76358600  1
  C  C23  1  0.01349100  0.74686100  0.45841300  1
  C  C24  1  0.05517600  0.74124800  0.08597000  1
  C  C25  1  0.82361800  0.03612600  0.26873200  1
  C  C26  1  0.97369100  0.54251000  0.23641400  1
  C  C27  1  0.52630900  0.54251000  0.73641400  1
  C  C28  1  0.94482400  0.25875200  0.91403000  1
  C  C29  1  0.48650900  0.74686100  0.95841300  1
  C  C30  1  0.28944400  0.21765000  0.17354100  1
  C  C31  1  0.69171100  0.92492000  0.60243700  1
  Ni  Ni32  1  0.77463300  0.92618200  0.22867600  1
  Ni  Ni33  1  0.56256800  0.40655500  0.31980800  1
  Ni  Ni34  1  0.93743200  0.40655500  0.81980800  1
  Ni  Ni35  1  0.89094600  0.22173600  0.57592300  1
  Ni  Ni36  1  0.43743200  0.59344500  0.68019200  1
  Ni  Ni37  1  0.22536700  0.07381800  0.77132400  1
  Ni  Ni38  1  0.72536700  0.92618200  0.72867600  1
  Ni  Ni39  1  0.27463300  0.07381800  0.27132400  1
  Ni  Ni40  1  0.60905400  0.22173600  0.07592300  1
  Ni  Ni41  1  0.39094600  0.77826400  0.92407700  1
  Ni  Ni42  1  0.10905400  0.77826400  0.42407700  1
  Ni  Ni43  1  0.06256800  0.59344500  0.18019200  1
  Cu  Cu44  1  0.88572500  0.97270000  0.72274300  1
  Cu  Cu45  1  0.38572500  0.02730000  0.77725700  1
  Cu  Cu46  1  0.67100800  0.41015700  0.15356400  1
  Cu  Cu47  1  0.82899200  0.41015700  0.65356400  1
  Cu  Cu48  1  0.61427500  0.97270000  0.22274300  1
  Cu  Cu49  1  0.32899200  0.58984300  0.84643600  1
  Cu  Cu50  1  0.17100800  0.58984300  0.34643600  1
  Cu  Cu51  1  0.11427500  0.02730000  0.27725700  1
