# generated using pymatgen
data_CuNi3C8
_symmetry_space_group_name_H-M   'P 1'
_cell_length_a   5.43018076
_cell_length_b   5.43018076
_cell_length_c   5.43018072
_cell_angle_alpha   67.20014396
_cell_angle_beta   67.20014396
_cell_angle_gamma   67.20014844
_symmetry_Int_Tables_number   1
_chemical_formula_structural   CuNi3C8
_chemical_formula_sum   'Cu1 Ni3 C8'
_cell_volume   130.65979628
_cell_formula_units_Z   1
loop_
 _symmetry_equiv_pos_site_id
 _symmetry_equiv_pos_as_xyz
  1  'x, y, z'
loop_
 _atom_site_type_symbol
 _atom_site_label
 _atom_site_symmetry_multiplicity
 _atom_site_fract_x
 _atom_site_fract_y
 _atom_site_fract_z
 _atom_site_occupancy
  C  C0  1  0.61635900  0.61635900  0.61635900  1
  C  C1  1  0.38364100  0.38364100  0.38364100  1
  Ni  Ni2  1  0.00000000  0.00000000  0.50000000  1
  Ni  Ni3  1  0.00000000  0.50000000  0.00000000  1
  Ni  Ni4  1  0.50000000  0.00000000  0.00000000  1
  Cu  Cu5  1  0.00000000  0.00000000  0.00000000  1
  C  C6  1  0.84132700  0.36813200  0.04697000  1
  C  C7  1  0.04697000  0.84132700  0.36813200  1
  C  C8  1  0.15867300  0.63186800  0.95303000  1
  C  C9  1  0.95303000  0.15867300  0.63186800  1
  C  C10  1  0.63186800  0.95303000  0.15867300  1
  C  C11  1  0.36813200  0.04697000  0.84132700  1
