# generated using pymatgen
data_Cu25(NiC)6
_symmetry_space_group_name_H-M   'P 1'
_cell_length_a   26.57081701
_cell_length_b   19.51167386
_cell_length_c   18.70935447
_cell_angle_alpha   88.05835314
_cell_angle_beta   47.21482105
_cell_angle_gamma   44.72682581
_symmetry_Int_Tables_number   1
_chemical_formula_structural   Cu25(NiC)6
_chemical_formula_sum   'Cu50 Ni12 C12'
_cell_volume   2480.61101865
_cell_formula_units_Z   2
loop_
 _symmetry_equiv_pos_site_id
 _symmetry_equiv_pos_as_xyz
  1  'x, y, z'
loop_
 _atom_site_type_symbol
 _atom_site_label
 _atom_site_symmetry_multiplicity
 _atom_site_fract_x
 _atom_site_fract_y
 _atom_site_fract_z
 _atom_site_occupancy
  C  C0  1  0.21308900  0.93414800  0.93322800  1
  C  C1  1  0.74234000  0.96855100  0.37138400  1
  C  C2  1  0.31585200  0.03691100  0.33046500  1
  C  C3  1  0.31677200  0.33046500  0.03691100  1
  C  C4  1  0.87861600  0.33227600  0.50766000  1
  C  C5  1  0.91953500  0.93322800  0.93414800  1
  C  C6  1  0.91772400  0.37138400  0.96855100  1
  C  C7  1  0.28144900  0.50766000  0.33227600  1
  C  C8  1  0.34544300  0.21775700  0.40680000  1
  C  C9  1  0.03224300  0.90455700  0.22000000  1
  C  C10  1  0.84320000  0.22000000  0.90455700  1
  C  C11  1  0.03000000  0.40680000  0.21775700  1
  Ni  Ni12  1  0.22875900  0.34090700  0.34222200  1
  Ni  Ni13  1  0.08811300  0.34222200  0.34090700  1
  Ni  Ni14  1  0.73693200  0.47530200  0.92834300  1
  Ni  Ni15  1  0.90909300  0.02124100  0.16188700  1
  Ni  Ni16  1  0.77469800  0.51306800  0.39057600  1
  Ni  Ni17  1  0.32165700  0.39057600  0.51306800  1
  Ni  Ni18  1  0.85942400  0.92834300  0.47530200  1
  Ni  Ni19  1  0.85641700  0.06774000  0.79211600  1
  Ni  Ni20  1  0.90777800  0.16188700  0.02124100  1
  Ni  Ni21  1  0.45788400  0.96627400  0.39358300  1
  Ni  Ni22  1  0.28372600  0.79211600  0.06774000  1
  Ni  Ni23  1  0.18226000  0.39358300  0.96627400  1
  Cu  Cu24  1  0.58285300  0.55842600  0.15782600  1
  Cu  Cu25  1  0.35793300  0.14206700  0.14206700  1
  Cu  Cu26  1  0.75685900  0.02151900  0.68917900  1
  Cu  Cu27  1  0.75150100  0.42706100  0.43987100  1
  Cu  Cu28  1  0.10078700  0.89028800  0.62226500  1
  Cu  Cu29  1  0.24365100  0.13855000  0.11122700  1
  Cu  Cu30  1  0.92114900  0.44089200  0.57434600  1
  Cu  Cu31  1  0.18828900  0.28411500  0.65003800  1
  Cu  Cu32  1  0.11145000  0.00634900  0.74342900  1
  Cu  Cu33  1  0.82293900  0.49849900  0.86843400  1
  Cu  Cu34  1  0.13877300  0.74342900  0.00634900  1
  Cu  Cu35  1  0.44796000  0.59684800  0.01611500  1
  Cu  Cu36  1  0.23388500  0.31092400  0.80204000  1
  Cu  Cu37  1  0.07406100  0.27237000  0.08333000  1
  Cu  Cu38  1  0.10793300  0.89206700  0.89206700  1
  Cu  Cu39  1  0.59996200  0.37244200  0.06171100  1
  Cu  Cu40  1  0.22848100  0.49314100  0.71755700  1
  Cu  Cu41  1  0.06361200  0.57434600  0.44089200  1
  Cu  Cu42  1  0.69157400  0.66714700  0.54910500  1
  Cu  Cu43  1  0.53244300  0.68917900  0.02151900  1
  Cu  Cu44  1  0.67342900  0.33025800  0.17551900  1
  Cu  Cu45  1  0.81012900  0.86843400  0.49849900  1
  Cu  Cu46  1  0.45531600  0.93203900  0.58288300  1
  Cu  Cu47  1  0.65315200  0.80204000  0.31092400  1
  Cu  Cu48  1  0.70089500  0.15782600  0.55842600  1
  Cu  Cu49  1  0.25539900  0.43153100  0.90733600  1
  Cu  Cu50  1  0.34266400  0.84426600  0.99460100  1
  Cu  Cu51  1  0.50657100  0.11122700  0.13855000  1
  Cu  Cu52  1  0.31796100  0.79468400  0.22023900  1
  Cu  Cu53  1  0.02976100  0.58288300  0.93203900  1
  Cu  Cu54  1  0.67565400  0.18638800  0.32885100  1
  Cu  Cu55  1  0.87755800  0.65003800  0.28411500  1
  Cu  Cu56  1  0.09217400  0.54910500  0.66714700  1
  Cu  Cu57  1  0.07448100  0.42920600  0.57657100  1
  Cu  Cu58  1  0.66711700  0.22023900  0.79468400  1
  Cu  Cu59  1  0.81846900  0.99460100  0.84426600  1
  Cu  Cu60  1  0.93907600  0.01611500  0.59684800  1
  Cu  Cu61  1  0.97763000  0.17593900  0.67976100  1
  Cu  Cu62  1  0.35971200  0.14921300  0.86334000  1
  Cu  Cu63  1  0.91974200  0.57657100  0.42920600  1
  Cu  Cu64  1  0.82079400  0.17551900  0.33025800  1
  Cu  Cu65  1  0.56082100  0.71755700  0.49314100  1
  Cu  Cu66  1  0.62773500  0.86334000  0.14921300  1
  Cu  Cu67  1  0.38666000  0.62226500  0.89028800  1
  Cu  Cu68  1  0.57023900  0.08333000  0.27237000  1
  Cu  Cu69  1  0.96588500  0.06171100  0.37244200  1
  Cu  Cu70  1  0.38156600  0.43987100  0.42706100  1
  Cu  Cu71  1  0.40573400  0.90733600  0.43153100  1
  Cu  Cu72  1  0.16667000  0.67976100  0.17593900  1
  Cu  Cu73  1  0.80910800  0.32885100  0.18638800  1
