# generated using pymatgen
data_Cu5NiC3
_symmetry_space_group_name_H-M   'P 1'
_cell_length_a   6.50637100
_cell_length_b   6.79519600
_cell_length_c   13.00612900
_cell_angle_alpha   90.00000000
_cell_angle_beta   90.00000000
_cell_angle_gamma   90.00000000
_symmetry_Int_Tables_number   1
_chemical_formula_structural   Cu5NiC3
_chemical_formula_sum   'Cu20 Ni4 C12'
_cell_volume   575.02783627
_cell_formula_units_Z   4
loop_
 _symmetry_equiv_pos_site_id
 _symmetry_equiv_pos_as_xyz
  1  'x, y, z'
loop_
 _atom_site_type_symbol
 _atom_site_label
 _atom_site_symmetry_multiplicity
 _atom_site_fract_x
 _atom_site_fract_y
 _atom_site_fract_z
 _atom_site_occupancy
  C  C0  1  0.75834800  0.75000000  0.15305300  1
  C  C1  1  0.74165200  0.25000000  0.65305300  1
  C  C2  1  0.24165200  0.25000000  0.84694700  1
  C  C3  1  0.25834800  0.75000000  0.34694700  1
  C  C4  1  0.79735700  0.99999800  0.90221600  1
  C  C5  1  0.20264300  0.00000200  0.09778400  1
  C  C6  1  0.70264300  0.00000200  0.40221600  1
  C  C7  1  0.29735700  0.99999800  0.59778400  1
  C  C8  1  0.70264300  0.49999800  0.40221600  1
  C  C9  1  0.20264300  0.49999800  0.09778400  1
  C  C10  1  0.29735700  0.50000200  0.59778400  1
  C  C11  1  0.79735700  0.50000200  0.90221600  1
  Ni  Ni12  1  0.19606100  0.25000000  0.35486500  1
  Ni  Ni13  1  0.80393900  0.75000000  0.64513500  1
  Ni  Ni14  1  0.69606100  0.25000000  0.14513500  1
  Ni  Ni15  1  0.30393900  0.75000000  0.85486500  1
  Cu  Cu16  1  0.31525500  0.25000000  0.27863400  1
  Cu  Cu17  1  0.11563000  0.25000000  0.01851400  1
  Cu  Cu18  1  0.61563000  0.25000000  0.48148600  1
  Cu  Cu19  1  0.68474500  0.75000000  0.72136600  1
  Cu  Cu20  1  0.79989800  0.75000000  0.32703900  1
  Cu  Cu21  1  0.88437000  0.75000000  0.98148600  1
  Cu  Cu22  1  0.18474500  0.75000000  0.77863400  1
  Cu  Cu23  1  0.63480200  0.08893800  0.10508400  1
  Cu  Cu24  1  0.29989800  0.75000000  0.17296100  1
  Cu  Cu25  1  0.36519800  0.91106200  0.89491600  1
  Cu  Cu26  1  0.81525500  0.25000000  0.22136600  1
  Cu  Cu27  1  0.70010200  0.25000000  0.82703900  1
  Cu  Cu28  1  0.36519800  0.58893800  0.89491600  1
  Cu  Cu29  1  0.38437000  0.75000000  0.51851400  1
  Cu  Cu30  1  0.20010200  0.25000000  0.67296100  1
  Cu  Cu31  1  0.13480200  0.41106200  0.39491600  1
  Cu  Cu32  1  0.13480200  0.08893800  0.39491600  1
  Cu  Cu33  1  0.86519800  0.58893800  0.60508400  1
  Cu  Cu34  1  0.63480200  0.41106200  0.10508400  1
  Cu  Cu35  1  0.86519800  0.91106200  0.60508400  1
