# generated using pymatgen
data_Cu5NiC2
_symmetry_space_group_name_H-M   'P 1'
_cell_length_a   12.69760200
_cell_length_b   7.65629100
_cell_length_c   7.94214176
_cell_angle_alpha   78.61714392
_cell_angle_beta   90.00000000
_cell_angle_gamma   90.00000000
_symmetry_Int_Tables_number   1
_chemical_formula_structural   Cu5NiC2
_chemical_formula_sum   'Cu20 Ni4 C8'
_cell_volume   756.92036574
_cell_formula_units_Z   4
loop_
 _symmetry_equiv_pos_site_id
 _symmetry_equiv_pos_as_xyz
  1  'x, y, z'
loop_
 _atom_site_type_symbol
 _atom_site_label
 _atom_site_symmetry_multiplicity
 _atom_site_fract_x
 _atom_site_fract_y
 _atom_site_fract_z
 _atom_site_occupancy
  C  C0  1  0.59499500  0.73941300  0.45475600  1
  C  C1  1  0.83512700  0.33616700  0.63289600  1
  C  C2  1  0.90500500  0.73941300  0.95475600  1
  C  C3  1  0.33512700  0.66383300  0.86710400  1
  C  C4  1  0.09499500  0.26058700  0.04524400  1
  C  C5  1  0.16487300  0.66383300  0.36710400  1
  C  C6  1  0.66487300  0.33616700  0.13289600  1
  C  C7  1  0.40500500  0.26058700  0.54524400  1
  Ni  Ni8  1  0.61662400  0.82978000  0.90374800  1
  Ni  Ni9  1  0.38337600  0.17022000  0.09625200  1
  Ni  Ni10  1  0.11662400  0.17022000  0.59625200  1
  Ni  Ni11  1  0.88337600  0.82978000  0.40374800  1
  Cu  Cu12  1  0.77343600  0.02348300  0.44914500  1
  Cu  Cu13  1  0.62132800  0.36217800  0.49642700  1
  Cu  Cu14  1  0.29752400  0.37265900  0.19406000  1
  Cu  Cu15  1  0.37867200  0.63782200  0.50357300  1
  Cu  Cu16  1  0.87867200  0.36217800  0.99642700  1
  Cu  Cu17  1  0.27343600  0.97651700  0.05085500  1
  Cu  Cu18  1  0.97006900  0.67512800  0.61140900  1
  Cu  Cu19  1  0.00117700  0.92025200  0.21788400  1
  Cu  Cu20  1  0.47006900  0.32487200  0.88859100  1
  Cu  Cu21  1  0.49882300  0.92025200  0.71788400  1
  Cu  Cu22  1  0.70247600  0.62734100  0.80594000  1
  Cu  Cu23  1  0.99882300  0.07974800  0.78211600  1
  Cu  Cu24  1  0.72656400  0.02348300  0.94914500  1
  Cu  Cu25  1  0.52993100  0.67512800  0.11140900  1
  Cu  Cu26  1  0.22656400  0.97651700  0.55085500  1
  Cu  Cu27  1  0.02993100  0.32487200  0.38859100  1
  Cu  Cu28  1  0.50117700  0.07974800  0.28211600  1
  Cu  Cu29  1  0.12132800  0.63782200  0.00357300  1
  Cu  Cu30  1  0.79752400  0.62734100  0.30594000  1
  Cu  Cu31  1  0.20247600  0.37265900  0.69406000  1
