# generated using pymatgen
data_Cu2(NiC2)3
_symmetry_space_group_name_H-M   'P 1'
_cell_length_a   6.45085200
_cell_length_b   8.41302609
_cell_length_c   10.12843016
_cell_angle_alpha   89.74809478
_cell_angle_beta   89.72441613
_cell_angle_gamma   72.28262815
_symmetry_Int_Tables_number   1
_chemical_formula_structural   Cu2(NiC2)3
_chemical_formula_sum   'Cu8 Ni12 C24'
_cell_volume   523.60155803
_cell_formula_units_Z   4
loop_
 _symmetry_equiv_pos_site_id
 _symmetry_equiv_pos_as_xyz
  1  'x, y, z'
loop_
 _atom_site_type_symbol
 _atom_site_label
 _atom_site_symmetry_multiplicity
 _atom_site_fract_x
 _atom_site_fract_y
 _atom_site_fract_z
 _atom_site_occupancy
  Ni  Ni0  1  0.39406400  0.93252700  0.84317100  1
  Ni  Ni1  1  0.02135800  0.27858700  0.33918600  1
  Ni  Ni2  1  0.93897900  0.71705600  0.17931500  1
  Ni  Ni3  1  0.51668500  0.29006800  0.41774000  1
  Ni  Ni4  1  0.25028700  0.59815200  0.92278500  1
  Ni  Ni5  1  0.97864200  0.72141300  0.66081400  1
  Ni  Ni6  1  0.06102100  0.28294400  0.82068500  1
  Ni  Ni7  1  0.72430200  0.10493800  0.67672100  1
  Ni  Ni8  1  0.60593600  0.06747300  0.15682900  1
  Ni  Ni9  1  0.48331500  0.70993200  0.58226000  1
  Ni  Ni10  1  0.74971300  0.40184800  0.07721500  1
  Ni  Ni11  1  0.27569800  0.89506200  0.32327900  1
  Cu  Cu12  1  0.16325800  0.06618300  0.58756800  1
  Cu  Cu13  1  0.16316100  0.10121700  0.08367000  1
  Cu  Cu14  1  0.83674200  0.93381700  0.41243200  1
  Cu  Cu15  1  0.83683900  0.89878300  0.91633000  1
  Cu  Cu16  1  0.68152100  0.58665700  0.82451200  1
  Cu  Cu17  1  0.31847900  0.41334300  0.17548800  1
  Cu  Cu18  1  0.34271800  0.42330600  0.67420100  1
  Cu  Cu19  1  0.65728200  0.57669400  0.32579900  1
  C  C20  1  0.72336300  0.59374500  0.19757700  1
  C  C21  1  0.33177200  0.99378800  0.15619700  1
  C  C22  1  0.52393200  0.71416900  0.39112900  1
  C  C23  1  0.27195200  0.57755800  0.61157400  1
  C  C24  1  0.19627300  0.55147600  0.10611000  1
  C  C25  1  0.27663700  0.40625500  0.80242300  1
  C  C26  1  0.68175700  0.06332300  0.34984400  1
  C  C27  1  0.47606800  0.28583100  0.60887100  1
  C  C28  1  0.80372700  0.44852400  0.89389000  1
  C  C29  1  0.26049400  0.38217600  0.30302600  1
  C  C30  1  0.66822800  0.00621200  0.84380300  1
  C  C31  1  0.00243200  0.82325500  0.33916400  1
  C  C32  1  0.49416300  0.68989800  0.88336900  1
  C  C33  1  0.72804800  0.42244200  0.38842600  1
  C  C34  1  0.82660800  0.90368700  0.05284100  1
  C  C35  1  0.99273900  0.21475600  0.14840500  1
  C  C36  1  0.31824300  0.93667700  0.65015600  1
  C  C37  1  0.82953600  0.91455100  0.54846200  1
  C  C38  1  0.17339200  0.09631300  0.94715900  1
  C  C39  1  0.00726100  0.78524400  0.85159500  1
  C  C40  1  0.73950600  0.61782400  0.69697400  1
  C  C41  1  0.17046400  0.08544900  0.45153800  1
  C  C42  1  0.99756800  0.17674500  0.66083600  1
  C  C43  1  0.50583700  0.31010200  0.11663100  1
