# generated using pymatgen
data_Cu4NiC12
_symmetry_space_group_name_H-M   'P 1'
_cell_length_a   12.13392000
_cell_length_b   12.13392000
_cell_length_c   12.13392000
_cell_angle_alpha   90.00000000
_cell_angle_beta   90.00000000
_cell_angle_gamma   90.00000000
_symmetry_Int_Tables_number   1
_chemical_formula_structural   Cu4NiC12
_chemical_formula_sum   'Cu16 Ni4 C48'
_cell_volume   1786.50148619
_cell_formula_units_Z   4
loop_
 _symmetry_equiv_pos_site_id
 _symmetry_equiv_pos_as_xyz
  1  'x, y, z'
loop_
 _atom_site_type_symbol
 _atom_site_label
 _atom_site_symmetry_multiplicity
 _atom_site_fract_x
 _atom_site_fract_y
 _atom_site_fract_z
 _atom_site_occupancy
  Ni  Ni0  1  0.72489400  0.72489400  0.72489400  1
  Ni  Ni1  1  0.77510600  0.27510600  0.22489400  1
  Ni  Ni2  1  0.22489400  0.77510600  0.27510600  1
  Ni  Ni3  1  0.27510600  0.22489400  0.77510600  1
  C  C4  1  0.97130200  0.01640300  0.76170100  1
  C  C5  1  0.97478600  0.76451400  0.46136600  1
  C  C6  1  0.52869800  0.98359700  0.26170100  1
  C  C7  1  0.48359700  0.23829900  0.47130200  1
  C  C8  1  0.73829900  0.02869800  0.51640300  1
  C  C9  1  0.26170100  0.52869800  0.98359700  1
  C  C10  1  0.98359700  0.26170100  0.52869800  1
  C  C11  1  0.02869800  0.51640300  0.73829900  1
  C  C12  1  0.02521400  0.26451400  0.03863400  1
  C  C13  1  0.52521400  0.23548600  0.96136600  1
  C  C14  1  0.51640300  0.73829900  0.02869800  1
  C  C15  1  0.23829900  0.47130200  0.48359700  1
  C  C16  1  0.26451400  0.03863400  0.02521400  1
  C  C17  1  0.01640300  0.76170100  0.97130200  1
  C  C18  1  0.53863400  0.47478600  0.73548600  1
  C  C19  1  0.47478600  0.73548600  0.53863400  1
  C  C20  1  0.03863400  0.02521400  0.26451400  1
  C  C21  1  0.76170100  0.97130200  0.01640300  1
  C  C22  1  0.73548600  0.53863400  0.47478600  1
  C  C23  1  0.46136600  0.97478600  0.76451400  1
  C  C24  1  0.23548600  0.96136600  0.52521400  1
  C  C25  1  0.47130200  0.48359700  0.23829900  1
  C  C26  1  0.76451400  0.46136600  0.97478600  1
  C  C27  1  0.96136600  0.52521400  0.23548600  1
  Cu  Cu28  1  0.43631900  0.93631900  0.56368100  1
  Cu  Cu29  1  0.56472000  0.93528000  0.06472000  1
  Cu  Cu30  1  0.95903300  0.95903300  0.95903300  1
  Cu  Cu31  1  0.54046200  0.54046200  0.54046200  1
  Cu  Cu32  1  0.93631900  0.56368100  0.43631900  1
  Cu  Cu33  1  0.43528000  0.43528000  0.43528000  1
  Cu  Cu34  1  0.45903300  0.54096700  0.04096700  1
  Cu  Cu35  1  0.04096700  0.45903300  0.54096700  1
  Cu  Cu36  1  0.56368100  0.43631900  0.93631900  1
  Cu  Cu37  1  0.93528000  0.06472000  0.56472000  1
  Cu  Cu38  1  0.06368100  0.06368100  0.06368100  1
  Cu  Cu39  1  0.45953800  0.04046200  0.95953800  1
  Cu  Cu40  1  0.06472000  0.56472000  0.93528000  1
  Cu  Cu41  1  0.95953800  0.45953800  0.04046200  1
  Cu  Cu42  1  0.04046200  0.95953800  0.45953800  1
  Cu  Cu43  1  0.54096700  0.04096700  0.45903300  1
  C  C44  1  0.02828400  0.26455000  0.29777600  1
  C  C45  1  0.52828400  0.23545000  0.70222400  1
  C  C46  1  0.74298700  0.29204600  0.43944400  1
  C  C47  1  0.06055600  0.25701300  0.79204600  1
  C  C48  1  0.70795400  0.93944400  0.75701300  1
  C  C49  1  0.29204600  0.43944400  0.74298700  1
  C  C50  1  0.25701300  0.79204600  0.06055600  1
  C  C51  1  0.73545000  0.79777600  0.47171600  1
  C  C52  1  0.70222400  0.52828400  0.23545000  1
  C  C53  1  0.79777600  0.47171600  0.73545000  1
  C  C54  1  0.75701300  0.70795400  0.93944400  1
  C  C55  1  0.24298700  0.20795400  0.56055600  1
  C  C56  1  0.43944400  0.74298700  0.29204600  1
  C  C57  1  0.97171600  0.76455000  0.20222400  1
  C  C58  1  0.23545000  0.70222400  0.52828400  1
  C  C59  1  0.76455000  0.20222400  0.97171600  1
  C  C60  1  0.47171600  0.73545000  0.79777600  1
  C  C61  1  0.79204600  0.06055600  0.25701300  1
  C  C62  1  0.29777600  0.02828400  0.26455000  1
  C  C63  1  0.56055600  0.24298700  0.20795400  1
  C  C64  1  0.93944400  0.75701300  0.70795400  1
  C  C65  1  0.26455000  0.29777600  0.02828400  1
  C  C66  1  0.20222400  0.97171600  0.76455000  1
  C  C67  1  0.20795400  0.56055600  0.24298700  1
