# generated using pymatgen
data_Cu7(NiC2)2
_symmetry_space_group_name_H-M   'P 1'
_cell_length_a   6.76311500
_cell_length_b   13.41186000
_cell_length_c   15.36449894
_cell_angle_alpha   81.41621572
_cell_angle_beta   90.00000000
_cell_angle_gamma   90.00000000
_symmetry_Int_Tables_number   1
_chemical_formula_structural   Cu7(NiC2)2
_chemical_formula_sum   'Cu28 Ni8 C16'
_cell_volume   1378.04073541
_cell_formula_units_Z   4
loop_
 _symmetry_equiv_pos_site_id
 _symmetry_equiv_pos_as_xyz
  1  'x, y, z'
loop_
 _atom_site_type_symbol
 _atom_site_label
 _atom_site_symmetry_multiplicity
 _atom_site_fract_x
 _atom_site_fract_y
 _atom_site_fract_z
 _atom_site_occupancy
  C  C0  1  0.22067200  0.90352000  0.47252300  1
  C  C1  1  0.77932800  0.09648000  0.52747700  1
  C  C2  1  0.76045400  0.81669800  0.30090800  1
  C  C3  1  0.26045400  0.68330200  0.69909200  1
  C  C4  1  0.34887500  0.84281200  0.07181100  1
  C  C5  1  0.27932800  0.40352000  0.47252300  1
  C  C6  1  0.84887500  0.65718800  0.92818900  1
  C  C7  1  0.65112500  0.15718800  0.92818900  1
  C  C8  1  0.23954600  0.18330200  0.69909200  1
  C  C9  1  0.72067200  0.59648000  0.52747700  1
  C  C10  1  0.15112500  0.34281200  0.07181100  1
  C  C11  1  0.73954600  0.31669800  0.30090800  1
  C  C12  1  0.48019300  0.43377100  0.80360900  1
  C  C13  1  0.98019300  0.06622900  0.19639100  1
  C  C14  1  0.51980700  0.56622900  0.19639100  1
  C  C15  1  0.01980700  0.93377100  0.80360900  1
  Ni  Ni16  1  0.74006200  0.33160400  0.64645300  1
  Ni  Ni17  1  0.99955300  0.38604500  0.83738900  1
  Ni  Ni18  1  0.50044700  0.88604500  0.83738900  1
  Ni  Ni19  1  0.49955300  0.11395500  0.16261100  1
  Ni  Ni20  1  0.24006200  0.16839600  0.35354700  1
  Ni  Ni21  1  0.75993800  0.83160400  0.64645300  1
  Ni  Ni22  1  0.25993800  0.66839600  0.35354700  1
  Ni  Ni23  1  0.00044700  0.61395500  0.16261100  1
  Cu  Cu24  1  0.51780500  0.91317800  0.69386100  1
  Cu  Cu25  1  0.19383500  0.64717300  0.48417100  1
  Cu  Cu26  1  0.48219500  0.08682200  0.30613900  1
  Cu  Cu27  1  0.73587000  0.41698900  0.89439500  1
  Cu  Cu28  1  0.23587000  0.08301100  0.10560500  1
  Cu  Cu29  1  0.73640000  0.18763000  0.70540600  1
  Cu  Cu30  1  0.98044400  0.09336700  0.33530200  1
  Cu  Cu31  1  0.80616500  0.35282700  0.51582900  1
  Cu  Cu32  1  0.30616500  0.14717300  0.48417100  1
  Cu  Cu33  1  0.51955600  0.59336700  0.33530200  1
  Cu  Cu34  1  0.26360000  0.81237000  0.29459400  1
  Cu  Cu35  1  0.60055600  0.25265500  0.11749300  1
  Cu  Cu36  1  0.79780500  0.50553600  0.14139700  1
  Cu  Cu37  1  0.70219500  0.00553600  0.14139700  1
  Cu  Cu38  1  0.89944400  0.75265500  0.11749300  1
  Cu  Cu39  1  0.26413000  0.58301100  0.10560500  1
  Cu  Cu40  1  0.23640000  0.31237000  0.29459400  1
  Cu  Cu41  1  0.39944400  0.74734500  0.88250700  1
  Cu  Cu42  1  0.10055600  0.24734500  0.88250700  1
  Cu  Cu43  1  0.01780500  0.58682200  0.30613900  1
  Cu  Cu44  1  0.76360000  0.68763000  0.70540600  1
  Cu  Cu45  1  0.48044400  0.40663300  0.66469800  1
  Cu  Cu46  1  0.76413000  0.91698900  0.89439500  1
  Cu  Cu47  1  0.98219500  0.41317800  0.69386100  1
  Cu  Cu48  1  0.01955600  0.90663300  0.66469800  1
  Cu  Cu49  1  0.20219500  0.49446400  0.85860300  1
  Cu  Cu50  1  0.69383500  0.85282700  0.51582900  1
  Cu  Cu51  1  0.29780500  0.99446400  0.85860300  1
