# generated using pymatgen
data_Cu6NiC2
_symmetry_space_group_name_H-M   'P 1'
_cell_length_a   8.11303600
_cell_length_b   15.36807700
_cell_length_c   18.70758598
_cell_angle_alpha   79.36360663
_cell_angle_beta   90.00000000
_cell_angle_gamma   90.00000000
_symmetry_Int_Tables_number   1
_chemical_formula_structural   Cu6NiC2
_chemical_formula_sum   'Cu96 Ni16 C32'
_cell_volume   2292.41857496
_cell_formula_units_Z   16
loop_
 _symmetry_equiv_pos_site_id
 _symmetry_equiv_pos_as_xyz
  1  'x, y, z'
loop_
 _atom_site_type_symbol
 _atom_site_label
 _atom_site_symmetry_multiplicity
 _atom_site_fract_x
 _atom_site_fract_y
 _atom_site_fract_z
 _atom_site_occupancy
  C  C0  1  0.26344900  0.41008200  0.12195500  1
  C  C1  1  0.46651000  0.99555400  0.78134200  1
  C  C2  1  0.23642600  0.12688000  0.90965800  1
  C  C3  1  0.99523400  0.00641200  0.21892400  1
  C  C4  1  0.50476600  0.50641200  0.71892400  1
  C  C5  1  0.49523400  0.49358800  0.28107600  1
  C  C6  1  0.96651000  0.50444600  0.71865800  1
  C  C7  1  0.26357400  0.62688000  0.40965800  1
  C  C8  1  0.73655100  0.58991800  0.87804500  1
  C  C9  1  0.23655100  0.91008200  0.62195500  1
  C  C10  1  0.76344900  0.08991800  0.37804500  1
  C  C11  1  0.53349000  0.00444600  0.21865800  1
  C  C12  1  0.73642600  0.37312000  0.59034200  1
  C  C13  1  0.03349000  0.49555400  0.28134200  1
  C  C14  1  0.00476600  0.99358800  0.78107600  1
  C  C15  1  0.76357400  0.87312000  0.09034200  1
  C  C16  1  0.51818200  0.74399200  0.25506100  1
  C  C17  1  0.23717100  0.67156300  0.58956900  1
  C  C18  1  0.27132000  0.31595900  0.40321700  1
  C  C19  1  0.01818200  0.75600800  0.24493900  1
  C  C20  1  0.01810000  0.24876800  0.25686900  1
  C  C21  1  0.48181800  0.25600800  0.74493900  1
  C  C22  1  0.98181800  0.24399200  0.75506100  1
  C  C23  1  0.73717100  0.82843700  0.91043100  1
  C  C24  1  0.26282900  0.17156300  0.08956900  1
  C  C25  1  0.76282900  0.32843700  0.41043100  1
  C  C26  1  0.72868000  0.68404100  0.59678300  1
  C  C27  1  0.98190000  0.75123200  0.74313100  1
  C  C28  1  0.77132000  0.18404100  0.09678300  1
  C  C29  1  0.51810000  0.25123200  0.24313100  1
  C  C30  1  0.48190000  0.74876800  0.75686900  1
  C  C31  1  0.22868000  0.81595900  0.90321700  1
  Ni  Ni32  1  0.52854000  0.32171500  0.95690800  1
  Ni  Ni33  1  0.26588300  0.08231700  0.35548800  1
  Ni  Ni34  1  0.76750600  0.60710000  0.39648900  1
  Ni  Ni35  1  0.46151400  0.85134800  0.44224000  1
  Ni  Ni36  1  0.23249400  0.39290000  0.60351100  1
  Ni  Ni37  1  0.76588300  0.41768300  0.14451200  1
  Ni  Ni38  1  0.23411700  0.58231700  0.85548800  1
  Ni  Ni39  1  0.02854000  0.17828500  0.54309200  1
  Ni  Ni40  1  0.03848600  0.35134800  0.94224000  1
  Ni  Ni41  1  0.97146000  0.82171500  0.45690800  1
  Ni  Ni42  1  0.73411700  0.91768300  0.64451200  1
  Ni  Ni43  1  0.47146000  0.67828500  0.04309200  1
  Ni  Ni44  1  0.26750600  0.89290000  0.10351100  1
  Ni  Ni45  1  0.73249400  0.10710000  0.89648900  1
  Ni  Ni46  1  0.53848600  0.14865200  0.55776000  1
  Ni  Ni47  1  0.96151400  0.64865200  0.05776000  1
  Cu  Cu48  1  0.49440700  0.07823000  0.88615000  1
  Cu  Cu49  1  0.00814200  0.09884100  0.71528000  1
  Cu  Cu50  1  0.94591300  0.61816200  0.96778800  1
  Cu  Cu51  1  0.99714400  0.55573800  0.84375500  1
  Cu  Cu52  1  0.25201400  0.21829500  0.82978100  1
  Cu  Cu53  1  0.50559300  0.92177000  0.11385000  1
  Cu  Cu54  1  0.05408700  0.38183800  0.03221200  1
  Cu  Cu55  1  0.29125500  0.52542900  0.07203500  1
  Cu  Cu56  1  0.07919200  0.23127400  0.96885500  1
  Cu  Cu57  1  0.53450900  0.89439600  0.27919700  1
  Cu  Cu58  1  0.21506700  0.28476700  0.66297500  1
  Cu  Cu59  1  0.24798600  0.71829500  0.32978100  1
  Cu  Cu60  1  0.47369000  0.39937700  0.62330800  1
  Cu  Cu61  1  0.43295900  0.21016500  0.97603900  1
  Cu  Cu62  1  0.23709200  0.95116400  0.72896500  1
  Cu  Cu63  1  0.78796400  0.29747300  0.17868700  1
  Cu  Cu64  1  0.04781500  0.85989600  0.53798800  1
  Cu  Cu65  1  0.52611500  0.41181200  0.17091200  1
  Cu  Cu66  1  0.26290800  0.45116400  0.22896500  1
  Cu  Cu67  1  0.54781500  0.64010400  0.96201200  1
  Cu  Cu68  1  0.00559300  0.57823000  0.38615000  1
  Cu  Cu69  1  0.00285600  0.44426200  0.15624500  1
  Cu  Cu70  1  0.76181500  0.52608500  0.33195400  1
  Cu  Cu71  1  0.52235700  0.11915200  0.16002500  1
  Cu  Cu72  1  0.27828900  0.54842000  0.49771500  1
  Cu  Cu73  1  0.73277800  0.47479100  0.66263700  1
  Cu  Cu74  1  0.50814200  0.40115900  0.78472000  1
  Cu  Cu75  1  0.00722700  0.11566500  0.15256600  1
  Cu  Cu76  1  0.02235700  0.38084800  0.33997500  1
  Cu  Cu77  1  0.92080800  0.76872600  0.03114500  1
  Cu  Cu78  1  0.97369000  0.10062300  0.87669200  1
  Cu  Cu79  1  0.57919200  0.26872600  0.53114500  1
  Cu  Cu80  1  0.03450900  0.60560400  0.22080300  1
  Cu  Cu81  1  0.26181500  0.97391500  0.16804600  1
  Cu  Cu82  1  0.73818500  0.02608500  0.83195400  1
  Cu  Cu83  1  0.26258400  0.78983000  0.66409300  1
  Cu  Cu84  1  0.26589800  0.71611800  0.00838600  1
  Cu  Cu85  1  0.02631000  0.89937700  0.12330800  1
  Cu  Cu86  1  0.76290800  0.04883600  0.27103500  1
  Cu  Cu87  1  0.47388500  0.58818800  0.82908800  1
  Cu  Cu88  1  0.26044800  0.89169000  0.40602600  1
  Cu  Cu89  1  0.76722200  0.97479100  0.16263700  1
  Cu  Cu90  1  0.45218500  0.35989600  0.03798800  1
  Cu  Cu91  1  0.73475100  0.95828800  0.73278300  1
  Cu  Cu92  1  0.96549100  0.39439600  0.77919700  1
  Cu  Cu93  1  0.23277800  0.02520900  0.83736300  1
  Cu  Cu94  1  0.28493300  0.78476700  0.16297500  1
  Cu  Cu95  1  0.28796400  0.20252700  0.32131300  1
  Cu  Cu96  1  0.44591300  0.88183800  0.53221200  1
  Cu  Cu97  1  0.26524900  0.04171200  0.26721700  1
  Cu  Cu98  1  0.75201400  0.28170500  0.67021900  1
  Cu  Cu99  1  0.73410200  0.28388200  0.99161400  1
  Cu  Cu100  1  0.73955200  0.10831000  0.59397400  1
  Cu  Cu101  1  0.76044800  0.60831000  0.09397400  1
  Cu  Cu102  1  0.76524900  0.45828800  0.23278300  1
  Cu  Cu103  1  0.06704100  0.71016500  0.47603900  1
  Cu  Cu104  1  0.79125500  0.97457100  0.42796500  1
  Cu  Cu105  1  0.76258400  0.71017000  0.83590700  1
  Cu  Cu106  1  0.78493300  0.71523300  0.33702500  1
  Cu  Cu107  1  0.52631000  0.60062300  0.37669200  1
  Cu  Cu108  1  0.20874500  0.02542900  0.57203500  1
  Cu  Cu109  1  0.23818500  0.47391500  0.66804600  1
  Cu  Cu110  1  0.21203600  0.70252700  0.82131300  1
  Cu  Cu111  1  0.99440700  0.42177000  0.61385000  1
  Cu  Cu112  1  0.70874500  0.47457100  0.92796500  1
  Cu  Cu113  1  0.73741600  0.21017000  0.33590700  1
  Cu  Cu114  1  0.72171100  0.45158000  0.50228500  1
  Cu  Cu115  1  0.49714400  0.94426200  0.65624500  1
  Cu  Cu116  1  0.99277300  0.88433500  0.84743400  1
  Cu  Cu117  1  0.49185800  0.59884100  0.21528000  1
  Cu  Cu118  1  0.71203600  0.79747300  0.67868700  1
  Cu  Cu119  1  0.42080800  0.73127400  0.46885500  1
  Cu  Cu120  1  0.97388500  0.91181200  0.67091200  1
  Cu  Cu121  1  0.46549100  0.10560400  0.72080300  1
  Cu  Cu122  1  0.23955200  0.39169000  0.90602600  1
  Cu  Cu123  1  0.50722700  0.38433500  0.34743400  1
  Cu  Cu124  1  0.47764300  0.88084800  0.83997500  1
  Cu  Cu125  1  0.02611500  0.08818800  0.32908800  1
  Cu  Cu126  1  0.23741600  0.28983000  0.16409300  1
  Cu  Cu127  1  0.23475100  0.54171200  0.76721700  1
  Cu  Cu128  1  0.50285600  0.05573800  0.34375500  1
  Cu  Cu129  1  0.93295900  0.28983500  0.52396100  1
  Cu  Cu130  1  0.77828900  0.95158000  0.00228500  1
  Cu  Cu131  1  0.26722200  0.52520900  0.33736300  1
  Cu  Cu132  1  0.23410200  0.21611800  0.50838600  1
  Cu  Cu133  1  0.55408700  0.11816200  0.46778800  1
  Cu  Cu134  1  0.49277300  0.61566500  0.65256600  1
  Cu  Cu135  1  0.97764300  0.61915200  0.66002500  1
  Cu  Cu136  1  0.76589800  0.78388200  0.49161400  1
  Cu  Cu137  1  0.56704100  0.78983500  0.02396100  1
  Cu  Cu138  1  0.71506700  0.21523300  0.83702500  1
  Cu  Cu139  1  0.22171100  0.04842000  0.99771500  1
  Cu  Cu140  1  0.74798600  0.78170500  0.17021900  1
  Cu  Cu141  1  0.73709200  0.54883600  0.77103500  1
  Cu  Cu142  1  0.95218500  0.14010400  0.46201200  1
  Cu  Cu143  1  0.99185800  0.90115900  0.28472000  1
