# generated using pymatgen
data_Cu15NiC8
_symmetry_space_group_name_H-M   'P 1'
_cell_length_a   11.17859813
_cell_length_b   11.17859813
_cell_length_c   7.95533500
_cell_angle_alpha   90.00000000
_cell_angle_beta   90.00000000
_cell_angle_gamma   120.00000079
_symmetry_Int_Tables_number   1
_chemical_formula_structural   Cu15NiC8
_chemical_formula_sum   'Cu30 Ni2 C16'
_cell_volume   860.92196481
_cell_formula_units_Z   2
loop_
 _symmetry_equiv_pos_site_id
 _symmetry_equiv_pos_as_xyz
  1  'x, y, z'
loop_
 _atom_site_type_symbol
 _atom_site_label
 _atom_site_symmetry_multiplicity
 _atom_site_fract_x
 _atom_site_fract_y
 _atom_site_fract_z
 _atom_site_occupancy
  C  C0  1  0.00000000  0.26827300  0.74295400  1
  C  C1  1  0.33333300  0.66666700  0.00341200  1
  C  C2  1  0.26827300  0.26827300  0.24295400  1
  C  C3  1  0.73172700  0.73172700  0.74295400  1
  C  C4  1  0.66666700  0.33333300  0.00341200  1
  C  C5  1  0.73172700  0.00000000  0.24295400  1
  C  C6  1  0.66666700  0.33333300  0.50341200  1
  C  C7  1  0.33333300  0.66666700  0.50341200  1
  C  C8  1  0.26827300  0.00000000  0.74295400  1
  C  C9  1  0.00000000  0.73172700  0.24295400  1
  C  C10  1  0.60779000  0.60779000  0.29880100  1
  C  C11  1  0.60779000  0.00000000  0.79880100  1
  C  C12  1  0.39221000  0.00000000  0.29880100  1
  C  C13  1  0.00000000  0.39221000  0.29880100  1
  C  C14  1  0.00000000  0.60779000  0.79880100  1
  C  C15  1  0.39221000  0.39221000  0.79880100  1
  Ni  Ni16  1  0.00000000  0.00000000  0.97065200  1
  Ni  Ni17  1  0.00000000  0.00000000  0.47065200  1
  Cu  Cu18  1  0.13031200  0.55268800  0.75972900  1
  Cu  Cu19  1  0.60973400  0.86880200  0.93874100  1
  Cu  Cu20  1  0.86880200  0.25906800  0.43874100  1
  Cu  Cu21  1  0.74093200  0.60973400  0.43874100  1
  Cu  Cu22  1  0.39026600  0.25906800  0.93874100  1
  Cu  Cu23  1  0.00000000  0.29929900  0.11991400  1
  Cu  Cu24  1  0.57762300  0.44731200  0.75972900  1
  Cu  Cu25  1  0.42237700  0.86968800  0.75972900  1
  Cu  Cu26  1  0.13119800  0.74093200  0.93874100  1
  Cu  Cu27  1  0.44731200  0.86968800  0.25972900  1
  Cu  Cu28  1  0.86880200  0.60973400  0.93874100  1
  Cu  Cu29  1  0.70070100  0.00000000  0.61991400  1
  Cu  Cu30  1  0.44731200  0.57762300  0.75972900  1
  Cu  Cu31  1  0.13119800  0.39026600  0.43874100  1
  Cu  Cu32  1  0.86968800  0.42237700  0.75972900  1
  Cu  Cu33  1  0.25906800  0.86880200  0.43874100  1
  Cu  Cu34  1  0.29929900  0.00000000  0.11991400  1
  Cu  Cu35  1  0.57762300  0.13031200  0.25972900  1
  Cu  Cu36  1  0.00000000  0.70070100  0.61991400  1
  Cu  Cu37  1  0.39026600  0.13119800  0.43874100  1
  Cu  Cu38  1  0.42237700  0.55268800  0.25972900  1
  Cu  Cu39  1  0.55268800  0.42237700  0.25972900  1
  Cu  Cu40  1  0.13031200  0.57762300  0.25972900  1
  Cu  Cu41  1  0.86968800  0.44731200  0.25972900  1
  Cu  Cu42  1  0.60973400  0.74093200  0.43874100  1
  Cu  Cu43  1  0.70070100  0.70070100  0.11991400  1
  Cu  Cu44  1  0.74093200  0.13119800  0.93874100  1
  Cu  Cu45  1  0.55268800  0.13031200  0.75972900  1
  Cu  Cu46  1  0.29929900  0.29929900  0.61991400  1
  Cu  Cu47  1  0.25906800  0.39026600  0.93874100  1
