# generated using pymatgen
data_Cu3NiC7
_symmetry_space_group_name_H-M   'P 1'
_cell_length_a   9.81167200
_cell_length_b   8.36338200
_cell_length_c   12.69626170
_cell_angle_alpha   83.28109368
_cell_angle_beta   90.00000000
_cell_angle_gamma   90.00000000
_symmetry_Int_Tables_number   1
_chemical_formula_structural   Cu3NiC7
_chemical_formula_sum   'Cu12 Ni4 C28'
_cell_volume   1034.68425120
_cell_formula_units_Z   4
loop_
 _symmetry_equiv_pos_site_id
 _symmetry_equiv_pos_as_xyz
  1  'x, y, z'
loop_
 _atom_site_type_symbol
 _atom_site_label
 _atom_site_symmetry_multiplicity
 _atom_site_fract_x
 _atom_site_fract_y
 _atom_site_fract_z
 _atom_site_occupancy
  C  C0  1  0.72774800  0.79547700  0.56129000  1
  C  C1  1  0.77225200  0.79547700  0.06129000  1
  C  C2  1  0.22774800  0.20452300  0.93871000  1
  C  C3  1  0.27225200  0.20452300  0.43871000  1
  Ni  Ni4  1  0.19691700  0.79349800  0.21271300  1
  Ni  Ni5  1  0.30308300  0.79349800  0.71271300  1
  Ni  Ni6  1  0.80308300  0.20650200  0.78728700  1
  Ni  Ni7  1  0.69691700  0.20650200  0.28728700  1
  Cu  Cu8  1  0.18940500  0.57769600  0.13063900  1
  Cu  Cu9  1  0.56600700  0.26297000  0.14837800  1
  Cu  Cu10  1  0.81059500  0.42230400  0.86936100  1
  Cu  Cu11  1  0.40359100  0.79329500  0.27533200  1
  Cu  Cu12  1  0.06600700  0.73703000  0.35162200  1
  Cu  Cu13  1  0.43399300  0.73703000  0.85162200  1
  Cu  Cu14  1  0.68940500  0.42230400  0.36936100  1
  Cu  Cu15  1  0.09640900  0.79329500  0.77533200  1
  Cu  Cu16  1  0.59640900  0.20670500  0.72466800  1
  Cu  Cu17  1  0.90359100  0.20670500  0.22466800  1
  Cu  Cu18  1  0.93399300  0.26297000  0.64837800  1
  Cu  Cu19  1  0.31059500  0.57769600  0.63063900  1
  C  C20  1  0.05211400  0.12197700  0.90574600  1
  C  C21  1  0.82109700  0.58859700  0.13250100  1
  C  C22  1  0.44788600  0.12197700  0.40574600  1
  C  C23  1  0.15598700  0.26991800  0.06899300  1
  C  C24  1  0.27837200  0.00016700  0.01314200  1
  C  C25  1  0.90302800  0.70837600  0.52768400  1
  C  C26  1  0.59697200  0.70837600  0.02768400  1
  C  C27  1  0.17890300  0.41140300  0.86749900  1
  C  C28  1  0.34401300  0.26991800  0.56899300  1
  C  C29  1  0.40302800  0.29162400  0.97231600  1
  C  C30  1  0.65598700  0.73008200  0.43100700  1
  C  C31  1  0.67890300  0.58859700  0.63250100  1
  C  C32  1  0.84401300  0.73008200  0.93100700  1
  C  C33  1  0.70000900  0.85971000  0.19056400  1
  C  C34  1  0.77837200  0.99983300  0.48685800  1
  C  C35  1  0.94788600  0.87802300  0.09425400  1
  C  C36  1  0.22162800  0.00016700  0.51314200  1
  C  C37  1  0.20000900  0.14029000  0.30943600  1
  C  C38  1  0.29999100  0.14029000  0.80943600  1
  C  C39  1  0.72162800  0.99983300  0.98685800  1
  C  C40  1  0.09697200  0.29162400  0.47231600  1
  C  C41  1  0.32109700  0.41140300  0.36749900  1
  C  C42  1  0.55211400  0.87802300  0.59425400  1
  C  C43  1  0.79999100  0.85971000  0.69056400  1
