# generated using pymatgen
data_CuNi2C7
_symmetry_space_group_name_H-M   'P 1'
_cell_length_a   10.98451438
_cell_length_b   10.98451438
_cell_length_c   10.98451439
_cell_angle_alpha   33.71878641
_cell_angle_beta   33.71878641
_cell_angle_gamma   33.71878794
_symmetry_Int_Tables_number   1
_chemical_formula_structural   CuNi2C7
_chemical_formula_sum   'Cu2 Ni4 C14'
_cell_volume   363.89027441
_cell_formula_units_Z   2
loop_
 _symmetry_equiv_pos_site_id
 _symmetry_equiv_pos_as_xyz
  1  'x, y, z'
loop_
 _atom_site_type_symbol
 _atom_site_label
 _atom_site_symmetry_multiplicity
 _atom_site_fract_x
 _atom_site_fract_y
 _atom_site_fract_z
 _atom_site_occupancy
  Ni  Ni0  1  0.12750200  0.12750200  0.12750200  1
  Ni  Ni1  1  0.87249800  0.87249800  0.87249800  1
  Ni  Ni2  1  0.28202300  0.28202300  0.28202300  1
  Ni  Ni3  1  0.71797700  0.71797700  0.71797700  1
  Cu  Cu4  1  0.40285700  0.40285700  0.40285700  1
  Cu  Cu5  1  0.59714300  0.59714300  0.59714300  1
  C  C6  1  0.00000000  0.00000000  0.00000000  1
  C  C7  1  0.50000000  0.50000000  0.50000000  1
  C  C8  1  0.17733300  0.60429600  0.60429600  1
  C  C9  1  0.60429600  0.60429600  0.17733300  1
  C  C10  1  0.60429600  0.17733300  0.60429600  1
  C  C11  1  0.39570400  0.82266700  0.39570400  1
  C  C12  1  0.82266700  0.39570400  0.39570400  1
  C  C13  1  0.39570400  0.39570400  0.82266700  1
  C  C14  1  0.25870300  0.81596000  0.81596000  1
  C  C15  1  0.81596000  0.81596000  0.25870300  1
  C  C16  1  0.81596000  0.25870300  0.81596000  1
  C  C17  1  0.18404000  0.74129700  0.18404000  1
  C  C18  1  0.74129700  0.18404000  0.18404000  1
  C  C19  1  0.18404000  0.18404000  0.74129700  1
