# generated using pymatgen
data_CuNi2C17
_symmetry_space_group_name_H-M   'P 1'
_cell_length_a   3.96748400
_cell_length_b   18.24929200
_cell_length_c   19.53965200
_cell_angle_alpha   90.00000000
_cell_angle_beta   90.00000000
_cell_angle_gamma   90.00000000
_symmetry_Int_Tables_number   1
_chemical_formula_structural   CuNi2C17
_chemical_formula_sum   'Cu4 Ni8 C68'
_cell_volume   1414.74454786
_cell_formula_units_Z   4
loop_
 _symmetry_equiv_pos_site_id
 _symmetry_equiv_pos_as_xyz
  1  'x, y, z'
loop_
 _atom_site_type_symbol
 _atom_site_label
 _atom_site_symmetry_multiplicity
 _atom_site_fract_x
 _atom_site_fract_y
 _atom_site_fract_z
 _atom_site_occupancy
  C  C0  1  0.75000000  0.37760100  0.51296000  1
  C  C1  1  0.75000000  0.99868300  0.60661700  1
  C  C2  1  0.75000000  0.69652600  0.95835100  1
  C  C3  1  0.25000000  0.96970900  0.18136300  1
  C  C4  1  0.75000000  0.80347400  0.45835100  1
  C  C5  1  0.75000000  0.46970900  0.31863700  1
  C  C6  1  0.25000000  0.53029100  0.68136300  1
  C  C7  1  0.25000000  0.00131700  0.39338300  1
  C  C8  1  0.75000000  0.12239900  0.01296000  1
  C  C9  1  0.25000000  0.71091100  0.30485200  1
  C  C10  1  0.75000000  0.28908900  0.69514800  1
  C  C11  1  0.25000000  0.78908900  0.80485200  1
  C  C12  1  0.25000000  0.30347400  0.04164900  1
  C  C13  1  0.75000000  0.50131700  0.10661700  1
  C  C14  1  0.75000000  0.21091100  0.19514800  1
  C  C15  1  0.25000000  0.19652600  0.54164900  1
  C  C16  1  0.75000000  0.03029100  0.81863700  1
  C  C17  1  0.25000000  0.62239900  0.48704000  1
  C  C18  1  0.25000000  0.87760100  0.98704000  1
  C  C19  1  0.25000000  0.49868300  0.89338300  1
  Ni  Ni20  1  0.25000000  0.11309400  0.69716300  1
  Ni  Ni21  1  0.25000000  0.17282500  0.87836500  1
  Ni  Ni22  1  0.75000000  0.88690600  0.30283700  1
  Ni  Ni23  1  0.75000000  0.67282500  0.62163500  1
  Ni  Ni24  1  0.25000000  0.38690600  0.19716300  1
  Ni  Ni25  1  0.25000000  0.32717500  0.37836500  1
  Ni  Ni26  1  0.75000000  0.82717500  0.12163500  1
  Ni  Ni27  1  0.75000000  0.61309400  0.80283700  1
  Cu  Cu28  1  0.25000000  0.64638400  0.14127400  1
  Cu  Cu29  1  0.25000000  0.85361600  0.64127400  1
  Cu  Cu30  1  0.75000000  0.35361600  0.85872600  1
  Cu  Cu31  1  0.75000000  0.14638400  0.35872600  1
  C  C32  1  0.25000000  0.90526500  0.53120400  1
  C  C33  1  0.25000000  0.20885500  0.32715400  1
  C  C34  1  0.25000000  0.46709200  0.43241700  1
  C  C35  1  0.25000000  0.59473500  0.03120400  1
  C  C36  1  0.25000000  0.54640400  0.21954100  1
  C  C37  1  0.25000000  0.38110500  0.63024100  1
  C  C38  1  0.75000000  0.96709200  0.06758300  1
  C  C39  1  0.75000000  0.09473500  0.46879600  1
  C  C40  1  0.75000000  0.61889500  0.36975900  1
  C  C41  1  0.75000000  0.70885500  0.17284600  1
  C  C42  1  0.75000000  0.79114500  0.67284600  1
  C  C43  1  0.25000000  0.95359600  0.71954100  1
  C  C44  1  0.75000000  0.40526500  0.96879600  1
  C  C45  1  0.25000000  0.11889500  0.13024100  1
  C  C46  1  0.25000000  0.29114500  0.82715400  1
  C  C47  1  0.75000000  0.45359600  0.78045900  1
  C  C48  1  0.75000000  0.88110500  0.86975900  1
  C  C49  1  0.75000000  0.53290800  0.56758300  1
  C  C50  1  0.25000000  0.03290800  0.93241700  1
  C  C51  1  0.75000000  0.04640400  0.28045900  1
  C  C52  1  0.25000000  0.39237200  0.29564400  1
  C  C53  1  0.25000000  0.07619300  0.60578000  1
  C  C54  1  0.25000000  0.74562500  0.42535300  1
  C  C55  1  0.75000000  0.80615000  0.02786700  1
  C  C56  1  0.25000000  0.42380700  0.10578000  1
  C  C57  1  0.75000000  0.92380700  0.39422000  1
  C  C58  1  0.75000000  0.60762800  0.70435600  1
  C  C59  1  0.75000000  0.69385000  0.52786700  1
  C  C60  1  0.25000000  0.10762800  0.79564400  1
  C  C61  1  0.25000000  0.19385000  0.97213300  1
  C  C62  1  0.75000000  0.70982100  0.82434500  1
  C  C63  1  0.25000000  0.84252400  0.11943900  1
  C  C64  1  0.25000000  0.59604200  0.79962400  1
  C  C65  1  0.75000000  0.57619300  0.89422000  1
  C  C66  1  0.75000000  0.89237200  0.20435600  1
  C  C67  1  0.25000000  0.29017900  0.17565500  1
  C  C68  1  0.25000000  0.30615000  0.47213300  1
  C  C69  1  0.75000000  0.34252400  0.38056100  1
  C  C70  1  0.75000000  0.24562500  0.07464700  1
  C  C71  1  0.25000000  0.90395800  0.29962400  1
  C  C72  1  0.75000000  0.40395800  0.20037600  1
  C  C73  1  0.75000000  0.15747600  0.88056100  1
  C  C74  1  0.75000000  0.09604200  0.70037600  1
  C  C75  1  0.75000000  0.25437500  0.57464700  1
  C  C76  1  0.25000000  0.75437500  0.92535300  1
  C  C77  1  0.25000000  0.20982100  0.67565500  1
  C  C78  1  0.25000000  0.65747600  0.61943900  1
  C  C79  1  0.75000000  0.79017900  0.32434500  1
