# generated using pymatgen
data_Cu12Ni2C9
_symmetry_space_group_name_H-M   'P 1'
_cell_length_a   5.91841900
_cell_length_b   5.91841994
_cell_length_c   15.04776100
_cell_angle_alpha   90.00000000
_cell_angle_beta   90.00000000
_cell_angle_gamma   120.00000034
_symmetry_Int_Tables_number   1
_chemical_formula_structural   Cu12Ni2C9
_chemical_formula_sum   'Cu12 Ni2 C9'
_cell_volume   456.47184997
_cell_formula_units_Z   1
loop_
 _symmetry_equiv_pos_site_id
 _symmetry_equiv_pos_as_xyz
  1  'x, y, z'
loop_
 _atom_site_type_symbol
 _atom_site_label
 _atom_site_symmetry_multiplicity
 _atom_site_fract_x
 _atom_site_fract_y
 _atom_site_fract_z
 _atom_site_occupancy
  C  C0  1  0.66666700  0.33333300  0.63670400  1
  C  C1  1  0.33333300  0.66666700  0.36329600  1
  C  C2  1  0.33333300  0.66666700  0.78604000  1
  C  C3  1  0.66666700  0.33333300  0.91940400  1
  C  C4  1  0.33333300  0.66666700  0.08059600  1
  C  C5  1  0.66666700  0.33333300  0.21396000  1
  C  C6  1  0.00000000  0.00000000  0.17494800  1
  C  C7  1  0.00000000  0.00000000  0.00000000  1
  C  C8  1  0.00000000  0.00000000  0.82505200  1
  Ni  Ni9  1  0.33333300  0.66666700  0.57696400  1
  Ni  Ni10  1  0.66666700  0.33333300  0.42303600  1
  Cu  Cu11  1  0.84078200  0.15921800  0.75952900  1
  Cu  Cu12  1  0.15469300  0.30938500  0.91703200  1
  Cu  Cu13  1  0.84530700  0.15469300  0.08296800  1
  Cu  Cu14  1  0.15469300  0.84530700  0.91703200  1
  Cu  Cu15  1  0.84530700  0.69061500  0.08296800  1
  Cu  Cu16  1  0.69061500  0.84530700  0.91703200  1
  Cu  Cu17  1  0.31843600  0.15921800  0.75952900  1
  Cu  Cu18  1  0.30938500  0.15469300  0.08296800  1
  Cu  Cu19  1  0.68156400  0.84078200  0.24047100  1
  Cu  Cu20  1  0.15921800  0.84078200  0.24047100  1
  Cu  Cu21  1  0.15921800  0.31843600  0.24047100  1
  Cu  Cu22  1  0.84078200  0.68156400  0.75952900  1
