# generated using pymatgen
data_Cu2NiC4
_symmetry_space_group_name_H-M   'P 1'
_cell_length_a   5.81397292
_cell_length_b   5.81397292
_cell_length_c   19.26230874
_cell_angle_alpha   80.93682063
_cell_angle_beta   80.93682063
_cell_angle_gamma   59.86719089
_symmetry_Int_Tables_number   1
_chemical_formula_structural   Cu2NiC4
_chemical_formula_sum   'Cu16 Ni8 C32'
_cell_volume   553.74054314
_cell_formula_units_Z   8
loop_
 _symmetry_equiv_pos_site_id
 _symmetry_equiv_pos_as_xyz
  1  'x, y, z'
loop_
 _atom_site_type_symbol
 _atom_site_label
 _atom_site_symmetry_multiplicity
 _atom_site_fract_x
 _atom_site_fract_y
 _atom_site_fract_z
 _atom_site_occupancy
  Ni  Ni0  1  0.84984700  0.84984700  0.97026200  1
  Ni  Ni1  1  0.37603000  0.37603000  0.87490100  1
  Ni  Ni2  1  0.60099900  0.60099900  0.71850000  1
  Ni  Ni3  1  0.12711700  0.12711700  0.62536800  1
  Ni  Ni4  1  0.87477200  0.87477200  0.37535100  1
  Ni  Ni5  1  0.99964500  0.99964500  0.50123300  1
  Ni  Ni6  1  0.62424800  0.62424800  0.12471400  1
  Ni  Ni7  1  0.74977300  0.74977300  0.24958800  1
  Cu  Cu8  1  0.37572600  0.87055500  0.87537300  1
  Cu  Cu9  1  0.25010400  0.25010400  0.74901400  1
  Cu  Cu10  1  0.87055500  0.37572600  0.87537300  1
  Cu  Cu11  1  0.35030600  0.35030600  0.46636500  1
  Cu  Cu12  1  0.12802300  0.62102200  0.62562800  1
  Cu  Cu13  1  0.90078000  0.90078000  0.78012800  1
  Cu  Cu14  1  0.09899300  0.09899300  0.21782700  1
  Cu  Cu15  1  0.62102200  0.12802300  0.62562800  1
  Cu  Cu16  1  0.87479500  0.37521300  0.37516600  1
  Cu  Cu17  1  0.65046800  0.65046800  0.53341100  1
  Cu  Cu18  1  0.37521300  0.87479500  0.37516600  1
  Cu  Cu19  1  0.12522700  0.62479000  0.12456400  1
  Cu  Cu20  1  0.62479000  0.12522700  0.12456400  1
  Cu  Cu21  1  0.39960000  0.39960000  0.28339500  1
  Cu  Cu22  1  0.50093000  0.50093000  0.99808900  1
  Cu  Cu23  1  0.15041000  0.15041000  0.03096700  1
  C  C24  1  0.68033300  0.22569400  0.93606400  1
  C  C25  1  0.56854200  0.56854200  0.82179000  1
  C  C26  1  0.22569400  0.68033300  0.93606400  1
  C  C27  1  0.67195000  0.67195000  0.93418100  1
  C  C28  1  0.07413200  0.07413200  0.81504400  1
  C  C29  1  0.42853500  0.97873100  0.68662300  1
  C  C30  1  0.53405700  0.06402700  0.81271000  1
  C  C31  1  0.32039300  0.32039300  0.56769600  1
  C  C32  1  0.97873100  0.42853500  0.68662300  1
  C  C33  1  0.18059800  0.18059800  0.93117200  1
  C  C34  1  0.42139900  0.42139900  0.68442700  1
  C  C35  1  0.06402700  0.53405700  0.81271000  1
  C  C36  1  0.19057200  0.70854800  0.43381800  1
  C  C37  1  0.81589200  0.81589200  0.56980100  1
  C  C38  1  0.29439700  0.80892700  0.56748400  1
  C  C39  1  0.06958700  0.06958700  0.31860700  1
  C  C40  1  0.70854800  0.19057200  0.43381800  1
  C  C41  1  0.92884200  0.92884200  0.68065400  1
  C  C42  1  0.18211400  0.18211400  0.43128700  1
  C  C43  1  0.80892700  0.29439700  0.56748400  1
  C  C44  1  0.56758600  0.56758600  0.31881500  1
  C  C45  1  0.94372200  0.45496800  0.18302800  1
  C  C46  1  0.04188700  0.55992500  0.31627900  1
  C  C47  1  0.81644900  0.81644900  0.07306500  1
  C  C48  1  0.45496800  0.94372200  0.18302800  1
  C  C49  1  0.68038000  0.68038000  0.43143700  1
  C  C50  1  0.93379000  0.93379000  0.18060600  1
  C  C51  1  0.55992500  0.04188700  0.31627900  1
  C  C52  1  0.32506500  0.32506500  0.06439200  1
  C  C53  1  0.78398900  0.31421900  0.06157300  1
  C  C54  1  0.43229400  0.43229400  0.18129600  1
  C  C55  1  0.31421900  0.78398900  0.06157300  1
