# generated using pymatgen
data_Cu4NiC12
_symmetry_space_group_name_H-M   'P 1'
_cell_length_a   13.26186790
_cell_length_b   13.26186790
_cell_length_c   13.26186790
_cell_angle_alpha   109.47122063
_cell_angle_beta   109.47122063
_cell_angle_gamma   109.47122063
_symmetry_Int_Tables_number   1
_chemical_formula_structural   Cu4NiC12
_chemical_formula_sum   'Cu32 Ni8 C96'
_cell_volume   1795.52808180
_cell_formula_units_Z   8
loop_
 _symmetry_equiv_pos_site_id
 _symmetry_equiv_pos_as_xyz
  1  'x, y, z'
loop_
 _atom_site_type_symbol
 _atom_site_label
 _atom_site_symmetry_multiplicity
 _atom_site_fract_x
 _atom_site_fract_y
 _atom_site_fract_z
 _atom_site_occupancy
  Ni  Ni0  1  0.25000000  0.25000000  0.25000000  1
  Ni  Ni1  1  0.25000000  0.50000000  0.00000000  1
  Ni  Ni2  1  0.75000000  0.75000000  0.75000000  1
  Ni  Ni3  1  0.50000000  0.00000000  0.25000000  1
  Ni  Ni4  1  0.50000000  0.00000000  0.75000000  1
  Ni  Ni5  1  0.00000000  0.25000000  0.50000000  1
  Ni  Ni6  1  0.00000000  0.75000000  0.50000000  1
  Ni  Ni7  1  0.75000000  0.50000000  0.00000000  1
  Cu  Cu8  1  0.50000000  0.50000000  0.50000000  1
  Cu  Cu9  1  0.49680300  0.24680300  0.25000000  1
  Cu  Cu10  1  0.75000000  0.00319700  0.25319700  1
  Cu  Cu11  1  0.75319700  0.50319700  0.25000000  1
  Cu  Cu12  1  0.99680300  0.74680300  0.25000000  1
  Cu  Cu13  1  0.25000000  0.75319700  0.50319700  1
  Cu  Cu14  1  0.50319700  0.25000000  0.75319700  1
  Cu  Cu15  1  0.25319700  0.00319700  0.25000000  1
  Cu  Cu16  1  0.75000000  0.74680300  0.99680300  1
  Cu  Cu17  1  0.49680300  0.75000000  0.24680300  1
  Cu  Cu18  1  0.00319700  0.25000000  0.25319700  1
  Cu  Cu19  1  0.24680300  0.25000000  0.49680300  1
  Cu  Cu20  1  0.00000000  0.00000000  0.00000000  1
  Cu  Cu21  1  0.00000000  0.50000000  0.50000000  1
  Cu  Cu22  1  0.75000000  0.24680300  0.49680300  1
  Cu  Cu23  1  0.25000000  0.25319700  0.00319700  1
  Cu  Cu24  1  0.25000000  0.49680300  0.24680300  1
  Cu  Cu25  1  0.99680300  0.75000000  0.74680300  1
  Cu  Cu26  1  0.25319700  0.75000000  0.00319700  1
  Cu  Cu27  1  0.00319700  0.25319700  0.75000000  1
  Cu  Cu28  1  0.00000000  0.00000000  0.50000000  1
  Cu  Cu29  1  0.74680300  0.99680300  0.75000000  1
  Cu  Cu30  1  0.24680300  0.49680300  0.75000000  1
  Cu  Cu31  1  0.00000000  0.50000000  0.00000000  1
  Cu  Cu32  1  0.50000000  0.50000000  0.00000000  1
  Cu  Cu33  1  0.75000000  0.50319700  0.75319700  1
  Cu  Cu34  1  0.50000000  0.00000000  0.00000000  1
  Cu  Cu35  1  0.25000000  0.99680300  0.74680300  1
  Cu  Cu36  1  0.50000000  0.00000000  0.50000000  1
  Cu  Cu37  1  0.74680300  0.25000000  0.99680300  1
  Cu  Cu38  1  0.75319700  0.75000000  0.50319700  1
  Cu  Cu39  1  0.50319700  0.75319700  0.75000000  1
  C  C40  1  0.02356900  0.26178400  0.01178400  1
  C  C41  1  0.26178400  0.01178400  0.02356900  1
  C  C42  1  0.48821600  0.75000000  0.01178400  1
  C  C43  1  0.01178400  0.48821600  0.75000000  1
  C  C44  1  0.73821600  0.25000000  0.76178400  1
  C  C45  1  0.52356900  0.51178400  0.76178400  1
  C  C46  1  0.76178400  0.73821600  0.25000000  1
  C  C47  1  0.73821600  0.98821600  0.97643100  1
  C  C48  1  0.25000000  0.98821600  0.51178400  1
  C  C49  1  0.75000000  0.01178400  0.48821600  1
  C  C50  1  0.01178400  0.02356900  0.26178400  1
  C  C51  1  0.98821600  0.97643100  0.73821600  1
  C  C52  1  0.26178400  0.75000000  0.23821600  1
  C  C53  1  0.98821600  0.51178400  0.25000000  1
  C  C54  1  0.25000000  0.76178400  0.73821600  1
  C  C55  1  0.51178400  0.76178400  0.52356900  1
  C  C56  1  0.47643100  0.48821600  0.23821600  1
  C  C57  1  0.48821600  0.23821600  0.47643100  1
  C  C58  1  0.75000000  0.23821600  0.26178400  1
  C  C59  1  0.23821600  0.26178400  0.75000000  1
  C  C60  1  0.23821600  0.47643100  0.48821600  1
  C  C61  1  0.97643100  0.73821600  0.98821600  1
  C  C62  1  0.51178400  0.25000000  0.98821600  1
  C  C63  1  0.76178400  0.52356900  0.51178400  1
  C  C64  1  0.44823000  0.25000000  0.05177000  1
  C  C65  1  0.49498300  0.85472600  0.59171900  1
  C  C66  1  0.35472600  0.99498300  0.09171900  1
  C  C67  1  0.14527400  0.23699300  0.64025700  1
  C  C68  1  0.59673600  0.35974300  0.00501700  1
  C  C69  1  0.90828100  0.64527400  0.00501700  1
  C  C70  1  0.35974300  0.85472600  0.76300700  1
  C  C71  1  0.90828100  0.76300700  0.90326400  1
  C  C72  1  0.59171900  0.59673600  0.73699300  1
  C  C73  1  0.40326400  0.26300700  0.40828100  1
  C  C74  1  0.09673600  0.09171900  0.23699300  1
  C  C75  1  0.59171900  0.49498300  0.85472600  1
  C  C76  1  0.09673600  0.50501700  0.85974300  1
  C  C77  1  0.39646100  0.44823000  0.69823000  1
  C  C78  1  0.73699300  0.64527400  0.14025700  1
  C  C79  1  0.19823000  0.94823000  0.89646100  1
  C  C80  1  0.94823000  0.55177000  0.75000000  1
  C  C81  1  0.14025700  0.90326400  0.49498300  1
  C  C82  1  0.64527400  0.14025700  0.73699300  1
  C  C83  1  0.30177000  0.60353900  0.55177000  1
  C  C84  1  0.59673600  0.73699300  0.59171900  1
  C  C85  1  0.40828100  0.50501700  0.14527400  1
  C  C86  1  0.55177000  0.30177000  0.60353900  1
  C  C87  1  0.64025700  0.14527400  0.23699300  1
  C  C88  1  0.09171900  0.35472600  0.99498300  1
  C  C89  1  0.89646100  0.19823000  0.94823000  1
  C  C90  1  0.69823000  0.80177000  0.25000000  1
  C  C91  1  0.10353900  0.80177000  0.05177000  1
  C  C92  1  0.75000000  0.30177000  0.19823000  1
  C  C93  1  0.05177000  0.10353900  0.80177000  1
  C  C94  1  0.85974300  0.09673600  0.50501700  1
  C  C95  1  0.76300700  0.35974300  0.85472600  1
  C  C96  1  0.23699300  0.09673600  0.09171900  1
  C  C97  1  0.64527400  0.00501700  0.90828100  1
  C  C98  1  0.19823000  0.75000000  0.30177000  1
  C  C99  1  0.26300700  0.40828100  0.40326400  1
  C  C100  1  0.85472600  0.76300700  0.35974300  1
  C  C101  1  0.35974300  0.00501700  0.59673600  1
  C  C102  1  0.05177000  0.44823000  0.25000000  1
  C  C103  1  0.60353900  0.55177000  0.30177000  1
  C  C104  1  0.80177000  0.25000000  0.69823000  1
  C  C105  1  0.49498300  0.14025700  0.90326400  1
  C  C106  1  0.55177000  0.75000000  0.94823000  1
  C  C107  1  0.76300700  0.90326400  0.90828100  1
  C  C108  1  0.85472600  0.59171900  0.49498300  1
  C  C109  1  0.40326400  0.64025700  0.99498300  1
  C  C110  1  0.40828100  0.40326400  0.26300700  1
  C  C111  1  0.30177000  0.19823000  0.75000000  1
  C  C112  1  0.73699300  0.59171900  0.59673600  1
  C  C113  1  0.35472600  0.85974300  0.26300700  1
  C  C114  1  0.90326400  0.49498300  0.14025700  1
  C  C115  1  0.26300700  0.35472600  0.85974300  1
  C  C116  1  0.25000000  0.05177000  0.44823000  1
  C  C117  1  0.69823000  0.39646100  0.44823000  1
  C  C118  1  0.14527400  0.40828100  0.50501700  1
  C  C119  1  0.99498300  0.40326400  0.64025700  1
  C  C120  1  0.94823000  0.89646100  0.19823000  1
  C  C121  1  0.90326400  0.90828100  0.76300700  1
  C  C122  1  0.44823000  0.69823000  0.39646100  1
  C  C123  1  0.23699300  0.64025700  0.14527400  1
  C  C124  1  0.80177000  0.05177000  0.10353900  1
  C  C125  1  0.50501700  0.14527400  0.40828100  1
  C  C126  1  0.50501700  0.85974300  0.09673600  1
  C  C127  1  0.09171900  0.23699300  0.09673600  1
  C  C128  1  0.00501700  0.90828100  0.64527400  1
  C  C129  1  0.00501700  0.59673600  0.35974300  1
  C  C130  1  0.14025700  0.73699300  0.64527400  1
  C  C131  1  0.64025700  0.99498300  0.40326400  1
  C  C132  1  0.25000000  0.69823000  0.80177000  1
  C  C133  1  0.85974300  0.26300700  0.35472600  1
  C  C134  1  0.99498300  0.09171900  0.35472600  1
  C  C135  1  0.75000000  0.94823000  0.55177000  1
