# generated using pymatgen
data_Cu3(Ni3C8)2
_symmetry_space_group_name_H-M   'P 1'
_cell_length_a   6.80452431
_cell_length_b   6.80452431
_cell_length_c   18.79716500
_cell_angle_alpha   90.00000000
_cell_angle_beta   90.00000000
_cell_angle_gamma   120.00000299
_symmetry_Int_Tables_number   1
_chemical_formula_structural   Cu3(Ni3C8)2
_chemical_formula_sum   'Cu6 Ni12 C32'
_cell_volume   753.73470416
_cell_formula_units_Z   2
loop_
 _symmetry_equiv_pos_site_id
 _symmetry_equiv_pos_as_xyz
  1  'x, y, z'
loop_
 _atom_site_type_symbol
 _atom_site_label
 _atom_site_symmetry_multiplicity
 _atom_site_fract_x
 _atom_site_fract_y
 _atom_site_fract_z
 _atom_site_occupancy
  C  C0  1  0.00000000  0.00000000  0.25000000  1
  C  C1  1  0.00000000  0.00000000  0.75000000  1
  C  C2  1  0.46021300  0.00000000  0.29161500  1
  C  C3  1  0.46021300  0.46021300  0.79161500  1
  C  C4  1  0.00000000  0.53978700  0.79161500  1
  C  C5  1  0.00000000  0.46021300  0.29161500  1
  C  C6  1  0.53978700  0.53978700  0.29161500  1
  C  C7  1  0.46021300  0.00000000  0.20838500  1
  C  C8  1  0.53978700  0.53978700  0.20838500  1
  C  C9  1  0.53978700  0.00000000  0.79161500  1
  C  C10  1  0.00000000  0.46021300  0.20838500  1
  C  C11  1  0.00000000  0.53978700  0.70838500  1
  C  C12  1  0.53978700  0.00000000  0.70838500  1
  C  C13  1  0.46021300  0.46021300  0.70838500  1
  C  C14  1  0.50000000  0.50000000  0.00000000  1
  C  C15  1  0.00000000  0.50000000  0.50000000  1
  C  C16  1  0.50000000  0.00000000  0.50000000  1
  C  C17  1  0.50000000  0.00000000  0.00000000  1
  C  C18  1  0.00000000  0.50000000  0.00000000  1
  C  C19  1  0.50000000  0.50000000  0.50000000  1
  C  C20  1  0.35946000  0.35946000  0.09311200  1
  C  C21  1  0.00000000  0.35946000  0.59311200  1
  C  C22  1  0.35946000  0.00000000  0.59311200  1
  C  C23  1  0.64054000  0.00000000  0.09311200  1
  C  C24  1  0.00000000  0.64054000  0.09311200  1
  C  C25  1  0.00000000  0.64054000  0.40688800  1
  C  C26  1  0.64054000  0.00000000  0.40688800  1
  C  C27  1  0.64054000  0.64054000  0.59311200  1
  C  C28  1  0.35946000  0.35946000  0.40688800  1
  C  C29  1  0.64054000  0.64054000  0.90688800  1
  C  C30  1  0.00000000  0.35946000  0.90688800  1
  C  C31  1  0.35946000  0.00000000  0.90688800  1
  Ni  Ni32  1  0.27551500  0.27551500  0.14767500  1
  Ni  Ni33  1  0.00000000  0.27551500  0.64767500  1
  Ni  Ni34  1  0.27551500  0.00000000  0.64767500  1
  Ni  Ni35  1  0.72448500  0.00000000  0.14767500  1
  Ni  Ni36  1  0.00000000  0.72448500  0.14767500  1
  Ni  Ni37  1  0.00000000  0.72448500  0.35232500  1
  Ni  Ni38  1  0.72448500  0.00000000  0.35232500  1
  Ni  Ni39  1  0.72448500  0.72448500  0.64767500  1
  Ni  Ni40  1  0.27551500  0.27551500  0.35232500  1
  Ni  Ni41  1  0.72448500  0.72448500  0.85232500  1
  Ni  Ni42  1  0.00000000  0.27551500  0.85232500  1
  Ni  Ni43  1  0.27551500  0.00000000  0.85232500  1
  Cu  Cu44  1  0.37351100  0.00000000  0.25000000  1
  Cu  Cu45  1  0.37351100  0.37351100  0.75000000  1
  Cu  Cu46  1  0.00000000  0.62648900  0.75000000  1
  Cu  Cu47  1  0.00000000  0.37351100  0.25000000  1
  Cu  Cu48  1  0.62648900  0.62648900  0.25000000  1
  Cu  Cu49  1  0.62648900  0.00000000  0.75000000  1
