# generated using pymatgen
data_Cu9NiC7
_symmetry_space_group_name_H-M   'P 1'
_cell_length_a   6.54508300
_cell_length_b   11.49695200
_cell_length_c   11.62536100
_cell_angle_alpha   90.00000000
_cell_angle_beta   90.00000000
_cell_angle_gamma   90.00000000
_symmetry_Int_Tables_number   1
_chemical_formula_structural   Cu9NiC7
_chemical_formula_sum   'Cu36 Ni4 C28'
_cell_volume   874.79103635
_cell_formula_units_Z   4
loop_
 _symmetry_equiv_pos_site_id
 _symmetry_equiv_pos_as_xyz
  1  'x, y, z'
loop_
 _atom_site_type_symbol
 _atom_site_label
 _atom_site_symmetry_multiplicity
 _atom_site_fract_x
 _atom_site_fract_y
 _atom_site_fract_z
 _atom_site_occupancy
  C  C0  1  0.84644400  0.26210300  0.53311600  1
  C  C1  1  0.34644400  0.76210300  0.96688400  1
  C  C2  1  0.00288000  0.04927500  0.25496200  1
  C  C3  1  0.34644400  0.23789700  0.03311600  1
  C  C4  1  0.00288000  0.95072500  0.74503800  1
  C  C5  1  0.84644400  0.73789700  0.46688400  1
  C  C6  1  0.50288000  0.54927500  0.24503800  1
  C  C7  1  0.50288000  0.45072500  0.75496200  1
  C  C8  1  0.81008800  0.73643300  0.03601300  1
  C  C9  1  0.97349500  0.50304900  0.75068000  1
  C  C10  1  0.84802100  0.29835900  0.18675900  1
  C  C11  1  0.97349500  0.49695100  0.24932000  1
  C  C12  1  0.47349500  0.00304900  0.74932000  1
  C  C13  1  0.47349500  0.99695100  0.25068000  1
  C  C14  1  0.69940600  0.82489900  0.22476000  1
  C  C15  1  0.84802100  0.70164100  0.81324100  1
  C  C16  1  0.03158000  0.71968100  0.20545000  1
  C  C17  1  0.31008800  0.76356700  0.53601300  1
  C  C18  1  0.03158000  0.28031900  0.79455000  1
  C  C19  1  0.53158000  0.78031900  0.70545000  1
  C  C20  1  0.81008800  0.26356700  0.96398700  1
  C  C21  1  0.34802100  0.20164100  0.68675900  1
  C  C22  1  0.19940600  0.67510100  0.72476000  1
  C  C23  1  0.34802100  0.79835900  0.31324100  1
  C  C24  1  0.19940600  0.32489900  0.27524000  1
  C  C25  1  0.69940600  0.17510100  0.77524000  1
  C  C26  1  0.31008800  0.23643300  0.46398700  1
  C  C27  1  0.53158000  0.21968100  0.29455000  1
  Ni  Ni28  1  0.13155800  0.00000000  0.00000000  1
  Ni  Ni29  1  0.86947600  0.00000000  0.50000000  1
  Ni  Ni30  1  0.63155800  0.50000000  0.50000000  1
  Ni  Ni31  1  0.36947600  0.50000000  0.00000000  1
  Cu  Cu32  1  0.74915500  0.26873000  0.07628800  1
  Cu  Cu33  1  0.65793400  0.04756200  0.78375200  1
  Cu  Cu34  1  0.56911100  0.23004500  0.68595400  1
  Cu  Cu35  1  0.15418900  0.73156100  0.61160300  1
  Cu  Cu36  1  0.00193700  0.28718100  0.92310000  1
  Cu  Cu37  1  0.24915500  0.76873000  0.42371200  1
  Cu  Cu38  1  0.75052300  0.77297700  0.72277800  1
  Cu  Cu39  1  0.74915500  0.73127000  0.92371200  1
  Cu  Cu40  1  0.56911100  0.76995500  0.31404600  1
  Cu  Cu41  1  0.93007900  0.61387700  0.26118000  1
  Cu  Cu42  1  0.75052300  0.22702300  0.27722200  1
  Cu  Cu43  1  0.06911100  0.26995500  0.18595400  1
  Cu  Cu44  1  0.65793400  0.95243800  0.21624800  1
  Cu  Cu45  1  0.82006700  0.57377200  0.79178900  1
  Cu  Cu46  1  0.15793400  0.54756200  0.71624800  1
  Cu  Cu47  1  0.93007900  0.38612300  0.73882000  1
  Cu  Cu48  1  0.32006700  0.07377200  0.70821100  1
  Cu  Cu49  1  0.41642400  0.68227100  0.75461000  1
  Cu  Cu50  1  0.15418900  0.26843900  0.38839700  1
  Cu  Cu51  1  0.06911100  0.73004500  0.81404600  1
  Cu  Cu52  1  0.65418900  0.23156100  0.88839700  1
  Cu  Cu53  1  0.50193700  0.78718100  0.57690000  1
  Cu  Cu54  1  0.43007900  0.11387700  0.23882000  1
  Cu  Cu55  1  0.65418900  0.76843900  0.11160300  1
  Cu  Cu56  1  0.91642400  0.81772900  0.25461000  1
  Cu  Cu57  1  0.50193700  0.21281900  0.42310000  1
  Cu  Cu58  1  0.32006700  0.92622800  0.29178900  1
  Cu  Cu59  1  0.82006700  0.42622800  0.20821100  1
  Cu  Cu60  1  0.43007900  0.88612300  0.76118000  1
  Cu  Cu61  1  0.15793400  0.45243800  0.28375200  1
  Cu  Cu62  1  0.25052300  0.72702300  0.22277800  1
  Cu  Cu63  1  0.00193700  0.71281900  0.07690000  1
  Cu  Cu64  1  0.91642400  0.18227100  0.74539000  1
  Cu  Cu65  1  0.25052300  0.27297700  0.77722200  1
  Cu  Cu66  1  0.24915500  0.23127000  0.57628800  1
  Cu  Cu67  1  0.41642400  0.31772900  0.24539000  1
