# generated using pymatgen
data_Cu(Ni3C2)2
_symmetry_space_group_name_H-M   'P 1'
_cell_length_a   10.51720191
_cell_length_b   10.51720191
_cell_length_c   8.03876700
_cell_angle_alpha   90.00000000
_cell_angle_beta   90.00000000
_cell_angle_gamma   119.99999941
_symmetry_Int_Tables_number   1
_chemical_formula_structural   Cu(Ni3C2)2
_chemical_formula_sum   'Cu2 Ni12 C8'
_cell_volume   770.05278909
_cell_formula_units_Z   2
loop_
 _symmetry_equiv_pos_site_id
 _symmetry_equiv_pos_as_xyz
  1  'x, y, z'
loop_
 _atom_site_type_symbol
 _atom_site_label
 _atom_site_symmetry_multiplicity
 _atom_site_fract_x
 _atom_site_fract_y
 _atom_site_fract_z
 _atom_site_occupancy
  C  C0  1  0.19914500  0.80085500  0.00072200  1
  C  C1  1  0.33333300  0.66666700  0.41896600  1
  C  C2  1  0.60171000  0.80085500  0.00072200  1
  C  C3  1  0.80085500  0.19914500  0.50072200  1
  C  C4  1  0.39829000  0.19914500  0.50072200  1
  C  C5  1  0.80085500  0.60171000  0.50072200  1
  C  C6  1  0.66666700  0.33333300  0.91896600  1
  C  C7  1  0.19914500  0.39829000  0.00072200  1
  Ni  Ni8  1  0.71518300  0.85759200  0.39294800  1
  Ni  Ni9  1  0.53081400  0.46918600  0.20845300  1
  Ni  Ni10  1  0.14240800  0.28481700  0.39294800  1
  Ni  Ni11  1  0.28481700  0.14240800  0.89294800  1
  Ni  Ni12  1  0.85759200  0.71518300  0.89294800  1
  Ni  Ni13  1  0.85759200  0.14240800  0.89294800  1
  Ni  Ni14  1  0.06162700  0.53081400  0.70845300  1
  Ni  Ni15  1  0.46918600  0.93837300  0.70845300  1
  Ni  Ni16  1  0.14240800  0.85759200  0.39294800  1
  Ni  Ni17  1  0.53081400  0.06162700  0.20845300  1
  Ni  Ni18  1  0.46918600  0.53081400  0.70845300  1
  Ni  Ni19  1  0.93837300  0.46918600  0.20845300  1
  Cu  Cu20  1  0.33333300  0.66666700  0.10023400  1
  Cu  Cu21  1  0.66666700  0.33333300  0.60023400  1
