# generated using pymatgen
data_Cu4Ni3C37
_symmetry_space_group_name_H-M   'P 1'
_cell_length_a   9.96199634
_cell_length_b   9.96199634
_cell_length_c   13.46531400
_cell_angle_alpha   90.00000000
_cell_angle_beta   90.00000000
_cell_angle_gamma   120.00000225
_symmetry_Int_Tables_number   1
_chemical_formula_structural   Cu4Ni3C37
_chemical_formula_sum   'Cu8 Ni6 C74'
_cell_volume   1157.28377045
_cell_formula_units_Z   2
loop_
 _symmetry_equiv_pos_site_id
 _symmetry_equiv_pos_as_xyz
  1  'x, y, z'
loop_
 _atom_site_type_symbol
 _atom_site_label
 _atom_site_symmetry_multiplicity
 _atom_site_fract_x
 _atom_site_fract_y
 _atom_site_fract_z
 _atom_site_occupancy
  Ni  Ni0  1  0.33333300  0.66666700  0.75727700  1
  Ni  Ni1  1  0.00000000  0.00000000  0.12350900  1
  Ni  Ni2  1  0.33333300  0.66666700  0.25727700  1
  Ni  Ni3  1  0.66666700  0.33333300  0.95347500  1
  Ni  Ni4  1  0.66666700  0.33333300  0.45347500  1
  Ni  Ni5  1  0.00000000  0.00000000  0.62350900  1
  Cu  Cu6  1  0.23829700  0.95119400  0.31174000  1
  Cu  Cu7  1  0.71289700  0.95119400  0.81174000  1
  Cu  Cu8  1  0.00000000  0.00000000  0.36103200  1
  Cu  Cu9  1  0.00000000  0.00000000  0.86103200  1
  Cu  Cu10  1  0.04880600  0.28710300  0.31174000  1
  Cu  Cu11  1  0.04880600  0.76170300  0.81174000  1
  Cu  Cu12  1  0.71289700  0.76170300  0.31174000  1
  Cu  Cu13  1  0.23829700  0.28710300  0.81174000  1
  C  C14  1  0.91386100  0.32530100  0.70666900  1
  C  C15  1  0.60397300  0.92092400  0.50090900  1
  C  C16  1  0.41143900  0.08613900  0.70666900  1
  C  C17  1  0.67469900  0.08613900  0.20666900  1
  C  C18  1  0.07907600  0.68304900  0.50090900  1
  C  C19  1  0.91386100  0.58856100  0.20666900  1
  C  C20  1  0.31695100  0.92092400  0.00090900  1
  C  C21  1  0.67469900  0.58856100  0.70666900  1
  C  C22  1  0.07907600  0.39602700  0.00090900  1
  C  C23  1  0.31695100  0.39602700  0.50090900  1
  C  C24  1  0.41143900  0.32530100  0.20666900  1
  C  C25  1  0.60397300  0.68304900  0.00090900  1
  C  C26  1  0.81084800  0.68978400  0.08371700  1
  C  C27  1  0.16565600  0.65464500  0.95479000  1
  C  C28  1  0.44316400  0.12977600  0.88476900  1
  C  C29  1  0.28503700  0.42516900  0.31096400  1
  C  C30  1  0.89341000  0.08085200  0.26422500  1
  C  C31  1  0.48899000  0.83434400  0.95479000  1
  C  C32  1  0.44316400  0.31338800  0.38476900  1
  C  C33  1  0.14013200  0.42516900  0.81096400  1
  C  C34  1  0.18854400  0.88321200  0.62430400  1
  C  C35  1  0.41560200  0.54602000  0.64690800  1
  C  C36  1  0.28503700  0.85986800  0.81096400  1
  C  C37  1  0.13041800  0.58439800  0.64690800  1
  C  C38  1  0.68661200  0.55683600  0.88476900  1
  C  C39  1  0.69466800  0.81145600  0.62430400  1
  C  C40  1  0.11678800  0.81145600  0.12430400  1
  C  C41  1  0.80050300  0.90621100  0.93311800  1
  C  C42  1  0.89341000  0.81255800  0.76422500  1
  C  C43  1  0.31021600  0.12106400  0.08371700  1
  C  C44  1  0.88409700  0.46476800  0.05187100  1
  C  C45  1  0.58067100  0.11590300  0.05187100  1
  C  C46  1  0.41560200  0.86958200  0.14690800  1
  C  C47  1  0.64813300  0.55413800  0.26264800  1
  C  C48  1  0.11678800  0.30533200  0.62430400  1
  C  C49  1  0.58067100  0.46476800  0.55187100  1
  C  C50  1  0.45398000  0.58439800  0.14690800  1
  C  C51  1  0.80050300  0.89429200  0.43311800  1
  C  C52  1  0.57483100  0.85986800  0.31096400  1
  C  C53  1  0.90600500  0.35186700  0.26264800  1
  C  C54  1  0.10570800  0.90621100  0.43311800  1
  C  C55  1  0.09378900  0.19949700  0.43311800  1
  C  C56  1  0.18854400  0.30533200  0.12430400  1
  C  C57  1  0.31021600  0.18915200  0.58371700  1
  C  C58  1  0.68661200  0.12977600  0.38476900  1
  C  C59  1  0.87893600  0.68978400  0.58371700  1
  C  C60  1  0.09378900  0.89429200  0.93311800  1
  C  C61  1  0.87022400  0.31338800  0.88476900  1
  C  C62  1  0.34535500  0.51101000  0.95479000  1
  C  C63  1  0.64813300  0.09399500  0.76264800  1
  C  C64  1  0.44586200  0.09399500  0.26264800  1
  C  C65  1  0.87893600  0.18915200  0.08371700  1
  C  C66  1  0.81084800  0.12106400  0.58371700  1
  C  C67  1  0.53523200  0.41932900  0.05187100  1
  C  C68  1  0.34535500  0.83434400  0.45479000  1
  C  C69  1  0.14013200  0.71496300  0.31096400  1
  C  C70  1  0.45398000  0.86958200  0.64690800  1
  C  C71  1  0.53523200  0.11590300  0.55187100  1
  C  C72  1  0.10570800  0.19949700  0.93311800  1
  C  C73  1  0.44586200  0.35186700  0.76264800  1
  C  C74  1  0.66666700  0.33333300  0.69401100  1
  C  C75  1  0.88409700  0.41932900  0.55187100  1
  C  C76  1  0.13041800  0.54602000  0.14690800  1
  C  C77  1  0.90600500  0.55413800  0.76264800  1
  C  C78  1  0.57483100  0.71496300  0.81096400  1
  C  C79  1  0.18744200  0.08085200  0.76422500  1
  C  C80  1  0.91914800  0.10659000  0.76422500  1
  C  C81  1  0.91914800  0.81255800  0.26422500  1
  C  C82  1  0.87022400  0.55683600  0.38476900  1
  C  C83  1  0.18744200  0.10659000  0.26422500  1
  C  C84  1  0.66666700  0.33333300  0.19401100  1
  C  C85  1  0.16565600  0.51101000  0.45479000  1
  C  C86  1  0.69466800  0.88321200  0.12430400  1
  C  C87  1  0.48899000  0.65464500  0.45479000  1
