# generated using pymatgen
data_CuNiC10
_symmetry_space_group_name_H-M   'P 1'
_cell_length_a   5.91770400
_cell_length_b   7.84473900
_cell_length_c   9.06925783
_cell_angle_alpha   73.91406505
_cell_angle_beta   90.00000000
_cell_angle_gamma   90.00000000
_symmetry_Int_Tables_number   1
_chemical_formula_structural   CuNiC10
_chemical_formula_sum   'Cu2 Ni2 C20'
_cell_volume   404.53659534
_cell_formula_units_Z   2
loop_
 _symmetry_equiv_pos_site_id
 _symmetry_equiv_pos_as_xyz
  1  'x, y, z'
loop_
 _atom_site_type_symbol
 _atom_site_label
 _atom_site_symmetry_multiplicity
 _atom_site_fract_x
 _atom_site_fract_y
 _atom_site_fract_z
 _atom_site_occupancy
  C  C0  1  0.25000000  0.69137100  0.07407200  1
  C  C1  1  0.75000000  0.30862900  0.92592800  1
  C  C2  1  0.75000000  0.33402900  0.41154200  1
  C  C3  1  0.25000000  0.66597100  0.58845800  1
  Ni  Ni4  1  0.25000000  0.16938700  0.73421200  1
  Ni  Ni5  1  0.75000000  0.83061300  0.26578800  1
  Cu  Cu6  1  0.75000000  0.81480600  0.82943300  1
  Cu  Cu7  1  0.25000000  0.18519400  0.17056700  1
  C  C8  1  0.25000000  0.11567700  0.45937800  1
  C  C9  1  0.75000000  0.88432300  0.54062200  1
  C  C10  1  0.00182600  0.63408900  0.34676900  1
  C  C11  1  0.50643200  0.99161200  0.83350700  1
  C  C12  1  0.49202800  0.36805400  0.16120000  1
  C  C13  1  0.99202800  0.63194600  0.83880000  1
  C  C14  1  0.99356800  0.99161200  0.83350700  1
  C  C15  1  0.50797200  0.63194600  0.83880000  1
  C  C16  1  0.49356800  0.00838800  0.16649300  1
  C  C17  1  0.49817400  0.63408900  0.34676900  1
  C  C18  1  0.00643200  0.00838800  0.16649300  1
  C  C19  1  0.75000000  0.73904500  0.06288000  1
  C  C20  1  0.50182600  0.36591100  0.65323100  1
  C  C21  1  0.99817400  0.36591100  0.65323100  1
  C  C22  1  0.25000000  0.26095500  0.93712000  1
  C  C23  1  0.00797200  0.36805400  0.16120000  1
