# generated using pymatgen
data_Cu2Ni7C5
_symmetry_space_group_name_H-M   'P 1'
_cell_length_a   4.66892600
_cell_length_b   6.93008000
_cell_length_c   12.04696200
_cell_angle_alpha   90.00000000
_cell_angle_beta   90.00000000
_cell_angle_gamma   90.00000000
_symmetry_Int_Tables_number   1
_chemical_formula_structural   Cu2Ni7C5
_chemical_formula_sum   'Cu4 Ni14 C10'
_cell_volume   389.79187224
_cell_formula_units_Z   2
loop_
 _symmetry_equiv_pos_site_id
 _symmetry_equiv_pos_as_xyz
  1  'x, y, z'
loop_
 _atom_site_type_symbol
 _atom_site_label
 _atom_site_symmetry_multiplicity
 _atom_site_fract_x
 _atom_site_fract_y
 _atom_site_fract_z
 _atom_site_occupancy
  C  C0  1  0.39203300  0.25000000  0.75000000  1
  C  C1  1  0.60796700  0.75000000  0.25000000  1
  C  C2  1  0.00000000  0.50000000  0.50000000  1
  C  C3  1  0.00000000  0.50000000  0.00000000  1
  C  C4  1  0.00000000  0.00000000  0.50000000  1
  C  C5  1  0.00000000  0.00000000  0.00000000  1
  C  C6  1  0.51323500  0.25000000  0.37393600  1
  C  C7  1  0.48676500  0.75000000  0.87393600  1
  C  C8  1  0.48676500  0.75000000  0.62606400  1
  C  C9  1  0.51323500  0.25000000  0.12606400  1
  Ni  Ni10  1  0.62590800  0.75000000  0.75000000  1
  Ni  Ni11  1  0.37409200  0.25000000  0.25000000  1
  Ni  Ni12  1  0.74948300  0.75000000  0.94987100  1
  Ni  Ni13  1  0.25051700  0.25000000  0.05012900  1
  Ni  Ni14  1  0.25051700  0.25000000  0.44987100  1
  Ni  Ni15  1  0.74948300  0.75000000  0.55012900  1
  Ni  Ni16  1  0.30981600  0.93483300  0.88387700  1
  Ni  Ni17  1  0.69018400  0.06516700  0.38387700  1
  Ni  Ni18  1  0.30981600  0.56516700  0.61612300  1
  Ni  Ni19  1  0.69018400  0.06516700  0.11612300  1
  Ni  Ni20  1  0.69018400  0.43483300  0.38387700  1
  Ni  Ni21  1  0.69018400  0.43483300  0.11612300  1
  Ni  Ni22  1  0.30981600  0.56516700  0.88387700  1
  Ni  Ni23  1  0.30981600  0.93483300  0.61612300  1
  Cu  Cu24  1  0.12836800  0.75000000  0.38605300  1
  Cu  Cu25  1  0.12836800  0.75000000  0.11394700  1
  Cu  Cu26  1  0.87163200  0.25000000  0.61394700  1
  Cu  Cu27  1  0.87163200  0.25000000  0.88605300  1
