# generated using pymatgen
data_Cu3(NiC6)2
_symmetry_space_group_name_H-M   'P 1'
_cell_length_a   5.79118400
_cell_length_b   7.85733500
_cell_length_c   14.10742700
_cell_angle_alpha   90.00000000
_cell_angle_beta   90.00000000
_cell_angle_gamma   90.00000000
_symmetry_Int_Tables_number   1
_chemical_formula_structural   Cu3(NiC6)2
_chemical_formula_sum   'Cu12 Ni8 C48'
_cell_volume   641.93409837
_cell_formula_units_Z   4
loop_
 _symmetry_equiv_pos_site_id
 _symmetry_equiv_pos_as_xyz
  1  'x, y, z'
loop_
 _atom_site_type_symbol
 _atom_site_label
 _atom_site_symmetry_multiplicity
 _atom_site_fract_x
 _atom_site_fract_y
 _atom_site_fract_z
 _atom_site_occupancy
  C  C0  1  0.43268200  0.83194900  0.05020100  1
  C  C1  1  0.66553300  0.20774500  0.14564400  1
  C  C2  1  0.19258900  0.20992700  0.43481000  1
  C  C3  1  0.36182000  0.40988700  0.25861100  1
  C  C4  1  0.98093700  0.76521300  0.66671800  1
  C  C5  1  0.02541200  0.83458500  0.14042800  1
  C  C6  1  0.86182000  0.90988700  0.24138900  1
  C  C7  1  0.51906300  0.76521300  0.16671800  1
  C  C8  1  0.16553300  0.70774500  0.35435600  1
  C  C9  1  0.56731800  0.33194900  0.94979900  1
  C  C10  1  0.13818000  0.40988700  0.75861100  1
  C  C11  1  0.83446700  0.20774500  0.64564400  1
  C  C12  1  0.93268200  0.33194900  0.44979900  1
  C  C13  1  0.98270700  0.06472100  0.70908100  1
  C  C14  1  0.30741100  0.20992700  0.93481000  1
  C  C15  1  0.33446700  0.70774500  0.85435600  1
  C  C16  1  0.47630900  0.05689000  0.66999400  1
  C  C17  1  0.51729300  0.06472100  0.20908100  1
  C  C18  1  0.01906300  0.26521300  0.33328200  1
  C  C19  1  0.80741100  0.70992700  0.56519000  1
  C  C20  1  0.27017200  0.50112300  0.46037000  1
  C  C21  1  0.52541200  0.33458500  0.35957200  1
  C  C22  1  0.02369100  0.05689000  0.16999400  1
  C  C23  1  0.97630900  0.55689000  0.83000600  1
  C  C24  1  0.48093700  0.26521300  0.83328200  1
  C  C25  1  0.48270700  0.56472100  0.79091900  1
  C  C26  1  0.72982800  0.00112300  0.53963000  1
  C  C27  1  0.22982800  0.50112300  0.96037000  1
  C  C28  1  0.97458800  0.33458500  0.85957200  1
  C  C29  1  0.47458800  0.83458500  0.64042800  1
  C  C30  1  0.63818000  0.90988700  0.74138900  1
  C  C31  1  0.69258900  0.70992700  0.06519000  1
  C  C32  1  0.77017200  0.00112300  0.03963000  1
  C  C33  1  0.01729300  0.56472100  0.29091900  1
  C  C34  1  0.06731800  0.83194900  0.55020100  1
  C  C35  1  0.52369100  0.55689000  0.33000600  1
  Ni  Ni36  1  0.57944500  0.80587400  0.09676200  1
  Ni  Ni37  1  0.42055500  0.30587400  0.90323800  1
  Ni  Ni38  1  0.92055500  0.80587400  0.59676200  1
  Ni  Ni39  1  0.07944500  0.30587400  0.40323800  1
  Ni  Ni40  1  0.57728100  0.93919700  0.66966800  1
  Ni  Ni41  1  0.42271900  0.43919700  0.33033200  1
  Ni  Ni42  1  0.07728100  0.43919700  0.83033200  1
  Ni  Ni43  1  0.92271900  0.93919700  0.16966800  1
  Cu  Cu44  1  0.06382500  0.60042600  0.35880500  1
  Cu  Cu45  1  0.50547500  0.91919500  0.39555000  1
  Cu  Cu46  1  0.93617500  0.10042600  0.64119500  1
  Cu  Cu47  1  0.49452500  0.41919500  0.60445000  1
  Cu  Cu48  1  0.43617500  0.60042600  0.85880500  1
  Cu  Cu49  1  0.56382500  0.10042600  0.14119500  1
  Cu  Cu50  1  0.71539400  0.96581900  0.10805900  1
  Cu  Cu51  1  0.28460600  0.46581900  0.89194100  1
  Cu  Cu52  1  0.78460600  0.96581900  0.60805900  1
  Cu  Cu53  1  0.21539400  0.46581900  0.39194100  1
  Cu  Cu54  1  0.00547500  0.41919500  0.10445000  1
  Cu  Cu55  1  0.99452500  0.91919500  0.89555000  1
  C  C56  1  0.67111800  0.02218300  0.41048000  1
  C  C57  1  0.40283000  0.91884800  0.31559400  1
  C  C58  1  0.94215200  0.31701800  0.04035800  1
  C  C59  1  0.59717000  0.41884800  0.68440600  1
  C  C60  1  0.09717000  0.91884800  0.81559400  1
  C  C61  1  0.05784800  0.81701800  0.95964200  1
  C  C62  1  0.82888200  0.02218300  0.91048000  1
  C  C63  1  0.44215200  0.81701800  0.45964200  1
  C  C64  1  0.32888200  0.52218300  0.58952000  1
  C  C65  1  0.90283000  0.41884800  0.18440600  1
  C  C66  1  0.17111800  0.52218300  0.08952000  1
  C  C67  1  0.55784800  0.31701800  0.54035800  1
