# generated using pymatgen
data_CuNi
_symmetry_space_group_name_H-M   'P 1'
_cell_length_a   10.70803500
_cell_length_b   7.68063100
_cell_length_c   13.71875427
_cell_angle_alpha   59.46799901
_cell_angle_beta   90.00000000
_cell_angle_gamma   90.00000000
_symmetry_Int_Tables_number   1
_chemical_formula_structural   CuNi
_chemical_formula_sum   'Cu16 Ni16'
_cell_volume   971.84896492
_cell_formula_units_Z   16
loop_
 _symmetry_equiv_pos_site_id
 _symmetry_equiv_pos_as_xyz
  1  'x, y, z'
loop_
 _atom_site_type_symbol
 _atom_site_label
 _atom_site_symmetry_multiplicity
 _atom_site_fract_x
 _atom_site_fract_y
 _atom_site_fract_z
 _atom_site_occupancy
  Ni  Ni0  1  0.84052200  0.29558000  0.50540600  1
  Ni  Ni1  1  0.34052200  0.70442000  0.99459400  1
  Ni  Ni2  1  0.15947800  0.70442000  0.49459400  1
  Ni  Ni3  1  0.65947800  0.29558000  0.00540600  1
  Ni  Ni4  1  0.65198700  0.83242100  0.67551100  1
  Ni  Ni5  1  0.15198700  0.16757900  0.82448900  1
  Ni  Ni6  1  0.34801300  0.16757900  0.32448900  1
  Ni  Ni7  1  0.84801300  0.83242100  0.17551100  1
  Ni  Ni8  1  0.62618000  0.20399100  0.73977700  1
  Ni  Ni9  1  0.12618000  0.79600900  0.76022300  1
  Ni  Ni10  1  0.37382000  0.79600900  0.26022300  1
  Ni  Ni11  1  0.87382000  0.20399100  0.23977700  1
  Ni  Ni12  1  0.52303300  0.15687800  0.58607500  1
  Ni  Ni13  1  0.02303300  0.84312200  0.91392500  1
  Ni  Ni14  1  0.47696700  0.84312200  0.41392500  1
  Ni  Ni15  1  0.97696700  0.15687800  0.08607500  1
  Cu  Cu16  1  0.83674700  0.95358200  0.58467000  1
  Cu  Cu17  1  0.33674700  0.04641800  0.91533000  1
  Cu  Cu18  1  0.16325300  0.04641800  0.41533000  1
  Cu  Cu19  1  0.66325300  0.95358200  0.08467000  1
  Cu  Cu20  1  0.66161100  0.86179300  0.83342200  1
  Cu  Cu21  1  0.16161100  0.13820700  0.66657800  1
  Cu  Cu22  1  0.33838900  0.13820700  0.16657800  1
  Cu  Cu23  1  0.83838900  0.86179300  0.33342200  1
  Cu  Cu24  1  0.80772500  0.34947100  0.65167000  1
  Cu  Cu25  1  0.30772500  0.65052900  0.84833000  1
  Cu  Cu26  1  0.19227500  0.65052900  0.34833000  1
  Cu  Cu27  1  0.69227500  0.34947100  0.15167000  1
  Cu  Cu28  1  0.63987800  0.35576900  0.43709900  1
  Cu  Cu29  1  0.13987800  0.64423100  0.06290100  1
  Cu  Cu30  1  0.36012200  0.64423100  0.56290100  1
  Cu  Cu31  1  0.86012200  0.35576900  0.93709900  1
