# generated using pymatgen
data_Cu14NiC25
_symmetry_space_group_name_H-M   'P 1'
_cell_length_a   10.62989200
_cell_length_b   6.51158100
_cell_length_c   12.46441372
_cell_angle_alpha   68.86256985
_cell_angle_beta   90.00000000
_cell_angle_gamma   90.00000000
_symmetry_Int_Tables_number   1
_chemical_formula_structural   Cu14NiC25
_chemical_formula_sum   'Cu28 Ni2 C50'
_cell_volume   804.70664297
_cell_formula_units_Z   2
loop_
 _symmetry_equiv_pos_site_id
 _symmetry_equiv_pos_as_xyz
  1  'x, y, z'
loop_
 _atom_site_type_symbol
 _atom_site_label
 _atom_site_symmetry_multiplicity
 _atom_site_fract_x
 _atom_site_fract_y
 _atom_site_fract_z
 _atom_site_occupancy
  C  C0  1  0.74532200  0.50781200  0.50090100  1
  C  C1  1  0.25467800  0.50781200  0.00090100  1
  C  C2  1  0.19775300  0.75784700  0.50495900  1
  C  C3  1  0.06739000  0.49935100  0.14237900  1
  C  C4  1  0.27185500  0.08010200  0.11944500  1
  C  C5  1  0.80224700  0.75784700  0.00495900  1
  C  C6  1  0.41267200  0.18728800  0.09623100  1
  C  C7  1  0.22227800  0.32903300  0.84116800  1
  C  C8  1  0.28342000  0.68557100  0.15836000  1
  C  C9  1  0.93261000  0.49935100  0.64237900  1
  C  C10  1  0.68358400  0.17926300  0.87834800  1
  C  C11  1  0.69373400  0.09775000  0.08437400  1
  C  C12  1  0.85040800  0.13643000  0.88034100  1
  C  C13  1  0.78773200  0.35934700  0.91703300  1
  C  C14  1  0.44744000  0.74386900  0.88674700  1
  C  C15  1  0.25256200  0.70814400  0.64864200  1
  C  C16  1  0.58732800  0.18728800  0.59623100  1
  C  C17  1  0.72814500  0.08010200  0.61944500  1
  C  C18  1  0.40412600  0.51819900  0.17311400  1
  C  C19  1  0.31641600  0.17926300  0.37834800  1
  C  C20  1  0.63927800  0.80048500  0.03008800  1
  C  C21  1  0.77772200  0.32903300  0.34116800  1
  C  C22  1  0.14959200  0.13643000  0.38034100  1
  C  C23  1  0.56255600  0.51558400  0.35761800  1
  C  C24  1  0.74743800  0.70814400  0.14864200  1
  C  C25  1  0.85003900  0.04419400  0.08423800  1
  C  C26  1  0.10569800  0.50406800  0.82455600  1
  C  C27  1  0.06111300  0.26752000  0.11553000  1
  C  C28  1  0.89430200  0.50406800  0.32455600  1
  C  C29  1  0.23107200  0.93388000  0.88443800  1
  C  C30  1  0.59587400  0.51819900  0.67311400  1
  C  C31  1  0.55256000  0.74386900  0.38674700  1
  C  C32  1  0.76892800  0.93388000  0.38443800  1
  C  C33  1  0.14996100  0.04419400  0.58423800  1
  C  C34  1  0.36072200  0.80048500  0.53008800  1
  C  C35  1  0.30626600  0.09775000  0.58437400  1
  C  C36  1  0.21226800  0.35934700  0.41703300  1
  C  C37  1  0.90677200  0.81710900  0.40494000  1
  C  C38  1  0.43744400  0.51558400  0.85761800  1
  C  C39  1  0.93888700  0.26752000  0.61553000  1
  C  C40  1  0.09322800  0.81710900  0.90494000  1
  C  C41  1  0.71658000  0.68557100  0.65836000  1
  C  C42  1  0.73606200  0.80955900  0.05757100  1
  C  C43  1  0.26393800  0.80955900  0.55757100  1
  C  C44  1  0.77211100  0.19073500  0.92051000  1
  C  C45  1  0.22788900  0.19073500  0.42051000  1
  C  C46  1  0.06450200  0.83402700  0.23471300  1
  C  C47  1  0.57154700  0.17571000  0.26364600  1
  C  C48  1  0.42845300  0.17571000  0.76364600  1
  C  C49  1  0.93549800  0.83402700  0.73471300  1
  Ni  Ni50  1  0.23550600  0.04203700  0.54327100  1
  Ni  Ni51  1  0.76449400  0.04203700  0.04327100  1
  Cu  Cu52  1  0.18164500  0.80603900  0.93757100  1
  Cu  Cu53  1  0.00060400  0.02824300  0.14739400  1
  Cu  Cu54  1  0.17625200  0.42525100  0.87602100  1
  Cu  Cu55  1  0.79763000  0.84690000  0.70860000  1
  Cu  Cu56  1  0.32313300  0.20461800  0.06647300  1
  Cu  Cu57  1  0.82374800  0.42525100  0.37602100  1
  Cu  Cu58  1  0.98859200  0.62519600  0.72803400  1
  Cu  Cu59  1  0.55506100  0.16479000  0.14647300  1
  Cu  Cu60  1  0.67686700  0.20461800  0.56647300  1
  Cu  Cu61  1  0.47828000  0.39154100  0.76281400  1
  Cu  Cu62  1  0.04400300  0.83581000  0.35200800  1
  Cu  Cu63  1  0.20237000  0.84690000  0.20860000  1
  Cu  Cu64  1  0.81835500  0.80603900  0.43757100  1
  Cu  Cu65  1  0.49526900  0.99101500  0.85120100  1
  Cu  Cu66  1  0.71012100  0.16251000  0.28990900  1
  Cu  Cu67  1  0.28987900  0.16251000  0.78990900  1
  Cu  Cu68  1  0.41576500  0.58619600  0.91437800  1
  Cu  Cu69  1  0.99939600  0.02824300  0.64739400  1
  Cu  Cu70  1  0.52172000  0.39154100  0.26281400  1
  Cu  Cu71  1  0.09693900  0.42181800  0.09059400  1
  Cu  Cu72  1  0.95599700  0.83581000  0.85200800  1
  Cu  Cu73  1  0.66439000  0.60285900  0.62026900  1
  Cu  Cu74  1  0.50473100  0.99101500  0.35120100  1
  Cu  Cu75  1  0.33561000  0.60285900  0.12026900  1
  Cu  Cu76  1  0.90306100  0.42181800  0.59059400  1
  Cu  Cu77  1  0.44493900  0.16479000  0.64647300  1
  Cu  Cu78  1  0.58423500  0.58619600  0.41437800  1
  Cu  Cu79  1  0.01140800  0.62519600  0.22803400  1
