# generated using pymatgen
data_Cu(NiC6)2
_symmetry_space_group_name_H-M   'P 1'
_cell_length_a   5.80239917
_cell_length_b   5.80239917
_cell_length_c   7.93098777
_cell_angle_alpha   69.28455570
_cell_angle_beta   69.28455570
_cell_angle_gamma   72.83324371
_symmetry_Int_Tables_number   1
_chemical_formula_structural   Cu(NiC6)2
_chemical_formula_sum   'Cu1 Ni2 C12'
_cell_volume   229.15469015
_cell_formula_units_Z   1
loop_
 _symmetry_equiv_pos_site_id
 _symmetry_equiv_pos_as_xyz
  1  'x, y, z'
loop_
 _atom_site_type_symbol
 _atom_site_label
 _atom_site_symmetry_multiplicity
 _atom_site_fract_x
 _atom_site_fract_y
 _atom_site_fract_z
 _atom_site_occupancy
  C  C0  1  0.00000000  0.00000000  0.00000000  1
  Ni  Ni1  1  0.50425500  0.50425500  0.76531300  1
  Ni  Ni2  1  0.49574500  0.49574500  0.23468700  1
  Cu  Cu3  1  0.00000000  0.00000000  0.50000000  1
  C  C4  1  0.22107100  0.80548900  0.69194100  1
  C  C5  1  0.19451100  0.77893000  0.30805900  1
  C  C6  1  0.77893000  0.19451100  0.30805900  1
  C  C7  1  0.80548900  0.22107000  0.69194100  1
  C  C8  1  0.50000000  0.50000000  0.50000000  1
  C  C9  1  0.66984900  0.33015100  0.00000000  1
  C  C10  1  0.33015100  0.66984900  0.00000000  1
  C  C11  1  0.25138400  0.25138400  0.35328400  1
  C  C12  1  0.74861600  0.74861600  0.64671600  1
  C  C13  1  0.26749400  0.26749400  0.88973300  1
  C  C14  1  0.73250600  0.73250600  0.11026700  1
