# generated using pymatgen
data_CuNiC4
_symmetry_space_group_name_H-M   'P 1'
_cell_length_a   8.62199000
_cell_length_b   4.76287100
_cell_length_c   7.81796159
_cell_angle_alpha   63.10176833
_cell_angle_beta   90.00000000
_cell_angle_gamma   90.00000000
_symmetry_Int_Tables_number   1
_chemical_formula_structural   CuNiC4
_chemical_formula_sum   'Cu4 Ni4 C16'
_cell_volume   286.31422868
_cell_formula_units_Z   4
loop_
 _symmetry_equiv_pos_site_id
 _symmetry_equiv_pos_as_xyz
  1  'x, y, z'
loop_
 _atom_site_type_symbol
 _atom_site_label
 _atom_site_symmetry_multiplicity
 _atom_site_fract_x
 _atom_site_fract_y
 _atom_site_fract_z
 _atom_site_occupancy
  Ni  Ni0  1  0.50000000  0.00000000  0.50000000  1
  Ni  Ni1  1  0.00000000  0.00000000  0.00000000  1
  Ni  Ni2  1  0.50000000  0.50000000  0.00000000  1
  Ni  Ni3  1  0.00000000  0.50000000  0.50000000  1
  Cu  Cu4  1  0.67643600  0.13609100  0.81286900  1
  Cu  Cu5  1  0.82356400  0.13609100  0.31286900  1
  Cu  Cu6  1  0.17643600  0.86390900  0.68713100  1
  Cu  Cu7  1  0.32356400  0.86390900  0.18713100  1
  C  C8  1  0.62732000  0.82746800  0.98568900  1
  C  C9  1  0.12732000  0.17253200  0.51431100  1
  C  C10  1  0.60962300  0.20509600  0.61447100  1
  C  C11  1  0.63919700  0.43351800  0.84032000  1
  C  C12  1  0.13919700  0.56648200  0.65968000  1
  C  C13  1  0.14212600  0.86484200  0.20714300  1
  C  C14  1  0.89037700  0.20509600  0.11447100  1
  C  C15  1  0.85787400  0.13515800  0.79285700  1
  C  C16  1  0.86080300  0.43351800  0.34032000  1
  C  C17  1  0.37268000  0.17253200  0.01431100  1
  C  C18  1  0.64212600  0.13515800  0.29285700  1
  C  C19  1  0.36080300  0.56648200  0.15968000  1
  C  C20  1  0.87268000  0.82746800  0.48568900  1
  C  C21  1  0.39037700  0.79490400  0.38552900  1
  C  C22  1  0.35787400  0.86484200  0.70714300  1
  C  C23  1  0.10962300  0.79490400  0.88552900  1
