# generated using pymatgen
data_CuNi3C8
_symmetry_space_group_name_H-M   'P 1'
_cell_length_a   5.58181700
_cell_length_b   6.90723700
_cell_length_c   9.44738300
_cell_angle_alpha   90.00000000
_cell_angle_beta   90.00000000
_cell_angle_gamma   90.00000000
_symmetry_Int_Tables_number   1
_chemical_formula_structural   CuNi3C8
_chemical_formula_sum   'Cu2 Ni6 C16'
_cell_volume   364.24321774
_cell_formula_units_Z   2
loop_
 _symmetry_equiv_pos_site_id
 _symmetry_equiv_pos_as_xyz
  1  'x, y, z'
loop_
 _atom_site_type_symbol
 _atom_site_label
 _atom_site_symmetry_multiplicity
 _atom_site_fract_x
 _atom_site_fract_y
 _atom_site_fract_z
 _atom_site_occupancy
  Ni  Ni0  1  0.00000000  0.23253700  0.33267500  1
  Ni  Ni1  1  0.00000000  0.76746300  0.66732500  1
  Ni  Ni2  1  0.50000000  0.73253700  0.16732500  1
  Ni  Ni3  1  0.50000000  0.50000000  0.50000000  1
  Ni  Ni4  1  0.50000000  0.26746300  0.83267500  1
  Ni  Ni5  1  0.00000000  0.00000000  0.00000000  1
  Cu  Cu6  1  0.00000000  0.50000000  0.00000000  1
  Cu  Cu7  1  0.50000000  0.00000000  0.50000000  1
  C  C8  1  0.00000000  0.76346600  0.33398700  1
  C  C9  1  0.00000000  0.23653400  0.66601300  1
  C  C10  1  0.50000000  0.73653400  0.83398700  1
  C  C11  1  0.50000000  0.26346600  0.16601300  1
  C  C12  1  0.71633100  0.29975500  0.09683100  1
  C  C13  1  0.21633100  0.20024500  0.59683100  1
  C  C14  1  0.50000000  0.19231900  0.30419500  1
  C  C15  1  0.71633100  0.70024500  0.90316900  1
  C  C16  1  0.28366900  0.29975500  0.09683100  1
  C  C17  1  0.21633100  0.79975500  0.40316900  1
  C  C18  1  0.78366900  0.20024500  0.59683100  1
  C  C19  1  0.28366900  0.70024500  0.90316900  1
  C  C20  1  0.78366900  0.79975500  0.40316900  1
  C  C21  1  0.00000000  0.30768100  0.80419500  1
  C  C22  1  0.00000000  0.69231900  0.19580500  1
  C  C23  1  0.50000000  0.80768100  0.69580500  1
