# generated using pymatgen
data_Cu8NiC3
_symmetry_space_group_name_H-M   'P 1'
_cell_length_a   7.56718800
_cell_length_b   9.87351000
_cell_length_c   21.55839980
_cell_angle_alpha   85.41797716
_cell_angle_beta   90.00000000
_cell_angle_gamma   90.00000000
_symmetry_Int_Tables_number   1
_chemical_formula_structural   Cu8NiC3
_chemical_formula_sum   'Cu64 Ni8 C24'
_cell_volume   1605.58160825
_cell_formula_units_Z   8
loop_
 _symmetry_equiv_pos_site_id
 _symmetry_equiv_pos_as_xyz
  1  'x, y, z'
loop_
 _atom_site_type_symbol
 _atom_site_label
 _atom_site_symmetry_multiplicity
 _atom_site_fract_x
 _atom_site_fract_y
 _atom_site_fract_z
 _atom_site_occupancy
  C  C0  1  0.24994300  0.32869900  0.01560200  1
  C  C1  1  0.27330600  0.23327800  0.25196300  1
  C  C2  1  0.74994300  0.67130100  0.48439800  1
  C  C3  1  0.75005700  0.67130100  0.98439800  1
  C  C4  1  0.10824100  0.79672800  0.10175200  1
  C  C5  1  0.22669400  0.23327800  0.75196300  1
  C  C6  1  0.77330600  0.76672200  0.24803700  1
  C  C7  1  0.39175900  0.79672800  0.60175200  1
  C  C8  1  0.72669400  0.76672200  0.74803700  1
  C  C9  1  0.25005700  0.32869900  0.51560200  1
  C  C10  1  0.89175900  0.20327200  0.89824800  1
  C  C11  1  0.60824100  0.20327200  0.39824800  1
  C  C12  1  0.24235900  0.69066600  0.86057100  1
  C  C13  1  0.65241000  0.11216700  0.09998000  1
  C  C14  1  0.15241000  0.88783300  0.40002000  1
  C  C15  1  0.84759000  0.11216700  0.59998000  1
  C  C16  1  0.25764100  0.69066600  0.36057100  1
  C  C17  1  0.75764100  0.30933400  0.13942900  1
  C  C18  1  0.34759000  0.88783300  0.90002000  1
  C  C19  1  0.74235900  0.30933400  0.63942900  1
  C  C20  1  0.76101800  0.19926400  0.11476100  1
  C  C21  1  0.23898200  0.80073600  0.88523900  1
  C  C22  1  0.26101800  0.80073600  0.38523900  1
  C  C23  1  0.73898200  0.19926400  0.61476100  1
  Ni  Ni24  1  0.06509400  0.97330600  0.41618300  1
  Ni  Ni25  1  0.93490600  0.02669400  0.58381700  1
  Ni  Ni26  1  0.43490600  0.97330600  0.91618300  1
  Ni  Ni27  1  0.56509400  0.02669400  0.08381700  1
  Ni  Ni28  1  0.72976800  0.41046500  0.66195900  1
  Ni  Ni29  1  0.77023200  0.41046500  0.16195900  1
  Ni  Ni30  1  0.22976800  0.58953500  0.83804100  1
  Ni  Ni31  1  0.27023200  0.58953500  0.33804100  1
  Cu  Cu32  1  0.25076900  0.90289000  0.65110000  1
  Cu  Cu33  1  0.10472300  0.20698300  0.18895900  1
  Cu  Cu34  1  0.47509000  0.18327000  0.20518900  1
  Cu  Cu35  1  0.46570400  0.26796500  0.32159100  1
  Cu  Cu36  1  0.58050800  0.67068000  0.91900900  1
  Cu  Cu37  1  0.82025900  0.85306000  0.96177400  1
  Cu  Cu38  1  0.06734800  0.06806100  0.91169500  1
  Cu  Cu39  1  0.10695900  0.28494400  0.31118300  1
  Cu  Cu40  1  0.56734800  0.93193900  0.58830500  1
  Cu  Cu41  1  0.26543200  0.05094700  0.28785500  1
  Cu  Cu42  1  0.28962300  0.51062200  0.98326400  1
  Cu  Cu43  1  0.76543200  0.94905300  0.21214500  1
  Cu  Cu44  1  0.41949200  0.32932000  0.08099100  1
  Cu  Cu45  1  0.97509000  0.81673000  0.29481100  1
  Cu  Cu46  1  0.75076900  0.09711000  0.84890000  1
  Cu  Cu47  1  0.43685300  0.32411000  0.44204200  1
  Cu  Cu48  1  0.94142300  0.61083100  0.93666200  1
  Cu  Cu49  1  0.55857700  0.61083100  0.43666200  1
  Cu  Cu50  1  0.06314700  0.32411000  0.94204200  1
  Cu  Cu51  1  0.91296900  0.73400500  0.54221900  1
  Cu  Cu52  1  0.28088600  0.84153300  0.52427600  1
  Cu  Cu53  1  0.60695900  0.71505600  0.18881700  1
  Cu  Cu54  1  0.71037700  0.48937800  0.01673600  1
  Cu  Cu55  1  0.39527700  0.20698300  0.68895900  1
  Cu  Cu56  1  0.96570400  0.73203500  0.17840900  1
  Cu  Cu57  1  0.41296900  0.26599500  0.95778100  1
  Cu  Cu58  1  0.43265200  0.06806100  0.41169500  1
  Cu  Cu59  1  0.23784600  0.63617200  0.11957800  1
  Cu  Cu60  1  0.68012400  0.58259600  0.77409700  1
  Cu  Cu61  1  0.02491000  0.18327000  0.70518900  1
  Cu  Cu62  1  0.71911400  0.15846700  0.47572400  1
  Cu  Cu63  1  0.39304100  0.28494400  0.81118300  1
  Cu  Cu64  1  0.91949200  0.67068000  0.41900900  1
  Cu  Cu65  1  0.26215400  0.63617200  0.61957800  1
  Cu  Cu66  1  0.03429600  0.26796500  0.82159100  1
  Cu  Cu67  1  0.44142300  0.38916900  0.56333800  1
  Cu  Cu68  1  0.89527700  0.79301700  0.81104100  1
  Cu  Cu69  1  0.18012400  0.41740400  0.72590300  1
  Cu  Cu70  1  0.23456800  0.05094700  0.78785500  1
  Cu  Cu71  1  0.58703100  0.73400500  0.04221900  1
  Cu  Cu72  1  0.52491000  0.81673000  0.79481100  1
  Cu  Cu73  1  0.17974100  0.14694000  0.03822600  1
  Cu  Cu74  1  0.53429600  0.73203500  0.67840900  1
  Cu  Cu75  1  0.76215400  0.36382800  0.88042200  1
  Cu  Cu76  1  0.08703100  0.26599500  0.45778100  1
  Cu  Cu77  1  0.32025900  0.14694000  0.53822600  1
  Cu  Cu78  1  0.89304100  0.71505600  0.68881700  1
  Cu  Cu79  1  0.24923100  0.90289000  0.15110000  1
  Cu  Cu80  1  0.73456800  0.94905300  0.71214500  1
  Cu  Cu81  1  0.31987600  0.41740400  0.22590300  1
  Cu  Cu82  1  0.08050800  0.32932000  0.58099100  1
  Cu  Cu83  1  0.67974100  0.85306000  0.46177400  1
  Cu  Cu84  1  0.81987600  0.58259600  0.27409700  1
  Cu  Cu85  1  0.60472300  0.79301700  0.31104100  1
  Cu  Cu86  1  0.78962300  0.48937800  0.51673600  1
  Cu  Cu87  1  0.93685300  0.67589000  0.05795800  1
  Cu  Cu88  1  0.21037700  0.51062200  0.48326400  1
  Cu  Cu89  1  0.78088600  0.15846700  0.97572400  1
  Cu  Cu90  1  0.56314700  0.67589000  0.55795800  1
  Cu  Cu91  1  0.93265200  0.93193900  0.08830500  1
  Cu  Cu92  1  0.21911400  0.84153300  0.02427600  1
  Cu  Cu93  1  0.05857700  0.38916900  0.06333800  1
  Cu  Cu94  1  0.74923100  0.09711000  0.34890000  1
  Cu  Cu95  1  0.73784600  0.36382800  0.38042200  1
