# generated using pymatgen
data_Cu5Ni4C5
_symmetry_space_group_name_H-M   'P 1'
_cell_length_a   7.37062500
_cell_length_b   9.46344701
_cell_length_c   10.40090686
_cell_angle_alpha   76.77696127
_cell_angle_beta   83.66228035
_cell_angle_gamma   79.74802693
_symmetry_Int_Tables_number   1
_chemical_formula_structural   Cu5Ni4C5
_chemical_formula_sum   'Cu10 Ni8 C10'
_cell_volume   693.12808857
_cell_formula_units_Z   2
loop_
 _symmetry_equiv_pos_site_id
 _symmetry_equiv_pos_as_xyz
  1  'x, y, z'
loop_
 _atom_site_type_symbol
 _atom_site_label
 _atom_site_symmetry_multiplicity
 _atom_site_fract_x
 _atom_site_fract_y
 _atom_site_fract_z
 _atom_site_occupancy
  C  C0  1  0.95074300  0.18960800  0.21660800  1
  C  C1  1  0.04925700  0.81039200  0.78339200  1
  Ni  Ni2  1  0.37820900  0.33525600  0.86643300  1
  Ni  Ni3  1  0.33173200  0.19862000  0.53108700  1
  Ni  Ni4  1  0.53040200  0.95958900  0.20169700  1
  Ni  Ni5  1  0.92342600  0.60155200  0.31568000  1
  Ni  Ni6  1  0.07657400  0.39844800  0.68432000  1
  Ni  Ni7  1  0.66826800  0.80138000  0.46891300  1
  Ni  Ni8  1  0.46959800  0.04041100  0.79830300  1
  Ni  Ni9  1  0.62179100  0.66474400  0.13356700  1
  C  C10  1  0.43338400  0.08629600  0.64900000  1
  C  C11  1  0.17833000  0.38938900  0.81241800  1
  C  C12  1  0.82167000  0.61061100  0.18758200  1
  C  C13  1  0.17731100  0.32376200  0.57155900  1
  C  C14  1  0.56516300  0.83930400  0.11432500  1
  C  C15  1  0.43483700  0.16069600  0.88567500  1
  C  C16  1  0.56661600  0.91370400  0.35100000  1
  C  C17  1  0.82268900  0.67623800  0.42844100  1
  Cu  Cu18  1  0.18352100  0.79739000  0.58531400  1
  Cu  Cu19  1  0.24327500  0.69742500  0.93496800  1
  Cu  Cu20  1  0.75672500  0.30257500  0.06503200  1
  Cu  Cu21  1  0.79762800  0.70651000  0.80752700  1
  Cu  Cu22  1  0.43993000  0.58444800  0.30670100  1
  Cu  Cu23  1  0.20237200  0.29349000  0.19247300  1
  Cu  Cu24  1  0.81647900  0.20261000  0.41468600  1
  Cu  Cu25  1  0.96637900  0.04243100  0.80091800  1
  Cu  Cu26  1  0.03362100  0.95756900  0.19908200  1
  Cu  Cu27  1  0.56007000  0.41555200  0.69329900  1
