# generated using pymatgen
data_Cu3NiC
_symmetry_space_group_name_H-M   'P 1'
_cell_length_a   14.86163538
_cell_length_b   14.86163538
_cell_length_c   14.86163541
_cell_angle_alpha   26.27224950
_cell_angle_beta   26.27224950
_cell_angle_gamma   26.27225133
_symmetry_Int_Tables_number   1
_chemical_formula_structural   Cu3NiC
_chemical_formula_sum   'Cu12 Ni4 C4'
_cell_volume   566.71274837
_cell_formula_units_Z   4
loop_
 _symmetry_equiv_pos_site_id
 _symmetry_equiv_pos_as_xyz
  1  'x, y, z'
loop_
 _atom_site_type_symbol
 _atom_site_label
 _atom_site_symmetry_multiplicity
 _atom_site_fract_x
 _atom_site_fract_y
 _atom_site_fract_z
 _atom_site_occupancy
  C  C0  1  0.59413400  0.59413400  0.59413400  1
  C  C1  1  0.40586600  0.40586600  0.40586600  1
  C  C2  1  0.08736700  0.08736700  0.08736700  1
  C  C3  1  0.91263300  0.91263300  0.91263300  1
  Ni  Ni4  1  0.72418400  0.72418400  0.72418400  1
  Ni  Ni5  1  0.77737600  0.77737600  0.77737600  1
  Ni  Ni6  1  0.22262400  0.22262400  0.22262400  1
  Ni  Ni7  1  0.27581600  0.27581600  0.27581600  1
  Cu  Cu8  1  0.49857900  0.75158300  0.12402300  1
  Cu  Cu9  1  0.00777600  0.73008900  0.38543400  1
  Cu  Cu10  1  0.61456600  0.99222400  0.26991100  1
  Cu  Cu11  1  0.73008900  0.38543400  0.00777600  1
  Cu  Cu12  1  0.75158300  0.12402300  0.49857900  1
  Cu  Cu13  1  0.38543400  0.00777600  0.73008900  1
  Cu  Cu14  1  0.26991100  0.61456600  0.99222400  1
  Cu  Cu15  1  0.12402300  0.49857900  0.75158300  1
  Cu  Cu16  1  0.99222400  0.26991100  0.61456600  1
  Cu  Cu17  1  0.87597700  0.50142100  0.24841700  1
  Cu  Cu18  1  0.24841700  0.87597700  0.50142100  1
  Cu  Cu19  1  0.50142100  0.24841700  0.87597700  1
