# generated using pymatgen
data_Cu5NiC2
_symmetry_space_group_name_H-M   'P 1'
_cell_length_a   7.10283298
_cell_length_b   7.10283298
_cell_length_c   32.04561900
_cell_angle_alpha   90.00000000
_cell_angle_beta   90.00000000
_cell_angle_gamma   119.97390812
_symmetry_Int_Tables_number   1
_chemical_formula_structural   Cu5NiC2
_chemical_formula_sum   'Cu60 Ni12 C24'
_cell_volume   1400.47907988
_cell_formula_units_Z   12
loop_
 _symmetry_equiv_pos_site_id
 _symmetry_equiv_pos_as_xyz
  1  'x, y, z'
loop_
 _atom_site_type_symbol
 _atom_site_label
 _atom_site_symmetry_multiplicity
 _atom_site_fract_x
 _atom_site_fract_y
 _atom_site_fract_z
 _atom_site_occupancy
  C  C0  1  0.98631800  0.66112400  0.42174200  1
  C  C1  1  0.65940500  0.66767100  0.32692900  1
  C  C2  1  0.32457000  0.98843900  0.67219100  1
  C  C3  1  0.66767100  0.65940500  0.67307100  1
  C  C4  1  0.33000900  0.33224200  0.07799000  1
  C  C5  1  0.66112400  0.98631800  0.92174200  1
  C  C6  1  0.99201800  0.65903100  0.57640500  1
  C  C7  1  0.33224200  0.33000900  0.57799000  1
  C  C8  1  0.33000900  0.33224200  0.42201000  1
  C  C9  1  0.99201800  0.65903100  0.92359500  1
  C  C10  1  0.65903100  0.99201800  0.42359500  1
  C  C11  1  0.65940500  0.66767100  0.17307100  1
  C  C12  1  0.99525800  0.33032600  0.67213000  1
  C  C13  1  0.66767100  0.65940500  0.82692900  1
  C  C14  1  0.98631800  0.66112400  0.07825800  1
  C  C15  1  0.66112400  0.98631800  0.57825800  1
  C  C16  1  0.65903100  0.99201800  0.07640500  1
  C  C17  1  0.32457000  0.98843900  0.82780900  1
  C  C18  1  0.99525800  0.33032600  0.82787000  1
  C  C19  1  0.98843900  0.32457000  0.32780900  1
  C  C20  1  0.33032600  0.99525800  0.17213000  1
  C  C21  1  0.98843900  0.32457000  0.17219100  1
  C  C22  1  0.33224200  0.33000900  0.92201000  1
  C  C23  1  0.33032600  0.99525800  0.32787000  1
  Ni  Ni24  1  0.38098900  0.65947600  0.75000000  1
  Ni  Ni25  1  0.04684800  0.04684800  0.00000000  1
  Ni  Ni26  1  0.65947600  0.38098900  0.25000000  1
  Ni  Ni27  1  0.27551500  0.65723900  0.50020300  1
  Ni  Ni28  1  0.27449200  0.61066500  0.25000000  1
  Ni  Ni29  1  0.99401300  0.04476600  0.75000000  1
  Ni  Ni30  1  0.04476600  0.99401300  0.25000000  1
  Ni  Ni31  1  0.61066500  0.27449200  0.75000000  1
  Ni  Ni32  1  0.65723900  0.27551500  0.00020300  1
  Ni  Ni33  1  0.04684800  0.04684800  0.50000000  1
  Ni  Ni34  1  0.27551500  0.65723900  0.99979700  1
  Ni  Ni35  1  0.65723900  0.27551500  0.49979700  1
  Cu  Cu36  1  0.99362400  0.66170300  0.15458200  1
  Cu  Cu37  1  0.69838600  0.36313500  0.78553400  1
  Cu  Cu38  1  0.99579200  0.33119800  0.40435000  1
  Cu  Cu39  1  0.99275400  0.32285900  0.90436500  1
  Cu  Cu40  1  0.66188500  0.56407600  0.25000000  1
  Cu  Cu41  1  0.09159500  0.65261200  0.49851500  1
  Cu  Cu42  1  0.42974200  0.09236100  0.75000000  1
  Cu  Cu43  1  0.66043500  0.65906300  0.90098500  1
  Cu  Cu44  1  0.65852000  0.35612400  0.46323500  1
  Cu  Cu45  1  0.66043500  0.65906300  0.59901500  1
  Cu  Cu46  1  0.29264900  0.65812300  0.71445000  1
  Cu  Cu47  1  0.66170300  0.99362400  0.65458200  1
  Cu  Cu48  1  0.32667800  0.32438800  0.65436300  1
  Cu  Cu49  1  0.66066800  0.37289100  0.96578000  1
  Cu  Cu50  1  0.65852000  0.35612400  0.03676500  1
  Cu  Cu51  1  0.99275400  0.32285900  0.59563500  1
  Cu  Cu52  1  0.09159500  0.65261200  0.00148500  1
  Cu  Cu53  1  0.66170300  0.99362400  0.84541800  1
  Cu  Cu54  1  0.66066800  0.37289100  0.53422000  1
  Cu  Cu55  1  0.36313500  0.69838600  0.28553400  1
  Cu  Cu56  1  0.99362400  0.66170300  0.34541800  1
  Cu  Cu57  1  0.95971500  0.95749100  0.96447600  1
  Cu  Cu58  1  0.35612400  0.65852000  0.53676500  1
  Cu  Cu59  1  0.32438800  0.32667800  0.34563700  1
  Cu  Cu60  1  0.95749100  0.95971500  0.46447600  1
  Cu  Cu61  1  0.65261200  0.09159500  0.99851500  1
  Cu  Cu62  1  0.65980900  0.99847500  0.15080200  1
  Cu  Cu63  1  0.98767400  0.22314200  0.75000000  1
  Cu  Cu64  1  0.37289100  0.66066800  0.03422000  1
  Cu  Cu65  1  0.33119800  0.99579200  0.90435000  1
  Cu  Cu66  1  0.35612400  0.65852000  0.96323500  1
  Cu  Cu67  1  0.99847500  0.65980900  0.65080200  1
  Cu  Cu68  1  0.65906300  0.66043500  0.40098500  1
  Cu  Cu69  1  0.65812300  0.29264900  0.21445000  1
  Cu  Cu70  1  0.32285900  0.99275400  0.40436500  1
  Cu  Cu71  1  0.95816600  0.99712400  0.21446400  1
  Cu  Cu72  1  0.22314200  0.98767400  0.25000000  1
  Cu  Cu73  1  0.32667800  0.32438800  0.84563700  1
  Cu  Cu74  1  0.65261200  0.09159500  0.50148500  1
  Cu  Cu75  1  0.95816600  0.99712400  0.28553600  1
  Cu  Cu76  1  0.32285900  0.99275400  0.09563500  1
  Cu  Cu77  1  0.65812300  0.29264900  0.28555000  1
  Cu  Cu78  1  0.33119800  0.99579200  0.59565000  1
  Cu  Cu79  1  0.65906300  0.66043500  0.09901500  1
  Cu  Cu80  1  0.95971500  0.95749100  0.53552400  1
  Cu  Cu81  1  0.22836700  0.22836700  0.50000000  1
  Cu  Cu82  1  0.37289100  0.66066800  0.46578000  1
  Cu  Cu83  1  0.69838600  0.36313500  0.71446600  1
  Cu  Cu84  1  0.09236100  0.42974200  0.25000000  1
  Cu  Cu85  1  0.56407600  0.66188500  0.75000000  1
  Cu  Cu86  1  0.99712400  0.95816600  0.78553600  1
  Cu  Cu87  1  0.65980900  0.99847500  0.34919800  1
  Cu  Cu88  1  0.95749100  0.95971500  0.03552400  1
  Cu  Cu89  1  0.32438800  0.32667800  0.15436300  1
  Cu  Cu90  1  0.36313500  0.69838600  0.21446600  1
  Cu  Cu91  1  0.99847500  0.65980900  0.84919800  1
  Cu  Cu92  1  0.29264900  0.65812300  0.78555000  1
  Cu  Cu93  1  0.22836700  0.22836700  0.00000000  1
  Cu  Cu94  1  0.99712400  0.95816600  0.71446400  1
  Cu  Cu95  1  0.99579200  0.33119800  0.09565000  1
