# generated using pymatgen
data_Cu4NiC12
_symmetry_space_group_name_H-M   'P 1'
_cell_length_a   8.37663200
_cell_length_b   11.20240900
_cell_length_c   11.42629290
_cell_angle_alpha   68.99199228
_cell_angle_beta   90.00000000
_cell_angle_gamma   90.00000000
_symmetry_Int_Tables_number   1
_chemical_formula_structural   Cu4NiC12
_chemical_formula_sum   'Cu16 Ni4 C48'
_cell_volume   1000.95521612
_cell_formula_units_Z   4
loop_
 _symmetry_equiv_pos_site_id
 _symmetry_equiv_pos_as_xyz
  1  'x, y, z'
loop_
 _atom_site_type_symbol
 _atom_site_label
 _atom_site_symmetry_multiplicity
 _atom_site_fract_x
 _atom_site_fract_y
 _atom_site_fract_z
 _atom_site_occupancy
  C  C0  1  0.25000000  0.58261300  0.91379500  1
  C  C1  1  0.75000000  0.94164900  0.44278000  1
  C  C2  1  0.75000000  0.02290200  0.04463400  1
  C  C3  1  0.25000000  0.97709800  0.95536600  1
  C  C4  1  0.75000000  0.41738700  0.08620500  1
  C  C5  1  0.25000000  0.46641100  0.52922000  1
  C  C6  1  0.25000000  0.05835100  0.55722000  1
  C  C7  1  0.75000000  0.53358900  0.47078000  1
  Ni  Ni8  1  0.49737800  0.21139200  0.71252500  1
  Ni  Ni9  1  0.50262200  0.78860800  0.28747500  1
  Ni  Ni10  1  0.00262200  0.21139200  0.71252500  1
  Ni  Ni11  1  0.99737800  0.78860800  0.28747500  1
  Cu  Cu12  1  0.93433600  0.48461400  0.75062600  1
  Cu  Cu13  1  0.44314700  0.09634600  0.23896000  1
  Cu  Cu14  1  0.44059700  0.75092300  0.58942000  1
  Cu  Cu15  1  0.56566400  0.48461400  0.75062600  1
  Cu  Cu16  1  0.55940300  0.24907700  0.41058000  1
  Cu  Cu17  1  0.94078700  0.72858500  0.03627000  1
  Cu  Cu18  1  0.55921300  0.72858500  0.03627000  1
  Cu  Cu19  1  0.05921300  0.27141500  0.96373000  1
  Cu  Cu20  1  0.06566400  0.51538600  0.24937400  1
  Cu  Cu21  1  0.94059700  0.24907700  0.41058000  1
  Cu  Cu22  1  0.94314700  0.90365400  0.76104000  1
  Cu  Cu23  1  0.43433600  0.51538600  0.24937400  1
  Cu  Cu24  1  0.05940300  0.75092300  0.58942000  1
  Cu  Cu25  1  0.44078700  0.27141500  0.96373000  1
  Cu  Cu26  1  0.05685300  0.09634600  0.23896000  1
  Cu  Cu27  1  0.55685300  0.90365400  0.76104000  1
  C  C28  1  0.99823200  0.21683200  0.11118300  1
  C  C29  1  0.00176800  0.78316800  0.88881700  1
  C  C30  1  0.45898200  0.02981600  0.74812100  1
  C  C31  1  0.05332800  0.61074400  0.70670900  1
  C  C32  1  0.25000000  0.07915000  0.22941400  1
  C  C33  1  0.53289900  0.74882300  0.46836000  1
  C  C34  1  0.96710100  0.74882300  0.46836000  1
  C  C35  1  0.97916900  0.85814500  0.64094900  1
  C  C36  1  0.50176800  0.21683200  0.11118300  1
  C  C37  1  0.04101800  0.02981600  0.74812100  1
  C  C38  1  0.03289900  0.25117700  0.53164000  1
  C  C39  1  0.01462300  0.17431000  0.89467900  1
  C  C40  1  0.94667200  0.38925600  0.29329100  1
  C  C41  1  0.97039600  0.39494500  0.67193400  1
  C  C42  1  0.52960400  0.39494500  0.67193400  1
  C  C43  1  0.53138900  0.41264600  0.90325700  1
  C  C44  1  0.75000000  0.69196300  0.03850700  1
  C  C45  1  0.47039600  0.60505500  0.32806600  1
  C  C46  1  0.02960400  0.60505500  0.32806600  1
  C  C47  1  0.02083100  0.14185500  0.35905100  1
  C  C48  1  0.25000000  0.46029900  0.26470700  1
  C  C49  1  0.52083100  0.85814500  0.64094900  1
  C  C50  1  0.54101800  0.97018400  0.25187900  1
  C  C51  1  0.44667200  0.61074400  0.70670900  1
  C  C52  1  0.46710100  0.25117700  0.53164000  1
  C  C53  1  0.96861100  0.41264600  0.90325700  1
  C  C54  1  0.98537700  0.82569000  0.10532100  1
  C  C55  1  0.75000000  0.92085000  0.77058600  1
  C  C56  1  0.25000000  0.78953100  0.56723700  1
  C  C57  1  0.46861100  0.58735400  0.09674300  1
  C  C58  1  0.75000000  0.53970100  0.73529300  1
  C  C59  1  0.49823200  0.78316800  0.88881700  1
  C  C60  1  0.95898200  0.97018400  0.25187900  1
  C  C61  1  0.48537700  0.17431000  0.89467900  1
  C  C62  1  0.51462300  0.82569000  0.10532100  1
  C  C63  1  0.25000000  0.30803700  0.96149300  1
  C  C64  1  0.47916900  0.14185500  0.35905100  1
  C  C65  1  0.55332800  0.38925600  0.29329100  1
  C  C66  1  0.03138900  0.58735400  0.09674300  1
  C  C67  1  0.75000000  0.21046900  0.43276300  1
