# generated using pymatgen
data_Cu11(NiC3)2
_symmetry_space_group_name_H-M   'P 1'
_cell_length_a   8.69951100
_cell_length_b   8.69951100
_cell_length_c   28.33558200
_cell_angle_alpha   90.00000000
_cell_angle_beta   90.00000000
_cell_angle_gamma   90.00000000
_symmetry_Int_Tables_number   1
_chemical_formula_structural   Cu11(NiC3)2
_chemical_formula_sum   'Cu44 Ni8 C24'
_cell_volume   2144.47911222
_cell_formula_units_Z   4
loop_
 _symmetry_equiv_pos_site_id
 _symmetry_equiv_pos_as_xyz
  1  'x, y, z'
loop_
 _atom_site_type_symbol
 _atom_site_label
 _atom_site_symmetry_multiplicity
 _atom_site_fract_x
 _atom_site_fract_y
 _atom_site_fract_z
 _atom_site_occupancy
  C  C0  1  0.00000000  0.50000000  0.62743600  1
  C  C1  1  0.00000000  0.50000000  0.80393100  1
  C  C2  1  0.50000000  0.00000000  0.69606900  1
  C  C3  1  0.00000000  0.50000000  0.12743600  1
  C  C4  1  0.00000000  0.50000000  0.30393100  1
  C  C5  1  0.50000000  0.00000000  0.87256400  1
  C  C6  1  0.50000000  0.00000000  0.19606900  1
  C  C7  1  0.50000000  0.00000000  0.37256400  1
  C  C8  1  0.89361800  0.19881700  0.44554400  1
  C  C9  1  0.60638200  0.30118300  0.55445600  1
  C  C10  1  0.80118300  0.89361800  0.55445600  1
  C  C11  1  0.69881700  0.39361800  0.94554400  1
  C  C12  1  0.30118300  0.60638200  0.94554400  1
  C  C13  1  0.60638200  0.69881700  0.05445600  1
  C  C14  1  0.19881700  0.89361800  0.05445600  1
  C  C15  1  0.69881700  0.60638200  0.44554400  1
  C  C16  1  0.39361800  0.69881700  0.55445600  1
  C  C17  1  0.89361800  0.80118300  0.94554400  1
  C  C18  1  0.30118300  0.39361800  0.44554400  1
  C  C19  1  0.80118300  0.10638200  0.05445600  1
  C  C20  1  0.39361800  0.30118300  0.05445600  1
  C  C21  1  0.10638200  0.80118300  0.44554400  1
  C  C22  1  0.10638200  0.19881700  0.94554400  1
  C  C23  1  0.19881700  0.10638200  0.55445600  1
  Ni  Ni24  1  0.00000000  0.00000000  0.69062200  1
  Ni  Ni25  1  0.50000000  0.50000000  0.80937800  1
  Ni  Ni26  1  0.50000000  0.50000000  0.19062200  1
  Ni  Ni27  1  0.00000000  0.00000000  0.30937800  1
  Ni  Ni28  1  0.50000000  0.50000000  0.69062200  1
  Ni  Ni29  1  0.00000000  0.00000000  0.80937800  1
  Ni  Ni30  1  0.00000000  0.00000000  0.19062200  1
  Ni  Ni31  1  0.50000000  0.50000000  0.30937800  1
  Cu  Cu32  1  0.19005800  0.89468900  0.95506000  1
  Cu  Cu33  1  0.30994200  0.60531100  0.04494000  1
  Cu  Cu34  1  0.19005800  0.10531100  0.45506000  1
  Cu  Cu35  1  0.17565300  0.16091000  0.64796800  1
  Cu  Cu36  1  0.60531100  0.30994200  0.45506000  1
  Cu  Cu37  1  0.10531100  0.19005800  0.04494000  1
  Cu  Cu38  1  0.17565300  0.83909000  0.14796800  1
  Cu  Cu39  1  0.80994200  0.89468900  0.45506000  1
  Cu  Cu40  1  0.85261100  0.85261100  0.25000000  1
  Cu  Cu41  1  0.80994200  0.10531100  0.95506000  1
  Cu  Cu42  1  0.89468900  0.19005800  0.54494000  1
  Cu  Cu43  1  0.39468900  0.69005800  0.45506000  1
  Cu  Cu44  1  0.64738900  0.64738900  0.75000000  1
  Cu  Cu45  1  0.85261100  0.14738900  0.75000000  1
  Cu  Cu46  1  0.83909000  0.82434700  0.85203200  1
  Cu  Cu47  1  0.66091000  0.67565300  0.14796800  1
  Cu  Cu48  1  0.00000000  0.50000000  0.94145500  1
  Cu  Cu49  1  0.39468900  0.30994200  0.95506000  1
  Cu  Cu50  1  0.35261100  0.35261100  0.75000000  1
  Cu  Cu51  1  0.16091000  0.82434700  0.35203200  1
  Cu  Cu52  1  0.83909000  0.17565300  0.35203200  1
  Cu  Cu53  1  0.33909000  0.32434700  0.14796800  1
  Cu  Cu54  1  0.30994200  0.39468900  0.54494000  1
  Cu  Cu55  1  0.00000000  0.50000000  0.44145500  1
  Cu  Cu56  1  0.67565300  0.33909000  0.85203200  1
  Cu  Cu57  1  0.82434700  0.83909000  0.64796800  1
  Cu  Cu58  1  0.50000000  0.00000000  0.55854500  1
  Cu  Cu59  1  0.67565300  0.66091000  0.35203200  1
  Cu  Cu60  1  0.32434700  0.66091000  0.85203200  1
  Cu  Cu61  1  0.33909000  0.67565300  0.64796800  1
  Cu  Cu62  1  0.35261100  0.64738900  0.25000000  1
  Cu  Cu63  1  0.60531100  0.69005800  0.95506000  1
  Cu  Cu64  1  0.64738900  0.35261100  0.25000000  1
  Cu  Cu65  1  0.89468900  0.80994200  0.04494000  1
  Cu  Cu66  1  0.32434700  0.33909000  0.35203200  1
  Cu  Cu67  1  0.50000000  0.00000000  0.05854500  1
  Cu  Cu68  1  0.82434700  0.16091000  0.14796800  1
  Cu  Cu69  1  0.69005800  0.39468900  0.04494000  1
  Cu  Cu70  1  0.66091000  0.32434700  0.64796800  1
  Cu  Cu71  1  0.10531100  0.80994200  0.54494000  1
  Cu  Cu72  1  0.14738900  0.14738900  0.25000000  1
  Cu  Cu73  1  0.16091000  0.17565300  0.85203200  1
  Cu  Cu74  1  0.14738900  0.85261100  0.75000000  1
  Cu  Cu75  1  0.69005800  0.60531100  0.54494000  1
