# generated using pymatgen
data_Cu3NiC
_symmetry_space_group_name_H-M   'P 1'
_cell_length_a   10.34418000
_cell_length_b   10.70068239
_cell_length_c   16.88009743
_cell_angle_alpha   89.90864126
_cell_angle_beta   107.37840391
_cell_angle_gamma   91.30756264
_symmetry_Int_Tables_number   1
_chemical_formula_structural   Cu3NiC
_chemical_formula_sum   'Cu36 Ni12 C12'
_cell_volume   1782.67395248
_cell_formula_units_Z   12
loop_
 _symmetry_equiv_pos_site_id
 _symmetry_equiv_pos_as_xyz
  1  'x, y, z'
loop_
 _atom_site_type_symbol
 _atom_site_label
 _atom_site_symmetry_multiplicity
 _atom_site_fract_x
 _atom_site_fract_y
 _atom_site_fract_z
 _atom_site_occupancy
  C  C0  1  0.79485900  0.83075100  0.14885000  1
  C  C1  1  0.20514100  0.16924900  0.85115000  1
  C  C2  1  0.94966000  0.73712500  0.45355100  1
  C  C3  1  0.05034000  0.26287500  0.54644900  1
  C  C4  1  0.52804200  0.25757600  0.53351100  1
  C  C5  1  0.47195800  0.74242400  0.46648900  1
  C  C6  1  0.73984000  0.30760000  0.86132700  1
  C  C7  1  0.26016000  0.69240000  0.13867300  1
  C  C8  1  0.72636600  0.28133000  0.16927900  1
  C  C9  1  0.27363400  0.71867000  0.83072100  1
  C  C10  1  0.30559000  0.22330800  0.22104600  1
  C  C11  1  0.69441000  0.77669200  0.77895400  1
  Ni  Ni12  1  0.03568600  0.50121300  0.28199700  1
  Ni  Ni13  1  0.96431400  0.49878700  0.71800300  1
  Ni  Ni14  1  0.72043900  0.08720000  0.34966200  1
  Ni  Ni15  1  0.27956100  0.91280000  0.65033800  1
  Ni  Ni16  1  0.22452700  0.43057900  0.37610900  1
  Ni  Ni17  1  0.77547300  0.56942100  0.62389100  1
  Ni  Ni18  1  0.57123900  0.57502500  0.99085100  1
  Ni  Ni19  1  0.42876100  0.42497500  0.00914900  1
  Ni  Ni20  1  0.01075500  0.07173800  0.05350100  1
  Ni  Ni21  1  0.98924500  0.92826200  0.94649900  1
  Ni  Ni22  1  0.55054800  0.96119100  0.27456900  1
  Ni  Ni23  1  0.44945200  0.03880900  0.72543100  1
  Cu  Cu24  1  0.77412000  0.51288600  0.06583100  1
  Cu  Cu25  1  0.22588000  0.48711400  0.93416900  1
  Cu  Cu26  1  0.49778700  0.06299500  0.15005500  1
  Cu  Cu27  1  0.50221300  0.93700500  0.84994500  1
  Cu  Cu28  1  0.46688700  0.43307400  0.14786100  1
  Cu  Cu29  1  0.53311300  0.56692600  0.85213900  1
  Cu  Cu30  1  0.03067700  0.37840000  0.17142600  1
  Cu  Cu31  1  0.96932300  0.62160000  0.82857400  1
  Cu  Cu32  1  0.79549200  0.11965800  0.03660200  1
  Cu  Cu33  1  0.20450800  0.88034200  0.96339800  1
  Cu  Cu34  1  0.87501700  0.08098700  0.28284300  1
  Cu  Cu35  1  0.12498300  0.91901300  0.71715700  1
  Cu  Cu36  1  0.21275600  0.22373100  0.37485900  1
  Cu  Cu37  1  0.78724400  0.77626900  0.62514100  1
  Cu  Cu38  1  0.60934300  0.27151600  0.32584900  1
  Cu  Cu39  1  0.39065700  0.72848400  0.67415100  1
  Cu  Cu40  1  0.51250500  0.24585100  0.98667400  1
  Cu  Cu41  1  0.48749500  0.75414900  0.01332600  1
  Cu  Cu42  1  0.85272300  0.44550800  0.31744300  1
  Cu  Cu43  1  0.14727700  0.55449200  0.68255700  1
  Cu  Cu44  1  0.12384000  0.99001700  0.17439700  1
  Cu  Cu45  1  0.87616000  0.00998300  0.82560300  1
  Cu  Cu46  1  0.13631600  0.23082200  0.03277100  1
  Cu  Cu47  1  0.86368400  0.76917800  0.96722900  1
  Cu  Cu48  1  0.38842300  0.99665400  0.33243300  1
  Cu  Cu49  1  0.61157700  0.00334600  0.66756700  1
  Cu  Cu50  1  0.07285700  0.70057900  0.27432400  1
  Cu  Cu51  1  0.92714300  0.29942100  0.72567600  1
  Cu  Cu52  1  0.78514500  0.03453100  0.47802500  1
  Cu  Cu53  1  0.21485500  0.96546900  0.52197500  1
  Cu  Cu54  1  0.60847600  0.76874300  0.27854900  1
  Cu  Cu55  1  0.39152400  0.23125700  0.72145100  1
  Cu  Cu56  1  0.25253400  0.51345400  0.49648100  1
  Cu  Cu57  1  0.74746600  0.48654600  0.50351900  1
  Cu  Cu58  1  0.37379500  0.48062200  0.30848000  1
  Cu  Cu59  1  0.62620500  0.51937800  0.69152000  1
