# generated using pymatgen
data_Cu5NiC8
_symmetry_space_group_name_H-M   'P 1'
_cell_length_a   10.38204400
_cell_length_b   9.42820100
_cell_length_c   19.34862815
_cell_angle_alpha   89.87760330
_cell_angle_beta   90.00000000
_cell_angle_gamma   90.00000000
_symmetry_Int_Tables_number   1
_chemical_formula_structural   Cu5NiC8
_chemical_formula_sum   'Cu40 Ni8 C64'
_cell_volume   1893.91675026
_cell_formula_units_Z   8
loop_
 _symmetry_equiv_pos_site_id
 _symmetry_equiv_pos_as_xyz
  1  'x, y, z'
loop_
 _atom_site_type_symbol
 _atom_site_label
 _atom_site_symmetry_multiplicity
 _atom_site_fract_x
 _atom_site_fract_y
 _atom_site_fract_z
 _atom_site_occupancy
  Ni  Ni0  1  0.76890300  0.61584900  0.41793900  1
  Ni  Ni1  1  0.26890300  0.38415100  0.08206100  1
  Ni  Ni2  1  0.23360100  0.86945300  0.03841400  1
  Ni  Ni3  1  0.23109700  0.38415100  0.58206100  1
  Ni  Ni4  1  0.73360100  0.13054700  0.46158600  1
  Ni  Ni5  1  0.76639900  0.13054700  0.96158600  1
  Ni  Ni6  1  0.73109700  0.61584900  0.91793900  1
  Ni  Ni7  1  0.26639900  0.86945300  0.53841400  1
  Cu  Cu8  1  0.49547600  0.37226300  0.20343400  1
  Cu  Cu9  1  0.98072900  0.87383200  0.44803800  1
  Cu  Cu10  1  0.50921200  0.10678400  0.31794700  1
  Cu  Cu11  1  0.51016600  0.36624700  0.67128400  1
  Cu  Cu12  1  0.51182000  0.86884400  0.44120300  1
  Cu  Cu13  1  0.50286900  0.61882000  0.56295500  1
  Cu  Cu14  1  0.50453900  0.62224000  0.06420300  1
  Cu  Cu15  1  0.32993800  0.87832900  0.84119300  1
  Cu  Cu16  1  0.33159100  0.37854900  0.78393900  1
  Cu  Cu17  1  0.83159100  0.62145100  0.71606100  1
  Cu  Cu18  1  0.01927100  0.12616800  0.55196200  1
  Cu  Cu19  1  0.16840900  0.37854900  0.28393900  1
  Cu  Cu20  1  0.01016600  0.63375300  0.82871600  1
  Cu  Cu21  1  0.00452400  0.37226300  0.70343400  1
  Cu  Cu22  1  0.99547600  0.62773700  0.29656600  1
  Cu  Cu23  1  0.48983400  0.63375300  0.32871600  1
  Cu  Cu24  1  0.00270500  0.87476300  0.67987300  1
  Cu  Cu25  1  0.67006200  0.12167100  0.15880700  1
  Cu  Cu26  1  0.99078800  0.10678400  0.81794700  1
  Cu  Cu27  1  0.50452400  0.62773700  0.79656600  1
  Cu  Cu28  1  0.01182000  0.13115600  0.05879700  1
  Cu  Cu29  1  0.49078800  0.89321600  0.68205300  1
  Cu  Cu30  1  0.50270500  0.12523700  0.82012700  1
  Cu  Cu31  1  0.66840900  0.62145100  0.21606100  1
  Cu  Cu32  1  0.48818000  0.13115600  0.55879700  1
  Cu  Cu33  1  0.99546100  0.62224000  0.56420300  1
  Cu  Cu34  1  0.51927100  0.87383200  0.94803800  1
  Cu  Cu35  1  0.49713100  0.38118000  0.43704500  1
  Cu  Cu36  1  0.82993800  0.12167100  0.65880700  1
  Cu  Cu37  1  0.98818000  0.86884400  0.94120300  1
  Cu  Cu38  1  0.99729500  0.12523700  0.32012700  1
  Cu  Cu39  1  0.00453900  0.37776000  0.43579700  1
  Cu  Cu40  1  0.00921200  0.89321600  0.18205300  1
  Cu  Cu41  1  0.00286900  0.38118000  0.93704500  1
  Cu  Cu42  1  0.49546100  0.37776000  0.93579700  1
  Cu  Cu43  1  0.99713100  0.61882000  0.06295500  1
  Cu  Cu44  1  0.48072900  0.12616800  0.05196200  1
  Cu  Cu45  1  0.17006200  0.87832900  0.34119300  1
  Cu  Cu46  1  0.49729500  0.87476300  0.17987300  1
  Cu  Cu47  1  0.98983400  0.36624700  0.17128400  1
  C  C48  1  0.23881900  0.17102400  0.90581900  1
  C  C49  1  0.76594300  0.92060700  0.28829100  1
  C  C50  1  0.24528900  0.57743100  0.41261300  1
  C  C51  1  0.26118100  0.17102400  0.40581900  1
  C  C52  1  0.73881900  0.82897600  0.59418100  1
  C  C53  1  0.76118100  0.82897600  0.09418100  1
  C  C54  1  0.23738500  0.67277100  0.71728900  1
  C  C55  1  0.25471100  0.57743100  0.91261300  1
  C  C56  1  0.73738500  0.32722900  0.78271100  1
  C  C57  1  0.73405700  0.92060700  0.78829100  1
  C  C58  1  0.23405700  0.07939300  0.71170900  1
  C  C59  1  0.26594300  0.07939300  0.21170900  1
  C  C60  1  0.76261500  0.32722900  0.28271100  1
  C  C61  1  0.74528900  0.42256900  0.08738700  1
  C  C62  1  0.75471100  0.42256900  0.58738700  1
  C  C63  1  0.26261500  0.67277100  0.21728900  1
  C  C64  1  0.36951300  0.57961700  0.67342100  1
  C  C65  1  0.57614800  0.38428400  0.81399500  1
  C  C66  1  0.75718600  0.36916200  0.68516700  1
  C  C67  1  0.10411500  0.64051900  0.95131200  1
  C  C68  1  0.10443500  0.65420500  0.45635800  1
  C  C69  1  0.92385200  0.38428400  0.31399500  1
  C  C70  1  0.24019000  0.37312400  0.41849600  1
  C  C71  1  0.87279800  0.92699700  0.55447600  1
  C  C72  1  0.25981000  0.37312400  0.91849600  1
  C  C73  1  0.92746600  0.86964800  0.32099200  1
  C  C74  1  0.91865400  0.88811100  0.06162000  1
  C  C75  1  0.12720200  0.07300300  0.44552400  1
  C  C76  1  0.86951300  0.42038300  0.82657900  1
  C  C77  1  0.63048700  0.42038300  0.32657900  1
  C  C78  1  0.37279800  0.07300300  0.94552400  1
  C  C79  1  0.60411500  0.35948100  0.54868800  1
  C  C80  1  0.08134600  0.11188900  0.93838000  1
  C  C81  1  0.75981000  0.62687600  0.58150400  1
  C  C82  1  0.74959900  0.86766300  0.19227600  1
  C  C83  1  0.86429000  0.83284400  0.83573500  1
  C  C84  1  0.39588500  0.64051900  0.45131200  1
  C  C85  1  0.74019000  0.62687600  0.08150400  1
  C  C86  1  0.57253400  0.86964800  0.82099200  1
  C  C87  1  0.89556500  0.34579500  0.54364200  1
  C  C88  1  0.24959900  0.13233700  0.30772400  1
  C  C89  1  0.60443500  0.34579500  0.04364200  1
  C  C90  1  0.58134600  0.88811100  0.56162000  1
  C  C91  1  0.24281400  0.63083800  0.31483300  1
  C  C92  1  0.62720200  0.92699700  0.05447600  1
  C  C93  1  0.89588500  0.35948100  0.04868800  1
  C  C94  1  0.24607500  0.87565300  0.20538500  1
  C  C95  1  0.13048700  0.57961700  0.17342100  1
  C  C96  1  0.74281400  0.36916200  0.18516700  1
  C  C97  1  0.75392500  0.12434700  0.79461500  1
  C  C98  1  0.63571000  0.83284400  0.33573500  1
  C  C99  1  0.13571000  0.16715600  0.16426500  1
  C  C100  1  0.75040100  0.86766300  0.69227600  1
  C  C101  1  0.25040100  0.13233700  0.80772400  1
  C  C102  1  0.74607500  0.12434700  0.29461500  1
  C  C103  1  0.41865400  0.11188900  0.43838000  1
  C  C104  1  0.07614800  0.61571600  0.68600500  1
  C  C105  1  0.36429000  0.16715600  0.66426500  1
  C  C106  1  0.39556500  0.65420500  0.95635800  1
  C  C107  1  0.25718600  0.63083800  0.81483300  1
  C  C108  1  0.25392500  0.87565300  0.70538500  1
  C  C109  1  0.07253400  0.13035200  0.67900800  1
  C  C110  1  0.42385200  0.61571600  0.18600500  1
  C  C111  1  0.42746600  0.13035200  0.17900800  1
