# generated using pymatgen
data_Cu3NiC5
_symmetry_space_group_name_H-M   'P 1'
_cell_length_a   6.70114400
_cell_length_b   9.55029200
_cell_length_c   17.98308400
_cell_angle_alpha   90.00000000
_cell_angle_beta   90.00000000
_cell_angle_gamma   90.00000000
_symmetry_Int_Tables_number   1
_chemical_formula_structural   Cu3NiC5
_chemical_formula_sum   'Cu12 Ni4 C20'
_cell_volume   1150.87928664
_cell_formula_units_Z   4
loop_
 _symmetry_equiv_pos_site_id
 _symmetry_equiv_pos_as_xyz
  1  'x, y, z'
loop_
 _atom_site_type_symbol
 _atom_site_label
 _atom_site_symmetry_multiplicity
 _atom_site_fract_x
 _atom_site_fract_y
 _atom_site_fract_z
 _atom_site_occupancy
  C  C0  1  0.25000000  0.83799300  0.21919000  1
  C  C1  1  0.75000000  0.33799400  0.28081000  1
  C  C2  1  0.25000000  0.66200700  0.71919000  1
  C  C3  1  0.25000000  0.95938300  0.92753400  1
  C  C4  1  0.75000000  0.04061700  0.07246600  1
  C  C5  1  0.75000000  0.45938300  0.57246600  1
  C  C6  1  0.25000000  0.54061700  0.42753400  1
  C  C7  1  0.75000000  0.16200700  0.78081000  1
  C  C8  1  0.25000000  0.43362400  0.05707400  1
  C  C9  1  0.25000000  0.06637600  0.55707400  1
  C  C10  1  0.75000000  0.93362400  0.44292600  1
  C  C11  1  0.75000000  0.56637600  0.94292600  1
  Ni  Ni12  1  0.25000000  0.12232900  0.36527200  1
  Ni  Ni13  1  0.25000000  0.37767100  0.86527100  1
  Ni  Ni14  1  0.75000000  0.87767100  0.63472900  1
  Ni  Ni15  1  0.75000000  0.62232900  0.13472800  1
  Cu  Cu16  1  0.25000000  0.90142100  0.40973100  1
  Cu  Cu17  1  0.00383600  0.69419300  0.06055700  1
  Cu  Cu18  1  0.75000000  0.40142100  0.09026900  1
  Cu  Cu19  1  0.50383600  0.30580700  0.93944300  1
  Cu  Cu20  1  0.00383600  0.80580700  0.56055700  1
  Cu  Cu21  1  0.75000000  0.09857900  0.59026900  1
  Cu  Cu22  1  0.25000000  0.59857900  0.90973100  1
  Cu  Cu23  1  0.49616400  0.69419300  0.06055700  1
  Cu  Cu24  1  0.50383600  0.19419300  0.43944300  1
  Cu  Cu25  1  0.99616400  0.19419300  0.43944300  1
  Cu  Cu26  1  0.99616400  0.30580700  0.93944300  1
  Cu  Cu27  1  0.49616400  0.80580700  0.56055700  1
  C  C28  1  0.75000000  0.85563600  0.89442300  1
  C  C29  1  0.25000000  0.35563600  0.60557700  1
  C  C30  1  0.25000000  0.14436400  0.10557700  1
  C  C31  1  0.75000000  0.52924300  0.78302900  1
  C  C32  1  0.25000000  0.02924300  0.71697100  1
  C  C33  1  0.75000000  0.97075700  0.28302900  1
  C  C34  1  0.75000000  0.64436400  0.39442300  1
  C  C35  1  0.25000000  0.47075700  0.21697100  1
