# generated using pymatgen
data_CuNiC6
_symmetry_space_group_name_H-M   'P 1'
_cell_length_a   6.08164500
_cell_length_b   8.48035600
_cell_length_c   9.87387600
_cell_angle_alpha   90.00000000
_cell_angle_beta   90.00000000
_cell_angle_gamma   90.00000000
_symmetry_Int_Tables_number   1
_chemical_formula_structural   CuNiC6
_chemical_formula_sum   'Cu4 Ni4 C24'
_cell_volume   509.24036257
_cell_formula_units_Z   4
loop_
 _symmetry_equiv_pos_site_id
 _symmetry_equiv_pos_as_xyz
  1  'x, y, z'
loop_
 _atom_site_type_symbol
 _atom_site_label
 _atom_site_symmetry_multiplicity
 _atom_site_fract_x
 _atom_site_fract_y
 _atom_site_fract_z
 _atom_site_occupancy
  Ni  Ni0  1  0.75000000  0.58143700  0.04530100  1
  Ni  Ni1  1  0.25000000  0.41856300  0.95469900  1
  Ni  Ni2  1  0.25000000  0.08143700  0.45469900  1
  Ni  Ni3  1  0.75000000  0.91856300  0.54530100  1
  Cu  Cu4  1  0.25000000  0.57483600  0.69572900  1
  Cu  Cu5  1  0.75000000  0.42516400  0.30427100  1
  Cu  Cu6  1  0.25000000  0.92516400  0.19572900  1
  Cu  Cu7  1  0.75000000  0.07483600  0.80427100  1
  C  C8  1  0.25000000  0.01800700  0.34762900  1
  C  C9  1  0.75000000  0.98199300  0.65237100  1
  C  C10  1  0.75000000  0.51800700  0.15237100  1
  C  C11  1  0.25000000  0.48199300  0.84762900  1
  C  C12  1  0.75000000  0.16287900  0.94738500  1
  C  C13  1  0.51318100  0.92466500  0.19551800  1
  C  C14  1  0.25000000  0.09174800  0.11995800  1
  C  C15  1  0.75000000  0.90825200  0.88004200  1
  C  C16  1  0.75000000  0.24230300  0.72916700  1
  C  C17  1  0.25000000  0.83712100  0.05261500  1
  C  C18  1  0.25000000  0.66287900  0.55261500  1
  C  C19  1  0.75000000  0.25769700  0.22916700  1
  C  C20  1  0.75000000  0.33712100  0.44738500  1
  C  C21  1  0.25000000  0.40825200  0.61995800  1
  C  C22  1  0.51318100  0.57533500  0.69551800  1
  C  C23  1  0.01318100  0.07533500  0.80448200  1
  C  C24  1  0.48681900  0.07533500  0.80448200  1
  C  C25  1  0.25000000  0.75769700  0.27083300  1
  C  C26  1  0.98681900  0.57533500  0.69551800  1
  C  C27  1  0.01318100  0.42466500  0.30448200  1
  C  C28  1  0.98681900  0.92466500  0.19551800  1
  C  C29  1  0.25000000  0.74230300  0.77083300  1
  C  C30  1  0.75000000  0.59174800  0.38004200  1
  C  C31  1  0.48681900  0.42466500  0.30448200  1
