# generated using pymatgen
data_Cu3(NiC9)2
_symmetry_space_group_name_H-M   'P 1'
_cell_length_a   8.70027440
_cell_length_b   8.70027440
_cell_length_c   8.70027390
_cell_angle_alpha   66.59492476
_cell_angle_beta   66.59492476
_cell_angle_gamma   66.59492323
_symmetry_Int_Tables_number   1
_chemical_formula_structural   Cu3(NiC9)2
_chemical_formula_sum   'Cu6 Ni4 C36'
_cell_volume   531.76253019
_cell_formula_units_Z   2
loop_
 _symmetry_equiv_pos_site_id
 _symmetry_equiv_pos_as_xyz
  1  'x, y, z'
loop_
 _atom_site_type_symbol
 _atom_site_label
 _atom_site_symmetry_multiplicity
 _atom_site_fract_x
 _atom_site_fract_y
 _atom_site_fract_z
 _atom_site_occupancy
  Ni  Ni0  1  0.09182400  0.09182400  0.09182400  1
  Ni  Ni1  1  0.59182400  0.59182400  0.59182400  1
  Ni  Ni2  1  0.33735800  0.33735800  0.33735800  1
  Ni  Ni3  1  0.83735800  0.83735800  0.83735800  1
  Cu  Cu4  1  0.90114400  0.44119700  0.81072500  1
  Cu  Cu5  1  0.44119700  0.81072500  0.90114400  1
  Cu  Cu6  1  0.81072500  0.90114400  0.44119700  1
  Cu  Cu7  1  0.94119700  0.40114400  0.31072500  1
  Cu  Cu8  1  0.40114400  0.31072500  0.94119700  1
  Cu  Cu9  1  0.31072500  0.94119700  0.40114400  1
  C  C10  1  0.34839200  0.35563800  0.63156800  1
  C  C11  1  0.35563800  0.63156800  0.34839200  1
  C  C12  1  0.63156800  0.34839200  0.35563800  1
  C  C13  1  0.85563800  0.84839200  0.13156800  1
  C  C14  1  0.84839200  0.13156800  0.85563800  1
  C  C15  1  0.13156800  0.85563800  0.84839200  1
  C  C16  1  0.30934900  0.17175700  0.68301100  1
  C  C17  1  0.17175700  0.68301100  0.30934900  1
  C  C18  1  0.68301200  0.30934900  0.17175700  1
  C  C19  1  0.67175700  0.80934900  0.18301100  1
  C  C20  1  0.80934900  0.18301100  0.67175700  1
  C  C21  1  0.18301100  0.67175700  0.80934900  1
  C  C22  1  0.88320300  0.22948200  0.99795000  1
  C  C23  1  0.22948200  0.99795000  0.88320300  1
  C  C24  1  0.99795000  0.88320300  0.22948200  1
  C  C25  1  0.72948200  0.38320300  0.49795000  1
  C  C26  1  0.38320300  0.49795000  0.72948200  1
  C  C27  1  0.49795000  0.72948200  0.38320300  1
  C  C28  1  0.17560500  0.30413600  0.96495900  1
  C  C29  1  0.30413600  0.96495900  0.17560500  1
  C  C30  1  0.96495900  0.17560500  0.30413600  1
  C  C31  1  0.80413600  0.67560500  0.46495900  1
  C  C32  1  0.67560500  0.46495900  0.80413600  1
  C  C33  1  0.46495900  0.80413600  0.67560500  1
  C  C34  1  0.81610100  0.59985900  0.94603900  1
  C  C35  1  0.59985900  0.94603900  0.81610100  1
  C  C36  1  0.94603900  0.81610100  0.59985900  1
  C  C37  1  0.09985900  0.31610100  0.44603900  1
  C  C38  1  0.31610100  0.44603900  0.09985900  1
  C  C39  1  0.44603900  0.09985900  0.31610100  1
  C  C40  1  0.36285500  0.26148300  0.58537300  1
  C  C41  1  0.26148300  0.58537300  0.36285500  1
  C  C42  1  0.58537300  0.36285500  0.26148300  1
  C  C43  1  0.76148300  0.86285500  0.08537300  1
  C  C44  1  0.86285500  0.08537300  0.76148300  1
  C  C45  1  0.08537300  0.76148300  0.86285500  1
