# generated using pymatgen
data_Cu2NiC6
_symmetry_space_group_name_H-M   'P 1'
_cell_length_a   6.77423250
_cell_length_b   6.77423250
_cell_length_c   6.77423250
_cell_angle_alpha   147.57291770
_cell_angle_beta   128.58206116
_cell_angle_gamma   62.11428639
_symmetry_Int_Tables_number   1
_chemical_formula_structural   Cu2NiC6
_chemical_formula_sum   'Cu2 Ni1 C6'
_cell_volume   129.02637920
_cell_formula_units_Z   1
loop_
 _symmetry_equiv_pos_site_id
 _symmetry_equiv_pos_as_xyz
  1  'x, y, z'
loop_
 _atom_site_type_symbol
 _atom_site_label
 _atom_site_symmetry_multiplicity
 _atom_site_fract_x
 _atom_site_fract_y
 _atom_site_fract_z
 _atom_site_occupancy
  Ni  Ni0  1  0.00000000  0.50000000  0.50000000  1
  Cu  Cu1  1  0.70271800  0.70271800  0.00000000  1
  Cu  Cu2  1  0.29728200  0.29728200  0.00000000  1
  C  C3  1  0.50000000  0.00000000  0.50000000  1
  C  C4  1  0.40663000  0.14739500  0.25923400  1
  C  C5  1  0.59337000  0.85260500  0.74076600  1
  C  C6  1  0.11183900  0.85260500  0.25923400  1
  C  C7  1  0.88816100  0.14739500  0.74076600  1
  C  C8  1  0.50000000  0.50000000  0.00000000  1
