# generated using pymatgen
data_Cu(Ni3C)2
_symmetry_space_group_name_H-M   'P 1'
_cell_length_a   8.34948700
_cell_length_b   7.31762700
_cell_length_c   9.25496756
_cell_angle_alpha   82.72729177
_cell_angle_beta   90.00000000
_cell_angle_gamma   90.00000000
_symmetry_Int_Tables_number   1
_chemical_formula_structural   Cu(Ni3C)2
_chemical_formula_sum   'Cu4 Ni24 C8'
_cell_volume   560.91476144
_cell_formula_units_Z   4
loop_
 _symmetry_equiv_pos_site_id
 _symmetry_equiv_pos_as_xyz
  1  'x, y, z'
loop_
 _atom_site_type_symbol
 _atom_site_label
 _atom_site_symmetry_multiplicity
 _atom_site_fract_x
 _atom_site_fract_y
 _atom_site_fract_z
 _atom_site_occupancy
  C  C0  1  0.65317200  0.25407200  0.15418600  1
  C  C1  1  0.84682800  0.25407200  0.65418600  1
  C  C2  1  0.34682800  0.74592800  0.84581400  1
  C  C3  1  0.15317200  0.74592800  0.34581400  1
  C  C4  1  0.22485700  0.08530100  0.57364800  1
  C  C5  1  0.77514300  0.91469900  0.42635200  1
  C  C6  1  0.27514300  0.08530100  0.07364800  1
  C  C7  1  0.72485700  0.91469900  0.92635200  1
  Ni  Ni8  1  0.90443100  0.41272100  0.76353700  1
  Ni  Ni9  1  0.15182700  0.96634900  0.14729500  1
  Ni  Ni10  1  0.88944600  0.35193600  0.48110400  1
  Ni  Ni11  1  0.83492500  0.97119800  0.56166500  1
  Ni  Ni12  1  0.84817300  0.03365100  0.85270500  1
  Ni  Ni13  1  0.16507500  0.02880200  0.43833500  1
  Ni  Ni14  1  0.09556900  0.58727900  0.23646300  1
  Ni  Ni15  1  0.38944600  0.64806400  0.01889600  1
  Ni  Ni16  1  0.11055400  0.64806400  0.51889600  1
  Ni  Ni17  1  0.61055400  0.35193600  0.98110400  1
  Ni  Ni18  1  0.33492500  0.02880200  0.93833500  1
  Ni  Ni19  1  0.35702700  0.74860300  0.33728700  1
  Ni  Ni20  1  0.64297300  0.25139700  0.66271300  1
  Ni  Ni21  1  0.10231200  0.14009900  0.67198100  1
  Ni  Ni22  1  0.85702700  0.25139700  0.16271300  1
  Ni  Ni23  1  0.89768800  0.85990100  0.32801900  1
  Ni  Ni24  1  0.59556900  0.41272100  0.26353700  1
  Ni  Ni25  1  0.66507500  0.97119800  0.06166500  1
  Ni  Ni26  1  0.65182700  0.03365100  0.35270500  1
  Ni  Ni27  1  0.39768800  0.14009900  0.17198100  1
  Ni  Ni28  1  0.40443100  0.58727900  0.73646300  1
  Ni  Ni29  1  0.14297300  0.74860300  0.83728700  1
  Ni  Ni30  1  0.34817300  0.96634900  0.64729500  1
  Ni  Ni31  1  0.60231200  0.85990100  0.82801900  1
  Cu  Cu32  1  0.81805900  0.73168400  0.97950500  1
  Cu  Cu33  1  0.31805900  0.26831600  0.52049500  1
  Cu  Cu34  1  0.68194100  0.73168400  0.47950500  1
  Cu  Cu35  1  0.18194100  0.26831600  0.02049500  1
