# generated using pymatgen
data_Cu(NiC5)2
_symmetry_space_group_name_H-M   'P 1'
_cell_length_a   6.85821787
_cell_length_b   6.85821787
_cell_length_c   10.28368456
_cell_angle_alpha   73.76418123
_cell_angle_beta   73.76418123
_cell_angle_gamma   61.88704633
_symmetry_Int_Tables_number   1
_chemical_formula_structural   Cu(NiC5)2
_chemical_formula_sum   'Cu1 Ni2 C10'
_cell_volume   403.32353365
_cell_formula_units_Z   1
loop_
 _symmetry_equiv_pos_site_id
 _symmetry_equiv_pos_as_xyz
  1  'x, y, z'
loop_
 _atom_site_type_symbol
 _atom_site_label
 _atom_site_symmetry_multiplicity
 _atom_site_fract_x
 _atom_site_fract_y
 _atom_site_fract_z
 _atom_site_occupancy
  C  C0  1  0.60902500  0.60902500  0.16308100  1
  C  C1  1  0.39097500  0.39097500  0.83691900  1
  Ni  Ni2  1  0.13241400  0.13241400  0.60548300  1
  Ni  Ni3  1  0.86758600  0.86758600  0.39451700  1
  Cu  Cu4  1  0.00000000  0.00000000  0.00000000  1
  C  C5  1  0.92081900  0.92081900  0.68778100  1
  C  C6  1  0.89409200  0.35914300  0.86723400  1
  C  C7  1  0.34268600  0.34268600  0.50413900  1
  C  C8  1  0.64085700  0.10590800  0.13276600  1
  C  C9  1  0.65731400  0.65731400  0.49586100  1
  C  C10  1  0.35914300  0.89409200  0.86723400  1
  C  C11  1  0.10590800  0.64085700  0.13276600  1
  C  C12  1  0.07918100  0.07918100  0.31221900  1
