# generated using pymatgen
data_Cu6Ni3C5
_symmetry_space_group_name_H-M   'P 1'
_cell_length_a   6.54026200
_cell_length_b   7.37633500
_cell_length_c   14.37064200
_cell_angle_alpha   90.00000000
_cell_angle_beta   90.00000000
_cell_angle_gamma   90.00000000
_symmetry_Int_Tables_number   1
_chemical_formula_structural   Cu6Ni3C5
_chemical_formula_sum   'Cu24 Ni12 C20'
_cell_volume   693.28523160
_cell_formula_units_Z   4
loop_
 _symmetry_equiv_pos_site_id
 _symmetry_equiv_pos_as_xyz
  1  'x, y, z'
loop_
 _atom_site_type_symbol
 _atom_site_label
 _atom_site_symmetry_multiplicity
 _atom_site_fract_x
 _atom_site_fract_y
 _atom_site_fract_z
 _atom_site_occupancy
  C  C0  1  0.75000000  0.50000000  0.27899800  1
  C  C1  1  0.25000000  0.50000000  0.22100200  1
  C  C2  1  0.75000000  0.50000000  0.77899800  1
  C  C3  1  0.25000000  0.50000000  0.72100200  1
  C  C4  1  0.75000000  0.00000000  0.42842800  1
  C  C5  1  0.25000000  0.00000000  0.57157200  1
  C  C6  1  0.75000000  0.00000000  0.92842800  1
  C  C7  1  0.25000000  0.00000000  0.07157200  1
  C  C8  1  0.00000000  0.95083200  0.75000000  1
  C  C9  1  0.00000000  0.04916800  0.25000000  1
  C  C10  1  0.29199000  0.33190000  0.43023300  1
  C  C11  1  0.50000000  0.95083200  0.25000000  1
  C  C12  1  0.20801000  0.66810000  0.43023300  1
  C  C13  1  0.79199000  0.33190000  0.56976700  1
  C  C14  1  0.70801000  0.66810000  0.56976700  1
  C  C15  1  0.50000000  0.04916800  0.75000000  1
  C  C16  1  0.79199000  0.66810000  0.06976700  1
  C  C17  1  0.29199000  0.66810000  0.93023300  1
  C  C18  1  0.20801000  0.33190000  0.93023300  1
  C  C19  1  0.70801000  0.33190000  0.06976700  1
  Ni  Ni20  1  0.63187000  0.70460100  0.08701200  1
  Ni  Ni21  1  0.00000000  0.10131400  0.75000000  1
  Ni  Ni22  1  0.86813000  0.29539900  0.08701200  1
  Ni  Ni23  1  0.50000000  0.89868600  0.75000000  1
  Ni  Ni24  1  0.50000000  0.10131400  0.25000000  1
  Ni  Ni25  1  0.63187000  0.29539900  0.58701200  1
  Ni  Ni26  1  0.00000000  0.89868600  0.25000000  1
  Ni  Ni27  1  0.36813000  0.29539900  0.91298800  1
  Ni  Ni28  1  0.86813000  0.70460100  0.58701200  1
  Ni  Ni29  1  0.36813000  0.70460100  0.41298800  1
  Ni  Ni30  1  0.13187000  0.29539900  0.41298800  1
  Ni  Ni31  1  0.13187000  0.70460100  0.91298800  1
  Cu  Cu32  1  0.46147500  0.38567400  0.85316700  1
  Cu  Cu33  1  0.44082000  0.15792700  0.95781300  1
  Cu  Cu34  1  0.60615100  0.18216700  0.31145600  1
  Cu  Cu35  1  0.05918000  0.15792700  0.45781300  1
  Cu  Cu36  1  0.03852500  0.61432600  0.85316700  1
  Cu  Cu37  1  0.94082000  0.84207300  0.54218700  1
  Cu  Cu38  1  0.44082000  0.84207300  0.45781300  1
  Cu  Cu39  1  0.60615100  0.81783300  0.81145600  1
  Cu  Cu40  1  0.89384900  0.18216700  0.81145600  1
  Cu  Cu41  1  0.55918000  0.84207300  0.04218700  1
  Cu  Cu42  1  0.39384900  0.81783300  0.68854400  1
  Cu  Cu43  1  0.96147500  0.61432600  0.64683300  1
  Cu  Cu44  1  0.96147500  0.38567400  0.14683300  1
  Cu  Cu45  1  0.10615100  0.81783300  0.18854400  1
  Cu  Cu46  1  0.53852500  0.38567400  0.64683300  1
  Cu  Cu47  1  0.10615100  0.18216700  0.68854400  1
  Cu  Cu48  1  0.39384900  0.18216700  0.18854400  1
  Cu  Cu49  1  0.55918000  0.15792700  0.54218700  1
  Cu  Cu50  1  0.05918000  0.84207300  0.95781300  1
  Cu  Cu51  1  0.53852500  0.61432600  0.14683300  1
  Cu  Cu52  1  0.89384900  0.81783300  0.31145600  1
  Cu  Cu53  1  0.94082000  0.15792700  0.04218700  1
  Cu  Cu54  1  0.03852500  0.38567400  0.35316700  1
  Cu  Cu55  1  0.46147500  0.61432600  0.35316700  1
