# generated using pymatgen
data_Cu2Ni3C8
_symmetry_space_group_name_H-M   'P 1'
_cell_length_a   5.03661079
_cell_length_b   5.03661079
_cell_length_c   15.52403190
_cell_angle_alpha   77.96219388
_cell_angle_beta   77.96219388
_cell_angle_gamma   68.51111016
_symmetry_Int_Tables_number   1
_chemical_formula_structural   Cu2Ni3C8
_chemical_formula_sum   'Cu4 Ni6 C16'
_cell_volume   354.57417918
_cell_formula_units_Z   2
loop_
 _symmetry_equiv_pos_site_id
 _symmetry_equiv_pos_as_xyz
  1  'x, y, z'
loop_
 _atom_site_type_symbol
 _atom_site_label
 _atom_site_symmetry_multiplicity
 _atom_site_fract_x
 _atom_site_fract_y
 _atom_site_fract_z
 _atom_site_occupancy
  Ni  Ni0  1  0.82898800  0.72476600  0.43297600  1
  Ni  Ni1  1  0.75206200  0.24793800  0.25000000  1
  Ni  Ni2  1  0.72476600  0.82898800  0.93297600  1
  Ni  Ni3  1  0.27523400  0.17101200  0.06702400  1
  Ni  Ni4  1  0.24793800  0.75206200  0.75000000  1
  Ni  Ni5  1  0.17101200  0.27523400  0.56702400  1
  Cu  Cu6  1  0.90494700  0.76664200  0.12792800  1
  Cu  Cu7  1  0.09505300  0.23335800  0.87207200  1
  Cu  Cu8  1  0.23335900  0.09505300  0.37207200  1
  Cu  Cu9  1  0.76664100  0.90494700  0.62792800  1
  C  C10  1  0.02961900  0.97350900  0.64670600  1
  C  C11  1  0.63064300  0.77631300  0.71639600  1
  C  C12  1  0.56715400  0.18183800  0.58017600  1
  C  C13  1  0.97350900  0.02961900  0.14670600  1
  C  C14  1  0.97038100  0.02649100  0.35329400  1
  C  C15  1  0.77631300  0.63064300  0.21639600  1
  C  C16  1  0.02649100  0.97038100  0.85329400  1
  C  C17  1  0.43284600  0.81816200  0.41982400  1
  C  C18  1  0.22368700  0.36935700  0.78360400  1
  C  C19  1  0.67637300  0.89339900  0.06129600  1
  C  C20  1  0.81816200  0.43284600  0.91982400  1
  C  C21  1  0.32362700  0.10660100  0.93870400  1
  C  C22  1  0.89339900  0.67637300  0.56129600  1
  C  C23  1  0.18183800  0.56715400  0.08017600  1
  C  C24  1  0.10660100  0.32362700  0.43870400  1
  C  C25  1  0.36935700  0.22368700  0.28360400  1
