# generated using pymatgen
data_CuNi2C3
_symmetry_space_group_name_H-M   'P 1'
_cell_length_a   12.88779515
_cell_length_b   12.88779515
_cell_length_c   12.88779515
_cell_angle_alpha   109.47122063
_cell_angle_beta   109.47122063
_cell_angle_gamma   109.47122063
_symmetry_Int_Tables_number   1
_chemical_formula_structural   CuNi2C3
_chemical_formula_sum   'Cu12 Ni24 C36'
_cell_volume   1647.83598496
_cell_formula_units_Z   12
loop_
 _symmetry_equiv_pos_site_id
 _symmetry_equiv_pos_as_xyz
  1  'x, y, z'
loop_
 _atom_site_type_symbol
 _atom_site_label
 _atom_site_symmetry_multiplicity
 _atom_site_fract_x
 _atom_site_fract_y
 _atom_site_fract_z
 _atom_site_occupancy
  C  C0  1  0.84088000  0.09088000  0.75000000  1
  C  C1  1  0.50000000  0.00000000  0.43742700  1
  C  C2  1  0.40912000  0.65912000  0.75000000  1
  C  C3  1  0.75000000  0.40912000  0.65912000  1
  C  C4  1  0.43742700  0.50000000  0.00000000  1
  C  C5  1  0.43742700  0.43742700  0.43742700  1
  C  C6  1  0.09088000  0.84088000  0.25000000  1
  C  C7  1  0.65912000  0.40912000  0.25000000  1
  C  C8  1  0.65912000  0.75000000  0.40912000  1
  C  C9  1  0.00000000  0.43742700  0.50000000  1
  C  C10  1  0.09088000  0.75000000  0.84088000  1
  C  C11  1  0.84088000  0.25000000  0.09088000  1
  C  C12  1  0.50000000  0.00000000  0.06257300  1
  C  C13  1  0.75000000  0.50000000  0.00000000  1
  C  C14  1  0.25000000  0.65912000  0.40912000  1
  C  C15  1  0.06257300  0.06257300  0.06257300  1
  C  C16  1  0.75000000  0.84088000  0.09088000  1
  C  C17  1  0.00000000  0.06257300  0.50000000  1
  C  C18  1  0.25000000  0.09088000  0.84088000  1
  C  C19  1  0.40912000  0.25000000  0.65912000  1
  C  C20  1  0.06257300  0.50000000  0.00000000  1
  C  C21  1  0.50000000  0.00000000  0.75000000  1
  C  C22  1  0.00000000  0.75000000  0.50000000  1
  C  C23  1  0.75000000  0.75000000  0.75000000  1
  C  C24  1  0.53905700  0.25000000  0.96094300  1
  C  C25  1  0.78905700  0.57811400  0.53905700  1
  C  C26  1  0.25000000  0.78905700  0.71094300  1
  C  C27  1  0.25000000  0.96094300  0.53905700  1
  C  C28  1  0.57811400  0.53905700  0.78905700  1
  C  C29  1  0.96094300  0.92188600  0.71094300  1
  C  C30  1  0.71094300  0.96094300  0.92188600  1
  C  C31  1  0.53905700  0.78905700  0.57811400  1
  C  C32  1  0.71094300  0.25000000  0.78905700  1
  C  C33  1  0.78905700  0.71094300  0.25000000  1
  C  C34  1  0.92188600  0.71094300  0.96094300  1
  C  C35  1  0.96094300  0.53905700  0.25000000  1
  Ni  Ni36  1  0.60300300  0.19713200  0.67916300  1
  Ni  Ni37  1  0.82083700  0.30286800  0.89699700  1
  Ni  Ni38  1  0.19713200  0.67916300  0.60300300  1
  Ni  Ni39  1  0.89699700  0.57616000  0.59412900  1
  Ni  Ni40  1  0.60300300  0.90587100  0.92384000  1
  Ni  Ni41  1  0.30286800  0.90587100  0.48203100  1
  Ni  Ni42  1  0.90587100  0.92384000  0.60300300  1
  Ni  Ni43  1  0.30286800  0.89699700  0.82083700  1
  Ni  Ni44  1  0.57616000  0.59412900  0.89699700  1
  Ni  Ni45  1  0.59412900  0.19713200  0.01796900  1
  Ni  Ni46  1  0.67916300  0.57616000  0.48203100  1
  Ni  Ni47  1  0.59412900  0.89699700  0.57616000  1
  Ni  Ni48  1  0.01796900  0.92384000  0.82083700  1
  Ni  Ni49  1  0.92384000  0.60300300  0.90587100  1
  Ni  Ni50  1  0.82083700  0.01796900  0.92384000  1
  Ni  Ni51  1  0.89699700  0.82083700  0.30286800  1
  Ni  Ni52  1  0.48203100  0.67916300  0.57616000  1
  Ni  Ni53  1  0.90587100  0.48203100  0.30286800  1
  Ni  Ni54  1  0.19713200  0.01796900  0.59412900  1
  Ni  Ni55  1  0.57616000  0.48203100  0.67916300  1
  Ni  Ni56  1  0.01796900  0.59412900  0.19713200  1
  Ni  Ni57  1  0.67916300  0.60300300  0.19713200  1
  Ni  Ni58  1  0.48203100  0.30286800  0.90587100  1
  Ni  Ni59  1  0.92384000  0.82083700  0.01796900  1
  Cu  Cu60  1  0.60915200  0.89084800  0.25000000  1
  Cu  Cu61  1  0.89084800  0.14084800  0.28169700  1
  Cu  Cu62  1  0.60915200  0.21830300  0.35915200  1
  Cu  Cu63  1  0.21830300  0.35915200  0.60915200  1
  Cu  Cu64  1  0.14084800  0.35915200  0.25000000  1
  Cu  Cu65  1  0.35915200  0.25000000  0.14084800  1
  Cu  Cu66  1  0.35915200  0.60915200  0.21830300  1
  Cu  Cu67  1  0.25000000  0.14084800  0.35915200  1
  Cu  Cu68  1  0.89084800  0.25000000  0.60915200  1
  Cu  Cu69  1  0.25000000  0.60915200  0.89084800  1
  Cu  Cu70  1  0.14084800  0.28169700  0.89084800  1
  Cu  Cu71  1  0.28169700  0.89084800  0.14084800  1
