# generated using pymatgen
data_CuNi6C7
_symmetry_space_group_name_H-M   'P 1'
_cell_length_a   7.25856500
_cell_length_b   9.49630200
_cell_length_c   12.01905125
_cell_angle_alpha   60.25362157
_cell_angle_beta   90.00000000
_cell_angle_gamma   90.00000000
_symmetry_Int_Tables_number   1
_chemical_formula_structural   CuNi6C7
_chemical_formula_sum   'Cu2 Ni12 C14'
_cell_volume   719.30048243
_cell_formula_units_Z   2
loop_
 _symmetry_equiv_pos_site_id
 _symmetry_equiv_pos_as_xyz
  1  'x, y, z'
loop_
 _atom_site_type_symbol
 _atom_site_label
 _atom_site_symmetry_multiplicity
 _atom_site_fract_x
 _atom_site_fract_y
 _atom_site_fract_z
 _atom_site_occupancy
  C  C0  1  0.00000000  0.00000000  0.00000000  1
  C  C1  1  0.00000000  0.00000000  0.50000000  1
  Ni  Ni2  1  0.74295400  0.33860400  0.61158700  1
  Ni  Ni3  1  0.25704600  0.66139600  0.38841300  1
  Ni  Ni4  1  0.24540100  0.55693400  0.89015000  1
  Ni  Ni5  1  0.75459900  0.44306600  0.10985000  1
  Ni  Ni6  1  0.43229600  0.24168400  0.61619800  1
  Ni  Ni7  1  0.74295400  0.66139600  0.88841300  1
  Ni  Ni8  1  0.56770400  0.75831600  0.38380200  1
  Ni  Ni9  1  0.75459900  0.55693400  0.39015000  1
  Ni  Ni10  1  0.24540100  0.44306600  0.60985000  1
  Ni  Ni11  1  0.25704600  0.33860400  0.11158700  1
  Ni  Ni12  1  0.56770400  0.24168400  0.11619800  1
  Ni  Ni13  1  0.43229600  0.75831600  0.88380200  1
  Cu  Cu14  1  0.72327900  0.50000000  0.75000000  1
  Cu  Cu15  1  0.27672100  0.50000000  0.25000000  1
  C  C16  1  0.10273800  0.21097600  0.88636300  1
  C  C17  1  0.77936600  0.94366300  0.60212200  1
  C  C18  1  0.22063400  0.94366300  0.10212200  1
  C  C19  1  0.89516300  0.08302300  0.10271100  1
  C  C20  1  0.89726200  0.78902400  0.11363700  1
  C  C21  1  0.22063400  0.05633700  0.39787800  1
  C  C22  1  0.89726200  0.21097600  0.38636300  1
  C  C23  1  0.10483700  0.91697700  0.89728900  1
  C  C24  1  0.10483700  0.08302300  0.60271100  1
  C  C25  1  0.10273800  0.78902400  0.61363700  1
  C  C26  1  0.89516300  0.91697700  0.39728900  1
  C  C27  1  0.77936600  0.05633700  0.89787800  1
