# generated using pymatgen
data_Cu3NiC
_symmetry_space_group_name_H-M   'P 1'
_cell_length_a   5.16286057
_cell_length_b   5.16286057
_cell_length_c   3.64681400
_cell_angle_alpha   90.00000000
_cell_angle_beta   90.00000000
_cell_angle_gamma   110.97251163
_symmetry_Int_Tables_number   1
_chemical_formula_structural   Cu3NiC
_chemical_formula_sum   'Cu6 Ni2 C2'
_cell_volume   90.76659997
_cell_formula_units_Z   2
loop_
 _symmetry_equiv_pos_site_id
 _symmetry_equiv_pos_as_xyz
  1  'x, y, z'
loop_
 _atom_site_type_symbol
 _atom_site_label
 _atom_site_symmetry_multiplicity
 _atom_site_fract_x
 _atom_site_fract_y
 _atom_site_fract_z
 _atom_site_occupancy
  C  C0  1  0.21242700  0.78757300  0.75000000  1
  C  C1  1  0.78757300  0.21242700  0.25000000  1
  Ni  Ni2  1  0.65254800  0.65254800  0.00000000  1
  Ni  Ni3  1  0.34745200  0.34745200  0.50000000  1
  Cu  Cu4  1  0.65406000  0.89326800  0.85253100  1
  Cu  Cu5  1  0.41719200  0.58280800  0.25000000  1
  Cu  Cu6  1  0.34594000  0.10673200  0.35253100  1
  Cu  Cu7  1  0.10673200  0.34594000  0.64746900  1
  Cu  Cu8  1  0.58280800  0.41719200  0.75000000  1
  Cu  Cu9  1  0.89326800  0.65406000  0.14746900  1
