# generated using pymatgen
data_Cu5NiC7
_symmetry_space_group_name_H-M   'P 1'
_cell_length_a   4.14039600
_cell_length_b   9.63180100
_cell_length_c   18.17619212
_cell_angle_alpha   79.01575059
_cell_angle_beta   90.00000000
_cell_angle_gamma   90.00000000
_symmetry_Int_Tables_number   1
_chemical_formula_structural   Cu5NiC7
_chemical_formula_sum   'Cu10 Ni2 C14'
_cell_volume   711.57724541
_cell_formula_units_Z   2
loop_
 _symmetry_equiv_pos_site_id
 _symmetry_equiv_pos_as_xyz
  1  'x, y, z'
loop_
 _atom_site_type_symbol
 _atom_site_label
 _atom_site_symmetry_multiplicity
 _atom_site_fract_x
 _atom_site_fract_y
 _atom_site_fract_z
 _atom_site_occupancy
  Ni  Ni0  1  0.75000000  0.02268400  0.27206300  1
  Ni  Ni1  1  0.25000000  0.97731600  0.72793700  1
  Cu  Cu2  1  0.25000000  0.82897400  0.53411300  1
  Cu  Cu3  1  0.25000000  0.32088100  0.81338800  1
  Cu  Cu4  1  0.75000000  0.17102600  0.46588700  1
  Cu  Cu5  1  0.75000000  0.67911900  0.18661200  1
  Cu  Cu6  1  0.75000000  0.43222700  0.12250600  1
  Cu  Cu7  1  0.25000000  0.14760400  0.04663400  1
  Cu  Cu8  1  0.25000000  0.51574800  0.39773400  1
  Cu  Cu9  1  0.25000000  0.56777300  0.87749400  1
  Cu  Cu10  1  0.75000000  0.48425200  0.60226600  1
  Cu  Cu11  1  0.75000000  0.85239600  0.95336600  1
  C  C12  1  0.75000000  0.26371200  0.72768100  1
  C  C13  1  0.25000000  0.62061700  0.65639300  1
  C  C14  1  0.75000000  0.66936900  0.46718000  1
  C  C15  1  0.25000000  0.66447800  0.00639100  1
  C  C16  1  0.25000000  0.33063100  0.53282000  1
  C  C17  1  0.75000000  0.94330000  0.09112200  1
  C  C18  1  0.75000000  0.33552200  0.99360900  1
  C  C19  1  0.25000000  0.25720300  0.17706700  1
  C  C20  1  0.25000000  0.73628800  0.27231900  1
  C  C21  1  0.75000000  0.37938300  0.34360700  1
  C  C22  1  0.25000000  0.02971200  0.40913600  1
  C  C23  1  0.25000000  0.05670000  0.90887800  1
  C  C24  1  0.75000000  0.97028800  0.59086400  1
  C  C25  1  0.75000000  0.74279700  0.82293300  1
