# generated using pymatgen
data_Cu2Ni3C4
_symmetry_space_group_name_H-M   'P 1'
_cell_length_a   12.53767100
_cell_length_b   12.53767100
_cell_length_c   12.53767100
_cell_angle_alpha   90.00000000
_cell_angle_beta   90.00000000
_cell_angle_gamma   90.00000000
_symmetry_Int_Tables_number   1
_chemical_formula_structural   Cu2Ni3C4
_chemical_formula_sum   'Cu16 Ni24 C32'
_cell_volume   1970.83655112
_cell_formula_units_Z   8
loop_
 _symmetry_equiv_pos_site_id
 _symmetry_equiv_pos_as_xyz
  1  'x, y, z'
loop_
 _atom_site_type_symbol
 _atom_site_label
 _atom_site_symmetry_multiplicity
 _atom_site_fract_x
 _atom_site_fract_y
 _atom_site_fract_z
 _atom_site_occupancy
  C  C0  1  0.50000000  0.50000000  0.50000000  1
  C  C1  1  0.50000000  0.00000000  0.00000000  1
  C  C2  1  0.00000000  0.50000000  0.00000000  1
  C  C3  1  0.00000000  0.00000000  0.50000000  1
  Ni  Ni4  1  0.18824200  0.30437600  0.45331000  1
  Ni  Ni5  1  0.19562400  0.54669000  0.68824200  1
  Ni  Ni6  1  0.04669000  0.68824200  0.30437600  1
  Ni  Ni7  1  0.45331000  0.31175800  0.80437600  1
  Ni  Ni8  1  0.68824200  0.30437600  0.04669000  1
  Ni  Ni9  1  0.31175800  0.80437600  0.45331000  1
  Ni  Ni10  1  0.30437600  0.04669000  0.68824200  1
  Ni  Ni11  1  0.95331000  0.18824200  0.19562400  1
  Ni  Ni12  1  0.81175800  0.80437600  0.04669000  1
  Ni  Ni13  1  0.68824200  0.19562400  0.54669000  1
  Ni  Ni14  1  0.81175800  0.69562400  0.54669000  1
  Ni  Ni15  1  0.18824200  0.19562400  0.95331000  1
  Ni  Ni16  1  0.30437600  0.45331000  0.18824200  1
  Ni  Ni17  1  0.69562400  0.95331000  0.31175800  1
  Ni  Ni18  1  0.45331000  0.18824200  0.30437600  1
  Ni  Ni19  1  0.31175800  0.69562400  0.95331000  1
  Ni  Ni20  1  0.69562400  0.54669000  0.81175800  1
  Ni  Ni21  1  0.54669000  0.81175800  0.69562400  1
  Ni  Ni22  1  0.80437600  0.45331000  0.31175800  1
  Ni  Ni23  1  0.04669000  0.81175800  0.80437600  1
  Ni  Ni24  1  0.19562400  0.95331000  0.18824200  1
  Ni  Ni25  1  0.80437600  0.04669000  0.81175800  1
  Ni  Ni26  1  0.54669000  0.68824200  0.19562400  1
  Ni  Ni27  1  0.95331000  0.31175800  0.69562400  1
  Cu  Cu28  1  0.26616500  0.26616500  0.26616500  1
  Cu  Cu29  1  0.34970700  0.65029300  0.15029300  1
  Cu  Cu30  1  0.73383500  0.73383500  0.73383500  1
  Cu  Cu31  1  0.65029300  0.15029300  0.34970700  1
  Cu  Cu32  1  0.15029300  0.34970700  0.65029300  1
  Cu  Cu33  1  0.76616500  0.23383500  0.73383500  1
  Cu  Cu34  1  0.73383500  0.76616500  0.23383500  1
  Cu  Cu35  1  0.84970700  0.65029300  0.34970700  1
  Cu  Cu36  1  0.84970700  0.84970700  0.84970700  1
  Cu  Cu37  1  0.26616500  0.23383500  0.76616500  1
  Cu  Cu38  1  0.65029300  0.34970700  0.84970700  1
  Cu  Cu39  1  0.76616500  0.26616500  0.23383500  1
  Cu  Cu40  1  0.23383500  0.76616500  0.26616500  1
  Cu  Cu41  1  0.23383500  0.73383500  0.76616500  1
  Cu  Cu42  1  0.34970700  0.84970700  0.65029300  1
  Cu  Cu43  1  0.15029300  0.15029300  0.15029300  1
  C  C44  1  0.31841800  0.53678000  0.45565000  1
  C  C45  1  0.45565000  0.31841800  0.53678000  1
  C  C46  1  0.50000000  0.00000000  0.50000000  1
  C  C47  1  0.81841800  0.96322000  0.54435000  1
  C  C48  1  0.81841800  0.53678000  0.04435000  1
  C  C49  1  0.96322000  0.95565000  0.31841800  1
  C  C50  1  0.00000000  0.00000000  0.00000000  1
  C  C51  1  0.18158200  0.46322000  0.95565000  1
  C  C52  1  0.45565000  0.18158200  0.03678000  1
  C  C53  1  0.00000000  0.50000000  0.50000000  1
  C  C54  1  0.54435000  0.68158200  0.46322000  1
  C  C55  1  0.04435000  0.81841800  0.53678000  1
  C  C56  1  0.46322000  0.54435000  0.68158200  1
  C  C57  1  0.53678000  0.45565000  0.31841800  1
  C  C58  1  0.54435000  0.81841800  0.96322000  1
  C  C59  1  0.46322000  0.95565000  0.18158200  1
  C  C60  1  0.95565000  0.18158200  0.46322000  1
  C  C61  1  0.31841800  0.96322000  0.95565000  1
  C  C62  1  0.53678000  0.04435000  0.81841800  1
  C  C63  1  0.03678000  0.45565000  0.18158200  1
  C  C64  1  0.04435000  0.68158200  0.03678000  1
  C  C65  1  0.50000000  0.50000000  0.00000000  1
  C  C66  1  0.03678000  0.04435000  0.68158200  1
  C  C67  1  0.18158200  0.03678000  0.45565000  1
  C  C68  1  0.68158200  0.46322000  0.54435000  1
  C  C69  1  0.68158200  0.03678000  0.04435000  1
  C  C70  1  0.96322000  0.54435000  0.81841800  1
  C  C71  1  0.95565000  0.31841800  0.96322000  1
