# generated using pymatgen
data_Cu(Ni2C3)2
_symmetry_space_group_name_H-M   'P 1'
_cell_length_a   8.76928920
_cell_length_b   8.76928920
_cell_length_c   7.41952400
_cell_angle_alpha   90.00000000
_cell_angle_beta   90.00000000
_cell_angle_gamma   130.19403287
_symmetry_Int_Tables_number   1
_chemical_formula_structural   Cu(Ni2C3)2
_chemical_formula_sum   'Cu2 Ni8 C12'
_cell_volume   435.83333390
_cell_formula_units_Z   2
loop_
 _symmetry_equiv_pos_site_id
 _symmetry_equiv_pos_as_xyz
  1  'x, y, z'
loop_
 _atom_site_type_symbol
 _atom_site_label
 _atom_site_symmetry_multiplicity
 _atom_site_fract_x
 _atom_site_fract_y
 _atom_site_fract_z
 _atom_site_occupancy
  C  C0  1  0.32573400  0.67426600  0.50000000  1
  C  C1  1  0.69319400  0.69319400  0.19320900  1
  C  C2  1  0.30680600  0.30680600  0.80679100  1
  C  C3  1  0.19319400  0.19319400  0.30679100  1
  C  C4  1  0.82573400  0.17426600  0.00000000  1
  C  C5  1  0.67426600  0.32573400  0.50000000  1
  C  C6  1  0.80680600  0.80680600  0.69320900  1
  C  C7  1  0.17426600  0.82573400  0.00000000  1
  C  C8  1  0.36267400  0.63732600  0.00000000  1
  C  C9  1  0.63732600  0.36267400  0.00000000  1
  C  C10  1  0.13732600  0.86267400  0.50000000  1
  C  C11  1  0.86267400  0.13732600  0.50000000  1
  Ni  Ni12  1  0.99490400  0.26317400  0.62853100  1
  Ni  Ni13  1  0.76317400  0.49490400  0.87146900  1
  Ni  Ni14  1  0.49490400  0.76317400  0.87146900  1
  Ni  Ni15  1  0.50509600  0.23682500  0.12853100  1
  Ni  Ni16  1  0.00509600  0.73682500  0.37146900  1
  Ni  Ni17  1  0.26317400  0.99490400  0.62853100  1
  Ni  Ni18  1  0.73682600  0.00509600  0.37146900  1
  Ni  Ni19  1  0.23682600  0.50509600  0.12853100  1
  Cu  Cu20  1  0.50000000  0.50000000  0.50000000  1
  Cu  Cu21  1  0.00000000  0.00000000  0.00000000  1
