# generated using pymatgen
data_Cu2Ni4C3
_symmetry_space_group_name_H-M   'P 1'
_cell_length_a   4.81793000
_cell_length_b   8.63171400
_cell_length_c   9.08740400
_cell_angle_alpha   90.00000000
_cell_angle_beta   90.00000000
_cell_angle_gamma   90.00000000
_symmetry_Int_Tables_number   1
_chemical_formula_structural   Cu2Ni4C3
_chemical_formula_sum   'Cu8 Ni16 C12'
_cell_volume   377.91781410
_cell_formula_units_Z   4
loop_
 _symmetry_equiv_pos_site_id
 _symmetry_equiv_pos_as_xyz
  1  'x, y, z'
loop_
 _atom_site_type_symbol
 _atom_site_label
 _atom_site_symmetry_multiplicity
 _atom_site_fract_x
 _atom_site_fract_y
 _atom_site_fract_z
 _atom_site_occupancy
  C  C0  1  0.59363800  0.08219400  0.86897000  1
  C  C1  1  0.09363800  0.91780600  0.63103000  1
  C  C2  1  0.40636200  0.58219400  0.13103000  1
  C  C3  1  0.40636200  0.91780600  0.13103000  1
  C  C4  1  0.90636200  0.41780600  0.36897000  1
  C  C5  1  0.09363800  0.58219400  0.63103000  1
  C  C6  1  0.90636200  0.08219400  0.36897000  1
  C  C7  1  0.59363800  0.41780600  0.86897000  1
  C  C8  1  0.39932900  0.25000000  0.55998900  1
  C  C9  1  0.60067100  0.75000000  0.44001100  1
  C  C10  1  0.89932900  0.75000000  0.94001100  1
  C  C11  1  0.10067100  0.25000000  0.05998900  1
  Ni  Ni12  1  0.20411300  0.08405900  0.50912400  1
  Ni  Ni13  1  0.45871800  0.25000000  0.75377100  1
  Ni  Ni14  1  0.79588700  0.91594100  0.49087600  1
  Ni  Ni15  1  0.78034300  0.25000000  0.96456400  1
  Ni  Ni16  1  0.54128200  0.75000000  0.24622900  1
  Ni  Ni17  1  0.20411300  0.41594100  0.50912400  1
  Ni  Ni18  1  0.29588700  0.08405900  0.00912400  1
  Ni  Ni19  1  0.95871800  0.75000000  0.74622900  1
  Ni  Ni20  1  0.29588700  0.41594100  0.00912400  1
  Ni  Ni21  1  0.21965700  0.75000000  0.03543600  1
  Ni  Ni22  1  0.70411300  0.91594100  0.99087600  1
  Ni  Ni23  1  0.28034300  0.75000000  0.53543600  1
  Ni  Ni24  1  0.71965700  0.25000000  0.46456400  1
  Ni  Ni25  1  0.70411300  0.58405900  0.99087600  1
  Ni  Ni26  1  0.79588700  0.58405900  0.49087600  1
  Ni  Ni27  1  0.04128200  0.25000000  0.25377100  1
  Cu  Cu28  1  0.10431600  0.94746400  0.25082300  1
  Cu  Cu29  1  0.10431600  0.55253600  0.25082300  1
  Cu  Cu30  1  0.39568400  0.55253600  0.75082300  1
  Cu  Cu31  1  0.60431600  0.05253600  0.24917700  1
  Cu  Cu32  1  0.89568400  0.05253600  0.74917700  1
  Cu  Cu33  1  0.39568400  0.94746400  0.75082300  1
  Cu  Cu34  1  0.60431600  0.44746400  0.24917700  1
  Cu  Cu35  1  0.89568400  0.44746400  0.74917700  1
