# generated using pymatgen
data_CuNiC4
_symmetry_space_group_name_H-M   'P 1'
_cell_length_a   6.28970701
_cell_length_b   6.28970701
_cell_length_c   16.68005100
_cell_angle_alpha   90.00000000
_cell_angle_beta   90.00000000
_cell_angle_gamma   96.11283292
_symmetry_Int_Tables_number   1
_chemical_formula_structural   CuNiC4
_chemical_formula_sum   'Cu4 Ni4 C16'
_cell_volume   656.11778740
_cell_formula_units_Z   4
loop_
 _symmetry_equiv_pos_site_id
 _symmetry_equiv_pos_as_xyz
  1  'x, y, z'
loop_
 _atom_site_type_symbol
 _atom_site_label
 _atom_site_symmetry_multiplicity
 _atom_site_fract_x
 _atom_site_fract_y
 _atom_site_fract_z
 _atom_site_occupancy
  Ni  Ni0  1  0.83357600  0.16642400  0.94936600  1
  Ni  Ni1  1  0.16642400  0.83357600  0.05063400  1
  Ni  Ni2  1  0.33357600  0.66642400  0.55063400  1
  Ni  Ni3  1  0.66642400  0.33357600  0.44936600  1
  Cu  Cu4  1  0.57786000  0.92214000  0.25000000  1
  Cu  Cu5  1  0.42214000  0.07786000  0.75000000  1
  Cu  Cu6  1  0.92214000  0.57786000  0.75000000  1
  Cu  Cu7  1  0.07786000  0.42214000  0.25000000  1
  C  C8  1  0.07327200  0.92672800  0.39037100  1
  C  C9  1  0.42672800  0.57327200  0.89037100  1
  C  C10  1  0.92672800  0.07327200  0.60962900  1
  C  C11  1  0.57327200  0.42672800  0.10962900  1
  C  C12  1  0.36281100  0.20810600  0.89118700  1
  C  C13  1  0.20810600  0.36281100  0.10881300  1
  C  C14  1  0.86281100  0.70810600  0.60881300  1
  C  C15  1  0.79189400  0.63718900  0.89118700  1
  C  C16  1  0.63718900  0.79189400  0.10881300  1
  C  C17  1  0.64520200  0.35479800  0.23860200  1
  C  C18  1  0.14520200  0.85479800  0.26139800  1
  C  C19  1  0.85479800  0.14520200  0.73860200  1
  C  C20  1  0.35479800  0.64520200  0.76139800  1
  C  C21  1  0.29189400  0.13718900  0.60881300  1
  C  C22  1  0.70810600  0.86281100  0.39118700  1
  C  C23  1  0.13718900  0.29189400  0.39118700  1
