# generated using pymatgen
data_Cu16Ni3C11
_symmetry_space_group_name_H-M   'P 1'
_cell_length_a   10.34343779
_cell_length_b   10.34343779
_cell_length_c   10.37668300
_cell_angle_alpha   90.00000000
_cell_angle_beta   90.00000000
_cell_angle_gamma   132.57764989
_symmetry_Int_Tables_number   1
_chemical_formula_structural   Cu16Ni3C11
_chemical_formula_sum   'Cu32 Ni6 C22'
_cell_volume   817.48385147
_cell_formula_units_Z   2
loop_
 _symmetry_equiv_pos_site_id
 _symmetry_equiv_pos_as_xyz
  1  'x, y, z'
loop_
 _atom_site_type_symbol
 _atom_site_label
 _atom_site_symmetry_multiplicity
 _atom_site_fract_x
 _atom_site_fract_y
 _atom_site_fract_z
 _atom_site_occupancy
  C  C0  1  0.76873200  0.14357600  0.21950000  1
  C  C1  1  0.23126700  0.85642400  0.71950000  1
  C  C2  1  0.85642400  0.23126700  0.71950000  1
  C  C3  1  0.14357600  0.76873300  0.21950000  1
  C  C4  1  0.55767000  0.37224500  0.16224000  1
  C  C5  1  0.44233000  0.62775500  0.66224000  1
  C  C6  1  0.62775500  0.44233000  0.66224000  1
  C  C7  1  0.37224500  0.55767000  0.16224000  1
  C  C8  1  0.18247100  0.18247100  0.45125500  1
  C  C9  1  0.81752900  0.81752900  0.95125500  1
  C  C10  1  0.54786400  0.54786400  0.46760100  1
  C  C11  1  0.45213600  0.45213600  0.96760100  1
  C  C12  1  0.42734900  0.42734900  0.33278800  1
  C  C13  1  0.57265100  0.57265100  0.83278800  1
  C  C14  1  0.43177900  0.07925100  0.00053600  1
  C  C15  1  0.56822100  0.92074900  0.50053600  1
  C  C16  1  0.92074900  0.56822100  0.50053600  1
  C  C17  1  0.07925100  0.43177900  0.00053600  1
  C  C18  1  0.29085300  0.09617300  0.99709000  1
  C  C19  1  0.70914700  0.90382700  0.49709000  1
  C  C20  1  0.90382700  0.70914700  0.49709000  1
  C  C21  1  0.09617300  0.29085300  0.99709000  1
  Ni  Ni22  1  0.87919400  0.52197100  0.94177200  1
  Ni  Ni23  1  0.12080600  0.47802900  0.44177200  1
  Ni  Ni24  1  0.47802900  0.12080600  0.44177200  1
  Ni  Ni25  1  0.52197100  0.87919400  0.94177200  1
  Ni  Ni26  1  0.19513900  0.19513900  0.78377000  1
  Ni  Ni27  1  0.80486100  0.80486100  0.28377000  1
  Cu  Cu28  1  0.80050900  0.43846400  0.07121100  1
  Cu  Cu29  1  0.19949100  0.56153600  0.57121100  1
  Cu  Cu30  1  0.56153600  0.19949100  0.57121100  1
  Cu  Cu31  1  0.43846400  0.80050900  0.07121100  1
  Cu  Cu32  1  0.95426100  0.70719400  0.94389000  1
  Cu  Cu33  1  0.04573900  0.29280600  0.44389000  1
  Cu  Cu34  1  0.29280600  0.04573900  0.44389000  1
  Cu  Cu35  1  0.70719400  0.95426100  0.94389000  1
  Cu  Cu36  1  0.74458000  0.41738500  0.83914400  1
  Cu  Cu37  1  0.25542000  0.58261500  0.33914400  1
  Cu  Cu38  1  0.58261500  0.25542000  0.33914400  1
  Cu  Cu39  1  0.41738500  0.74458000  0.83914400  1
  Cu  Cu40  1  0.02547900  0.52912900  0.91705900  1
  Cu  Cu41  1  0.97452100  0.47087100  0.41705900  1
  Cu  Cu42  1  0.47087100  0.97452100  0.41705900  1
  Cu  Cu43  1  0.52912900  0.02547900  0.91705900  1
  Cu  Cu44  1  0.09165600  0.09165600  0.66665400  1
  Cu  Cu45  1  0.90834400  0.90834400  0.16665400  1
  Cu  Cu46  1  0.09204000  0.09204000  0.90323700  1
  Cu  Cu47  1  0.90796000  0.90796000  0.40323700  1
  Cu  Cu48  1  0.36235700  0.23290600  0.78866400  1
  Cu  Cu49  1  0.63764300  0.76709400  0.28866400  1
  Cu  Cu50  1  0.76709400  0.63764300  0.28866400  1
  Cu  Cu51  1  0.23290600  0.36235700  0.78866400  1
  Cu  Cu52  1  0.46171300  0.46171300  0.53156900  1
  Cu  Cu53  1  0.53828700  0.53828700  0.03156900  1
  Cu  Cu54  1  0.34106300  0.34106300  0.26885900  1
  Cu  Cu55  1  0.65893700  0.65893700  0.76885900  1
  Cu  Cu56  1  0.36653900  0.09873000  0.05591000  1
  Cu  Cu57  1  0.63346100  0.90127000  0.55591000  1
  Cu  Cu58  1  0.90127000  0.63346100  0.55591000  1
  Cu  Cu59  1  0.09873000  0.36653900  0.05591000  1
