# generated using pymatgen
data_CuNiC2
_symmetry_space_group_name_H-M   'P 1'
_cell_length_a   3.99171200
_cell_length_b   6.19643500
_cell_length_c   6.81844131
_cell_angle_alpha   90.00000000
_cell_angle_beta   107.02053365
_cell_angle_gamma   90.00000000
_symmetry_Int_Tables_number   1
_chemical_formula_structural   CuNiC2
_chemical_formula_sum   'Cu2 Ni2 C4'
_cell_volume   161.26306332
_cell_formula_units_Z   2
loop_
 _symmetry_equiv_pos_site_id
 _symmetry_equiv_pos_as_xyz
  1  'x, y, z'
loop_
 _atom_site_type_symbol
 _atom_site_label
 _atom_site_symmetry_multiplicity
 _atom_site_fract_x
 _atom_site_fract_y
 _atom_site_fract_z
 _atom_site_occupancy
  C  C0  1  0.89208800  0.25000000  0.78417600  1
  C  C1  1  0.10791200  0.75000000  0.21582400  1
  C  C2  1  0.40151200  0.75000000  0.80302400  1
  C  C3  1  0.59848800  0.25000000  0.19697600  1
  Ni  Ni4  1  0.80650800  0.75000000  0.61301600  1
  Ni  Ni5  1  0.19349200  0.25000000  0.38698400  1
  Cu  Cu6  1  0.50000000  0.50000000  0.00000000  1
  Cu  Cu7  1  0.50000000  0.00000000  0.00000000  1
