# generated using pymatgen
data_Cu7(Ni27C26)2
_symmetry_space_group_name_H-M   'P 1'
_cell_length_a   9.88566727
_cell_length_b   9.88566701
_cell_length_c   17.49616752
_cell_angle_alpha   98.25811476
_cell_angle_beta   98.25811453
_cell_angle_gamma   119.44465472
_symmetry_Int_Tables_number   1
_chemical_formula_structural   Cu7(Ni27C26)2
_chemical_formula_sum   'Cu7 Ni54 C52'
_cell_volume   1427.28208485
_cell_formula_units_Z   1
loop_
 _symmetry_equiv_pos_site_id
 _symmetry_equiv_pos_as_xyz
  1  'x, y, z'
loop_
 _atom_site_type_symbol
 _atom_site_label
 _atom_site_symmetry_multiplicity
 _atom_site_fract_x
 _atom_site_fract_y
 _atom_site_fract_z
 _atom_site_occupancy
  C  C0  1  0.01733839  0.33905280  1.00000000  1
  C  C1  1  0.33905280  0.01733839  1.00000000  1
  C  C2  1  0.68450197  0.35555413  0.69728384  1
  C  C3  1  0.32107663  0.32107663  0.29402709  1
  C  C4  1  0.86304930  0.86304930  0.00000000  1
  C  C5  1  0.98721813  0.65827029  0.30271616  1
  C  C6  1  0.02704955  0.02704955  0.70597291  1
  C  C7  1  0.35555413  0.68450197  0.69728384  1
  C  C8  1  0.65827029  0.98721813  0.30271616  1
  C  C9  1  0.49181696  0.49181696  0.00000000  1
  C  C10  1  0.68202994  0.68202994  0.39235833  1
  C  C11  1  0.66453078  0.66453078  0.61386729  1
  C  C12  1  0.28967161  0.28967161  0.60764167  1
  C  C13  1  0.94156893  0.44156893  0.50000000  1
  C  C14  1  0.05066350  0.05066350  0.38613271  1
  C  C15  1  0.44156893  0.94156893  0.50000000  1
  C  C16  1  0.08875869  0.44181714  0.17954385  1
  C  C17  1  0.90921484  0.26227329  0.82045615  1
  C  C18  1  0.23981223  0.23981223  0.10773364  1
  C  C19  1  0.44181714  0.08875869  0.17954385  1
  C  C20  1  0.13207859  0.13207859  0.89226636  1
  C  C21  1  0.26227329  0.90921484  0.82045615  1
  C  C22  1  0.78343138  0.47501261  0.90475394  1
  C  C23  1  0.86165350  0.04381409  0.52839630  1
  C  C24  1  0.47501261  0.78343138  0.90475394  1
  C  C25  1  0.62086957  0.12715192  0.90284137  1
  C  C26  1  0.92681814  0.75006624  0.82068433  1
  C  C27  1  0.22431055  0.71802820  0.09715863  1
  C  C28  1  0.02706597  0.34726785  0.33708398  1
  C  C29  1  0.10613382  0.92938191  0.17931567  1
  C  C30  1  0.33234436  0.67914545  0.34178089  1
  C  C31  1  0.51541779  0.33325720  0.47160370  1
  C  C32  1  0.87867744  0.57025867  0.09524606  1
  C  C33  1  0.71802820  0.22431055  0.09715863  1
  C  C34  1  0.68998199  0.01018387  0.66291602  1
  C  C35  1  0.61184228  0.43364500  0.19067212  1
  C  C36  1  0.67914545  0.33234436  0.34178089  1
  C  C37  1  0.33736456  0.99056347  0.65821911  1
  C  C38  1  0.77575611  0.77575611  0.19305672  1
  C  C39  1  0.57025867  0.87867744  0.09524606  1
  C  C40  1  0.75006624  0.92681814  0.82068433  1
  C  C41  1  0.34726785  0.02706597  0.33708398  1
  C  C42  1  0.12715192  0.62086957  0.90284137  1
  C  C43  1  0.43364500  0.61184228  0.19067212  1
  C  C44  1  0.01018387  0.68998199  0.66291602  1
  C  C45  1  0.33325720  0.51541779  0.47160370  1
  C  C46  1  0.92938191  0.10613382  0.17931567  1
  C  C47  1  0.04381409  0.86165350  0.52839630  1
  C  C48  1  0.42117016  0.24297289  0.80932788  1
  C  C49  1  0.58269940  0.58269940  0.80694328  1
  C  C50  1  0.99056347  0.33736456  0.65821911  1
  C  C51  1  0.24297289  0.42117016  0.80932788  1
  Ni  Ni52  1  0.00667814  0.51516730  0.65145485  1
  Ni  Ni53  1  0.10466650  0.93152098  0.86084144  1
  Ni  Ni54  1  0.13969126  0.35637256  0.42667152  1
  Ni  Ni55  1  0.51516730  0.00667814  0.65145485  1
  Ni  Ni56  1  0.03495593  0.03495593  0.55045768  1
  Ni  Ni57  1  0.89790469  0.41117668  0.11753348  1
  Ni  Ni58  1  0.27589213  0.27589213  0.84187946  1
  Ni  Ni59  1  0.14322141  0.63224687  0.00000000  1
  Ni  Ni60  1  0.35522329  0.86371245  0.34854515  1
  Ni  Ni61  1  0.78037121  0.29364320  0.88246652  1
  Ni  Ni62  1  0.63224687  0.14322141  0.00000000  1
  Ni  Ni63  1  0.91727531  0.91727531  0.15305946  1
  Ni  Ni64  1  0.65999119  0.46901054  0.29378999  1
  Ni  Ni65  1  0.85083479  0.21224687  0.70894122  1
  Ni  Ni66  1  0.24153157  0.92497366  0.55839982  1
  Ni  Ni67  1  0.36620120  0.17522055  0.70621001  1
  Ni  Ni68  1  0.71301974  0.92970103  0.57332848  1
  Ni  Ni69  1  0.60652766  0.93952500  0.86506942  1
  Ni  Ni70  1  0.68313175  0.36657384  0.44160018  1
  Ni  Ni71  1  0.88234198  0.69645007  0.71919391  1
  Ni  Ni72  1  0.07445558  0.74145824  0.13493058  1
  Ni  Ni73  1  0.92970103  0.71301974  0.57332848  1
  Ni  Ni74  1  0.07067953  0.24382506  0.13915856  1
  Ni  Ni75  1  0.21224687  0.85083479  0.70894122  1
  Ni  Ni76  1  0.69645007  0.88234198  0.71919391  1
  Ni  Ni77  1  0.76314280  0.59396230  0.16013718  1
  Ni  Ni78  1  0.92497366  0.24153157  0.55839982  1
  Ni  Ni79  1  0.58456108  0.25482466  0.14142673  1
  Ni  Ni80  1  0.60300562  0.43382512  0.83986282  1
  Ni  Ni81  1  0.43382512  0.60300562  0.83986282  1
  Ni  Ni82  1  0.78285496  0.55290807  1.00000000  1
  Ni  Ni83  1  0.25482466  0.58456108  0.14142673  1
  Ni  Ni84  1  0.14189357  0.50330565  0.29105878  1
  Ni  Ni85  1  0.44313434  0.11339792  0.85857327  1
  Ni  Ni86  1  0.17522055  0.36620120  0.70621001  1
  Ni  Ni87  1  0.29364320  0.78037121  0.88246652  1
  Ni  Ni88  1  0.50330565  0.14189357  0.29105878  1
  Ni  Ni89  1  0.93952500  0.60652766  0.86506942  1
  Ni  Ni90  1  0.43401267  0.43401267  0.15812054  1
  Ni  Ni91  1  0.97725617  0.16314807  0.28080609  1
  Ni  Ni92  1  0.36657384  0.68313175  0.44160018  1
  Ni  Ni93  1  0.11339792  0.44313434  0.85857327  1
  Ni  Ni94  1  0.86371245  0.35522329  0.34854515  1
  Ni  Ni95  1  0.16314807  0.97725617  0.28080609  1
  Ni  Ni96  1  0.55290807  0.78285496  1.00000000  1
  Ni  Ni97  1  0.46901054  0.65999119  0.29378999  1
  Ni  Ni98  1  0.93152098  0.10466650  0.86084144  1
  Ni  Ni99  1  0.41117668  0.89790469  0.11753348  1
  Ni  Ni100  1  0.74145824  0.07445558  0.13493058  1
  Ni  Ni101  1  0.59396230  0.76314280  0.16013718  1
  Ni  Ni102  1  0.76421585  0.76421585  0.84694054  1
  Ni  Ni103  1  0.24382506  0.07067953  0.13915856  1
  Ni  Ni104  1  0.48449825  0.48449825  0.44954232  1
  Ni  Ni105  1  0.35637256  0.13969126  0.42667152  1
  Cu  Cu106  1  0.54373274  0.36380739  0.57121029  1
  Cu  Cu107  1  0.82034184  0.82034184  0.29055011  1
  Cu  Cu108  1  0.97252245  0.79259710  0.42878971  1
  Cu  Cu109  1  0.21535685  0.21535685  1.00000000  1
  Cu  Cu110  1  0.79259710  0.97252245  0.42878971  1
  Cu  Cu111  1  0.36380739  0.54373274  0.57121029  1
  Cu  Cu112  1  0.52979173  0.52979173  0.70944989  1
