# generated using pymatgen
data_Cu8Ni58C79
_symmetry_space_group_name_H-M   'P 1'
_cell_length_a   16.68215591
_cell_length_b   16.68215643
_cell_length_c   16.68215657
_cell_angle_alpha   60.00000180
_cell_angle_beta   60.00000078
_cell_angle_gamma   60.00000275
_symmetry_Int_Tables_number   1
_chemical_formula_structural   Cu8Ni58C79
_chemical_formula_sum   'Cu8 Ni58 C79'
_cell_volume   3282.77847924
_cell_formula_units_Z   1
loop_
 _symmetry_equiv_pos_site_id
 _symmetry_equiv_pos_as_xyz
  1  'x, y, z'
loop_
 _atom_site_type_symbol
 _atom_site_label
 _atom_site_symmetry_multiplicity
 _atom_site_fract_x
 _atom_site_fract_y
 _atom_site_fract_z
 _atom_site_occupancy
  C  C0  1  0.06671539  0.76295088  0.40738285  1
  C  C1  1  0.40738285  0.76295088  0.06671539  1
  C  C2  1  0.64510072  0.35489928  0.35489928  1
  C  C3  1  0.76295088  0.06671539  0.40738285  1
  C  C4  1  0.23704912  0.23704912  0.93328461  1
  C  C5  1  0.59261715  0.23704912  0.23704912  1
  C  C6  1  0.35489928  0.64510072  0.35489928  1
  C  C7  1  0.06671539  0.76295088  0.76295088  1
  C  C8  1  0.76295088  0.76295088  0.40738285  1
  C  C9  1  0.06671539  0.40738285  0.76295088  1
  C  C10  1  0.35489928  0.64510072  0.64510072  1
  C  C11  1  0.76295088  0.40738285  0.06671539  1
  C  C12  1  0.59261715  0.93328461  0.23704912  1
  C  C13  1  0.76295088  0.76295088  0.06671539  1
  C  C14  1  0.23704912  0.59261715  0.23704912  1
  C  C15  1  0.93328461  0.59261715  0.23704912  1
  C  C16  1  0.23704912  0.93328461  0.23704912  1
  C  C17  1  0.76295088  0.40738285  0.76295088  1
  C  C18  1  0.93328461  0.23704912  0.23704912  1
  C  C19  1  0.23704912  0.23704912  0.59261715  1
  C  C20  1  0.64510072  0.64510072  0.35489928  1
  C  C21  1  0.40738285  0.06671539  0.76295088  1
  C  C22  1  0.59261715  0.23704912  0.93328461  1
  C  C23  1  0.93328461  0.23704912  0.59261715  1
  C  C24  1  0.23704912  0.93328461  0.59261715  1
  C  C25  1  0.76295088  0.06671539  0.76295088  1
  C  C26  1  0.40738285  0.76295088  0.76295088  1
  C  C27  1  0.23704912  0.59261715  0.93328461  1
  C  C28  1  0.64510072  0.35489928  0.64510072  1
  C  C29  1  0.35489928  0.35489928  0.64510072  1
  C  C30  1  0.19535571  0.50000000  0.50000000  1
  C  C31  1  0.19535571  0.50000000  0.80464429  1
  C  C32  1  0.50000000  0.80464429  0.50000000  1
  C  C33  1  0.08950193  0.91049807  0.08950193  1
  C  C34  1  0.80464429  0.50000000  0.50000000  1
  C  C35  1  0.08950193  0.08950193  0.91049807  1
  C  C36  1  0.50000000  0.50000000  0.80464429  1
  C  C37  1  0.50000000  0.00000000  0.50000000  1
  C  C38  1  0.00000000  0.50000000  0.50000000  1
  C  C39  1  0.19535571  0.80464429  0.50000000  1
  C  C40  1  0.50000000  0.80464429  0.19535571  1
  C  C41  1  0.50000000  0.19535571  0.50000000  1
  C  C42  1  0.50000000  0.19535571  0.80464429  1
  C  C43  1  0.80464429  0.19535571  0.50000000  1
  C  C44  1  0.50000000  0.50000000  0.00000000  1
  C  C45  1  0.08950193  0.91049807  0.91049807  1
  C  C46  1  0.00000000  0.00000000  0.50000000  1
  C  C47  1  0.50000000  0.00000000  0.00000000  1
  C  C48  1  0.50000000  0.50000000  0.19535571  1
  C  C49  1  0.80464429  0.50000000  0.19535571  1
  C  C50  1  0.91049807  0.08950193  0.91049807  1
  C  C51  1  0.00000000  0.50000000  0.00000000  1
  C  C52  1  0.91049807  0.08950193  0.08950193  1
  C  C53  1  0.91049807  0.91049807  0.08950193  1
  Ni  Ni54  1  0.58264168  0.02224914  0.58264168  1
  Ni  Ni55  1  0.58254144  0.58254144  0.25237568  1
  Ni  Ni56  1  0.80590053  0.80590053  0.19409947  1
  Ni  Ni57  1  0.81246749  0.02224914  0.58264168  1
  Ni  Ni58  1  0.41745856  0.41745856  0.74762432  1
  Ni  Ni59  1  0.65555398  1.00000000  0.34444602  1
  Ni  Ni60  1  0.41735832  0.97775086  0.41735832  1
  Ni  Ni61  1  0.18753251  0.41735832  0.97775086  1
  Ni  Ni62  1  0.34444602  0.00000000  1.00000000  1
  Ni  Ni63  1  0.07782417  0.76652750  0.07782417  1
  Ni  Ni64  1  0.81246749  0.58264168  0.58264168  1
  Ni  Ni65  1  0.19409947  0.80590053  0.19409947  1
  Ni  Ni66  1  0.23347250  0.92217583  0.92217583  1
  Ni  Ni67  1  0.41735832  0.18753251  0.97775086  1
  Ni  Ni68  1  0.07782417  0.07782417  0.07782417  1
  Ni  Ni69  1  0.41735832  0.18753251  0.41735832  1
  Ni  Ni70  1  0.58264168  0.81246749  0.02224914  1
  Ni  Ni71  1  0.65555398  0.34444602  0.00000000  1
  Ni  Ni72  1  0.97775086  0.41735832  0.41735832  1
  Ni  Ni73  1  0.92217583  0.23347250  0.92217583  1
  Ni  Ni74  1  0.58264168  0.58264168  0.81246749  1
  Ni  Ni75  1  0.58264168  0.58264168  0.02224914  1
  Ni  Ni76  1  0.02224914  0.58264168  0.81246749  1
  Ni  Ni77  1  0.92217583  0.92217583  0.92217583  1
  Ni  Ni78  1  0.58254144  0.58254144  0.58254144  1
  Ni  Ni79  1  0.80590053  0.19409947  0.19409947  1
  Ni  Ni80  1  0.80590053  0.19409947  0.80590053  1
  Ni  Ni81  1  0.41735832  0.41735832  0.18753251  1
  Ni  Ni82  1  0.65555398  1.00000000  0.00000000  1
  Ni  Ni83  1  0.18753251  0.97775086  0.41735832  1
  Ni  Ni84  1  1.00000000  0.65555398  0.34444602  1
  Ni  Ni85  1  0.34444602  0.65555398  1.00000000  1
  Ni  Ni86  1  0.81246749  0.58264168  0.02224914  1
  Ni  Ni87  1  0.58264168  0.02224914  0.81246749  1
  Ni  Ni88  1  0.41735832  0.41735832  0.97775086  1
  Ni  Ni89  1  0.97775086  0.18753251  0.41735832  1
  Ni  Ni90  1  0.19409947  0.19409947  0.80590053  1
  Ni  Ni91  1  0.76652750  0.07782417  0.07782417  1
  Ni  Ni92  1  0.58264168  0.81246749  0.58264168  1
  Ni  Ni93  1  0.92217583  0.92217583  0.23347250  1
  Ni  Ni94  1  0.97775086  0.41735832  0.18753251  1
  Ni  Ni95  1  0.25237568  0.58254144  0.58254144  1
  Ni  Ni96  1  0.00000000  0.00000000  0.34444602  1
  Ni  Ni97  1  1.00000000  0.65555398  1.00000000  1
  Ni  Ni98  1  0.41745856  0.74762432  0.41745856  1
  Ni  Ni99  1  0.34444602  0.00000000  0.65555398  1
  Ni  Ni100  1  0.18753251  0.41735832  0.41735832  1
  Ni  Ni101  1  0.41745856  0.41745856  0.41745856  1
  Ni  Ni102  1  0.00000000  0.34444602  0.65555398  1
  Ni  Ni103  1  0.58254144  0.25237568  0.58254144  1
  Ni  Ni104  1  0.41735832  0.97775086  0.18753251  1
  Ni  Ni105  1  0.02224914  0.58264168  0.58264168  1
  Ni  Ni106  1  0.00000000  0.34444602  0.00000000  1
  Ni  Ni107  1  0.19409947  0.80590053  0.80590053  1
  Ni  Ni108  1  1.00000000  1.00000000  0.65555398  1
  Ni  Ni109  1  0.02224914  0.81246749  0.58264168  1
  Ni  Ni110  1  0.74762432  0.41745856  0.41745856  1
  Ni  Ni111  1  0.07782417  0.07782417  0.76652750  1
  Cu  Cu112  1  0.17333288  0.17333288  0.48000137  1
  Cu  Cu113  1  0.17333288  0.17333288  0.17333288  1
  Cu  Cu114  1  0.51999863  0.82666712  0.82666712  1
  Cu  Cu115  1  0.48000137  0.17333288  0.17333288  1
  Cu  Cu116  1  0.82666712  0.51999863  0.82666712  1
  Cu  Cu117  1  0.82666712  0.82666712  0.82666712  1
  Cu  Cu118  1  0.82666712  0.82666712  0.51999863  1
  Cu  Cu119  1  0.17333288  0.48000137  0.17333288  1
  C  C120  1  0.21107875  0.38618483  0.78892125  1
  C  C121  1  0.38618483  0.21107875  0.61381517  1
  C  C122  1  0.61381517  0.38618483  0.21107875  1
  C  C123  1  0.21107875  0.78892125  0.38618483  1
  C  C124  1  0.78892125  0.61381517  0.21107875  1
  C  C125  1  0.61381517  0.21107875  0.38618483  1
  C  C126  1  0.78892125  0.21107875  0.61381517  1
  C  C127  1  0.38618483  0.78892125  0.61381517  1
  C  C128  1  0.38618483  0.78892125  0.21107875  1
  C  C129  1  0.21107875  0.78892125  0.61381517  1
  C  C130  1  0.78892125  0.38618483  0.61381517  1
  C  C131  1  0.21107875  0.61381517  0.78892125  1
  C  C132  1  0.38618483  0.21107875  0.78892125  1
  C  C133  1  0.00000000  0.00000000  0.00000000  1
  C  C134  1  0.61381517  0.21107875  0.78892125  1
  C  C135  1  0.38618483  0.61381517  0.78892125  1
  C  C136  1  0.78892125  0.61381517  0.38618483  1
  C  C137  1  0.21107875  0.38618483  0.61381517  1
  C  C138  1  0.61381517  0.78892125  0.21107875  1
  C  C139  1  0.21107875  0.61381517  0.38618483  1
  C  C140  1  0.61381517  0.38618483  0.78892125  1
  C  C141  1  0.61381517  0.78892125  0.38618483  1
  C  C142  1  0.38618483  0.61381517  0.21107875  1
  C  C143  1  0.78892125  0.38618483  0.21107875  1
  C  C144  1  0.78892125  0.21107875  0.38618483  1
