# generated using pymatgen
data_Cu(NiC)2
_symmetry_space_group_name_H-M   'P 1'
_cell_length_a   8.69918900
_cell_length_b   8.11631800
_cell_length_c   12.39888505
_cell_angle_alpha   59.21863184
_cell_angle_beta   90.00000000
_cell_angle_gamma   90.00000000
_symmetry_Int_Tables_number   1
_chemical_formula_structural   Cu(NiC)2
_chemical_formula_sum   'Cu8 Ni16 C16'
_cell_volume   752.10330973
_cell_formula_units_Z   8
loop_
 _symmetry_equiv_pos_site_id
 _symmetry_equiv_pos_as_xyz
  1  'x, y, z'
loop_
 _atom_site_type_symbol
 _atom_site_label
 _atom_site_symmetry_multiplicity
 _atom_site_fract_x
 _atom_site_fract_y
 _atom_site_fract_z
 _atom_site_occupancy
  C  C0  1  0.24387600  0.76698000  0.08832900  1
  C  C1  1  0.74387600  0.23302000  0.41167100  1
  C  C2  1  0.75612400  0.23302000  0.91167100  1
  C  C3  1  0.25612400  0.76698000  0.58832900  1
  C  C4  1  0.18754500  0.35689400  0.46156500  1
  C  C5  1  0.68754500  0.64310600  0.03843500  1
  C  C6  1  0.81245500  0.64310600  0.53843500  1
  C  C7  1  0.31245500  0.35689400  0.96156500  1
  C  C8  1  0.39777600  0.20876700  0.65648400  1
  C  C9  1  0.89777600  0.79123300  0.84351600  1
  C  C10  1  0.60222400  0.79123300  0.34351600  1
  C  C11  1  0.10222400  0.20876700  0.15648400  1
  C  C12  1  0.29209500  0.38072200  0.55767800  1
  C  C13  1  0.79209500  0.61927800  0.94232200  1
  C  C14  1  0.70790500  0.61927800  0.44232200  1
  C  C15  1  0.20790500  0.38072200  0.05767800  1
  Ni  Ni16  1  0.10246000  0.17970900  0.51414800  1
  Ni  Ni17  1  0.60246000  0.82029100  0.98585200  1
  Ni  Ni18  1  0.89754000  0.82029100  0.48585200  1
  Ni  Ni19  1  0.39754000  0.17970900  0.01414800  1
  Ni  Ni20  1  0.11088400  0.53530000  0.38079600  1
  Ni  Ni21  1  0.61088400  0.46470000  0.11920400  1
  Ni  Ni22  1  0.88911600  0.46470000  0.61920400  1
  Ni  Ni23  1  0.38911600  0.53530000  0.88079600  1
  Ni  Ni24  1  0.49321800  0.28050200  0.71755300  1
  Ni  Ni25  1  0.99321800  0.71949800  0.78244700  1
  Ni  Ni26  1  0.50678200  0.71949800  0.28244700  1
  Ni  Ni27  1  0.00678200  0.28050200  0.21755300  1
  Ni  Ni28  1  0.46270800  0.08963500  0.61300800  1
  Ni  Ni29  1  0.96270800  0.91036500  0.88699200  1
  Ni  Ni30  1  0.53729200  0.91036500  0.38699200  1
  Ni  Ni31  1  0.03729200  0.08963500  0.11300800  1
  Cu  Cu32  1  0.31201000  0.33916700  0.36909900  1
  Cu  Cu33  1  0.81201000  0.66083300  0.13090100  1
  Cu  Cu34  1  0.68799000  0.66083300  0.63090100  1
  Cu  Cu35  1  0.18799000  0.33916700  0.86909900  1
  Cu  Cu36  1  0.27647300  0.06767700  0.76360400  1
  Cu  Cu37  1  0.77647300  0.93232300  0.73639600  1
  Cu  Cu38  1  0.72352700  0.93232300  0.23639600  1
  Cu  Cu39  1  0.22352700  0.06767700  0.26360400  1
