# generated using pymatgen
data_Cu4NiC3
_symmetry_space_group_name_H-M   'P 1'
_cell_length_a   7.49156600
_cell_length_b   13.11922600
_cell_length_c   20.41117900
_cell_angle_alpha   90.00000000
_cell_angle_beta   90.00000000
_cell_angle_gamma   90.00000000
_symmetry_Int_Tables_number   1
_chemical_formula_structural   Cu4NiC3
_chemical_formula_sum   'Cu64 Ni16 C48'
_cell_volume   2006.08307971
_cell_formula_units_Z   16
loop_
 _symmetry_equiv_pos_site_id
 _symmetry_equiv_pos_as_xyz
  1  'x, y, z'
loop_
 _atom_site_type_symbol
 _atom_site_label
 _atom_site_symmetry_multiplicity
 _atom_site_fract_x
 _atom_site_fract_y
 _atom_site_fract_z
 _atom_site_occupancy
  C  C0  1  0.67223500  0.01611200  0.49332500  1
  C  C1  1  0.67223500  0.48388800  0.99332500  1
  C  C2  1  0.66780600  0.20569400  0.74943400  1
  C  C3  1  0.53219700  0.54635500  0.33299400  1
  C  C4  1  0.65690000  0.48382200  0.50540200  1
  C  C5  1  0.79920700  0.95851400  0.66491800  1
  C  C6  1  0.16698600  0.17185400  0.75106100  1
  C  C7  1  0.52243100  0.76371400  0.08129900  1
  C  C8  1  0.15690000  0.51617800  0.49459800  1
  C  C9  1  0.17223500  0.51611200  0.00667500  1
  C  C10  1  0.80855600  0.76750500  0.41667200  1
  C  C11  1  0.02243100  0.26371400  0.41870100  1
  C  C12  1  0.52243100  0.73628600  0.58129900  1
  C  C13  1  0.79920700  0.54148600  0.16491800  1
  C  C14  1  0.16780600  0.70569400  0.75056600  1
  C  C15  1  0.53219700  0.95364500  0.83299400  1
  C  C16  1  0.16780600  0.79430600  0.25056600  1
  C  C17  1  0.30855600  0.26750500  0.08332800  1
  C  C18  1  0.17223500  0.98388800  0.50667500  1
  C  C19  1  0.30855600  0.23249500  0.58332800  1
  C  C20  1  0.80855600  0.73249500  0.91667200  1
  C  C21  1  0.03219700  0.45364500  0.66700600  1
  C  C22  1  0.15690000  0.98382200  0.99459800  1
  C  C23  1  0.65690000  0.01617800  0.00540200  1
  C  C24  1  0.66698600  0.67185400  0.74893900  1
  C  C25  1  0.29920700  0.04148600  0.33508200  1
  C  C26  1  0.66698600  0.82814600  0.24893900  1
  C  C27  1  0.66780600  0.29430600  0.24943400  1
  C  C28  1  0.02243100  0.23628600  0.91870100  1
  C  C29  1  0.16698600  0.32814600  0.25106100  1
  C  C30  1  0.29920700  0.45851400  0.83508200  1
  C  C31  1  0.03219700  0.04635500  0.16700600  1
  C  C32  1  0.80166400  0.06451700  0.32597300  1
  C  C33  1  0.30166400  0.93548300  0.67402700  1
  C  C34  1  0.52138100  0.24457800  0.42381000  1
  C  C35  1  0.52846300  0.06348700  0.17283500  1
  C  C36  1  0.52846300  0.43651300  0.67283500  1
  C  C37  1  0.02138100  0.75542200  0.57619000  1
  C  C38  1  0.80430400  0.25472000  0.57515300  1
  C  C39  1  0.02846300  0.56348700  0.32716500  1
  C  C40  1  0.30430400  0.74528000  0.42484700  1
  C  C41  1  0.30166400  0.56451700  0.17402700  1
  C  C42  1  0.02138100  0.74457800  0.07619000  1
  C  C43  1  0.80430400  0.24528000  0.07515300  1
  C  C44  1  0.30430400  0.75472000  0.92484700  1
  C  C45  1  0.80166400  0.43548300  0.82597300  1
  C  C46  1  0.02846300  0.93651300  0.82716500  1
  C  C47  1  0.52138100  0.25542200  0.92381000  1
  Ni  Ni48  1  0.15897400  0.84482400  0.87791700  1
  Ni  Ni49  1  0.66550000  0.15599800  0.37448700  1
  Ni  Ni50  1  0.66550000  0.34400200  0.87448700  1
  Ni  Ni51  1  0.66904200  0.42766300  0.74830800  1
  Ni  Ni52  1  0.66734700  0.25003500  0.49824200  1
  Ni  Ni53  1  0.16734700  0.75003500  0.00175800  1
  Ni  Ni54  1  0.16904200  0.57233700  0.25169200  1
  Ni  Ni55  1  0.66904200  0.07233700  0.24830800  1
  Ni  Ni56  1  0.65897400  0.15517600  0.12208300  1
  Ni  Ni57  1  0.16550000  0.84400200  0.62551300  1
  Ni  Ni58  1  0.66734700  0.24996500  0.99824200  1
  Ni  Ni59  1  0.16904200  0.92766300  0.75169200  1
  Ni  Ni60  1  0.16734700  0.74996500  0.50175800  1
  Ni  Ni61  1  0.15897400  0.65517600  0.37791700  1
  Ni  Ni62  1  0.16550000  0.65599800  0.12551300  1
  Ni  Ni63  1  0.65897400  0.34482400  0.62208300  1
  Cu  Cu64  1  0.35525700  0.04873500  0.09990700  1
  Cu  Cu65  1  0.87431700  0.03919100  0.78014600  1
  Cu  Cu66  1  0.85525700  0.54873500  0.40009300  1
  Cu  Cu67  1  0.15376300  0.05139700  0.86246800  1
  Cu  Cu68  1  0.46847400  0.94967600  0.59903500  1
  Cu  Cu69  1  0.88585700  0.87226400  0.53929800  1
  Cu  Cu70  1  0.46478000  0.67130200  0.20371400  1
  Cu  Cu71  1  0.44634400  0.63029600  0.46017100  1
  Cu  Cu72  1  0.37431700  0.96080900  0.21985400  1
  Cu  Cu73  1  0.69067900  0.36174400  0.11204300  1
  Cu  Cu74  1  0.86703800  0.82936400  0.79606300  1
  Cu  Cu75  1  0.19067900  0.86174400  0.38795700  1
  Cu  Cu76  1  0.34270600  0.25855000  0.85251700  1
  Cu  Cu77  1  0.84599700  0.83217500  0.03086500  1
  Cu  Cu78  1  0.84270600  0.75855000  0.64748300  1
  Cu  Cu79  1  0.96478000  0.17130200  0.29628600  1
  Cu  Cu80  1  0.37431700  0.53919100  0.71985400  1
  Cu  Cu81  1  0.94634400  0.13029600  0.03982900  1
  Cu  Cu82  1  0.62257700  0.36287700  0.38493700  1
  Cu  Cu83  1  0.47428300  0.75433600  0.85043800  1
  Cu  Cu84  1  0.67360600  0.94938500  0.35972100  1
  Cu  Cu85  1  0.48141100  0.83617400  0.46664400  1
  Cu  Cu86  1  0.84599700  0.66782500  0.53086500  1
  Cu  Cu87  1  0.98141100  0.16382600  0.53335600  1
  Cu  Cu88  1  0.19067900  0.63825600  0.88795700  1
  Cu  Cu89  1  0.38585700  0.12773600  0.46070200  1
  Cu  Cu90  1  0.17360600  0.05061500  0.64027900  1
  Cu  Cu91  1  0.44634400  0.86970400  0.96017100  1
  Cu  Cu92  1  0.96091900  0.53832900  0.78110500  1
  Cu  Cu93  1  0.94634400  0.36970400  0.53982900  1
  Cu  Cu94  1  0.46091900  0.03832900  0.71889500  1
  Cu  Cu95  1  0.97428300  0.24566400  0.14956200  1
  Cu  Cu96  1  0.36703800  0.17063600  0.20393700  1
  Cu  Cu97  1  0.17360600  0.44938500  0.14027900  1
  Cu  Cu98  1  0.47428300  0.74566400  0.35043800  1
  Cu  Cu99  1  0.34599700  0.33217500  0.46913500  1
  Cu  Cu100  1  0.65376300  0.55139700  0.63753200  1
  Cu  Cu101  1  0.46847400  0.55032400  0.09903500  1
  Cu  Cu102  1  0.65376300  0.94860300  0.13753200  1
  Cu  Cu103  1  0.36703800  0.32936400  0.70393700  1
  Cu  Cu104  1  0.34599700  0.16782500  0.96913500  1
  Cu  Cu105  1  0.86703800  0.67063600  0.29606300  1
  Cu  Cu106  1  0.97428300  0.25433600  0.64956200  1
  Cu  Cu107  1  0.96091900  0.96167100  0.28110500  1
  Cu  Cu108  1  0.46091900  0.46167100  0.21889500  1
  Cu  Cu109  1  0.85525700  0.95126500  0.90009300  1
  Cu  Cu110  1  0.48141100  0.66382600  0.96664400  1
  Cu  Cu111  1  0.12257700  0.86287700  0.11506300  1
  Cu  Cu112  1  0.15376300  0.44860300  0.36246800  1
  Cu  Cu113  1  0.84270600  0.74145000  0.14748300  1
  Cu  Cu114  1  0.98141100  0.33617400  0.03335600  1
  Cu  Cu115  1  0.62257700  0.13712300  0.88493700  1
  Cu  Cu116  1  0.96478000  0.32869800  0.79628600  1
  Cu  Cu117  1  0.34270600  0.24145000  0.35251700  1
  Cu  Cu118  1  0.12257700  0.63712300  0.61506300  1
  Cu  Cu119  1  0.96847400  0.05032400  0.40096500  1
  Cu  Cu120  1  0.67360600  0.55061500  0.85972100  1
  Cu  Cu121  1  0.46478000  0.82869800  0.70371400  1
  Cu  Cu122  1  0.69067900  0.13825600  0.61204300  1
  Cu  Cu123  1  0.35525700  0.45126500  0.59990700  1
  Cu  Cu124  1  0.96847400  0.44967600  0.90096500  1
  Cu  Cu125  1  0.87431700  0.46080900  0.28014600  1
  Cu  Cu126  1  0.38585700  0.37226400  0.96070200  1
  Cu  Cu127  1  0.88585700  0.62773600  0.03929800  1
