# generated using pymatgen
data_Cu2Ni8C3
_symmetry_space_group_name_H-M   'P 1'
_cell_length_a   6.84376406
_cell_length_b   6.84376406
_cell_length_c   16.84812410
_cell_angle_alpha   86.03480826
_cell_angle_beta   86.03480826
_cell_angle_gamma   89.37500008
_symmetry_Int_Tables_number   1
_chemical_formula_structural   Cu2Ni8C3
_chemical_formula_sum   'Cu4 Ni16 C6'
_cell_volume   785.32911789
_cell_formula_units_Z   2
loop_
 _symmetry_equiv_pos_site_id
 _symmetry_equiv_pos_as_xyz
  1  'x, y, z'
loop_
 _atom_site_type_symbol
 _atom_site_label
 _atom_site_symmetry_multiplicity
 _atom_site_fract_x
 _atom_site_fract_y
 _atom_site_fract_z
 _atom_site_occupancy
  C  C0  1  0.19935600  0.80064400  0.75000000  1
  C  C1  1  0.80064400  0.19935600  0.25000000  1
  C  C2  1  0.78659000  0.90153500  0.86646500  1
  C  C3  1  0.09846500  0.21341000  0.63353500  1
  C  C4  1  0.21341000  0.09846500  0.13353500  1
  C  C5  1  0.90153500  0.78659000  0.36646500  1
  Ni  Ni6  1  0.16703800  0.69544800  0.42554000  1
  Ni  Ni7  1  0.83296200  0.30455200  0.57446000  1
  Ni  Ni8  1  0.30455200  0.83296200  0.07446000  1
  Ni  Ni9  1  0.40865300  0.08937600  0.74061300  1
  Ni  Ni10  1  0.91062400  0.59134700  0.75938700  1
  Ni  Ni11  1  0.08937600  0.40865300  0.24061300  1
  Ni  Ni12  1  0.70719300  0.81903800  0.47450000  1
  Ni  Ni13  1  0.64243000  0.36343100  0.14187200  1
  Ni  Ni14  1  0.35757000  0.63656900  0.85812800  1
  Ni  Ni15  1  0.36343100  0.64243000  0.64187200  1
  Ni  Ni16  1  0.69544800  0.16703800  0.92554000  1
  Ni  Ni17  1  0.81903800  0.70719300  0.97450000  1
  Ni  Ni18  1  0.18096200  0.29280700  0.02550000  1
  Ni  Ni19  1  0.63656900  0.35757000  0.35812800  1
  Ni  Ni20  1  0.29280700  0.18096200  0.52550000  1
  Ni  Ni21  1  0.59134700  0.91062400  0.25938700  1
  Cu  Cu22  1  0.02813400  0.98189100  0.66320200  1
  Cu  Cu23  1  0.97186600  0.01810900  0.33679800  1
  Cu  Cu24  1  0.98189100  0.02813400  0.16320200  1
  Cu  Cu25  1  0.01810900  0.97186600  0.83679800  1
