# generated using pymatgen
data_Cu2NiC4
_symmetry_space_group_name_H-M   'P 1'
_cell_length_a   5.27970367
_cell_length_b   5.27970367
_cell_length_c   7.24251749
_cell_angle_alpha   82.45640537
_cell_angle_beta   82.45640537
_cell_angle_gamma   47.19445170
_symmetry_Int_Tables_number   1
_chemical_formula_structural   Cu2NiC4
_chemical_formula_sum   'Cu2 Ni1 C4'
_cell_volume   146.58952916
_cell_formula_units_Z   1
loop_
 _symmetry_equiv_pos_site_id
 _symmetry_equiv_pos_as_xyz
  1  'x, y, z'
loop_
 _atom_site_type_symbol
 _atom_site_label
 _atom_site_symmetry_multiplicity
 _atom_site_fract_x
 _atom_site_fract_y
 _atom_site_fract_z
 _atom_site_occupancy
  C  C0  1  0.68191100  0.68191100  0.72882700  1
  C  C1  1  0.31808900  0.31808900  0.27117300  1
  Ni  Ni2  1  0.00000000  0.00000000  0.50000000  1
  Cu  Cu3  1  0.88359600  0.88359600  0.44748300  1
  Cu  Cu4  1  0.11640400  0.11640400  0.55251700  1
  C  C5  1  0.37035200  0.37035200  0.85050300  1
  C  C6  1  0.62964800  0.62964800  0.14949700  1
