# generated using pymatgen
data_Cu6NiC20
_symmetry_space_group_name_H-M   'P 1'
_cell_length_a   10.09815384
_cell_length_b   10.09815384
_cell_length_c   10.09815448
_cell_angle_alpha   55.01587102
_cell_angle_beta   55.01587102
_cell_angle_gamma   55.01587020
_symmetry_Int_Tables_number   1
_chemical_formula_structural   Cu6NiC20
_chemical_formula_sum   'Cu6 Ni1 C20'
_cell_volume   643.70043413
_cell_formula_units_Z   1
loop_
 _symmetry_equiv_pos_site_id
 _symmetry_equiv_pos_as_xyz
  1  'x, y, z'
loop_
 _atom_site_type_symbol
 _atom_site_label
 _atom_site_symmetry_multiplicity
 _atom_site_fract_x
 _atom_site_fract_y
 _atom_site_fract_z
 _atom_site_occupancy
  C  C0  1  0.27791300  0.27791300  0.27791300  1
  C  C1  1  0.72208700  0.72208700  0.72208700  1
  Ni  Ni2  1  0.00000000  0.00000000  0.00000000  1
  Cu  Cu3  1  0.58908100  0.34678100  0.70447500  1
  Cu  Cu4  1  0.34678100  0.70447500  0.58908100  1
  Cu  Cu5  1  0.70447500  0.58908100  0.34678100  1
  Cu  Cu6  1  0.29552500  0.41091900  0.65321900  1
  Cu  Cu7  1  0.65321900  0.29552500  0.41091900  1
  Cu  Cu8  1  0.41091900  0.65321900  0.29552500  1
  C  C9  1  0.78029800  0.07877600  0.63838300  1
  C  C10  1  0.15607900  0.96901600  0.69964900  1
  C  C11  1  0.92122400  0.36161700  0.21970200  1
  C  C12  1  0.56132300  0.84472000  0.42524700  1
  C  C13  1  0.84472000  0.42524700  0.56132300  1
  C  C14  1  0.96901600  0.69964900  0.15607900  1
  C  C15  1  0.63838300  0.78029800  0.07877600  1
  C  C16  1  0.84392100  0.03098400  0.30035100  1
  C  C17  1  0.21970200  0.92122400  0.36161700  1
  C  C18  1  0.36161700  0.21970200  0.92122400  1
  C  C19  1  0.03098400  0.30035100  0.84392100  1
  C  C20  1  0.07877600  0.63838300  0.78029800  1
  C  C21  1  0.15528000  0.57475300  0.43867700  1
  C  C22  1  0.69964900  0.15607900  0.96901600  1
  C  C23  1  0.30035100  0.84392100  0.03098400  1
  C  C24  1  0.42524700  0.56132300  0.84472000  1
  C  C25  1  0.57475300  0.43867700  0.15528000  1
  C  C26  1  0.43867700  0.15528000  0.57475300  1
