# generated using pymatgen
data_Cu(NiC)4
_symmetry_space_group_name_H-M   'P 1'
_cell_length_a   12.43187300
_cell_length_b   12.43187300
_cell_length_c   12.43187300
_cell_angle_alpha   90.00000000
_cell_angle_beta   90.00000000
_cell_angle_gamma   90.00000000
_symmetry_Int_Tables_number   1
_chemical_formula_structural   Cu(NiC)4
_chemical_formula_sum   'Cu8 Ni32 C32'
_cell_volume   1921.36420086
_cell_formula_units_Z   8
loop_
 _symmetry_equiv_pos_site_id
 _symmetry_equiv_pos_as_xyz
  1  'x, y, z'
loop_
 _atom_site_type_symbol
 _atom_site_label
 _atom_site_symmetry_multiplicity
 _atom_site_fract_x
 _atom_site_fract_y
 _atom_site_fract_z
 _atom_site_occupancy
  Ni  Ni0  1  0.27368300  0.46581900  0.56051700  1
  Ni  Ni1  1  0.72444800  0.77555200  0.22444800  1
  Ni  Ni2  1  0.96581900  0.56051700  0.22631700  1
  Ni  Ni3  1  0.43948300  0.77368300  0.03418100  1
  Ni  Ni4  1  0.27555200  0.27555200  0.27555200  1
  Ni  Ni5  1  0.03418100  0.06051700  0.27368300  1
  Ni  Ni6  1  0.96581900  0.93948300  0.72631700  1
  Ni  Ni7  1  0.22444800  0.72444800  0.77555200  1
  Ni  Ni8  1  0.56051700  0.27368300  0.46581900  1
  Ni  Ni9  1  0.22631700  0.53418100  0.06051700  1
  Ni  Ni10  1  0.56051700  0.22631700  0.96581900  1
  Ni  Ni11  1  0.72631700  0.96581900  0.93948300  1
  Ni  Ni12  1  0.53418100  0.06051700  0.22631700  1
  Ni  Ni13  1  0.22631700  0.96581900  0.56051700  1
  Ni  Ni14  1  0.06051700  0.22631700  0.53418100  1
  Ni  Ni15  1  0.46581900  0.56051700  0.27368300  1
  Ni  Ni16  1  0.27368300  0.03418100  0.06051700  1
  Ni  Ni17  1  0.93948300  0.72631700  0.96581900  1
  Ni  Ni18  1  0.46581900  0.93948300  0.77368300  1
  Ni  Ni19  1  0.93948300  0.77368300  0.46581900  1
  Ni  Ni20  1  0.72444800  0.72444800  0.72444800  1
  Ni  Ni21  1  0.77555200  0.22444800  0.72444800  1
  Ni  Ni22  1  0.77368300  0.03418100  0.43948300  1
  Ni  Ni23  1  0.77555200  0.27555200  0.22444800  1
  Ni  Ni24  1  0.27555200  0.22444800  0.77555200  1
  Ni  Ni25  1  0.53418100  0.43948300  0.72631700  1
  Ni  Ni26  1  0.03418100  0.43948300  0.77368300  1
  Ni  Ni27  1  0.43948300  0.72631700  0.53418100  1
  Ni  Ni28  1  0.22444800  0.77555200  0.27555200  1
  Ni  Ni29  1  0.72631700  0.53418100  0.43948300  1
  Ni  Ni30  1  0.77368300  0.46581900  0.93948300  1
  Ni  Ni31  1  0.06051700  0.27368300  0.03418100  1
  Cu  Cu32  1  0.60107400  0.60107400  0.60107400  1
  Cu  Cu33  1  0.39892600  0.39892600  0.39892600  1
  Cu  Cu34  1  0.89892600  0.10107400  0.60107400  1
  Cu  Cu35  1  0.10107400  0.60107400  0.89892600  1
  Cu  Cu36  1  0.89892600  0.39892600  0.10107400  1
  Cu  Cu37  1  0.60107400  0.89892600  0.10107400  1
  Cu  Cu38  1  0.39892600  0.10107400  0.89892600  1
  Cu  Cu39  1  0.10107400  0.89892600  0.39892600  1
  C  C40  1  0.82971300  0.42371200  0.74664700  1
  C  C41  1  0.24664700  0.82971300  0.07628800  1
  C  C42  1  0.24664700  0.67028700  0.57628800  1
  C  C43  1  0.92371200  0.75335300  0.17028700  1
  C  C44  1  0.92416800  0.57583200  0.42416800  1
  C  C45  1  0.57628800  0.25335300  0.17028700  1
  C  C46  1  0.07628800  0.24664700  0.82971300  1
  C  C47  1  0.07628800  0.25335300  0.32971300  1
  C  C48  1  0.32971300  0.07628800  0.25335300  1
  C  C49  1  0.57583200  0.07583200  0.42416800  1
  C  C50  1  0.75335300  0.32971300  0.42371200  1
  C  C51  1  0.67028700  0.57628800  0.24664700  1
  C  C52  1  0.82971300  0.07628800  0.24664700  1
  C  C53  1  0.42371200  0.75335300  0.32971300  1
  C  C54  1  0.75335300  0.17028700  0.92371200  1
  C  C55  1  0.07583200  0.42416800  0.57583200  1
  C  C56  1  0.32971300  0.42371200  0.75335300  1
  C  C57  1  0.74664700  0.82971300  0.42371200  1
  C  C58  1  0.25335300  0.32971300  0.07628800  1
  C  C59  1  0.42371200  0.74664700  0.82971300  1
  C  C60  1  0.42416800  0.57583200  0.07583200  1
  C  C61  1  0.92416800  0.92416800  0.92416800  1
  C  C62  1  0.17028700  0.57628800  0.25335300  1
  C  C63  1  0.67028700  0.92371200  0.74664700  1
  C  C64  1  0.17028700  0.92371200  0.75335300  1
  C  C65  1  0.92371200  0.74664700  0.67028700  1
  C  C66  1  0.57628800  0.24664700  0.67028700  1
  C  C67  1  0.25335300  0.17028700  0.57628800  1
  C  C68  1  0.74664700  0.67028700  0.92371200  1
  C  C69  1  0.42416800  0.92416800  0.57583200  1
  C  C70  1  0.07583200  0.07583200  0.07583200  1
  C  C71  1  0.57583200  0.42416800  0.92416800  1
