# generated using pymatgen
data_Cu6Ni6C11
_symmetry_space_group_name_H-M   'P 1'
_cell_length_a   8.74645146
_cell_length_b   8.74645146
_cell_length_c   14.08479800
_cell_angle_alpha   90.00000000
_cell_angle_beta   90.00000000
_cell_angle_gamma   119.99999591
_symmetry_Int_Tables_number   1
_chemical_formula_structural   Cu6Ni6C11
_chemical_formula_sum   'Cu12 Ni12 C22'
_cell_volume   933.13623260
_cell_formula_units_Z   2
loop_
 _symmetry_equiv_pos_site_id
 _symmetry_equiv_pos_as_xyz
  1  'x, y, z'
loop_
 _atom_site_type_symbol
 _atom_site_label
 _atom_site_symmetry_multiplicity
 _atom_site_fract_x
 _atom_site_fract_y
 _atom_site_fract_z
 _atom_site_occupancy
  C  C0  1  0.33333300  0.66666700  0.97482600  1
  C  C1  1  0.66666700  0.33333300  0.47482600  1
  C  C2  1  0.66666700  0.33333300  0.02517400  1
  C  C3  1  0.33333300  0.66666700  0.52517400  1
  C  C4  1  0.00000000  0.00000000  0.00000000  1
  C  C5  1  0.33333300  0.66666700  0.25000000  1
  C  C6  1  0.00000000  0.00000000  0.50000000  1
  C  C7  1  0.66666700  0.33333300  0.75000000  1
  C  C8  1  0.66666700  0.33333300  0.25000000  1
  C  C9  1  0.33333300  0.66666700  0.75000000  1
  Ni  Ni10  1  0.34203200  0.99872800  0.36432200  1
  Ni  Ni11  1  0.65796800  0.00127200  0.63567800  1
  Ni  Ni12  1  0.34330400  0.00127200  0.86432200  1
  Ni  Ni13  1  0.99872800  0.65669600  0.63567800  1
  Ni  Ni14  1  0.00127200  0.34330400  0.36432200  1
  Ni  Ni15  1  0.34330400  0.34203200  0.63567800  1
  Ni  Ni16  1  0.99872800  0.34203200  0.86432200  1
  Ni  Ni17  1  0.65669600  0.99872800  0.13567800  1
  Ni  Ni18  1  0.00127200  0.65796800  0.13567800  1
  Ni  Ni19  1  0.65796800  0.65669600  0.86432200  1
  Ni  Ni20  1  0.65669600  0.65796800  0.36432200  1
  Ni  Ni21  1  0.34203200  0.34330400  0.13567800  1
  Cu  Cu22  1  0.16617200  0.81290600  0.39210900  1
  Cu  Cu23  1  0.64673500  0.81290600  0.10789100  1
  Cu  Cu24  1  0.83382800  0.18709400  0.60789100  1
  Cu  Cu25  1  0.18709400  0.35326500  0.39210900  1
  Cu  Cu26  1  0.64673500  0.83382800  0.39210900  1
  Cu  Cu27  1  0.16617200  0.35326500  0.10789100  1
  Cu  Cu28  1  0.83382800  0.64673500  0.89210900  1
  Cu  Cu29  1  0.35326500  0.16617200  0.60789100  1
  Cu  Cu30  1  0.81290600  0.64673500  0.60789100  1
  Cu  Cu31  1  0.81290600  0.16617200  0.89210900  1
  Cu  Cu32  1  0.35326500  0.18709400  0.89210900  1
  Cu  Cu33  1  0.18709400  0.83382800  0.10789100  1
  C  C34  1  0.33724000  0.86737300  0.84288300  1
  C  C35  1  0.53013300  0.66276000  0.84288300  1
  C  C36  1  0.13262700  0.66276000  0.65711700  1
  C  C37  1  0.86737300  0.53013300  0.15711700  1
  C  C38  1  0.53013300  0.86737300  0.65711700  1
  C  C39  1  0.13262700  0.46986700  0.84288300  1
  C  C40  1  0.86737300  0.33724000  0.34288300  1
  C  C41  1  0.33724000  0.46986700  0.65711700  1
  C  C42  1  0.46986700  0.33724000  0.15711700  1
  C  C43  1  0.46986700  0.13262700  0.34288300  1
  C  C44  1  0.66276000  0.53013300  0.34288300  1
  C  C45  1  0.66276000  0.13262700  0.15711700  1
