# generated using pymatgen
data_Cu14Ni4C3
_symmetry_space_group_name_H-M   'P 1'
_cell_length_a   8.11597400
_cell_length_b   6.63354200
_cell_length_c   13.14516702
_cell_angle_alpha   73.69304619
_cell_angle_beta   90.00000000
_cell_angle_gamma   90.00000000
_symmetry_Int_Tables_number   1
_chemical_formula_structural   Cu14Ni4C3
_chemical_formula_sum   'Cu28 Ni8 C6'
_cell_volume   679.23485260
_cell_formula_units_Z   2
loop_
 _symmetry_equiv_pos_site_id
 _symmetry_equiv_pos_as_xyz
  1  'x, y, z'
loop_
 _atom_site_type_symbol
 _atom_site_label
 _atom_site_symmetry_multiplicity
 _atom_site_fract_x
 _atom_site_fract_y
 _atom_site_fract_z
 _atom_site_occupancy
  C  C0  1  0.98614100  0.67887300  0.65799900  1
  C  C1  1  0.51385900  0.67887300  0.15799900  1
  C  C2  1  0.01385900  0.32112700  0.34200100  1
  C  C3  1  0.48614100  0.32112700  0.84200100  1
  C  C4  1  0.00000000  0.00000000  0.00000000  1
  C  C5  1  0.50000000  0.00000000  0.50000000  1
  Ni  Ni6  1  0.26051100  0.17651700  0.62827900  1
  Ni  Ni7  1  0.76051100  0.82348300  0.87172100  1
  Ni  Ni8  1  0.73948900  0.82348300  0.37172100  1
  Ni  Ni9  1  0.22723500  0.73581200  0.39035100  1
  Ni  Ni10  1  0.72723500  0.26418800  0.10964900  1
  Ni  Ni11  1  0.77276500  0.26418800  0.60964900  1
  Ni  Ni12  1  0.27276500  0.73581200  0.89035100  1
  Ni  Ni13  1  0.23948900  0.17651700  0.12827900  1
  Cu  Cu14  1  0.66478100  0.74586300  0.82108700  1
  Cu  Cu15  1  0.21181700  0.08403700  0.55920900  1
  Cu  Cu16  1  0.77294600  0.08037800  0.10019600  1
  Cu  Cu17  1  0.50586300  0.25832800  0.40778500  1
  Cu  Cu18  1  0.76881600  0.29085300  0.69989800  1
  Cu  Cu19  1  0.17828400  0.59855200  0.47028500  1
  Cu  Cu20  1  0.33521900  0.25413700  0.17891300  1
  Cu  Cu21  1  0.22705400  0.91962200  0.89980400  1
  Cu  Cu22  1  0.16478100  0.25413700  0.67891300  1
  Cu  Cu23  1  0.67828400  0.40144800  0.02971500  1
  Cu  Cu24  1  0.49413700  0.74167200  0.59221500  1
  Cu  Cu25  1  0.32171600  0.59855200  0.97028500  1
  Cu  Cu26  1  0.58249900  0.82086300  0.35964500  1
  Cu  Cu27  1  0.28818300  0.08403700  0.05920900  1
  Cu  Cu28  1  0.73118400  0.29085300  0.19989800  1
  Cu  Cu29  1  0.27294600  0.91962200  0.39980400  1
  Cu  Cu30  1  0.82171600  0.40144800  0.52971500  1
  Cu  Cu31  1  0.08249900  0.17913700  0.14035500  1
  Cu  Cu32  1  0.41750100  0.17913700  0.64035500  1
  Cu  Cu33  1  0.00586300  0.74167200  0.09221500  1
  Cu  Cu34  1  0.83521900  0.74586300  0.32108700  1
  Cu  Cu35  1  0.99413700  0.25832800  0.90778500  1
  Cu  Cu36  1  0.72705400  0.08037800  0.60019600  1
  Cu  Cu37  1  0.71181700  0.91596300  0.94079100  1
  Cu  Cu38  1  0.26881600  0.70914700  0.80010200  1
  Cu  Cu39  1  0.91750100  0.82086300  0.85964500  1
  Cu  Cu40  1  0.23118400  0.70914700  0.30010200  1
  Cu  Cu41  1  0.78818300  0.91596300  0.44079100  1
