# generated using pymatgen
data_Cu4NiC3
_symmetry_space_group_name_H-M   'P 1'
_cell_length_a   9.56890400
_cell_length_b   11.74482400
_cell_length_c   17.99327100
_cell_angle_alpha   90.00000000
_cell_angle_beta   90.00000000
_cell_angle_gamma   90.00000000
_symmetry_Int_Tables_number   1
_chemical_formula_structural   Cu4NiC3
_chemical_formula_sum   'Cu56 Ni14 C42'
_cell_volume   2022.17544106
_cell_formula_units_Z   14
loop_
 _symmetry_equiv_pos_site_id
 _symmetry_equiv_pos_as_xyz
  1  'x, y, z'
loop_
 _atom_site_type_symbol
 _atom_site_label
 _atom_site_symmetry_multiplicity
 _atom_site_fract_x
 _atom_site_fract_y
 _atom_site_fract_z
 _atom_site_occupancy
  C  C0  1  0.00559600  0.95935400  0.25000000  1
  C  C1  1  0.60060000  0.54532700  0.39387500  1
  C  C2  1  0.29261900  0.25000000  0.39002900  1
  C  C3  1  0.26846100  0.75000000  0.75000000  1
  C  C4  1  0.60060000  0.95467300  0.39387500  1
  C  C5  1  0.70738100  0.75000000  0.89002900  1
  C  C6  1  0.73153900  0.25000000  0.25000000  1
  C  C7  1  0.70738100  0.75000000  0.60997100  1
  C  C8  1  0.99440400  0.45935400  0.75000000  1
  C  C9  1  0.00559600  0.54064600  0.25000000  1
  C  C10  1  0.39940000  0.45467300  0.60612500  1
  C  C11  1  0.39940000  0.04532700  0.89387500  1
  C  C12  1  0.60060000  0.95467300  0.10612500  1
  C  C13  1  0.29261900  0.25000000  0.10997100  1
  C  C14  1  0.39940000  0.04532700  0.60612500  1
  C  C15  1  0.99440400  0.04064600  0.75000000  1
  C  C16  1  0.39940000  0.45467300  0.89387500  1
  C  C17  1  0.60060000  0.54532700  0.10612500  1
  C  C18  1  0.53964100  0.75000000  0.25000000  1
  C  C19  1  0.46035900  0.25000000  0.75000000  1
  C  C20  1  0.71572600  0.25000000  0.83799000  1
  C  C21  1  0.06870700  0.88514900  0.59123800  1
  C  C22  1  0.79768300  0.03352300  0.56553300  1
  C  C23  1  0.20231700  0.53352300  0.06553300  1
  C  C24  1  0.20231700  0.96647700  0.06553300  1
  C  C25  1  0.93129300  0.11485100  0.40876200  1
  C  C26  1  0.28427400  0.75000000  0.16201000  1
  C  C27  1  0.93129300  0.11485100  0.09123800  1
  C  C28  1  0.28427400  0.75000000  0.33799000  1
  C  C29  1  0.79768300  0.03352300  0.93446700  1
  C  C30  1  0.71572600  0.25000000  0.66201000  1
  C  C31  1  0.79768300  0.46647700  0.93446700  1
  C  C32  1  0.93129300  0.38514900  0.40876200  1
  C  C33  1  0.06870700  0.61485100  0.59123800  1
  C  C34  1  0.93129300  0.38514900  0.09123800  1
  C  C35  1  0.06870700  0.61485100  0.90876200  1
  C  C36  1  0.06870700  0.88514900  0.90876200  1
  C  C37  1  0.20231700  0.96647700  0.43446700  1
  C  C38  1  0.20231700  0.53352300  0.43446700  1
  C  C39  1  0.79768300  0.46647700  0.56553300  1
  C  C40  1  0.77936800  0.75000000  0.25000000  1
  C  C41  1  0.22063200  0.25000000  0.75000000  1
  Ni  Ni42  1  0.54683100  0.91718600  0.75000000  1
  Ni  Ni43  1  0.45316900  0.41718600  0.25000000  1
  Ni  Ni44  1  0.59996100  0.25000000  0.07679000  1
  Ni  Ni45  1  0.21160100  0.25000000  0.94059500  1
  Ni  Ni46  1  0.21160100  0.25000000  0.55940500  1
  Ni  Ni47  1  0.45316900  0.08281400  0.25000000  1
  Ni  Ni48  1  0.54683100  0.58281400  0.75000000  1
  Ni  Ni49  1  0.90108400  0.75000000  0.75000000  1
  Ni  Ni50  1  0.78839900  0.75000000  0.05940500  1
  Ni  Ni51  1  0.40003900  0.75000000  0.92321000  1
  Ni  Ni52  1  0.40003900  0.75000000  0.57679000  1
  Ni  Ni53  1  0.59996100  0.25000000  0.42321000  1
  Ni  Ni54  1  0.09891600  0.25000000  0.25000000  1
  Ni  Ni55  1  0.78839900  0.75000000  0.44059500  1
  Cu  Cu56  1  0.13210900  0.92452300  0.51175400  1
  Cu  Cu57  1  0.35000500  0.02768300  0.44721100  1
  Cu  Cu58  1  0.08906700  0.05658800  0.10434200  1
  Cu  Cu59  1  0.20526000  0.86301200  0.12736300  1
  Cu  Cu60  1  0.86789100  0.07547700  0.01175400  1
  Cu  Cu61  1  0.28898300  0.15357400  0.75000000  1
  Cu  Cu62  1  0.45081500  0.75000000  0.34610200  1
  Cu  Cu63  1  0.83373500  0.07633100  0.34073300  1
  Cu  Cu64  1  0.16626500  0.57633100  0.84073300  1
  Cu  Cu65  1  0.91093300  0.55658800  0.60434200  1
  Cu  Cu66  1  0.71101700  0.84642600  0.25000000  1
  Cu  Cu67  1  0.79474000  0.36301200  0.62736300  1
  Cu  Cu68  1  0.96902100  0.25000000  0.41299600  1
  Cu  Cu69  1  0.91093300  0.55658800  0.89565800  1
  Cu  Cu70  1  0.79474000  0.13698800  0.87263700  1
  Cu  Cu71  1  0.64999500  0.52768300  0.94721100  1
  Cu  Cu72  1  0.35000500  0.47231700  0.05278900  1
  Cu  Cu73  1  0.79474000  0.36301200  0.87263700  1
  Cu  Cu74  1  0.64999500  0.52768300  0.55278900  1
  Cu  Cu75  1  0.71101700  0.65357400  0.25000000  1
  Cu  Cu76  1  0.13210900  0.92452300  0.98824600  1
  Cu  Cu77  1  0.20526000  0.63698800  0.37263700  1
  Cu  Cu78  1  0.83373500  0.42366900  0.34073300  1
  Cu  Cu79  1  0.54918500  0.25000000  0.84610200  1
  Cu  Cu80  1  0.08906700  0.44341200  0.39565800  1
  Cu  Cu81  1  0.35000500  0.47231700  0.44721100  1
  Cu  Cu82  1  0.16626500  0.92366900  0.84073300  1
  Cu  Cu83  1  0.03097900  0.75000000  0.58700400  1
  Cu  Cu84  1  0.28898300  0.34642600  0.75000000  1
  Cu  Cu85  1  0.83373500  0.07633100  0.15926700  1
  Cu  Cu86  1  0.45081500  0.75000000  0.15389800  1
  Cu  Cu87  1  0.08906700  0.05658800  0.39565800  1
  Cu  Cu88  1  0.20526000  0.63698800  0.12736300  1
  Cu  Cu89  1  0.86789100  0.42452300  0.01175400  1
  Cu  Cu90  1  0.13210900  0.57547700  0.98824600  1
  Cu  Cu91  1  0.91093300  0.94341200  0.60434200  1
  Cu  Cu92  1  0.64999500  0.97231700  0.55278900  1
  Cu  Cu93  1  0.76906900  0.25000000  0.75000000  1
  Cu  Cu94  1  0.86789100  0.07547700  0.48824600  1
  Cu  Cu95  1  0.64999500  0.97231700  0.94721100  1
  Cu  Cu96  1  0.91093300  0.94341200  0.89565800  1
  Cu  Cu97  1  0.79474000  0.13698800  0.62736300  1
  Cu  Cu98  1  0.96902100  0.25000000  0.08700400  1
  Cu  Cu99  1  0.13210900  0.57547700  0.51175400  1
  Cu  Cu100  1  0.08557200  0.25000000  0.75000000  1
  Cu  Cu101  1  0.83373500  0.42366900  0.15926700  1
  Cu  Cu102  1  0.23093100  0.75000000  0.25000000  1
  Cu  Cu103  1  0.35000500  0.02768300  0.05278900  1
  Cu  Cu104  1  0.20526000  0.86301200  0.37263700  1
  Cu  Cu105  1  0.91442800  0.75000000  0.25000000  1
  Cu  Cu106  1  0.03097900  0.75000000  0.91299600  1
  Cu  Cu107  1  0.16626500  0.92366900  0.65926700  1
  Cu  Cu108  1  0.86789100  0.42452300  0.48824600  1
  Cu  Cu109  1  0.08906700  0.44341200  0.10434200  1
  Cu  Cu110  1  0.54918500  0.25000000  0.65389800  1
  Cu  Cu111  1  0.16626500  0.57633100  0.65926700  1
