# generated using pymatgen
data_Cu3NiC3
_symmetry_space_group_name_H-M   'P 1'
_cell_length_a   9.92619785
_cell_length_b   9.92619785
_cell_length_c   9.92619785
_cell_angle_alpha   109.47122063
_cell_angle_beta   109.47122063
_cell_angle_gamma   109.47122063
_symmetry_Int_Tables_number   1
_chemical_formula_structural   Cu3NiC3
_chemical_formula_sum   'Cu24 Ni8 C24'
_cell_volume   752.88196019
_cell_formula_units_Z   8
loop_
 _symmetry_equiv_pos_site_id
 _symmetry_equiv_pos_as_xyz
  1  'x, y, z'
loop_
 _atom_site_type_symbol
 _atom_site_label
 _atom_site_symmetry_multiplicity
 _atom_site_fract_x
 _atom_site_fract_y
 _atom_site_fract_z
 _atom_site_occupancy
  Ni  Ni0  1  0.00000000  0.50000000  0.50000000  1
  Ni  Ni1  1  0.50000000  0.50000000  0.50000000  1
  Ni  Ni2  1  0.00000000  0.00000000  0.50000000  1
  Ni  Ni3  1  0.50000000  0.50000000  0.00000000  1
  Ni  Ni4  1  0.50000000  0.00000000  0.50000000  1
  Ni  Ni5  1  0.00000000  0.50000000  0.00000000  1
  Ni  Ni6  1  0.50000000  0.00000000  0.00000000  1
  Ni  Ni7  1  0.00000000  0.00000000  0.00000000  1
  Cu  Cu8  1  0.75000000  0.51133300  0.76133300  1
  Cu  Cu9  1  0.75000000  0.23866700  0.48866700  1
  Cu  Cu10  1  0.76133300  0.75000000  0.51133300  1
  Cu  Cu11  1  0.51133300  0.25000000  0.76133300  1
  Cu  Cu12  1  0.01133300  0.25000000  0.26133300  1
  Cu  Cu13  1  0.73866700  0.98866700  0.75000000  1
  Cu  Cu14  1  0.51133300  0.76133300  0.75000000  1
  Cu  Cu15  1  0.23866700  0.25000000  0.48866700  1
  Cu  Cu16  1  0.01133300  0.26133300  0.75000000  1
  Cu  Cu17  1  0.25000000  0.76133300  0.51133300  1
  Cu  Cu18  1  0.98866700  0.73866700  0.25000000  1
  Cu  Cu19  1  0.23866700  0.48866700  0.75000000  1
  Cu  Cu20  1  0.25000000  0.26133300  0.01133300  1
  Cu  Cu21  1  0.26133300  0.75000000  0.01133300  1
  Cu  Cu22  1  0.48866700  0.75000000  0.23866700  1
  Cu  Cu23  1  0.76133300  0.51133300  0.25000000  1
  Cu  Cu24  1  0.75000000  0.73866700  0.98866700  1
  Cu  Cu25  1  0.75000000  0.01133300  0.26133300  1
  Cu  Cu26  1  0.25000000  0.98866700  0.73866700  1
  Cu  Cu27  1  0.26133300  0.01133300  0.25000000  1
  Cu  Cu28  1  0.98866700  0.75000000  0.73866700  1
  Cu  Cu29  1  0.25000000  0.48866700  0.23866700  1
  Cu  Cu30  1  0.73866700  0.25000000  0.98866700  1
  Cu  Cu31  1  0.48866700  0.23866700  0.25000000  1
  C  C32  1  0.00799000  0.01597900  0.75799000  1
  C  C33  1  0.50799000  0.75000000  0.99201000  1
  C  C34  1  0.01597900  0.75799000  0.00799000  1
  C  C35  1  0.24201000  0.99201000  0.98402100  1
  C  C36  1  0.75000000  0.99201000  0.50799000  1
  C  C37  1  0.25000000  0.74201000  0.75799000  1
  C  C38  1  0.75799000  0.00799000  0.01597900  1
  C  C39  1  0.74201000  0.75799000  0.25000000  1
  C  C40  1  0.98402100  0.24201000  0.99201000  1
  C  C41  1  0.75000000  0.25799000  0.24201000  1
  C  C42  1  0.00799000  0.49201000  0.25000000  1
  C  C43  1  0.49201000  0.25000000  0.00799000  1
  C  C44  1  0.99201000  0.98402100  0.24201000  1
  C  C45  1  0.25799000  0.51597900  0.50799000  1
  C  C46  1  0.50799000  0.25799000  0.51597900  1
  C  C47  1  0.24201000  0.75000000  0.25799000  1
  C  C48  1  0.51597900  0.50799000  0.25799000  1
  C  C49  1  0.49201000  0.74201000  0.48402100  1
  C  C50  1  0.99201000  0.50799000  0.75000000  1
  C  C51  1  0.75799000  0.25000000  0.74201000  1
  C  C52  1  0.25799000  0.24201000  0.75000000  1
  C  C53  1  0.48402100  0.49201000  0.74201000  1
  C  C54  1  0.25000000  0.00799000  0.49201000  1
  C  C55  1  0.74201000  0.48402100  0.49201000  1
