# generated using pymatgen
data_Cu4NiC19
_symmetry_space_group_name_H-M   'P 1'
_cell_length_a   10.56859050
_cell_length_b   10.56859050
_cell_length_c   8.35687000
_cell_angle_alpha   90.00000000
_cell_angle_beta   90.00000000
_cell_angle_gamma   120.00000313
_symmetry_Int_Tables_number   1
_chemical_formula_structural   Cu4NiC19
_chemical_formula_sum   'Cu8 Ni2 C38'
_cell_volume   808.36668297
_cell_formula_units_Z   2
loop_
 _symmetry_equiv_pos_site_id
 _symmetry_equiv_pos_as_xyz
  1  'x, y, z'
loop_
 _atom_site_type_symbol
 _atom_site_label
 _atom_site_symmetry_multiplicity
 _atom_site_fract_x
 _atom_site_fract_y
 _atom_site_fract_z
 _atom_site_occupancy
  C  C0  1  0.91173500  0.60690700  0.14031000  1
  C  C1  1  0.39309300  0.30482800  0.14031000  1
  C  C2  1  0.08826500  0.39309300  0.85969000  1
  C  C3  1  0.60690700  0.69517200  0.85969000  1
  C  C4  1  0.00000000  0.00000000  0.00000000  1
  C  C5  1  0.30482800  0.91173500  0.85969000  1
  C  C6  1  0.69517200  0.08826500  0.14031000  1
  C  C7  1  0.00000000  0.00000000  0.50000000  1
  Ni  Ni8  1  0.66666700  0.33333300  0.46658500  1
  Ni  Ni9  1  0.33333300  0.66666700  0.53341500  1
  Cu  Cu10  1  0.01711800  0.34201600  0.36021600  1
  Cu  Cu11  1  0.67510200  0.01711800  0.63978400  1
  Cu  Cu12  1  0.33333300  0.66666700  0.14220900  1
  Cu  Cu13  1  0.65798400  0.67510200  0.36021600  1
  Cu  Cu14  1  0.66666700  0.33333300  0.85779100  1
  Cu  Cu15  1  0.34201600  0.32489800  0.63978400  1
  Cu  Cu16  1  0.32489800  0.98288200  0.36021600  1
  Cu  Cu17  1  0.98288200  0.65798400  0.63978400  1
  C  C18  1  0.47986400  0.82249700  0.04963100  1
  C  C19  1  0.21835900  0.21110700  0.79127100  1
  C  C20  1  0.52013600  0.17750300  0.95036900  1
  C  C21  1  0.66570900  0.18650000  0.66226800  1
  C  C22  1  0.18650000  0.52079100  0.33773200  1
  C  C23  1  0.27521900  0.25844500  0.44637800  1
  C  C24  1  0.49407000  0.85734500  0.66043000  1
  C  C25  1  0.78164100  0.78889300  0.20872900  1
  C  C26  1  0.50593000  0.14265500  0.33957000  1
  C  C27  1  0.81350000  0.47920900  0.66226800  1
  C  C28  1  0.98322600  0.72478100  0.44637800  1
  C  C29  1  0.47920900  0.66570900  0.33773200  1
  C  C30  1  0.85734500  0.36327500  0.33957000  1
  C  C31  1  0.65736700  0.47986400  0.95036900  1
  C  C32  1  0.34263300  0.52013600  0.04963100  1
  C  C33  1  0.17750300  0.65736700  0.04963100  1
  C  C34  1  0.36327500  0.50593000  0.66043000  1
  C  C35  1  0.63672500  0.49407000  0.33957000  1
  C  C36  1  0.01677400  0.27521900  0.55362200  1
  C  C37  1  0.21110700  0.99274800  0.20872900  1
  C  C38  1  0.14265500  0.63672500  0.66043000  1
  C  C39  1  0.25844500  0.98322600  0.55362200  1
  C  C40  1  0.00725200  0.21835900  0.20872900  1
  C  C41  1  0.78889300  0.00725200  0.79127100  1
  C  C42  1  0.82249700  0.34263300  0.95036900  1
  C  C43  1  0.52079100  0.33429100  0.66226800  1
  C  C44  1  0.74155500  0.01677400  0.44637800  1
  C  C45  1  0.72478100  0.74155500  0.55362200  1
  C  C46  1  0.33429100  0.81350000  0.33773200  1
  C  C47  1  0.99274800  0.78164100  0.79127100  1
