# generated using pymatgen
data_Cu(NiC8)2
_symmetry_space_group_name_H-M   'P 1'
_cell_length_a   9.77702700
_cell_length_b   9.77702700
_cell_length_c   5.00971500
_cell_angle_alpha   90.00000000
_cell_angle_beta   90.00000000
_cell_angle_gamma   90.00000000
_symmetry_Int_Tables_number   1
_chemical_formula_structural   Cu(NiC8)2
_chemical_formula_sum   'Cu2 Ni4 C32'
_cell_volume   478.87994414
_cell_formula_units_Z   2
loop_
 _symmetry_equiv_pos_site_id
 _symmetry_equiv_pos_as_xyz
  1  'x, y, z'
loop_
 _atom_site_type_symbol
 _atom_site_label
 _atom_site_symmetry_multiplicity
 _atom_site_fract_x
 _atom_site_fract_y
 _atom_site_fract_z
 _atom_site_occupancy
  Ni  Ni0  1  0.75000000  0.75000000  0.50000000  1
  Ni  Ni1  1  0.75000000  0.25000000  0.50000000  1
  Ni  Ni2  1  0.25000000  0.75000000  0.50000000  1
  Ni  Ni3  1  0.25000000  0.25000000  0.50000000  1
  Cu  Cu4  1  0.00000000  0.00000000  0.50000000  1
  Cu  Cu5  1  0.50000000  0.50000000  0.50000000  1
  C  C6  1  0.00000000  0.28252800  0.00000000  1
  C  C7  1  0.28252800  0.00000000  0.00000000  1
  C  C8  1  0.71747200  0.00000000  0.00000000  1
  C  C9  1  0.00000000  0.71747200  0.00000000  1
  C  C10  1  0.50000000  0.21747200  0.00000000  1
  C  C11  1  0.21747200  0.50000000  0.00000000  1
  C  C12  1  0.78252800  0.50000000  0.00000000  1
  C  C13  1  0.50000000  0.78252800  0.00000000  1
  C  C14  1  0.11296300  0.38703700  0.12815500  1
  C  C15  1  0.38703700  0.88703700  0.12815500  1
  C  C16  1  0.61296300  0.11296300  0.12815500  1
  C  C17  1  0.88703700  0.61296300  0.12815500  1
  C  C18  1  0.88703700  0.38703700  0.87184500  1
  C  C19  1  0.11296300  0.61296300  0.87184500  1
  C  C20  1  0.38703700  0.11296300  0.87184500  1
  C  C21  1  0.61296300  0.88703700  0.87184500  1
  C  C22  1  0.79272600  0.94026000  0.23283800  1
  C  C23  1  0.94026000  0.20727400  0.23283800  1
  C  C24  1  0.05974000  0.79272600  0.23283800  1
  C  C25  1  0.20727400  0.05974000  0.23283800  1
  C  C26  1  0.20727400  0.94026000  0.76716200  1
  C  C27  1  0.79272600  0.05974000  0.76716200  1
  C  C28  1  0.94026000  0.79272600  0.76716200  1
  C  C29  1  0.05974000  0.20727400  0.76716200  1
  C  C30  1  0.70727400  0.55974000  0.76716200  1
  C  C31  1  0.55974000  0.29272600  0.76716200  1
  C  C32  1  0.44026000  0.70727400  0.76716200  1
  C  C33  1  0.29272600  0.44026000  0.76716200  1
  C  C34  1  0.29272600  0.55974000  0.23283800  1
  C  C35  1  0.70727400  0.44026000  0.23283800  1
  C  C36  1  0.55974000  0.70727400  0.23283800  1
  C  C37  1  0.44026000  0.29272600  0.23283800  1
