# generated using pymatgen
data_CuNiC
_symmetry_space_group_name_H-M   'P 1'
_cell_length_a   5.67173600
_cell_length_b   5.73963800
_cell_length_c   5.76262332
_cell_angle_alpha   67.92248749
_cell_angle_beta   90.00000000
_cell_angle_gamma   90.00000000
_symmetry_Int_Tables_number   1
_chemical_formula_structural   CuNiC
_chemical_formula_sum   'Cu4 Ni4 C4'
_cell_volume   173.83961888
_cell_formula_units_Z   4
loop_
 _symmetry_equiv_pos_site_id
 _symmetry_equiv_pos_as_xyz
  1  'x, y, z'
loop_
 _atom_site_type_symbol
 _atom_site_label
 _atom_site_symmetry_multiplicity
 _atom_site_fract_x
 _atom_site_fract_y
 _atom_site_fract_z
 _atom_site_occupancy
  C  C0  1  0.99117300  0.71183700  0.29690200  1
  C  C1  1  0.49117300  0.28816300  0.20309800  1
  C  C2  1  0.00882700  0.28816300  0.70309800  1
  C  C3  1  0.50882700  0.71183700  0.79690200  1
  Ni  Ni4  1  0.13164900  0.85377900  0.87131100  1
  Ni  Ni5  1  0.63164900  0.14622100  0.62868900  1
  Ni  Ni6  1  0.86835100  0.14622100  0.12868900  1
  Ni  Ni7  1  0.36835100  0.85377900  0.37131100  1
  Cu  Cu8  1  0.13297900  0.34793200  0.32326600  1
  Cu  Cu9  1  0.63297900  0.65206800  0.17673400  1
  Cu  Cu10  1  0.86702100  0.65206800  0.67673400  1
  Cu  Cu11  1  0.36702100  0.34793200  0.82326600  1
