# generated using pymatgen
data_CuNiC15
_symmetry_space_group_name_H-M   'P 1'
_cell_length_a   6.41816200
_cell_length_b   8.20977800
_cell_length_c   12.88561600
_cell_angle_alpha   90.00000000
_cell_angle_beta   90.00000000
_cell_angle_gamma   90.00000000
_symmetry_Int_Tables_number   1
_chemical_formula_structural   CuNiC15
_chemical_formula_sum   'Cu4 Ni4 C60'
_cell_volume   678.96482173
_cell_formula_units_Z   4
loop_
 _symmetry_equiv_pos_site_id
 _symmetry_equiv_pos_as_xyz
  1  'x, y, z'
loop_
 _atom_site_type_symbol
 _atom_site_label
 _atom_site_symmetry_multiplicity
 _atom_site_fract_x
 _atom_site_fract_y
 _atom_site_fract_z
 _atom_site_occupancy
  C  C0  1  0.91777600  0.26599000  0.48458600  1
  C  C1  1  0.41777600  0.23401000  0.51541400  1
  C  C2  1  0.08222400  0.76599000  0.01541400  1
  C  C3  1  0.58222400  0.73401000  0.98458600  1
  C  C4  1  0.72799000  0.89466000  0.15496900  1
  C  C5  1  0.22799000  0.60534000  0.84503100  1
  C  C6  1  0.27201000  0.39466000  0.34503100  1
  C  C7  1  0.77201000  0.10534000  0.65496900  1
  C  C8  1  0.78825800  0.71738200  0.19225400  1
  C  C9  1  0.28825800  0.78261800  0.80774600  1
  C  C10  1  0.21174200  0.21738200  0.30774600  1
  C  C11  1  0.71174200  0.28261800  0.69225400  1
  C  C12  1  0.37862100  0.59317200  0.17447400  1
  C  C13  1  0.87862100  0.90682800  0.82552600  1
  C  C14  1  0.62137900  0.09317200  0.32552600  1
  C  C15  1  0.12137900  0.40682800  0.67447400  1
  C  C16  1  0.34277200  0.46639800  0.08798300  1
  C  C17  1  0.84277200  0.03360200  0.91201700  1
  C  C18  1  0.65722800  0.96639800  0.41201700  1
  C  C19  1  0.15722800  0.53360200  0.58798300  1
  C  C20  1  0.85561200  0.40802000  0.20915100  1
  C  C21  1  0.35561200  0.09198000  0.79084900  1
  C  C22  1  0.14438800  0.90802000  0.29084900  1
  C  C23  1  0.64438800  0.59198000  0.70915100  1
  C  C24  1  0.86736900  0.38270400  0.07819100  1
  C  C25  1  0.36736900  0.11729600  0.92180900  1
  C  C26  1  0.13263100  0.88270400  0.42180900  1
  C  C27  1  0.63263100  0.61729600  0.57819100  1
  C  C28  1  0.00562900  0.25653400  0.15651800  1
  C  C29  1  0.50562900  0.24346600  0.84348200  1
  C  C30  1  0.99437100  0.75653400  0.34348200  1
  C  C31  1  0.49437100  0.74346600  0.65651800  1
  C  C32  1  0.74647900  0.24035000  0.15296900  1
  C  C33  1  0.24647900  0.25965000  0.84703100  1
  C  C34  1  0.25352100  0.74035000  0.34703100  1
  C  C35  1  0.75352100  0.75965000  0.65296900  1
  Ni  Ni36  1  0.37468900  0.09321500  0.12647800  1
  Ni  Ni37  1  0.87468900  0.40678500  0.87352200  1
  Ni  Ni38  1  0.62531100  0.59321500  0.37352200  1
  Ni  Ni39  1  0.12531100  0.90678500  0.62647800  1
  Cu  Cu40  1  0.36964700  0.17649700  0.85084300  1
  Cu  Cu41  1  0.86964700  0.32350300  0.14915700  1
  Cu  Cu42  1  0.63035300  0.67649700  0.64915700  1
  Cu  Cu43  1  0.13035300  0.82350300  0.35084300  1
  C  C44  1  0.19707500  0.07936800  0.20209200  1
  C  C45  1  0.69707500  0.42063200  0.79790800  1
  C  C46  1  0.80292500  0.57936800  0.29790800  1
  C  C47  1  0.30292500  0.92063200  0.70209200  1
  C  C48  1  0.57744900  0.07214200  0.18422200  1
  C  C49  1  0.07744900  0.42785800  0.81577800  1
  C  C50  1  0.42255100  0.57214200  0.31577800  1
  C  C51  1  0.92255100  0.92785800  0.68422200  1
  C  C52  1  0.37071600  0.25600600  0.07695800  1
  C  C53  1  0.87071600  0.24399400  0.92304200  1
  C  C54  1  0.62928400  0.75600600  0.42304200  1
  C  C55  1  0.12928400  0.74399400  0.57695800  1
  C  C56  1  0.14394600  0.03406100  0.54473500  1
  C  C57  1  0.64394600  0.46593900  0.45526500  1
  C  C58  1  0.85605400  0.53406100  0.95526500  1
  C  C59  1  0.35605400  0.96593900  0.04473500  1
  C  C60  1  0.69906700  0.20606200  0.63321600  1
  C  C61  1  0.19906700  0.29393800  0.36678400  1
  C  C62  1  0.30093300  0.70606200  0.86678400  1
  C  C63  1  0.80093300  0.79393800  0.13321600  1
  C  C64  1  0.66134000  0.08522900  0.39934700  1
  C  C65  1  0.16134000  0.41477100  0.60065300  1
  C  C66  1  0.33866000  0.58522900  0.10065300  1
  C  C67  1  0.83866000  0.91477100  0.89934700  1
