# generated using pymatgen
data_Cu4Ni2C
_symmetry_space_group_name_H-M   'P 1'
_cell_length_a   6.02437092
_cell_length_b   6.02437092
_cell_length_c   8.50105546
_cell_angle_alpha   59.65563584
_cell_angle_beta   59.65563584
_cell_angle_gamma   57.54199104
_symmetry_Int_Tables_number   1
_chemical_formula_structural   Cu4Ni2C
_chemical_formula_sum   'Cu8 Ni4 C2'
_cell_volume   212.74513214
_cell_formula_units_Z   2
loop_
 _symmetry_equiv_pos_site_id
 _symmetry_equiv_pos_as_xyz
  1  'x, y, z'
loop_
 _atom_site_type_symbol
 _atom_site_label
 _atom_site_symmetry_multiplicity
 _atom_site_fract_x
 _atom_site_fract_y
 _atom_site_fract_z
 _atom_site_occupancy
  C  C0  1  0.89833700  0.10166300  0.25000000  1
  C  C1  1  0.10166300  0.89833700  0.75000000  1
  Ni  Ni2  1  0.90364800  0.49382200  0.46835500  1
  Ni  Ni3  1  0.50617800  0.09635200  0.03164500  1
  Ni  Ni4  1  0.09635200  0.50617800  0.53164500  1
  Ni  Ni5  1  0.49382200  0.90364800  0.96835500  1
  Cu  Cu6  1  0.12206700  0.73816700  0.46270000  1
  Cu  Cu7  1  0.26183300  0.87793300  0.03730000  1
  Cu  Cu8  1  0.87793300  0.26183300  0.53730000  1
  Cu  Cu9  1  0.73816700  0.12206700  0.96270000  1
  Cu  Cu10  1  0.78480000  0.71116200  0.35413300  1
  Cu  Cu11  1  0.28883800  0.21520000  0.14586700  1
  Cu  Cu12  1  0.21520000  0.28883800  0.64586700  1
  Cu  Cu13  1  0.71116200  0.78480000  0.85413300  1
