# generated using pymatgen
data_Cu3(NiC9)2
_symmetry_space_group_name_H-M   'P 1'
_cell_length_a   11.74681100
_cell_length_b   6.79259900
_cell_length_c   7.77690222
_cell_angle_alpha   64.90468960
_cell_angle_beta   90.00000000
_cell_angle_gamma   90.00000000
_symmetry_Int_Tables_number   1
_chemical_formula_structural   Cu3(NiC9)2
_chemical_formula_sum   'Cu6 Ni4 C36'
_cell_volume   561.95390957
_cell_formula_units_Z   2
loop_
 _symmetry_equiv_pos_site_id
 _symmetry_equiv_pos_as_xyz
  1  'x, y, z'
loop_
 _atom_site_type_symbol
 _atom_site_label
 _atom_site_symmetry_multiplicity
 _atom_site_fract_x
 _atom_site_fract_y
 _atom_site_fract_z
 _atom_site_occupancy
  C  C0  1  0.89870200  0.61968800  0.72183200  1
  C  C1  1  0.66922400  0.52497000  0.50774400  1
  C  C2  1  0.39184500  0.64784800  0.73271100  1
  C  C3  1  0.76393500  0.09892200  0.96467500  1
  C  C4  1  0.26393500  0.90107800  0.03532500  1
  C  C5  1  0.66802900  0.04822500  0.48803100  1
  C  C6  1  0.39870200  0.38031200  0.27816800  1
  C  C7  1  0.16802900  0.95177500  0.51196900  1
  C  C8  1  0.89184500  0.35215200  0.26728900  1
  C  C9  1  0.16922400  0.47503000  0.49225600  1
  Ni  Ni10  1  0.48710000  0.21122800  0.00155600  1
  Ni  Ni11  1  0.53590400  0.86747900  0.99613600  1
  Ni  Ni12  1  0.98710000  0.78877200  0.99844400  1
  Ni  Ni13  1  0.03590400  0.13252100  0.00386400  1
  Cu  Cu14  1  0.43677800  0.84401500  0.32040600  1
  Cu  Cu15  1  0.42326500  0.15809100  0.69335000  1
  Cu  Cu16  1  0.65082700  0.50020900  0.01103900  1
  Cu  Cu17  1  0.15082700  0.49979100  0.98896100  1
  Cu  Cu18  1  0.93677800  0.15598500  0.67959400  1
  Cu  Cu19  1  0.92326500  0.84190900  0.30665000  1
  C  C20  1  0.63272300  0.74847500  0.96986500  1
  C  C21  1  0.97232800  0.26218600  0.82117700  1
  C  C22  1  0.52259800  0.25827100  0.55985100  1
  C  C23  1  0.40478200  0.26838600  0.83719600  1
  C  C24  1  0.47232800  0.73781400  0.17882300  1
  C  C25  1  0.94825800  0.08997900  0.16135700  1
  C  C26  1  0.82036100  0.24613700  0.59754200  1
  C  C27  1  0.07554800  0.92935600  0.00755400  1
  C  C28  1  0.02259800  0.74172900  0.44014900  1
  C  C29  1  0.13272300  0.25152500  0.03013500  1
  C  C30  1  0.02897200  0.19204500  0.53291700  1
  C  C31  1  0.31066800  0.16499100  0.59444900  1
  C  C32  1  0.81066800  0.83500900  0.40555100  1
  C  C33  1  0.22306500  0.51085000  0.14665100  1
  C  C34  1  0.52897200  0.80795500  0.46708300  1
  C  C35  1  0.57554800  0.07064400  0.99244600  1
  C  C36  1  0.72306500  0.48915000  0.85334900  1
  C  C37  1  0.32036100  0.75386300  0.40245800  1
  C  C38  1  0.02306800  0.57843600  0.00283600  1
  C  C39  1  0.41808200  0.09543600  0.18190500  1
  C  C40  1  0.90478200  0.73161400  0.16280400  1
  C  C41  1  0.19614800  0.62809200  0.78954400  1
  C  C42  1  0.69614800  0.37190800  0.21045600  1
  C  C43  1  0.52306800  0.42156400  0.99716400  1
  C  C44  1  0.44825800  0.91002100  0.83864300  1
  C  C45  1  0.91808200  0.90456400  0.81809500  1
