# generated using pymatgen
data_Cu2NiC
_symmetry_space_group_name_H-M   'P 1'
_cell_length_a   3.03507200
_cell_length_b   5.62219400
_cell_length_c   8.21698800
_cell_angle_alpha   90.00000000
_cell_angle_beta   90.00000000
_cell_angle_gamma   90.00000000
_symmetry_Int_Tables_number   1
_chemical_formula_structural   Cu2NiC
_chemical_formula_sum   'Cu8 Ni4 C4'
_cell_volume   140.21274064
_cell_formula_units_Z   4
loop_
 _symmetry_equiv_pos_site_id
 _symmetry_equiv_pos_as_xyz
  1  'x, y, z'
loop_
 _atom_site_type_symbol
 _atom_site_label
 _atom_site_symmetry_multiplicity
 _atom_site_fract_x
 _atom_site_fract_y
 _atom_site_fract_z
 _atom_site_occupancy
  C  C0  1  0.75000000  0.85017600  0.76180900  1
  C  C1  1  0.75000000  0.64982400  0.26180900  1
  C  C2  1  0.25000000  0.35017600  0.73819100  1
  C  C3  1  0.25000000  0.14982400  0.23819100  1
  Ni  Ni4  1  0.25000000  0.42225200  0.45555400  1
  Ni  Ni5  1  0.25000000  0.07774800  0.95555400  1
  Ni  Ni6  1  0.75000000  0.92225200  0.04444600  1
  Ni  Ni7  1  0.75000000  0.57774800  0.54444600  1
  Cu  Cu8  1  0.75000000  0.43266900  0.41052900  1
  Cu  Cu9  1  0.75000000  0.72027500  0.98678100  1
  Cu  Cu10  1  0.25000000  0.27972500  0.01321900  1
  Cu  Cu11  1  0.25000000  0.22027500  0.51321900  1
  Cu  Cu12  1  0.25000000  0.56733100  0.58947100  1
  Cu  Cu13  1  0.75000000  0.77972500  0.48678100  1
  Cu  Cu14  1  0.25000000  0.93266900  0.08947100  1
  Cu  Cu15  1  0.75000000  0.06733100  0.91052900  1
