# generated using pymatgen
data_Cu3Ni9C4
_symmetry_space_group_name_H-M   'P 1'
_cell_length_a   9.67534600
_cell_length_b   10.02400800
_cell_length_c   11.14127347
_cell_angle_alpha   85.86636548
_cell_angle_beta   90.00000000
_cell_angle_gamma   90.00000000
_symmetry_Int_Tables_number   1
_chemical_formula_structural   Cu3Ni9C4
_chemical_formula_sum   'Cu12 Ni36 C16'
_cell_volume   1077.73382915
_cell_formula_units_Z   4
loop_
 _symmetry_equiv_pos_site_id
 _symmetry_equiv_pos_as_xyz
  1  'x, y, z'
loop_
 _atom_site_type_symbol
 _atom_site_label
 _atom_site_symmetry_multiplicity
 _atom_site_fract_x
 _atom_site_fract_y
 _atom_site_fract_z
 _atom_site_occupancy
  C  C0  1  0.99630000  0.35065700  0.16987300  1
  C  C1  1  0.00370000  0.64934300  0.83012700  1
  C  C2  1  0.50370000  0.85065700  0.16987300  1
  C  C3  1  0.49630000  0.14934300  0.83012700  1
  C  C4  1  0.37928000  0.81121100  0.42487800  1
  C  C5  1  0.60083300  0.85107500  0.89019700  1
  C  C6  1  0.10083300  0.64892500  0.10980300  1
  C  C7  1  0.60829000  0.55235400  0.19126300  1
  C  C8  1  0.12072000  0.31121100  0.42487800  1
  C  C9  1  0.39171000  0.44764600  0.80873700  1
  C  C10  1  0.89916700  0.35107500  0.89019700  1
  C  C11  1  0.87928000  0.68878900  0.57512200  1
  C  C12  1  0.62072000  0.18878900  0.57512200  1
  C  C13  1  0.39916700  0.14892500  0.10980300  1
  C  C14  1  0.89171000  0.05235400  0.19126300  1
  C  C15  1  0.10829000  0.94764600  0.80873700  1
  Ni  Ni16  1  0.48870900  0.84586800  0.98279400  1
  Ni  Ni17  1  0.49024900  0.14240800  0.64928100  1
  Ni  Ni18  1  0.85304300  0.20225100  0.18327700  1
  Ni  Ni19  1  0.57595700  0.21029900  0.45323600  1
  Ni  Ni20  1  0.98870900  0.65413200  0.01720600  1
  Ni  Ni21  1  0.97355100  0.97399500  0.85313700  1
  Ni  Ni22  1  0.22798000  0.01681300  0.84797400  1
  Ni  Ni23  1  0.79891400  0.78372400  0.63439700  1
  Ni  Ni24  1  0.63707500  0.99204500  0.84714100  1
  Ni  Ni25  1  0.42404300  0.78970100  0.54676400  1
  Ni  Ni26  1  0.27202000  0.51681300  0.84797400  1
  Ni  Ni27  1  0.99024900  0.35759200  0.35071900  1
  Ni  Ni28  1  0.13707500  0.50795500  0.15285900  1
  Ni  Ni29  1  0.01129100  0.34586800  0.98279400  1
  Ni  Ni30  1  0.52644900  0.47399500  0.85313700  1
  Ni  Ni31  1  0.07595700  0.28970100  0.54676400  1
  Ni  Ni32  1  0.70108600  0.28372400  0.63439700  1
  Ni  Ni33  1  0.21929700  0.72991700  0.08731300  1
  Ni  Ni34  1  0.86292500  0.49204500  0.84714100  1
  Ni  Ni35  1  0.71929700  0.77008300  0.91268700  1
  Ni  Ni36  1  0.20108600  0.21627600  0.36560300  1
  Ni  Ni37  1  0.36292500  0.00795500  0.15285900  1
  Ni  Ni38  1  0.78070300  0.27008300  0.91268700  1
  Ni  Ni39  1  0.77202000  0.98318700  0.15202600  1
  Ni  Ni40  1  0.14695700  0.79774900  0.81672300  1
  Ni  Ni41  1  0.92404300  0.71029900  0.45323600  1
  Ni  Ni42  1  0.64695700  0.70225100  0.18327700  1
  Ni  Ni43  1  0.51129100  0.15413200  0.01720600  1
  Ni  Ni44  1  0.02644900  0.02600500  0.14686300  1
  Ni  Ni45  1  0.47355100  0.52600500  0.14686300  1
  Ni  Ni46  1  0.29891400  0.71627600  0.36560300  1
  Ni  Ni47  1  0.00975100  0.64240800  0.64928100  1
  Ni  Ni48  1  0.28070300  0.22991700  0.08731300  1
  Ni  Ni49  1  0.72798000  0.48318700  0.15202600  1
  Ni  Ni50  1  0.50975100  0.85759200  0.35071900  1
  Ni  Ni51  1  0.35304300  0.29774900  0.81672300  1
  Cu  Cu52  1  0.89780500  0.02085800  0.33314700  1
  Cu  Cu53  1  0.20889200  0.44527700  0.41819100  1
  Cu  Cu54  1  0.79110800  0.55472300  0.58180900  1
  Cu  Cu55  1  0.29110800  0.94527700  0.41819100  1
  Cu  Cu56  1  0.51713000  0.79872900  0.78319400  1
  Cu  Cu57  1  0.10219500  0.97914200  0.66685300  1
  Cu  Cu58  1  0.70889200  0.05472300  0.58180900  1
  Cu  Cu59  1  0.98287000  0.29872900  0.78319400  1
  Cu  Cu60  1  0.39780500  0.47914200  0.66685300  1
  Cu  Cu61  1  0.48287000  0.20127100  0.21680600  1
  Cu  Cu62  1  0.60219500  0.52085800  0.33314700  1
  Cu  Cu63  1  0.01713000  0.70127100  0.21680600  1
