# generated using pymatgen
data_CuNiC17
_symmetry_space_group_name_H-M   'P 1'
_cell_length_a   10.63325100
_cell_length_b   10.63325100
_cell_length_c   10.63325100
_cell_angle_alpha   90.00000000
_cell_angle_beta   90.00000000
_cell_angle_gamma   90.00000000
_symmetry_Int_Tables_number   1
_chemical_formula_structural   CuNiC17
_chemical_formula_sum   'Cu4 Ni4 C68'
_cell_volume   1202.25944285
_cell_formula_units_Z   4
loop_
 _symmetry_equiv_pos_site_id
 _symmetry_equiv_pos_as_xyz
  1  'x, y, z'
loop_
 _atom_site_type_symbol
 _atom_site_label
 _atom_site_symmetry_multiplicity
 _atom_site_fract_x
 _atom_site_fract_y
 _atom_site_fract_z
 _atom_site_occupancy
  C  C0  1  0.07142300  0.07142300  0.07142300  1
  C  C1  1  0.92857700  0.57142300  0.42857700  1
  C  C2  1  0.42857700  0.92857700  0.57142300  1
  C  C3  1  0.20265400  0.70265400  0.79734600  1
  C  C4  1  0.79734600  0.20265400  0.70265400  1
  C  C5  1  0.57142300  0.42857700  0.92857700  1
  C  C6  1  0.70265400  0.79734600  0.20265400  1
  C  C7  1  0.29734600  0.29734600  0.29734600  1
  Ni  Ni8  1  0.92405800  0.42405800  0.07594200  1
  Ni  Ni9  1  0.07594200  0.92405800  0.42405800  1
  Ni  Ni10  1  0.42405800  0.07594200  0.92405800  1
  Ni  Ni11  1  0.57594200  0.57594200  0.57594200  1
  Cu  Cu12  1  0.85341800  0.85341800  0.85341800  1
  Cu  Cu13  1  0.14658200  0.35341800  0.64658200  1
  Cu  Cu14  1  0.35341800  0.64658200  0.14658200  1
  Cu  Cu15  1  0.64658200  0.14658200  0.35341800  1
  C  C16  1  0.54150200  0.75122100  0.88070700  1
  C  C17  1  0.75122100  0.88070700  0.54150200  1
  C  C18  1  0.38070700  0.95849800  0.24877900  1
  C  C19  1  0.95849800  0.24877900  0.38070700  1
  C  C20  1  0.25122100  0.61929300  0.45849800  1
  C  C21  1  0.11929300  0.04150200  0.74877900  1
  C  C22  1  0.45849800  0.25122100  0.61929300  1
  C  C23  1  0.74877900  0.11929300  0.04150200  1
  C  C24  1  0.24877900  0.38070700  0.95849800  1
  C  C25  1  0.04150200  0.74877900  0.11929300  1
  C  C26  1  0.88070700  0.54150200  0.75122100  1
  C  C27  1  0.61929300  0.45849800  0.25122100  1
  C  C28  1  0.12379300  0.33845900  0.01778500  1
  C  C29  1  0.83845900  0.48221500  0.87620700  1
  C  C30  1  0.85146800  0.21960400  0.02535600  1
  C  C31  1  0.58611900  0.31611800  0.26772500  1
  C  C32  1  0.26772500  0.58611900  0.31611800  1
  C  C33  1  0.00305000  0.47419400  0.70597100  1
  C  C34  1  0.28039600  0.97464400  0.35146800  1
  C  C35  1  0.62379300  0.16154100  0.98221500  1
  C  C36  1  0.52535600  0.64853200  0.78039600  1
  C  C37  1  0.16154100  0.98221500  0.62379300  1
  C  C38  1  0.48221500  0.87620700  0.83845900  1
  C  C39  1  0.47464400  0.14853200  0.71960400  1
  C  C40  1  0.41388100  0.81611800  0.23227500  1
  C  C41  1  0.49695000  0.52580600  0.20597100  1
  C  C42  1  0.20597100  0.49695000  0.52580600  1
  C  C43  1  0.99695000  0.97419400  0.79402900  1
  C  C44  1  0.97464400  0.35146800  0.28039600  1
  C  C45  1  0.66154100  0.51778500  0.37620700  1
  C  C46  1  0.78039600  0.52535600  0.64853200  1
  C  C47  1  0.73227500  0.08611900  0.18388200  1
  C  C48  1  0.91388100  0.68388200  0.76772500  1
  C  C49  1  0.51778500  0.37620700  0.66154100  1
  C  C50  1  0.71960400  0.47464400  0.14853200  1
  C  C51  1  0.76772500  0.91388100  0.68388200  1
  C  C52  1  0.47419400  0.70597100  0.00305000  1
  C  C53  1  0.98221500  0.62379300  0.16154100  1
  C  C54  1  0.68388200  0.76772500  0.91388100  1
  C  C55  1  0.01778500  0.12379300  0.33845900  1
  C  C56  1  0.02580600  0.29402900  0.50305000  1
  C  C57  1  0.18388200  0.73227500  0.08611900  1
  C  C58  1  0.50305000  0.02580600  0.29402900  1
  C  C59  1  0.29402900  0.50305000  0.02580600  1
  C  C60  1  0.37620700  0.66154100  0.51778500  1
  C  C61  1  0.97419400  0.79402900  0.99695000  1
  C  C62  1  0.02535600  0.85146800  0.21960400  1
  C  C63  1  0.52580600  0.20597100  0.49695000  1
  C  C64  1  0.79402900  0.99695000  0.97419400  1
  C  C65  1  0.81611800  0.23227500  0.41388100  1
  C  C66  1  0.08611900  0.18388200  0.73227500  1
  C  C67  1  0.64853200  0.78039600  0.52535600  1
  C  C68  1  0.31611800  0.26772500  0.58611900  1
  C  C69  1  0.14853200  0.71960400  0.47464400  1
  C  C70  1  0.70597100  0.00305000  0.47419400  1
  C  C71  1  0.23227500  0.41388100  0.81611800  1
  C  C72  1  0.21960400  0.02535600  0.85146800  1
  C  C73  1  0.87620700  0.83845900  0.48221500  1
  C  C74  1  0.35146800  0.28039600  0.97464400  1
  C  C75  1  0.33845900  0.01778500  0.12379300  1
