# generated using pymatgen
data_Cu8NiC6
_symmetry_space_group_name_H-M   'P 1'
_cell_length_a   7.57201700
_cell_length_b   10.73846500
_cell_length_c   15.34961000
_cell_angle_alpha   90.00000000
_cell_angle_beta   90.00000000
_cell_angle_gamma   90.00000000
_symmetry_Int_Tables_number   1
_chemical_formula_structural   Cu8NiC6
_chemical_formula_sum   'Cu32 Ni4 C24'
_cell_volume   1248.10502523
_cell_formula_units_Z   4
loop_
 _symmetry_equiv_pos_site_id
 _symmetry_equiv_pos_as_xyz
  1  'x, y, z'
loop_
 _atom_site_type_symbol
 _atom_site_label
 _atom_site_symmetry_multiplicity
 _atom_site_fract_x
 _atom_site_fract_y
 _atom_site_fract_z
 _atom_site_occupancy
  Ni  Ni0  1  0.74329500  0.51507900  0.62737200  1
  Ni  Ni1  1  0.24329500  0.01507900  0.87262800  1
  Ni  Ni2  1  0.25670500  0.01507900  0.37262800  1
  Ni  Ni3  1  0.75670500  0.51507900  0.12737200  1
  Cu  Cu4  1  0.39543800  0.69284700  0.41747000  1
  Cu  Cu5  1  0.99701700  0.25827300  0.48090400  1
  Cu  Cu6  1  0.93865300  0.84519500  0.08002100  1
  Cu  Cu7  1  0.12248700  0.68959500  0.27323800  1
  Cu  Cu8  1  0.00613600  0.79904900  0.72885400  1
  Cu  Cu9  1  0.49386400  0.79904900  0.22885400  1
  Cu  Cu10  1  0.50298300  0.25827300  0.98090400  1
  Cu  Cu11  1  0.37751300  0.68959500  0.77323800  1
  Cu  Cu12  1  0.50613600  0.29904900  0.77114600  1
  Cu  Cu13  1  0.77293200  0.49348200  0.37736100  1
  Cu  Cu14  1  0.27916600  0.52593500  0.05073600  1
  Cu  Cu15  1  0.54909500  0.01620900  0.73537500  1
  Cu  Cu16  1  0.43865300  0.34519500  0.41997900  1
  Cu  Cu17  1  0.72706800  0.49348200  0.87736100  1
  Cu  Cu18  1  0.22706800  0.99348200  0.62263900  1
  Cu  Cu19  1  0.00298300  0.75827300  0.51909600  1
  Cu  Cu20  1  0.60456200  0.19284700  0.58253000  1
  Cu  Cu21  1  0.10456200  0.69284700  0.91747000  1
  Cu  Cu22  1  0.56134700  0.84519500  0.58002100  1
  Cu  Cu23  1  0.04909500  0.51620900  0.76462500  1
  Cu  Cu24  1  0.77916600  0.02593500  0.44926400  1
  Cu  Cu25  1  0.72083400  0.02593500  0.94926400  1
  Cu  Cu26  1  0.62248700  0.18959500  0.22676200  1
  Cu  Cu27  1  0.27293200  0.99348200  0.12263900  1
  Cu  Cu28  1  0.06134700  0.34519500  0.91997900  1
  Cu  Cu29  1  0.49701700  0.75827300  0.01909600  1
  Cu  Cu30  1  0.95090500  0.01620900  0.23537500  1
  Cu  Cu31  1  0.87751300  0.18959500  0.72676200  1
  Cu  Cu32  1  0.89543800  0.19284700  0.08253000  1
  Cu  Cu33  1  0.22083400  0.52593500  0.55073600  1
  Cu  Cu34  1  0.45090500  0.51620900  0.26462500  1
  Cu  Cu35  1  0.99386400  0.29904900  0.27114600  1
  C  C36  1  0.70680200  0.00529400  0.12073800  1
  C  C37  1  0.48601700  0.88551400  0.87194100  1
  C  C38  1  0.77809100  0.64050000  0.00647500  1
  C  C39  1  0.20680200  0.50529400  0.37926200  1
  C  C40  1  0.29319800  0.50529400  0.87926200  1
  C  C41  1  0.23876500  0.75621000  0.12138900  1
  C  C42  1  0.98601700  0.38551400  0.62805900  1
  C  C43  1  0.01398300  0.88551400  0.37194100  1
  C  C44  1  0.26277900  0.14402800  0.25322700  1
  C  C45  1  0.79319800  0.00529400  0.62073800  1
  C  C46  1  0.01391900  0.40379100  0.12216100  1
  C  C47  1  0.72190900  0.64050000  0.50647500  1
  C  C48  1  0.26123500  0.75621000  0.62138900  1
  C  C49  1  0.76123500  0.25621000  0.87861100  1
  C  C50  1  0.27809100  0.14050000  0.49352500  1
  C  C51  1  0.73876500  0.25621000  0.37861100  1
  C  C52  1  0.48608100  0.40379100  0.62216100  1
  C  C53  1  0.98608100  0.90379100  0.87783900  1
  C  C54  1  0.23722100  0.14402800  0.75322700  1
  C  C55  1  0.22190900  0.14050000  0.99352500  1
  C  C56  1  0.51398300  0.38551400  0.12805900  1
  C  C57  1  0.51391900  0.90379100  0.37783900  1
  C  C58  1  0.73722100  0.64402800  0.74677300  1
  C  C59  1  0.76277900  0.64402800  0.24677300  1
