# generated using pymatgen
data_Cu2NiC4
_symmetry_space_group_name_H-M   'P 1'
_cell_length_a   5.77602589
_cell_length_b   5.77602589
_cell_length_c   33.22225496
_cell_angle_alpha   84.96568554
_cell_angle_beta   84.96568554
_cell_angle_gamma   59.93307451
_symmetry_Int_Tables_number   1
_chemical_formula_structural   Cu2NiC4
_chemical_formula_sum   'Cu28 Ni14 C56'
_cell_volume   954.30060888
_cell_formula_units_Z   14
loop_
 _symmetry_equiv_pos_site_id
 _symmetry_equiv_pos_as_xyz
  1  'x, y, z'
loop_
 _atom_site_type_symbol
 _atom_site_label
 _atom_site_symmetry_multiplicity
 _atom_site_fract_x
 _atom_site_fract_y
 _atom_site_fract_z
 _atom_site_occupancy
  Ni  Ni0  1  0.65974200  0.65974200  0.02057200  1
  Ni  Ni1  1  0.99911600  0.99911600  0.00157500  1
  Ni  Ni2  1  0.43083700  0.43083700  0.21400100  1
  Ni  Ni3  1  0.23132400  0.23132400  0.30177500  1
  Ni  Ni4  1  0.51799800  0.51799800  0.44623700  1
  Ni  Ni5  1  0.62613500  0.62613500  0.12429100  1
  Ni  Ni6  1  0.91504600  0.91504600  0.26916800  1
  Ni  Ni7  1  0.80380300  0.80380300  0.58893600  1
  Ni  Ni8  1  0.19641100  0.19641100  0.41062500  1
  Ni  Ni9  1  0.08952700  0.08952700  0.73181700  1
  Ni  Ni10  1  0.37516500  0.37516500  0.87489000  1
  Ni  Ni11  1  0.48205500  0.48205500  0.55326800  1
  Ni  Ni12  1  0.76777600  0.76777600  0.69611900  1
  Ni  Ni13  1  0.05326400  0.05326400  0.83966400  1
  Cu  Cu14  1  0.94113400  0.94113400  0.16090100  1
  Cu  Cu15  1  0.64444100  0.14142100  0.07185000  1
  Cu  Cu16  1  0.28432100  0.28432100  0.14161600  1
  Cu  Cu17  1  0.14142100  0.64444100  0.07185000  1
  Cu  Cu18  1  0.14095500  0.14095500  0.07170700  1
  Cu  Cu19  1  0.92006500  0.43335600  0.21482000  1
  Cu  Cu20  1  0.57246000  0.57246000  0.28618800  1
  Cu  Cu21  1  0.43335600  0.92006500  0.21482000  1
  Cu  Cu22  1  0.21463500  0.71413400  0.35735300  1
  Cu  Cu23  1  0.99987200  0.99987200  0.49992900  1
  Cu  Cu24  1  0.85731300  0.85731300  0.42856700  1
  Cu  Cu25  1  0.71413400  0.21463500  0.35735300  1
  Cu  Cu26  1  0.71452200  0.71452200  0.35750200  1
  Cu  Cu27  1  0.50028200  0.99985100  0.49991200  1
  Cu  Cu28  1  0.14293900  0.14293900  0.57111600  1
  Cu  Cu29  1  0.99985100  0.50028200  0.49991200  1
  Cu  Cu30  1  0.28557900  0.78610400  0.64262600  1
  Cu  Cu31  1  0.57113800  0.57113800  0.78544500  1
  Cu  Cu32  1  0.78610400  0.28557900  0.64262600  1
  Cu  Cu33  1  0.42867600  0.42867600  0.71387000  1
  Cu  Cu34  1  0.28558300  0.28558300  0.64262700  1
  Cu  Cu35  1  0.07226100  0.57109100  0.78544900  1
  Cu  Cu36  1  0.85473600  0.85473600  0.92829800  1
  Cu  Cu37  1  0.71450100  0.71450100  0.85634000  1
  Cu  Cu38  1  0.85483100  0.36206400  0.92831700  1
  Cu  Cu39  1  0.57109100  0.07226100  0.78544900  1
  Cu  Cu40  1  0.36206400  0.85483100  0.92831700  1
  Cu  Cu41  1  0.33967000  0.33967000  0.98075600  1
  C  C42  1  0.29075400  0.83290200  0.04171400  1
  C  C43  1  0.96397700  0.96397700  0.10591200  1
  C  C44  1  0.83290200  0.29075400  0.04171400  1
  C  C45  1  0.83335700  0.83335700  0.04176500  1
  C  C46  1  0.44451700  0.44451700  0.10423400  1
  C  C47  1  0.58725800  0.10511800  0.17596700  1
  C  C48  1  0.24307500  0.24307500  0.24134100  1
  C  C49  1  0.10511800  0.58725800  0.17596700  1
  C  C50  1  0.44321700  0.00614200  0.10364700  1
  C  C51  1  0.32147000  0.32147000  0.03578100  1
  C  C52  1  0.11209500  0.11209500  0.17720200  1
  C  C53  1  0.00614200  0.44321700  0.10364700  1
  C  C54  1  0.73893300  0.73893300  0.24762800  1
  C  C55  1  0.85774300  0.41152600  0.32382900  1
  C  C56  1  0.53715500  0.53715500  0.38715300  1
  C  C57  1  0.41152600  0.85774300  0.32382900  1
  C  C58  1  0.74705000  0.28831500  0.24988500  1
  C  C59  1  0.61532600  0.61532600  0.18300100  1
  C  C60  1  0.40963300  0.40963300  0.32322100  1
  C  C61  1  0.28831500  0.74705000  0.24988500  1
  C  C62  1  0.14209000  0.69564300  0.46667900  1
  C  C63  1  0.01799600  0.01799600  0.39144500  1
  C  C64  1  0.69564300  0.14209000  0.46667900  1
  C  C65  1  0.01811700  0.57284400  0.39149100  1
  C  C66  1  0.89117400  0.89117400  0.32805500  1
  C  C67  1  0.82327200  0.82327200  0.53004600  1
  C  C68  1  0.69567300  0.69567300  0.46665500  1
  C  C69  1  0.57284400  0.01811700  0.39149100  1
  C  C70  1  0.30351900  0.30351900  0.53415000  1
  C  C71  1  0.42774200  0.98136600  0.60941200  1
  C  C72  1  0.10901900  0.10901900  0.67285500  1
  C  C73  1  0.30363900  0.85851600  0.53416000  1
  C  C74  1  0.98136600  0.42774200  0.60941200  1
  C  C75  1  0.17651300  0.17651300  0.47040800  1
  C  C76  1  0.98145900  0.98145900  0.60941500  1
  C  C77  1  0.85851600  0.30363900  0.53416000  1
  C  C78  1  0.58926600  0.58926600  0.67692100  1
  C  C79  1  0.71330500  0.26718100  0.75221100  1
  C  C80  1  0.39472600  0.39472600  0.81577700  1
  C  C81  1  0.26718100  0.71330500  0.75221100  1
  C  C82  1  0.58936400  0.14426700  0.67692800  1
  C  C83  1  0.46224400  0.46224400  0.61312400  1
  C  C84  1  0.26731200  0.26731200  0.75221400  1
  C  C85  1  0.14426700  0.58936400  0.67692800  1
  C  C86  1  0.99699400  0.55420600  0.89448400  1
  C  C87  1  0.87546800  0.87546800  0.81970900  1
  C  C88  1  0.87560600  0.42905700  0.81971600  1
  C  C89  1  0.74795300  0.74795300  0.75602600  1
  C  C90  1  0.68013600  0.68013600  0.95931800  1
  C  C91  1  0.55420600  0.99699400  0.89448400  1
  C  C92  1  0.55430800  0.55430800  0.89449000  1
  C  C93  1  0.42905700  0.87560600  0.81971600  1
  C  C94  1  0.17586200  0.17586200  0.96099300  1
  C  C95  1  0.17583000  0.68704700  0.96094000  1
  C  C96  1  0.03316200  0.03316200  0.90054900  1
  C  C97  1  0.68704700  0.17583000  0.96094000  1
