# generated using pymatgen
data_Cu6NiC5
_symmetry_space_group_name_H-M   'P 1'
_cell_length_a   11.48298265
_cell_length_b   11.48298265
_cell_length_c   11.48298231
_cell_angle_alpha   30.39157326
_cell_angle_beta   30.39157326
_cell_angle_gamma   30.39157435
_symmetry_Int_Tables_number   1
_chemical_formula_structural   Cu6NiC5
_chemical_formula_sum   'Cu12 Ni2 C10'
_cell_volume   343.46762528
_cell_formula_units_Z   2
loop_
 _symmetry_equiv_pos_site_id
 _symmetry_equiv_pos_as_xyz
  1  'x, y, z'
loop_
 _atom_site_type_symbol
 _atom_site_label
 _atom_site_symmetry_multiplicity
 _atom_site_fract_x
 _atom_site_fract_y
 _atom_site_fract_z
 _atom_site_occupancy
  C  C0  1  0.25000000  0.54526500  0.95473500  1
  C  C1  1  0.54526500  0.95473500  0.25000000  1
  C  C2  1  0.95473500  0.25000000  0.54526500  1
  C  C3  1  0.14989200  0.14989200  0.14989200  1
  C  C4  1  0.64989200  0.64989200  0.64989200  1
  C  C5  1  0.75000000  0.45473500  0.04526500  1
  C  C6  1  0.35010800  0.35010800  0.35010800  1
  C  C7  1  0.45473500  0.04526500  0.75000000  1
  C  C8  1  0.85010800  0.85010800  0.85010800  1
  C  C9  1  0.04526500  0.75000000  0.45473500  1
  Ni  Ni10  1  0.50000000  0.50000000  0.50000000  1
  Ni  Ni11  1  0.00000000  0.00000000  0.00000000  1
  Cu  Cu12  1  0.01643500  0.67994500  0.20258200  1
  Cu  Cu13  1  0.98356500  0.32005500  0.79741800  1
  Cu  Cu14  1  0.29741800  0.82005500  0.48356500  1
  Cu  Cu15  1  0.32005500  0.79741800  0.98356500  1
  Cu  Cu16  1  0.17994500  0.51643500  0.70258200  1
  Cu  Cu17  1  0.70258200  0.17994500  0.51643500  1
  Cu  Cu18  1  0.51643500  0.70258200  0.17994500  1
  Cu  Cu19  1  0.79741800  0.98356500  0.32005500  1
  Cu  Cu20  1  0.82005500  0.48356500  0.29741800  1
  Cu  Cu21  1  0.67994500  0.20258200  0.01643500  1
  Cu  Cu22  1  0.48356500  0.29741800  0.82005500  1
  Cu  Cu23  1  0.20258200  0.01643500  0.67994500  1
