# generated using pymatgen
data_Cu(NiC6)2
_symmetry_space_group_name_H-M   'P 1'
_cell_length_a   6.44002000
_cell_length_b   7.18149800
_cell_length_c   9.72641300
_cell_angle_alpha   90.00000000
_cell_angle_beta   90.00000000
_cell_angle_gamma   90.00000000
_symmetry_Int_Tables_number   1
_chemical_formula_structural   Cu(NiC6)2
_chemical_formula_sum   'Cu2 Ni4 C24'
_cell_volume   449.83678487
_cell_formula_units_Z   2
loop_
 _symmetry_equiv_pos_site_id
 _symmetry_equiv_pos_as_xyz
  1  'x, y, z'
loop_
 _atom_site_type_symbol
 _atom_site_label
 _atom_site_symmetry_multiplicity
 _atom_site_fract_x
 _atom_site_fract_y
 _atom_site_fract_z
 _atom_site_occupancy
  C  C0  1  0.25000000  0.26318200  0.25000000  1
  C  C1  1  0.75000000  0.73681800  0.75000000  1
  C  C2  1  0.50000000  0.00000000  0.50000000  1
  C  C3  1  0.25000000  0.79459300  0.25000000  1
  C  C4  1  0.00000000  0.00000000  0.00000000  1
  C  C5  1  0.75000000  0.20540700  0.75000000  1
  C  C6  1  0.00000000  0.00000000  0.50000000  1
  C  C7  1  0.50000000  0.00000000  0.00000000  1
  Ni  Ni8  1  0.75000000  0.40146400  0.44285400  1
  Ni  Ni9  1  0.25000000  0.59853600  0.55714600  1
  Ni  Ni10  1  0.25000000  0.59853600  0.94285400  1
  Ni  Ni11  1  0.75000000  0.40146400  0.05714600  1
  Cu  Cu12  1  0.25000000  0.15945100  0.75000000  1
  Cu  Cu13  1  0.75000000  0.84054900  0.25000000  1
  C  C14  1  0.75000000  0.42268800  0.87962700  1
  C  C15  1  0.03937800  0.74543100  0.58445200  1
  C  C16  1  0.46062200  0.74543100  0.58445200  1
  C  C17  1  0.53937800  0.25456900  0.41554800  1
  C  C18  1  0.96062200  0.25456900  0.08445200  1
  C  C19  1  0.75000000  0.42268800  0.62037300  1
  C  C20  1  0.03937800  0.74543100  0.91554800  1
  C  C21  1  0.75000000  0.01179400  0.61053400  1
  C  C22  1  0.75000000  0.01179400  0.88946600  1
  C  C23  1  0.96062200  0.25456900  0.41554800  1
  C  C24  1  0.25000000  0.57731200  0.37962700  1
  C  C25  1  0.53937800  0.25456900  0.08445200  1
  C  C26  1  0.46062200  0.74543100  0.91554800  1
  C  C27  1  0.25000000  0.57731200  0.12037300  1
  C  C28  1  0.25000000  0.98820600  0.38946600  1
  C  C29  1  0.25000000  0.98820600  0.11053400  1
