# generated using pymatgen
data_CuNiC8
_symmetry_space_group_name_H-M   'P 1'
_cell_length_a   5.98601000
_cell_length_b   9.57660000
_cell_length_c   11.25444100
_cell_angle_alpha   90.00000000
_cell_angle_beta   90.00000000
_cell_angle_gamma   90.00000000
_symmetry_Int_Tables_number   1
_chemical_formula_structural   CuNiC8
_chemical_formula_sum   'Cu4 Ni4 C32'
_cell_volume   645.16784596
_cell_formula_units_Z   4
loop_
 _symmetry_equiv_pos_site_id
 _symmetry_equiv_pos_as_xyz
  1  'x, y, z'
loop_
 _atom_site_type_symbol
 _atom_site_label
 _atom_site_symmetry_multiplicity
 _atom_site_fract_x
 _atom_site_fract_y
 _atom_site_fract_z
 _atom_site_occupancy
  C  C0  1  0.25000000  0.61774400  0.16026600  1
  C  C1  1  0.25000000  0.67040200  0.80751200  1
  C  C2  1  0.25000000  0.17040200  0.69248800  1
  C  C3  1  0.25000000  0.11774400  0.33973400  1
  C  C4  1  0.75000000  0.32959800  0.19248800  1
  C  C5  1  0.75000000  0.82959800  0.30751200  1
  C  C6  1  0.75000000  0.88225600  0.66026600  1
  C  C7  1  0.75000000  0.38225600  0.83973400  1
  Ni  Ni8  1  0.00000000  0.50000000  0.50000000  1
  Ni  Ni9  1  0.50000000  0.00000000  0.00000000  1
  Ni  Ni10  1  0.50000000  0.50000000  0.50000000  1
  Ni  Ni11  1  0.00000000  0.00000000  0.00000000  1
  Cu  Cu12  1  0.75000000  0.69666800  0.99098400  1
  Cu  Cu13  1  0.25000000  0.80333200  0.49098400  1
  Cu  Cu14  1  0.75000000  0.19666800  0.50901600  1
  Cu  Cu15  1  0.25000000  0.30333200  0.00901600  1
  C  C16  1  0.46489600  0.71097900  0.52731800  1
  C  C17  1  0.75000000  0.03429700  0.11704900  1
  C  C18  1  0.25000000  0.96570300  0.88295100  1
  C  C19  1  0.75000000  0.16969300  0.64208300  1
  C  C20  1  0.75000000  0.57015000  0.07215100  1
  C  C21  1  0.96489600  0.78902100  0.02731800  1
  C  C22  1  0.25000000  0.33030700  0.14208300  1
  C  C23  1  0.25000000  0.42985000  0.92784900  1
  C  C24  1  0.75000000  0.66969300  0.85791700  1
  C  C25  1  0.25000000  0.83030700  0.35791700  1
  C  C26  1  0.75000000  0.49968800  0.61756900  1
  C  C27  1  0.75000000  0.07015000  0.42784900  1
  C  C28  1  0.96489600  0.28902100  0.47268200  1
  C  C29  1  0.75000000  0.99968800  0.88243100  1
  C  C30  1  0.25000000  0.00031200  0.11756900  1
  C  C31  1  0.46489600  0.21097900  0.97268200  1
  C  C32  1  0.25000000  0.46570300  0.61704900  1
  C  C33  1  0.25000000  0.50031200  0.38243100  1
  C  C34  1  0.03510400  0.71097900  0.52731800  1
  C  C35  1  0.25000000  0.92985000  0.57215100  1
  C  C36  1  0.53510400  0.28902100  0.47268200  1
  C  C37  1  0.03510400  0.21097900  0.97268200  1
  C  C38  1  0.53510400  0.78902100  0.02731800  1
  C  C39  1  0.75000000  0.53429700  0.38295100  1
