# generated using pymatgen
data_CuNiC11
_symmetry_space_group_name_H-M   'P 1'
_cell_length_a   7.24723471
_cell_length_b   7.24723471
_cell_length_c   23.00917700
_cell_angle_alpha   90.00000000
_cell_angle_beta   90.00000000
_cell_angle_gamma   119.80701838
_symmetry_Int_Tables_number   1
_chemical_formula_structural   CuNiC11
_chemical_formula_sum   'Cu6 Ni6 C66'
_cell_volume   1048.61876113
_cell_formula_units_Z   6
loop_
 _symmetry_equiv_pos_site_id
 _symmetry_equiv_pos_as_xyz
  1  'x, y, z'
loop_
 _atom_site_type_symbol
 _atom_site_label
 _atom_site_symmetry_multiplicity
 _atom_site_fract_x
 _atom_site_fract_y
 _atom_site_fract_z
 _atom_site_occupancy
  Ni  Ni0  1  0.01045900  0.98954100  0.25000000  1
  Ni  Ni1  1  0.96417000  0.00704400  0.08348200  1
  Ni  Ni2  1  0.98954100  0.01045900  0.75000000  1
  Ni  Ni3  1  0.00704400  0.96417000  0.91651800  1
  Ni  Ni4  1  0.99295600  0.03583000  0.41651800  1
  Ni  Ni5  1  0.03583000  0.99295600  0.58348200  1
  Cu  Cu6  1  0.50083500  0.98827500  0.83347600  1
  Cu  Cu7  1  0.51532400  0.51532400  0.50000000  1
  Cu  Cu8  1  0.98827500  0.50083500  0.16652400  1
  Cu  Cu9  1  0.48467600  0.48467600  0.00000000  1
  Cu  Cu10  1  0.01172500  0.49916500  0.66652400  1
  Cu  Cu11  1  0.49916500  0.01172500  0.33347600  1
  C  C12  1  0.00167900  0.48451900  0.83626900  1
  C  C13  1  0.52061800  0.01759600  0.50322600  1
  C  C14  1  0.98240400  0.47938200  0.99677400  1
  C  C15  1  0.48451900  0.00167900  0.16373100  1
  C  C16  1  0.49685700  0.51255900  0.33011300  1
  C  C17  1  0.99832100  0.51548100  0.33626900  1
  C  C18  1  0.47938200  0.98240400  0.00322600  1
  C  C19  1  0.01759600  0.52061800  0.49677400  1
  C  C20  1  0.48744100  0.50314300  0.16988700  1
  C  C21  1  0.51255900  0.49685700  0.66988700  1
  C  C22  1  0.50314300  0.48744100  0.83011300  1
  C  C23  1  0.51548100  0.99832100  0.66373100  1
  C  C24  1  0.45977100  0.52084900  0.09319800  1
  C  C25  1  0.22652400  0.33487400  0.66544700  1
  C  C26  1  0.79757900  0.66011100  0.67792200  1
  C  C27  1  0.52084900  0.45977100  0.90680200  1
  C  C28  1  0.24773200  0.71304500  0.01135500  1
  C  C29  1  0.41500000  0.96631500  0.92684200  1
  C  C30  1  0.48592800  0.51407200  0.75000000  1
  C  C31  1  0.88633200  0.67211600  0.48260000  1
  C  C32  1  0.47915100  0.54022900  0.40680200  1
  C  C33  1  0.20242100  0.33988900  0.17792200  1
  C  C34  1  0.79558000  0.13070800  0.64701000  1
  C  C35  1  0.54022900  0.47915100  0.59319800  1
  C  C36  1  0.75226800  0.28695500  0.51135500  1
  C  C37  1  0.64108400  0.85949700  0.99280000  1
  C  C38  1  0.27007900  0.52050000  0.84421700  1
  C  C39  1  0.00550500  0.46071800  0.41647400  1
  C  C40  1  0.72992100  0.47950000  0.34421700  1
  C  C41  1  0.58500000  0.03368500  0.42684200  1
  C  C42  1  0.23279200  0.87349600  0.67620700  1
  C  C43  1  0.51407200  0.48592800  0.25000000  1
  C  C44  1  0.52050000  0.27007900  0.15578300  1
  C  C45  1  0.67211600  0.88633200  0.51740000  1
  C  C46  1  0.12650400  0.76720800  0.82379300  1
  C  C47  1  0.98839100  0.57353000  0.26028400  1
  C  C48  1  0.73787100  0.45465500  0.82171600  1
  C  C49  1  0.86929200  0.20442000  0.85299000  1
  C  C50  1  0.47950000  0.72992100  0.65578300  1
  C  C51  1  0.66011100  0.79757900  0.32207800  1
  C  C52  1  0.77347600  0.66512600  0.16544700  1
  C  C53  1  0.87349600  0.23279200  0.32379300  1
  C  C54  1  0.54534500  0.26212900  0.67828400  1
  C  C55  1  0.28695500  0.75226800  0.48864500  1
  C  C56  1  0.71304500  0.24773200  0.98864500  1
  C  C57  1  0.13070800  0.79558000  0.35299000  1
  C  C58  1  0.96631500  0.41500000  0.07315800  1
  C  C59  1  0.99449500  0.53928200  0.91647400  1
  C  C60  1  0.32788400  0.11366800  0.01740000  1
  C  C61  1  0.46071800  0.00550500  0.58352600  1
  C  C62  1  0.03368500  0.58500000  0.57315800  1
  C  C63  1  0.01160900  0.42647000  0.76028400  1
  C  C64  1  0.76720800  0.12650400  0.17620700  1
  C  C65  1  0.66512600  0.77347600  0.83455300  1
  C  C66  1  0.35891600  0.14050300  0.49280000  1
  C  C67  1  0.33487400  0.22652400  0.33455300  1
  C  C68  1  0.85949700  0.64108400  0.00720000  1
  C  C69  1  0.45465500  0.73787100  0.17828400  1
  C  C70  1  0.33988900  0.20242100  0.82207800  1
  C  C71  1  0.11366800  0.32788400  0.98260000  1
  C  C72  1  0.14050300  0.35891600  0.50720000  1
  C  C73  1  0.20442000  0.86929200  0.14701000  1
  C  C74  1  0.42647000  0.01160900  0.23971600  1
  C  C75  1  0.57353000  0.98839100  0.73971600  1
  C  C76  1  0.53928200  0.99449500  0.08352600  1
  C  C77  1  0.26212900  0.54534500  0.32171600  1
