# generated using pymatgen
data_Cu6Ni2C3
_symmetry_space_group_name_H-M   'P 1'
_cell_length_a   5.60218449
_cell_length_b   5.60218449
_cell_length_c   7.47928898
_cell_angle_alpha   68.21967160
_cell_angle_beta   68.21967160
_cell_angle_gamma   55.57468089
_symmetry_Int_Tables_number   1
_chemical_formula_structural   Cu6Ni2C3
_chemical_formula_sum   'Cu6 Ni2 C3'
_cell_volume   175.77015176
_cell_formula_units_Z   1
loop_
 _symmetry_equiv_pos_site_id
 _symmetry_equiv_pos_as_xyz
  1  'x, y, z'
loop_
 _atom_site_type_symbol
 _atom_site_label
 _atom_site_symmetry_multiplicity
 _atom_site_fract_x
 _atom_site_fract_y
 _atom_site_fract_z
 _atom_site_occupancy
  C  C0  1  0.29686800  0.29686800  0.62675100  1
  C  C1  1  0.70313200  0.70313200  0.37324900  1
  C  C2  1  0.50000000  0.50000000  0.00000000  1
  Ni  Ni3  1  0.12192500  0.12192500  0.10454400  1
  Ni  Ni4  1  0.87807500  0.87807500  0.89545600  1
  Cu  Cu5  1  0.78028700  0.78028700  0.78310500  1
  Cu  Cu6  1  0.74668400  0.21883800  0.81387900  1
  Cu  Cu7  1  0.21971300  0.21971300  0.21689500  1
  Cu  Cu8  1  0.78116200  0.25331600  0.18612100  1
  Cu  Cu9  1  0.21883800  0.74668400  0.81387900  1
  Cu  Cu10  1  0.25331600  0.78116200  0.18612100  1
