# generated using pymatgen
data_CuNiC7
_symmetry_space_group_name_H-M   'P 1'
_cell_length_a   8.67668200
_cell_length_b   4.98770000
_cell_length_c   11.84035941
_cell_angle_alpha   70.99841325
_cell_angle_beta   90.00000000
_cell_angle_gamma   90.00000000
_symmetry_Int_Tables_number   1
_chemical_formula_structural   CuNiC7
_chemical_formula_sum   'Cu4 Ni4 C28'
_cell_volume   484.48999572
_cell_formula_units_Z   4
loop_
 _symmetry_equiv_pos_site_id
 _symmetry_equiv_pos_as_xyz
  1  'x, y, z'
loop_
 _atom_site_type_symbol
 _atom_site_label
 _atom_site_symmetry_multiplicity
 _atom_site_fract_x
 _atom_site_fract_y
 _atom_site_fract_z
 _atom_site_occupancy
  Ni  Ni0  1  0.82831700  0.67146100  0.42398100  1
  Ni  Ni1  1  0.32831700  0.32853900  0.07601900  1
  Ni  Ni2  1  0.67168300  0.67146100  0.92398100  1
  Ni  Ni3  1  0.17168300  0.32853900  0.57601900  1
  Cu  Cu4  1  0.91022900  0.98875200  0.11388500  1
  Cu  Cu5  1  0.08977100  0.01124800  0.88611500  1
  Cu  Cu6  1  0.41022900  0.01124800  0.38611500  1
  Cu  Cu7  1  0.58977100  0.98875200  0.61388500  1
  C  C8  1  0.55759000  0.68142500  0.20937800  1
  C  C9  1  0.44241000  0.31857500  0.79062200  1
  C  C10  1  0.05759000  0.31857500  0.29062200  1
  C  C11  1  0.94241000  0.68142500  0.70937800  1
  C  C12  1  0.39007300  0.12774700  0.53478100  1
  C  C13  1  0.01959000  0.59034800  0.18887800  1
  C  C14  1  0.53639100  0.05945200  0.77689600  1
  C  C15  1  0.46360900  0.94054800  0.22310400  1
  C  C16  1  0.98119700  0.65719400  0.58596900  1
  C  C17  1  0.03639100  0.94054800  0.72310400  1
  C  C18  1  0.60992700  0.87225300  0.46521900  1
  C  C19  1  0.48119700  0.34280600  0.91403100  1
  C  C20  1  0.48041000  0.59034800  0.68887800  1
  C  C21  1  0.98041000  0.40965200  0.81112200  1
  C  C22  1  0.51959000  0.40965200  0.31112200  1
  C  C23  1  0.10992700  0.12774700  0.03478100  1
  C  C24  1  0.71323900  0.27806700  0.56183700  1
  C  C25  1  0.23238800  0.26118400  0.27611800  1
  C  C26  1  0.51880300  0.65719400  0.08596900  1
  C  C27  1  0.26761200  0.26118400  0.77611800  1
  C  C28  1  0.76761200  0.73881600  0.72388200  1
  C  C29  1  0.28676100  0.72193300  0.43816300  1
  C  C30  1  0.73238800  0.73881600  0.22388200  1
  C  C31  1  0.96360900  0.05945200  0.27689600  1
  C  C32  1  0.89007300  0.87225300  0.96521900  1
  C  C33  1  0.01880300  0.34280600  0.41403100  1
  C  C34  1  0.21323900  0.72193300  0.93816300  1
  C  C35  1  0.78676100  0.27806700  0.06183700  1
