# generated using pymatgen
data_CuNiC2
_symmetry_space_group_name_H-M   'P 1'
_cell_length_a   6.65877400
_cell_length_b   7.08519618
_cell_length_c   7.08519618
_cell_angle_alpha   103.96515239
_cell_angle_beta   90.00000000
_cell_angle_gamma   90.00000000
_symmetry_Int_Tables_number   1
_chemical_formula_structural   CuNiC2
_chemical_formula_sum   'Cu2 Ni2 C4'
_cell_volume   324.39034921
_cell_formula_units_Z   2
loop_
 _symmetry_equiv_pos_site_id
 _symmetry_equiv_pos_as_xyz
  1  'x, y, z'
loop_
 _atom_site_type_symbol
 _atom_site_label
 _atom_site_symmetry_multiplicity
 _atom_site_fract_x
 _atom_site_fract_y
 _atom_site_fract_z
 _atom_site_occupancy
  C  C0  1  0.25000000  0.67878100  0.02109600  1
  C  C1  1  0.75000000  0.97890400  0.32121900  1
  C  C2  1  0.25000000  0.03813500  0.67722100  1
  C  C3  1  0.75000000  0.32277900  0.96186500  1
  Ni  Ni4  1  0.00000000  0.50808700  0.49191300  1
  Ni  Ni5  1  0.50000000  0.50808700  0.49191300  1
  Cu  Cu6  1  0.25000000  0.22934700  0.22311800  1
  Cu  Cu7  1  0.75000000  0.77688200  0.77065300  1
