# generated using pymatgen
data_Cu2Ni3C16
_symmetry_space_group_name_H-M   'P 1'
_cell_length_a   8.72610664
_cell_length_b   8.72610664
_cell_length_c   6.91107146
_cell_angle_alpha   74.06966944
_cell_angle_beta   74.06966944
_cell_angle_gamma   91.44810525
_symmetry_Int_Tables_number   1
_chemical_formula_structural   Cu2Ni3C16
_chemical_formula_sum   'Cu4 Ni6 C32'
_cell_volume   483.71105697
_cell_formula_units_Z   2
loop_
 _symmetry_equiv_pos_site_id
 _symmetry_equiv_pos_as_xyz
  1  'x, y, z'
loop_
 _atom_site_type_symbol
 _atom_site_label
 _atom_site_symmetry_multiplicity
 _atom_site_fract_x
 _atom_site_fract_y
 _atom_site_fract_z
 _atom_site_occupancy
  C  C0  1  0.99557900  0.00442100  0.75000000  1
  C  C1  1  0.00442100  0.99557900  0.25000000  1
  C  C2  1  0.72219600  0.27780400  0.25000000  1
  C  C3  1  0.27780400  0.72219600  0.75000000  1
  C  C4  1  0.04482300  0.36937300  0.38522500  1
  C  C5  1  0.63062700  0.95517700  0.11477500  1
  C  C6  1  0.95517700  0.63062700  0.61477500  1
  C  C7  1  0.36937300  0.04482300  0.88522500  1
  Ni  Ni8  1  0.31455600  0.68544400  0.25000000  1
  Ni  Ni9  1  0.68544400  0.31455600  0.75000000  1
  Ni  Ni10  1  0.89575900  0.66722800  0.11155700  1
  Ni  Ni11  1  0.33277200  0.10424100  0.38844300  1
  Ni  Ni12  1  0.10424100  0.33277200  0.88844300  1
  Ni  Ni13  1  0.66722800  0.89575900  0.61155700  1
  Cu  Cu14  1  0.61780400  0.60886800  0.19602000  1
  Cu  Cu15  1  0.39113200  0.38219600  0.30398000  1
  Cu  Cu16  1  0.38219600  0.39113200  0.80398000  1
  Cu  Cu17  1  0.60886800  0.61780400  0.69602000  1
  C  C18  1  0.79811900  0.27216100  0.52486600  1
  C  C19  1  0.72783900  0.20188100  0.97513400  1
  C  C20  1  0.20188100  0.72783900  0.47513400  1
  C  C21  1  0.27216100  0.79811900  0.02486600  1
  C  C22  1  0.28096500  0.48408200  0.27257700  1
  C  C23  1  0.51591800  0.71903500  0.22742300  1
  C  C24  1  0.71903500  0.51591800  0.72742300  1
  C  C25  1  0.48408200  0.28096500  0.77257700  1
  C  C26  1  0.97468300  0.33060800  0.12801500  1
  C  C27  1  0.66939200  0.02531700  0.37198500  1
  C  C28  1  0.02531700  0.66939200  0.87198500  1
  C  C29  1  0.33060800  0.97468300  0.62801500  1
  C  C30  1  0.46250300  0.27908600  0.33455600  1
  C  C31  1  0.72091400  0.53749700  0.16544400  1
  C  C32  1  0.53749700  0.72091400  0.66544400  1
  C  C33  1  0.27908600  0.46250300  0.83455600  1
  C  C34  1  0.97809300  0.60136100  0.31386400  1
  C  C35  1  0.39863900  0.02190700  0.18613600  1
  C  C36  1  0.02190700  0.39863900  0.68613600  1
  C  C37  1  0.60136100  0.97809300  0.81386400  1
  C  C38  1  0.14085100  0.15110000  0.40696800  1
  C  C39  1  0.84890000  0.85914900  0.09303200  1
  C  C40  1  0.85914900  0.84890000  0.59303200  1
  C  C41  1  0.15110000  0.14085100  0.90696800  1
