# generated using pymatgen
data_Cu5Ni6C7
_symmetry_space_group_name_H-M   'P 1'
_cell_length_a   12.68852132
_cell_length_b   12.68852132
_cell_length_c   17.26017231
_cell_angle_alpha   84.59565717
_cell_angle_beta   84.59565717
_cell_angle_gamma   89.28129311
_symmetry_Int_Tables_number   1
_chemical_formula_structural   Cu5Ni6C7
_chemical_formula_sum   'Cu40 Ni48 C56'
_cell_volume   2754.19406704
_cell_formula_units_Z   8
loop_
 _symmetry_equiv_pos_site_id
 _symmetry_equiv_pos_as_xyz
  1  'x, y, z'
loop_
 _atom_site_type_symbol
 _atom_site_label
 _atom_site_symmetry_multiplicity
 _atom_site_fract_x
 _atom_site_fract_y
 _atom_site_fract_z
 _atom_site_occupancy
  C  C0  1  0.75622900  0.08064500  0.94125800  1
  C  C1  1  0.57832800  0.76376600  0.43526600  1
  C  C2  1  0.24377100  0.91935500  0.05874200  1
  C  C3  1  0.23623400  0.42167200  0.06473400  1
  C  C4  1  0.76376600  0.57832800  0.93526600  1
  C  C5  1  0.91935500  0.24377100  0.55874200  1
  C  C6  1  0.08064500  0.75622900  0.44125800  1
  C  C7  1  0.42167200  0.23623400  0.56473400  1
  Ni  Ni8  1  0.31027000  0.46818000  0.72107500  1
  Ni  Ni9  1  0.78700100  0.46282200  0.71504200  1
  Ni  Ni10  1  0.65957600  0.94325600  0.61226800  1
  Ni  Ni11  1  0.94325600  0.65957600  0.11226800  1
  Ni  Ni12  1  0.15749500  0.19361400  0.90465800  1
  Ni  Ni13  1  0.69088700  0.15277800  0.39672900  1
  Ni  Ni14  1  0.15277800  0.69088700  0.89672900  1
  Ni  Ni15  1  0.94275000  0.15784600  0.10786300  1
  Ni  Ni16  1  0.19361400  0.15749500  0.40465800  1
  Ni  Ni17  1  0.05725000  0.84215400  0.89213700  1
  Ni  Ni18  1  0.53182000  0.68973000  0.77892500  1
  Ni  Ni19  1  0.34025300  0.46956700  0.40037600  1
  Ni  Ni20  1  0.34042400  0.05674400  0.38773200  1
  Ni  Ni21  1  0.46956700  0.34025300  0.90037600  1
  Ni  Ni22  1  0.46818000  0.31027000  0.22107500  1
  Ni  Ni23  1  0.47280800  0.83624700  0.88257200  1
  Ni  Ni24  1  0.83624700  0.47280800  0.38257200  1
  Ni  Ni25  1  0.52719200  0.16375300  0.11742800  1
  Ni  Ni26  1  0.28054400  0.97527000  0.72648900  1
  Ni  Ni27  1  0.21299900  0.53717800  0.28495800  1
  Ni  Ni28  1  0.16375300  0.52719200  0.61742800  1
  Ni  Ni29  1  0.62661000  0.80886300  0.09500800  1
  Ni  Ni30  1  0.53043300  0.65974700  0.09962400  1
  Ni  Ni31  1  0.97029200  0.80239900  0.21896600  1
  Ni  Ni32  1  0.05674400  0.34042400  0.88773200  1
  Ni  Ni33  1  0.84250500  0.80638600  0.09534200  1
  Ni  Ni34  1  0.63088200  0.31010900  0.09983700  1
  Ni  Ni35  1  0.80638600  0.84250500  0.59534200  1
  Ni  Ni36  1  0.46282200  0.78700100  0.21504200  1
  Ni  Ni37  1  0.02473000  0.71945600  0.77351100  1
  Ni  Ni38  1  0.19113700  0.37339000  0.40499200  1
  Ni  Ni39  1  0.19760100  0.02970800  0.28103400  1
  Ni  Ni40  1  0.68989100  0.36911800  0.40016300  1
  Ni  Ni41  1  0.37339000  0.19113700  0.90499200  1
  Ni  Ni42  1  0.68973000  0.53182000  0.27892500  1
  Ni  Ni43  1  0.80239900  0.97029200  0.71896600  1
  Ni  Ni44  1  0.53717800  0.21299900  0.78495800  1
  Ni  Ni45  1  0.02970800  0.19760100  0.78103400  1
  Ni  Ni46  1  0.71945600  0.02473000  0.27351100  1
  Ni  Ni47  1  0.97527000  0.28054400  0.22648900  1
  Ni  Ni48  1  0.36911800  0.68989100  0.90016300  1
  Ni  Ni49  1  0.80886300  0.62661000  0.59500800  1
  Ni  Ni50  1  0.84215400  0.05725000  0.39213700  1
  Ni  Ni51  1  0.31010900  0.63088200  0.59983700  1
  Ni  Ni52  1  0.65974700  0.53043300  0.59962400  1
  Ni  Ni53  1  0.15784600  0.94275000  0.60786300  1
  Ni  Ni54  1  0.84722200  0.30911300  0.10327100  1
  Ni  Ni55  1  0.30911300  0.84722200  0.60327100  1
  Cu  Cu56  1  0.23418500  0.27125000  0.35853000  1
  Cu  Cu57  1  0.73208300  0.26829500  0.14729600  1
  Cu  Cu58  1  0.68908700  0.99007700  0.69057900  1
  Cu  Cu59  1  0.09759100  0.13213500  0.84286700  1
  Cu  Cu60  1  0.26791700  0.73170500  0.85270400  1
  Cu  Cu61  1  0.64247600  0.09088000  0.32968800  1
  Cu  Cu62  1  0.67848900  0.45836600  0.67871800  1
  Cu  Cu63  1  0.13914000  0.45485100  0.34047500  1
  Cu  Cu64  1  0.73170500  0.26791700  0.35270400  1
  Cu  Cu65  1  0.00911000  0.82735900  0.81111900  1
  Cu  Cu66  1  0.90912000  0.35752400  0.17031200  1
  Cu  Cu67  1  0.72875000  0.76581500  0.14147000  1
  Cu  Cu68  1  0.44712000  0.62659700  0.83987300  1
  Cu  Cu69  1  0.00992300  0.31091300  0.80942100  1
  Cu  Cu70  1  0.09088000  0.64247600  0.82968800  1
  Cu  Cu71  1  0.90240900  0.86786500  0.15713300  1
  Cu  Cu72  1  0.86786500  0.90240900  0.65713300  1
  Cu  Cu73  1  0.54199200  0.80377200  0.80585100  1
  Cu  Cu74  1  0.35752400  0.90912000  0.67031200  1
  Cu  Cu75  1  0.45836600  0.67848900  0.17871800  1
  Cu  Cu76  1  0.99007700  0.68908700  0.19057900  1
  Cu  Cu77  1  0.37340300  0.55288000  0.66012700  1
  Cu  Cu78  1  0.82735900  0.00911000  0.31111900  1
  Cu  Cu79  1  0.86086000  0.54514900  0.65952500  1
  Cu  Cu80  1  0.45800800  0.19622800  0.19414900  1
  Cu  Cu81  1  0.62659700  0.44712000  0.33987300  1
  Cu  Cu82  1  0.99089000  0.17264100  0.18888100  1
  Cu  Cu83  1  0.55288000  0.37340300  0.16012700  1
  Cu  Cu84  1  0.54163400  0.32151100  0.82128200  1
  Cu  Cu85  1  0.80377200  0.54199200  0.30585100  1
  Cu  Cu86  1  0.54514900  0.86086000  0.15952500  1
  Cu  Cu87  1  0.17264100  0.99089000  0.68888100  1
  Cu  Cu88  1  0.45485100  0.13914000  0.84047500  1
  Cu  Cu89  1  0.32151100  0.54163400  0.32128200  1
  Cu  Cu90  1  0.76581500  0.72875000  0.64147000  1
  Cu  Cu91  1  0.19622800  0.45800800  0.69414900  1
  Cu  Cu92  1  0.27125000  0.23418500  0.85853000  1
  Cu  Cu93  1  0.13213500  0.09759100  0.34286700  1
  Cu  Cu94  1  0.31091300  0.00992300  0.30942100  1
  Cu  Cu95  1  0.26829500  0.73208300  0.64729600  1
  C  C96  1  0.01523300  0.33185300  0.58284900  1
  C  C97  1  0.74428400  0.02623400  0.04074700  1
  C  C98  1  0.13198300  0.33981800  0.04188400  1
  C  C99  1  0.00281500  0.13423200  0.57990600  1
  C  C100  1  0.25571600  0.97376600  0.95925300  1
  C  C101  1  0.84418900  0.17867500  0.96628700  1
  C  C102  1  0.35267700  0.83340700  0.03579500  1
  C  C103  1  0.36585200  0.21976600  0.66329700  1
  C  C104  1  0.85620100  0.47757800  0.91358200  1
  C  C105  1  0.17867500  0.84418900  0.46628700  1
  C  C106  1  0.66814700  0.98476700  0.91715100  1
  C  C107  1  0.32893200  0.31898300  0.04218000  1
  C  C108  1  0.74724400  0.52610800  0.03518200  1
  C  C109  1  0.47757800  0.85620100  0.41358200  1
  C  C110  1  0.64732300  0.16659300  0.96420500  1
  C  C111  1  0.33185300  0.01523300  0.08284900  1
  C  C112  1  0.52242200  0.14379900  0.58641800  1
  C  C113  1  0.50093000  0.34142300  0.58624800  1
  C  C114  1  0.86127400  0.23235900  0.65672600  1
  C  C115  1  0.66018200  0.86801700  0.45811600  1
  C  C116  1  0.21976600  0.36585200  0.16329700  1
  C  C117  1  0.13872600  0.76764100  0.34327400  1
  C  C118  1  0.14379900  0.52242200  0.08641800  1
  C  C119  1  0.83340700  0.35267700  0.53579500  1
  C  C120  1  0.33981800  0.13198300  0.54188400  1
  C  C121  1  0.23235900  0.86127400  0.15672600  1
  C  C122  1  0.13423200  0.00281500  0.07990600  1
  C  C123  1  0.68101700  0.67106800  0.45782000  1
  C  C124  1  0.52610800  0.74724400  0.53518200  1
  C  C125  1  0.99718500  0.86576800  0.42009400  1
  C  C126  1  0.31898300  0.32893200  0.54218000  1
  C  C127  1  0.02623400  0.74428400  0.54074700  1
  C  C128  1  0.47389200  0.25275600  0.46481800  1
  C  C129  1  0.98476700  0.66814700  0.41715100  1
  C  C130  1  0.82132500  0.15581100  0.53371300  1
  C  C131  1  0.86801700  0.66018200  0.95811600  1
  C  C132  1  0.65857700  0.49907000  0.91375200  1
  C  C133  1  0.25275600  0.47389200  0.96481800  1
  C  C134  1  0.34142300  0.50093000  0.08624800  1
  C  C135  1  0.78023400  0.63414800  0.83670300  1
  C  C136  1  0.86576800  0.99718500  0.92009400  1
  C  C137  1  0.63414800  0.78023400  0.33670300  1
  C  C138  1  0.49907000  0.65857700  0.41375200  1
  C  C139  1  0.16659300  0.64732300  0.46420500  1
  C  C140  1  0.15581100  0.82132500  0.03371300  1
  C  C141  1  0.67106800  0.68101700  0.95782000  1
  C  C142  1  0.97376600  0.25571600  0.45925300  1
  C  C143  1  0.76764100  0.13872600  0.84327400  1
