# generated using pymatgen
data_CuNi4C9
_symmetry_space_group_name_H-M   'P 1'
_cell_length_a   11.55886995
_cell_length_b   11.55886995
_cell_length_c   4.82870600
_cell_angle_alpha   90.00000000
_cell_angle_beta   90.00000000
_cell_angle_gamma   119.99999971
_symmetry_Int_Tables_number   1
_chemical_formula_structural   CuNi4C9
_chemical_formula_sum   'Cu3 Ni12 C27'
_cell_volume   558.71734203
_cell_formula_units_Z   3
loop_
 _symmetry_equiv_pos_site_id
 _symmetry_equiv_pos_as_xyz
  1  'x, y, z'
loop_
 _atom_site_type_symbol
 _atom_site_label
 _atom_site_symmetry_multiplicity
 _atom_site_fract_x
 _atom_site_fract_y
 _atom_site_fract_z
 _atom_site_occupancy
  Ni  Ni0  1  0.14917700  0.49058600  0.39837700  1
  Ni  Ni1  1  0.50941400  0.65859000  0.39837700  1
  Ni  Ni2  1  0.34141000  0.85082300  0.39837700  1
  Ni  Ni3  1  0.65859000  0.50941400  0.60162300  1
  Ni  Ni4  1  0.85082300  0.34141000  0.60162300  1
  Ni  Ni5  1  0.49058600  0.14917700  0.60162300  1
  Ni  Ni6  1  0.18029900  0.00000000  0.50000000  1
  Ni  Ni7  1  0.00000000  0.18029900  0.50000000  1
  Ni  Ni8  1  0.81970100  0.81970100  0.50000000  1
  Ni  Ni9  1  0.33333300  0.66666700  0.88838300  1
  Ni  Ni10  1  0.66666700  0.33333300  0.11161700  1
  Ni  Ni11  1  0.00000000  0.00000000  0.00000000  1
  Cu  Cu12  1  0.67388800  0.00000000  0.00000000  1
  Cu  Cu13  1  0.00000000  0.67388800  0.00000000  1
  Cu  Cu14  1  0.32611200  0.32611200  0.00000000  1
  C  C15  1  0.09375200  0.15435900  0.76228800  1
  C  C16  1  0.84564100  0.93939300  0.76228800  1
  C  C17  1  0.06060700  0.90624800  0.76228800  1
  C  C18  1  0.93939300  0.84564100  0.23771200  1
  C  C19  1  0.90624800  0.06060700  0.23771200  1
  C  C20  1  0.15435900  0.09375200  0.23771200  1
  C  C21  1  0.10860400  0.32488200  0.29299900  1
  C  C22  1  0.67511800  0.78372200  0.29299900  1
  C  C23  1  0.21627800  0.89139600  0.29299900  1
  C  C24  1  0.78372200  0.67511800  0.70700100  1
  C  C25  1  0.89139600  0.21627800  0.70700100  1
  C  C26  1  0.32488200  0.10860400  0.70700100  1
  C  C27  1  0.26215700  0.51126000  0.66592200  1
  C  C28  1  0.48874000  0.75089800  0.66592200  1
  C  C29  1  0.24910200  0.73784300  0.66592200  1
  C  C30  1  0.75089800  0.48874000  0.33407800  1
  C  C31  1  0.73784300  0.24910200  0.33407800  1
  C  C32  1  0.51126000  0.26215700  0.33407800  1
  C  C33  1  0.17952500  0.60064200  0.11782700  1
  C  C34  1  0.39935800  0.57888300  0.11782700  1
  C  C35  1  0.42111700  0.82047500  0.11782700  1
  C  C36  1  0.57888300  0.39935800  0.88217300  1
  C  C37  1  0.82047500  0.42111700  0.88217300  1
  C  C38  1  0.60064200  0.17952500  0.88217300  1
  C  C39  1  0.48823900  0.00000000  0.50000000  1
  C  C40  1  0.00000000  0.48823900  0.50000000  1
  C  C41  1  0.51176100  0.51176100  0.50000000  1
