# generated using pymatgen
data_Cu3NiC13
_symmetry_space_group_name_H-M   'P 1'
_cell_length_a   5.54938700
_cell_length_b   15.62895300
_cell_length_c   24.50141836
_cell_angle_alpha   85.65136676
_cell_angle_beta   90.00000000
_cell_angle_gamma   90.00000000
_symmetry_Int_Tables_number   1
_chemical_formula_structural   Cu3NiC13
_chemical_formula_sum   'Cu24 Ni8 C104'
_cell_volume   2118.91747998
_cell_formula_units_Z   8
loop_
 _symmetry_equiv_pos_site_id
 _symmetry_equiv_pos_as_xyz
  1  'x, y, z'
loop_
 _atom_site_type_symbol
 _atom_site_label
 _atom_site_symmetry_multiplicity
 _atom_site_fract_x
 _atom_site_fract_y
 _atom_site_fract_z
 _atom_site_occupancy
  Ni  Ni0  1  0.26111200  0.79115400  0.31328000  1
  Ni  Ni1  1  0.23888800  0.79115400  0.81328000  1
  Ni  Ni2  1  0.73888800  0.20884600  0.68672000  1
  Ni  Ni3  1  0.77685900  0.90303100  0.27190800  1
  Ni  Ni4  1  0.72314100  0.90303100  0.77190800  1
  Ni  Ni5  1  0.76111200  0.20884600  0.18672000  1
  Ni  Ni6  1  0.27685900  0.09696900  0.22809200  1
  Ni  Ni7  1  0.22314100  0.09696900  0.72809200  1
  Cu  Cu8  1  0.21728600  0.22713700  0.41453700  1
  Cu  Cu9  1  0.68071200  0.37640900  0.35561900  1
  Cu  Cu10  1  0.18071200  0.62359100  0.14438100  1
  Cu  Cu11  1  0.28271400  0.22713700  0.91453700  1
  Cu  Cu12  1  0.28980400  0.54458400  0.79699200  1
  Cu  Cu13  1  0.26279800  0.91262500  0.52738700  1
  Cu  Cu14  1  0.78271400  0.77286300  0.58546300  1
  Cu  Cu15  1  0.29755800  0.98794000  0.87530800  1
  Cu  Cu16  1  0.74424000  0.53073500  0.04274200  1
  Cu  Cu17  1  0.81928800  0.37640900  0.85561900  1
  Cu  Cu18  1  0.21019600  0.54458400  0.29699200  1
  Cu  Cu19  1  0.79755800  0.01206000  0.62469200  1
  Cu  Cu20  1  0.24424000  0.46926500  0.45725800  1
  Cu  Cu21  1  0.70244200  0.01206000  0.12469200  1
  Cu  Cu22  1  0.23720200  0.91262500  0.02738700  1
  Cu  Cu23  1  0.20244200  0.98794000  0.37530800  1
  Cu  Cu24  1  0.31928800  0.62359100  0.64438100  1
  Cu  Cu25  1  0.71728600  0.77286300  0.08546300  1
  Cu  Cu26  1  0.25576000  0.46926500  0.95725800  1
  Cu  Cu27  1  0.76279800  0.08737500  0.97261300  1
  Cu  Cu28  1  0.71019600  0.45541600  0.20300800  1
  Cu  Cu29  1  0.78980400  0.45541600  0.70300800  1
  Cu  Cu30  1  0.75576000  0.53073500  0.54274200  1
  Cu  Cu31  1  0.73720200  0.08737500  0.47261300  1
  C  C32  1  0.71952800  0.57484900  0.38977000  1
  C  C33  1  0.21952800  0.42515100  0.11023000  1
  C  C34  1  0.28551700  0.68211900  0.50119900  1
  C  C35  1  0.70515800  0.88120600  0.44365400  1
  C  C36  1  0.28047200  0.42515100  0.61023000  1
  C  C37  1  0.29484200  0.11879400  0.55634600  1
  C  C38  1  0.78047200  0.57484900  0.88977000  1
  C  C39  1  0.31457400  0.33912100  0.77884300  1
  C  C40  1  0.21448300  0.68211900  0.00119900  1
  C  C41  1  0.79484200  0.88120600  0.94365400  1
  C  C42  1  0.18542600  0.33912100  0.27884300  1
  C  C43  1  0.26020000  0.85808600  0.15814900  1
  C  C44  1  0.23980000  0.85808600  0.65814900  1
  C  C45  1  0.71448300  0.31788100  0.49880100  1
  C  C46  1  0.81457400  0.66087900  0.72115700  1
  C  C47  1  0.68542600  0.66087900  0.22115700  1
  C  C48  1  0.76020000  0.14191400  0.34185100  1
  C  C49  1  0.78551700  0.31788100  0.99880100  1
  C  C50  1  0.20515800  0.11879400  0.05634600  1
  C  C51  1  0.73980000  0.14191400  0.84185100  1
  C  C52  1  0.02007100  0.89304600  0.60688000  1
  C  C53  1  0.94874100  0.41188900  0.28509100  1
  C  C54  1  0.46894600  0.49298800  0.11323100  1
  C  C55  1  0.29253400  0.03030700  0.28568900  1
  C  C56  1  0.01886800  0.48871500  0.14417000  1
  C  C57  1  0.44874100  0.58811100  0.21490900  1
  C  C58  1  0.61098500  0.24246500  0.96968700  1
  C  C59  1  0.75635600  0.16098200  0.62743200  1
  C  C60  1  0.20746600  0.03030700  0.78568900  1
  C  C61  1  0.60620700  0.83252700  0.50544300  1
  C  C62  1  0.25635600  0.83901800  0.87256800  1
  C  C63  1  0.39077700  0.41735900  0.25631700  1
  C  C64  1  0.47992900  0.89304600  0.10688000  1
  C  C65  1  0.41100300  0.59637600  0.99807200  1
  C  C66  1  0.99579400  0.03415700  0.05772300  1
  C  C67  1  0.48728200  0.86539300  0.61597000  1
  C  C68  1  0.48055700  0.64863700  0.55669300  1
  C  C69  1  0.28412300  0.68340200  0.32450900  1
  C  C70  1  0.54265700  0.93951000  0.96032000  1
  C  C71  1  0.99073200  0.83730000  0.77381500  1
  C  C72  1  0.60922300  0.58264100  0.74368300  1
  C  C73  1  0.10922300  0.41735900  0.75631700  1
  C  C74  1  0.51886800  0.51128500  0.35583000  1
  C  C75  1  0.81703900  0.95376000  0.32932200  1
  C  C76  1  0.98728200  0.13460700  0.88403000  1
  C  C77  1  0.49570800  0.81935700  0.77037300  1
  C  C78  1  0.74364400  0.16098200  0.12743200  1
  C  C79  1  0.31703900  0.04624000  0.17067800  1
  C  C80  1  0.16259500  0.75170400  0.66364500  1
  C  C81  1  0.89379300  0.83252700  0.00544300  1
  C  C82  1  0.88901500  0.24246500  0.46968700  1
  C  C83  1  0.48113200  0.48871500  0.64417000  1
  C  C84  1  0.90694800  0.55753000  0.95388600  1
  C  C85  1  0.01944300  0.64863700  0.05669300  1
  C  C86  1  0.71587700  0.31659800  0.67549100  1
  C  C87  1  0.10620700  0.16747300  0.99455700  1
  C  C88  1  0.50429200  0.18064300  0.22962700  1
  C  C89  1  0.11098500  0.75753500  0.53031300  1
  C  C90  1  0.95734300  0.93951000  0.46032000  1
  C  C91  1  0.96894600  0.50701200  0.38676900  1
  C  C92  1  0.00420600  0.96584300  0.94227700  1
  C  C93  1  0.58899700  0.40362400  0.00192800  1
  C  C94  1  0.91100300  0.40362400  0.50192800  1
  C  C95  1  0.24364400  0.83901800  0.37256800  1
  C  C96  1  0.52007100  0.10695400  0.89312000  1
  C  C97  1  0.97992900  0.10695400  0.39312000  1
  C  C98  1  0.09305200  0.44247000  0.04611400  1
  C  C99  1  0.70746600  0.96969300  0.71431100  1
  C  C100  1  0.40694800  0.44247000  0.54611400  1
  C  C101  1  0.29011900  0.32733100  0.34585400  1
  C  C102  1  0.00429200  0.81935700  0.27037300  1
  C  C103  1  0.21587700  0.68340200  0.82450900  1
  C  C104  1  0.68296100  0.95376000  0.82932200  1
  C  C105  1  0.38901500  0.75753500  0.03031300  1
  C  C106  1  0.03105400  0.49298800  0.61323100  1
  C  C107  1  0.33740500  0.75170400  0.16364500  1
  C  C108  1  0.49579400  0.96584300  0.44227700  1
  C  C109  1  0.98113200  0.51128500  0.85583000  1
  C  C110  1  0.01271800  0.86539300  0.11597000  1
  C  C111  1  0.89077700  0.58264100  0.24368300  1
  C  C112  1  0.83740500  0.24829600  0.33635500  1
  C  C113  1  0.18296100  0.04624000  0.67067800  1
  C  C114  1  0.04265700  0.06049000  0.53968000  1
  C  C115  1  0.59305200  0.55753000  0.45388600  1
  C  C116  1  0.50926800  0.83730000  0.27381500  1
  C  C117  1  0.51944300  0.35136300  0.44330700  1
  C  C118  1  0.50420600  0.03415700  0.55772300  1
  C  C119  1  0.49073200  0.16270000  0.72618500  1
  C  C120  1  0.51271800  0.13460700  0.38403000  1
  C  C121  1  0.45734300  0.06049000  0.03968000  1
  C  C122  1  0.79011900  0.67266900  0.15414600  1
  C  C123  1  0.39379300  0.16747300  0.49455700  1
  C  C124  1  0.08899700  0.59637600  0.49807200  1
  C  C125  1  0.99570800  0.18064300  0.72962700  1
  C  C126  1  0.70988100  0.67266900  0.65414600  1
  C  C127  1  0.55125900  0.41188900  0.78509100  1
  C  C128  1  0.79253400  0.96969300  0.21431100  1
  C  C129  1  0.78412300  0.31659800  0.17549100  1
  C  C130  1  0.66259500  0.24829600  0.83635500  1
  C  C131  1  0.53105400  0.50701200  0.88676900  1
  C  C132  1  0.05125900  0.58811100  0.71490900  1
  C  C133  1  0.00926800  0.16270000  0.22618500  1
  C  C134  1  0.20988100  0.32733100  0.84585400  1
  C  C135  1  0.98055700  0.35136300  0.94330700  1
