# generated using pymatgen
data_CuNiC36
_symmetry_space_group_name_H-M   'P 1'
_cell_length_a   7.39763987
_cell_length_b   7.39763987
_cell_length_c   7.39764012
_cell_angle_alpha   97.21283029
_cell_angle_beta   97.21283029
_cell_angle_gamma   97.21282389
_symmetry_Int_Tables_number   1
_chemical_formula_structural   CuNiC36
_chemical_formula_sum   'Cu1 Ni1 C36'
_cell_volume   394.32584104
_cell_formula_units_Z   1
loop_
 _symmetry_equiv_pos_site_id
 _symmetry_equiv_pos_as_xyz
  1  'x, y, z'
loop_
 _atom_site_type_symbol
 _atom_site_label
 _atom_site_symmetry_multiplicity
 _atom_site_fract_x
 _atom_site_fract_y
 _atom_site_fract_z
 _atom_site_occupancy
  Ni  Ni0  1  0.50000000  0.50000000  0.50000000  1
  Cu  Cu1  1  0.00000000  0.00000000  0.00000000  1
  C  C2  1  0.86762200  0.30530100  0.04491200  1
  C  C3  1  0.04491200  0.86762200  0.30530100  1
  C  C4  1  0.30530100  0.04491200  0.86762200  1
  C  C5  1  0.13237800  0.69469900  0.95508800  1
  C  C6  1  0.95508800  0.13237800  0.69469900  1
  C  C7  1  0.69469900  0.95508800  0.13237800  1
  C  C8  1  0.87674500  0.21516600  0.23767600  1
  C  C9  1  0.23767600  0.87674500  0.21516600  1
  C  C10  1  0.21516600  0.23767600  0.87674500  1
  C  C11  1  0.12325500  0.78483400  0.76232400  1
  C  C12  1  0.76232400  0.12325500  0.78483400  1
  C  C13  1  0.78483400  0.76232400  0.12325500  1
  C  C14  1  0.06499600  0.32571400  0.18248800  1
  C  C15  1  0.18248800  0.06499600  0.32571400  1
  C  C16  1  0.32571400  0.18248800  0.06499600  1
  C  C17  1  0.93500400  0.67428600  0.81751200  1
  C  C18  1  0.81751200  0.93500400  0.67428600  1
  C  C19  1  0.67428600  0.81751200  0.93500400  1
  C  C20  1  0.44916900  0.73291000  0.62907900  1
  C  C21  1  0.62907900  0.44916900  0.73291000  1
  C  C22  1  0.73291000  0.62907900  0.44916900  1
  C  C23  1  0.55083100  0.26709000  0.37092100  1
  C  C24  1  0.37092100  0.55083100  0.26709000  1
  C  C25  1  0.26709000  0.37092100  0.55083100  1
  C  C26  1  0.94790000  0.23545900  0.12959700  1
  C  C27  1  0.12959700  0.94790100  0.23545900  1
  C  C28  1  0.23545900  0.12959700  0.94790000  1
  C  C29  1  0.05210000  0.76454100  0.87040300  1
  C  C30  1  0.87040300  0.05210000  0.76454100  1
  C  C31  1  0.76454100  0.87040300  0.05210000  1
  C  C32  1  0.41985000  0.87055700  0.71138300  1
  C  C33  1  0.71138300  0.41985000  0.87055700  1
  C  C34  1  0.87055700  0.71138300  0.41985000  1
  C  C35  1  0.58015000  0.12944300  0.28861700  1
  C  C36  1  0.28861700  0.58015000  0.12944300  1
  C  C37  1  0.12944300  0.28861700  0.58015000  1
