# generated using pymatgen
data_CuNi
_symmetry_space_group_name_H-M   'P 1'
_cell_length_a   3.09414014
_cell_length_b   3.09414014
_cell_length_c   40.48348900
_cell_angle_alpha   90.00000000
_cell_angle_beta   90.00000000
_cell_angle_gamma   120.00000291
_symmetry_Int_Tables_number   1
_chemical_formula_structural   CuNi
_chemical_formula_sum   'Cu16 Ni16'
_cell_volume   335.65143793
_cell_formula_units_Z   16
loop_
 _symmetry_equiv_pos_site_id
 _symmetry_equiv_pos_as_xyz
  1  'x, y, z'
loop_
 _atom_site_type_symbol
 _atom_site_label
 _atom_site_symmetry_multiplicity
 _atom_site_fract_x
 _atom_site_fract_y
 _atom_site_fract_z
 _atom_site_occupancy
  Ni  Ni0  1  0.33333300  0.66666700  0.81248500  1
  Ni  Ni1  1  0.33333300  0.66666700  0.56251600  1
  Ni  Ni2  1  0.00000000  0.00000000  0.37501300  1
  Ni  Ni3  1  0.66666700  0.33333300  0.93743800  1
  Ni  Ni4  1  0.66666700  0.33333300  0.06251600  1
  Ni  Ni5  1  0.00000000  0.00000000  0.24997400  1
  Ni  Ni6  1  0.00000000  0.00000000  0.87501300  1
  Ni  Ni7  1  0.66666700  0.33333300  0.68747900  1
  Ni  Ni8  1  0.66666700  0.33333300  0.49998200  1
  Ni  Ni9  1  0.33333300  0.66666700  0.43743800  1
  Ni  Ni10  1  0.33333300  0.66666700  0.99998200  1
  Ni  Ni11  1  0.00000000  0.00000000  0.74997400  1
  Ni  Ni12  1  0.66666700  0.33333300  0.31248500  1
  Ni  Ni13  1  0.00000000  0.00000000  0.62494200  1
  Ni  Ni14  1  0.33333300  0.66666700  0.18747900  1
  Ni  Ni15  1  0.00000000  0.00000000  0.12494200  1
  Cu  Cu16  1  0.00000000  0.00000000  0.17181800  1
  Cu  Cu17  1  0.33333300  0.66666700  0.48431600  1
  Cu  Cu18  1  0.66666700  0.33333300  0.35947700  1
  Cu  Cu19  1  0.33333300  0.66666700  0.04697800  1
  Cu  Cu20  1  0.66666700  0.33333300  0.54697800  1
  Cu  Cu21  1  0.00000000  0.00000000  0.92188300  1
  Cu  Cu22  1  0.33333300  0.66666700  0.60938100  1
  Cu  Cu23  1  0.66666700  0.33333300  0.73447400  1
  Cu  Cu24  1  0.00000000  0.00000000  0.42188300  1
  Cu  Cu25  1  0.66666700  0.33333300  0.98431600  1
  Cu  Cu26  1  0.00000000  0.00000000  0.79680400  1
  Cu  Cu27  1  0.66666700  0.33333300  0.10938100  1
  Cu  Cu28  1  0.33333300  0.66666700  0.85947700  1
  Cu  Cu29  1  0.00000000  0.00000000  0.29680400  1
  Cu  Cu30  1  0.00000000  0.00000000  0.67181800  1
  Cu  Cu31  1  0.33333300  0.66666700  0.23447400  1
