# generated using pymatgen
data_Cu7NiC20
_symmetry_space_group_name_H-M   'P 1'
_cell_length_a   8.87448436
_cell_length_b   8.87448436
_cell_length_c   15.76323700
_cell_angle_alpha   90.00000000
_cell_angle_beta   90.00000000
_cell_angle_gamma   120.00000265
_symmetry_Int_Tables_number   1
_chemical_formula_structural   Cu7NiC20
_chemical_formula_sum   'Cu14 Ni2 C40'
_cell_volume   1075.13322120
_cell_formula_units_Z   2
loop_
 _symmetry_equiv_pos_site_id
 _symmetry_equiv_pos_as_xyz
  1  'x, y, z'
loop_
 _atom_site_type_symbol
 _atom_site_label
 _atom_site_symmetry_multiplicity
 _atom_site_fract_x
 _atom_site_fract_y
 _atom_site_fract_z
 _atom_site_occupancy
  C  C0  1  0.00000000  0.00000000  0.25000000  1
  C  C1  1  0.00000000  0.00000000  0.75000000  1
  Ni  Ni2  1  0.00000000  0.00000000  0.50000000  1
  Ni  Ni3  1  0.00000000  0.00000000  0.00000000  1
  Cu  Cu4  1  0.90476500  0.45238300  0.09216300  1
  Cu  Cu5  1  0.54761700  0.09523500  0.40783700  1
  Cu  Cu6  1  0.09523500  0.54761700  0.59216300  1
  Cu  Cu7  1  0.45238300  0.54761700  0.59216300  1
  Cu  Cu8  1  0.54761700  0.45238300  0.40783700  1
  Cu  Cu9  1  0.45238300  0.90476500  0.59216300  1
  Cu  Cu10  1  0.45238300  0.90476500  0.90783700  1
  Cu  Cu11  1  0.45238300  0.54761700  0.90783700  1
  Cu  Cu12  1  0.90476500  0.45238300  0.40783700  1
  Cu  Cu13  1  0.09523500  0.54761700  0.90783700  1
  Cu  Cu14  1  0.54761700  0.09523500  0.09216300  1
  Cu  Cu15  1  0.54761700  0.45238300  0.09216300  1
  Cu  Cu16  1  0.66666700  0.33333300  0.25000000  1
  Cu  Cu17  1  0.33333300  0.66666700  0.75000000  1
  C  C18  1  0.66666700  0.33333300  0.59858200  1
  C  C19  1  0.33333300  0.66666700  0.09858200  1
  C  C20  1  0.66666700  0.33333300  0.90141800  1
  C  C21  1  0.33333300  0.66666700  0.40141800  1
  C  C22  1  0.50906400  0.01812800  0.25000000  1
  C  C23  1  0.27761300  0.13880700  0.39917100  1
  C  C24  1  0.72238700  0.86119300  0.89917100  1
  C  C25  1  0.50906400  0.49093600  0.25000000  1
  C  C26  1  0.13880700  0.86119300  0.89917100  1
  C  C27  1  0.13880700  0.27761300  0.89917100  1
  C  C28  1  0.86119300  0.72238700  0.10082900  1
  C  C29  1  0.01812800  0.50906400  0.75000000  1
  C  C30  1  0.86119300  0.72238700  0.39917100  1
  C  C31  1  0.49093600  0.50906400  0.75000000  1
  C  C32  1  0.98187200  0.49093600  0.25000000  1
  C  C33  1  0.13880700  0.27761300  0.60082900  1
  C  C34  1  0.72238700  0.86119300  0.60082900  1
  C  C35  1  0.49093600  0.98187200  0.75000000  1
  C  C36  1  0.27761300  0.13880700  0.10082900  1
  C  C37  1  0.13880700  0.86119300  0.60082900  1
  C  C38  1  0.86119300  0.13880700  0.39917100  1
  C  C39  1  0.86119300  0.13880700  0.10082900  1
  C  C40  1  0.56780200  0.13560400  0.54506700  1
  C  C41  1  0.66666700  0.33333300  0.12808400  1
  C  C42  1  0.86439600  0.43219800  0.54506700  1
  C  C43  1  0.56780200  0.43219800  0.95493300  1
  C  C44  1  0.33333300  0.66666700  0.62808400  1
  C  C45  1  0.56780200  0.13560400  0.95493300  1
  C  C46  1  0.13560400  0.56780200  0.45493300  1
  C  C47  1  0.13560400  0.56780200  0.04506700  1
  C  C48  1  0.43219800  0.56780200  0.04506700  1
  C  C49  1  0.33333300  0.66666700  0.87191600  1
  C  C50  1  0.43219800  0.86439600  0.04506700  1
  C  C51  1  0.56780200  0.43219800  0.54506700  1
  C  C52  1  0.86439600  0.43219800  0.95493300  1
  C  C53  1  0.66666700  0.33333300  0.37191600  1
  C  C54  1  0.43219800  0.56780200  0.45493300  1
  C  C55  1  0.43219800  0.86439600  0.45493300  1
