# generated using pymatgen
data_Cu4Ni
_symmetry_space_group_name_H-M   'P 1'
_cell_length_a   10.14659737
_cell_length_b   10.14659737
_cell_length_c   15.94618925
_cell_angle_alpha   66.96234701
_cell_angle_beta   66.96234701
_cell_angle_gamma   61.24280083
_symmetry_Int_Tables_number   1
_chemical_formula_structural   Cu4Ni
_chemical_formula_sum   'Cu32 Ni8'
_cell_volume   1281.81131483
_cell_formula_units_Z   8
loop_
 _symmetry_equiv_pos_site_id
 _symmetry_equiv_pos_as_xyz
  1  'x, y, z'
loop_
 _atom_site_type_symbol
 _atom_site_label
 _atom_site_symmetry_multiplicity
 _atom_site_fract_x
 _atom_site_fract_y
 _atom_site_fract_z
 _atom_site_occupancy
  Ni  Ni0  1  0.11049200  0.15843600  0.18578800  1
  Ni  Ni1  1  0.84156400  0.88950800  0.31421200  1
  Ni  Ni2  1  0.88950800  0.84156400  0.81421200  1
  Ni  Ni3  1  0.15843600  0.11049200  0.68578800  1
  Ni  Ni4  1  0.26442700  0.74131700  0.11593300  1
  Ni  Ni5  1  0.25868300  0.73557300  0.38406700  1
  Ni  Ni6  1  0.73557300  0.25868300  0.88406700  1
  Ni  Ni7  1  0.74131700  0.26442700  0.61593300  1
  Cu  Cu8  1  0.21277400  0.24807600  0.03492600  1
  Cu  Cu9  1  0.75192400  0.78722600  0.46507400  1
  Cu  Cu10  1  0.78722600  0.75192400  0.96507400  1
  Cu  Cu11  1  0.24807600  0.21277400  0.53492600  1
  Cu  Cu12  1  0.21954000  0.23693600  0.24340000  1
  Cu  Cu13  1  0.76306400  0.78046000  0.25660000  1
  Cu  Cu14  1  0.78046000  0.76306400  0.75660000  1
  Cu  Cu15  1  0.23693600  0.21954000  0.74340000  1
  Cu  Cu16  1  0.88390600  0.36244000  0.19437000  1
  Cu  Cu17  1  0.63756000  0.11609400  0.30563000  1
  Cu  Cu18  1  0.11609400  0.63756000  0.80563000  1
  Cu  Cu19  1  0.36244000  0.88390600  0.69437000  1
  Cu  Cu20  1  0.36225700  0.87650200  0.19185500  1
  Cu  Cu21  1  0.12349800  0.63774300  0.30814500  1
  Cu  Cu22  1  0.63774300  0.12349800  0.80814500  1
  Cu  Cu23  1  0.87650200  0.36225700  0.69185500  1
  Cu  Cu24  1  0.99451200  0.00891400  0.13412500  1
  Cu  Cu25  1  0.99108600  0.00548800  0.36587500  1
  Cu  Cu26  1  0.00548800  0.99108600  0.86587500  1
  Cu  Cu27  1  0.00891400  0.99451200  0.63412500  1
  Cu  Cu28  1  0.47866700  0.52660800  0.12806400  1
  Cu  Cu29  1  0.47339200  0.52133300  0.37193600  1
  Cu  Cu30  1  0.52133300  0.47339200  0.87193600  1
  Cu  Cu31  1  0.52660800  0.47866700  0.62806400  1
  Cu  Cu32  1  0.14844800  0.64891600  0.07360600  1
  Cu  Cu33  1  0.35108400  0.85155200  0.42639400  1
  Cu  Cu34  1  0.85155200  0.35108400  0.92639400  1
  Cu  Cu35  1  0.64891600  0.14844800  0.57360600  1
  Cu  Cu36  1  0.35989900  0.86166700  0.97248500  1
  Cu  Cu37  1  0.13833300  0.64010100  0.52751500  1
  Cu  Cu38  1  0.64010100  0.13833300  0.02751500  1
  Cu  Cu39  1  0.86166700  0.35989900  0.47248500  1
