# generated using pymatgen
data_Cu13NiC2
_symmetry_space_group_name_H-M   'P 1'
_cell_length_a   9.78837128
_cell_length_b   9.78837128
_cell_length_c   12.11086000
_cell_angle_alpha   90.00000000
_cell_angle_beta   90.00000000
_cell_angle_gamma   114.85519392
_symmetry_Int_Tables_number   1
_chemical_formula_structural   Cu13NiC2
_chemical_formula_sum   'Cu26 Ni2 C4'
_cell_volume   1052.88684651
_cell_formula_units_Z   2
loop_
 _symmetry_equiv_pos_site_id
 _symmetry_equiv_pos_as_xyz
  1  'x, y, z'
loop_
 _atom_site_type_symbol
 _atom_site_label
 _atom_site_symmetry_multiplicity
 _atom_site_fract_x
 _atom_site_fract_y
 _atom_site_fract_z
 _atom_site_occupancy
  C  C0  1  0.20573700  0.79426300  0.50146000  1
  C  C1  1  0.79426300  0.20573700  0.00146000  1
  C  C2  1  0.54743700  0.45256300  0.15084200  1
  C  C3  1  0.45256300  0.54743700  0.65084200  1
  Ni  Ni4  1  0.14085100  0.85914900  0.96247500  1
  Ni  Ni5  1  0.85914900  0.14085100  0.46247500  1
  Cu  Cu6  1  0.37802100  0.30241000  0.62724600  1
  Cu  Cu7  1  0.74665600  0.25334400  0.41173300  1
  Cu  Cu8  1  0.44902900  0.55097100  0.83444800  1
  Cu  Cu9  1  0.30740800  0.01196400  0.38770300  1
  Cu  Cu10  1  0.06572500  0.23731900  0.40682900  1
  Cu  Cu11  1  0.25334400  0.74665600  0.91173300  1
  Cu  Cu12  1  0.30241000  0.37802100  0.12724600  1
  Cu  Cu13  1  0.01196400  0.30740800  0.88770300  1
  Cu  Cu14  1  0.98803600  0.69259200  0.38770300  1
  Cu  Cu15  1  0.93427500  0.76268100  0.90682900  1
  Cu  Cu16  1  0.55097100  0.44902900  0.33444800  1
  Cu  Cu17  1  0.13900500  0.86099500  0.12400200  1
  Cu  Cu18  1  0.89635500  0.42502700  0.11747300  1
  Cu  Cu19  1  0.32546700  0.67453300  0.39247800  1
  Cu  Cu20  1  0.91215700  0.08784300  0.11606000  1
  Cu  Cu21  1  0.69259200  0.98803600  0.88770300  1
  Cu  Cu22  1  0.76268100  0.93427500  0.40682900  1
  Cu  Cu23  1  0.23731900  0.06572500  0.90682900  1
  Cu  Cu24  1  0.67453300  0.32546700  0.89247800  1
  Cu  Cu25  1  0.62197900  0.69759000  0.12724600  1
  Cu  Cu26  1  0.57497300  0.10364500  0.11747300  1
  Cu  Cu27  1  0.86099500  0.13900500  0.62400200  1
  Cu  Cu28  1  0.42502700  0.89635500  0.61747300  1
  Cu  Cu29  1  0.69759000  0.62197900  0.62724600  1
  Cu  Cu30  1  0.08784300  0.91215700  0.61606000  1
  Cu  Cu31  1  0.10364500  0.57497300  0.61747300  1
