# generated using pymatgen
data_Cu11NiC15
_symmetry_space_group_name_H-M   'P 1'
_cell_length_a   6.52963700
_cell_length_b   11.16270200
_cell_length_c   14.18573406
_cell_angle_alpha   74.44634100
_cell_angle_beta   90.00000000
_cell_angle_gamma   90.00000000
_symmetry_Int_Tables_number   1
_chemical_formula_structural   Cu11NiC15
_chemical_formula_sum   'Cu44 Ni4 C60'
_cell_volume   996.11091427
_cell_formula_units_Z   4
loop_
 _symmetry_equiv_pos_site_id
 _symmetry_equiv_pos_as_xyz
  1  'x, y, z'
loop_
 _atom_site_type_symbol
 _atom_site_label
 _atom_site_symmetry_multiplicity
 _atom_site_fract_x
 _atom_site_fract_y
 _atom_site_fract_z
 _atom_site_occupancy
  C  C0  1  0.00000000  0.00000000  0.00000000  1
  C  C1  1  0.50000000  0.50000000  0.00000000  1
  C  C2  1  0.50000000  0.00000000  0.50000000  1
  C  C3  1  0.00000000  0.50000000  0.50000000  1
  C  C4  1  0.75599600  0.04235400  0.15144000  1
  C  C5  1  0.25599600  0.45764600  0.84856000  1
  C  C6  1  0.24400400  0.95764600  0.84856000  1
  C  C7  1  0.74400400  0.54235400  0.15144000  1
  C  C8  1  0.93467100  0.14621000  0.12740500  1
  C  C9  1  0.43467100  0.35379000  0.87259500  1
  C  C10  1  0.06532900  0.85379000  0.87259500  1
  C  C11  1  0.56532900  0.64621000  0.12740500  1
  C  C12  1  0.18669300  0.79497400  0.11981500  1
  C  C13  1  0.68669300  0.70502600  0.88018500  1
  C  C14  1  0.81330700  0.20502600  0.88018500  1
  C  C15  1  0.31330700  0.29497400  0.11981500  1
  C  C16  1  0.95661200  0.79820100  0.15944500  1
  C  C17  1  0.45661200  0.70179900  0.84055500  1
  C  C18  1  0.04338800  0.20179900  0.84055500  1
  C  C19  1  0.54338800  0.29820100  0.15944500  1
  C  C20  1  0.61117900  0.87853500  0.02023100  1
  C  C21  1  0.11117900  0.62146500  0.97976900  1
  C  C22  1  0.38882100  0.12146500  0.97976900  1
  C  C23  1  0.88882100  0.37853500  0.02023100  1
  C  C24  1  0.62197700  0.96317600  0.91033700  1
  C  C25  1  0.12197700  0.53682400  0.08966300  1
  C  C26  1  0.37802300  0.03682400  0.08966300  1
  C  C27  1  0.87802300  0.46317600  0.91033700  1
  C  C28  1  0.47949800  0.79954300  0.42087700  1
  C  C29  1  0.97949800  0.70045700  0.57912300  1
  C  C30  1  0.52050200  0.20045700  0.57912300  1
  C  C31  1  0.02050200  0.29954300  0.42087700  1
  C  C32  1  0.52482700  0.74201600  0.53348600  1
  C  C33  1  0.02482700  0.75798400  0.46651400  1
  C  C34  1  0.47517300  0.25798400  0.46651400  1
  C  C35  1  0.97517300  0.24201600  0.53348600  1
  C  C36  1  0.13543600  0.00397400  0.59435800  1
  C  C37  1  0.63543600  0.49602600  0.40564200  1
  C  C38  1  0.86456400  0.99602600  0.40564200  1
  C  C39  1  0.36456400  0.50397400  0.59435800  1
  C  C40  1  0.21821700  0.86491100  0.63058000  1
  C  C41  1  0.71821700  0.63508900  0.36942000  1
  C  C42  1  0.78178300  0.13508900  0.36942000  1
  C  C43  1  0.28178300  0.36491100  0.63058000  1
  C  C44  1  0.58174000  0.96308500  0.70194800  1
  C  C45  1  0.08174000  0.53691500  0.29805200  1
  C  C46  1  0.41826000  0.03691500  0.29805200  1
  C  C47  1  0.91826000  0.46308500  0.70194800  1
  C  C48  1  0.73267400  0.86907500  0.66745000  1
  C  C49  1  0.23267400  0.63092500  0.33255000  1
  C  C50  1  0.26732600  0.13092500  0.33255000  1
  C  C51  1  0.76732600  0.36907500  0.66745000  1
  C  C52  1  0.11853400  0.91503300  0.34329800  1
  C  C53  1  0.61853400  0.58496700  0.65670200  1
  C  C54  1  0.88146600  0.08496700  0.65670200  1
  C  C55  1  0.38146600  0.41503300  0.34329800  1
  C  C56  1  0.90567500  0.85584100  0.32071800  1
  C  C57  1  0.40567500  0.64415900  0.67928200  1
  C  C58  1  0.09432500  0.14415900  0.67928200  1
  C  C59  1  0.59432500  0.35584100  0.32071800  1
  Ni  Ni60  1  0.52731600  0.82794500  0.22568700  1
  Ni  Ni61  1  0.02731600  0.67205500  0.77431300  1
  Ni  Ni62  1  0.47268400  0.17205500  0.77431300  1
  Ni  Ni63  1  0.97268400  0.32794500  0.22568700  1
  Cu  Cu64  1  0.52261000  0.96768400  0.20295200  1
  Cu  Cu65  1  0.02261000  0.53231600  0.79704800  1
  Cu  Cu66  1  0.47739000  0.03231600  0.79704800  1
  Cu  Cu67  1  0.97739000  0.46768400  0.20295200  1
  Cu  Cu68  1  0.46678700  0.79037200  0.13576300  1
  Cu  Cu69  1  0.96678700  0.70962800  0.86423700  1
  Cu  Cu70  1  0.53321300  0.20962800  0.86423700  1
  Cu  Cu71  1  0.03321300  0.29037200  0.13576300  1
  Cu  Cu72  1  0.38091700  0.77486300  0.30644100  1
  Cu  Cu73  1  0.88091700  0.72513700  0.69355900  1
  Cu  Cu74  1  0.61908300  0.22513700  0.69355900  1
  Cu  Cu75  1  0.11908300  0.27486300  0.30644100  1
  Cu  Cu76  1  0.73968900  0.78158200  0.25501700  1
  Cu  Cu77  1  0.23968900  0.71841800  0.74498300  1
  Cu  Cu78  1  0.26031100  0.21841800  0.74498300  1
  Cu  Cu79  1  0.76031100  0.28158200  0.25501700  1
  Cu  Cu80  1  0.89339000  0.06277400  0.12259900  1
  Cu  Cu81  1  0.39339000  0.43722600  0.87740100  1
  Cu  Cu82  1  0.10661000  0.93722600  0.87740100  1
  Cu  Cu83  1  0.60661000  0.56277400  0.12259900  1
  Cu  Cu84  1  0.04267600  0.81509200  0.10037000  1
  Cu  Cu85  1  0.54267600  0.68490800  0.89963000  1
  Cu  Cu86  1  0.95732400  0.18490800  0.89963000  1
  Cu  Cu87  1  0.45732400  0.31509200  0.10037000  1
  Cu  Cu88  1  0.70305000  0.92905900  0.97015700  1
  Cu  Cu89  1  0.20305000  0.57094100  0.02984300  1
  Cu  Cu90  1  0.29695000  0.07094100  0.02984300  1
  Cu  Cu91  1  0.79695000  0.42905900  0.97015700  1
  Cu  Cu92  1  0.54542800  0.81799500  0.47801100  1
  Cu  Cu93  1  0.04542800  0.68200500  0.52198900  1
  Cu  Cu94  1  0.45457200  0.18200500  0.52198900  1
  Cu  Cu95  1  0.95457200  0.31799500  0.47801100  1
  Cu  Cu96  1  0.21475700  0.93837300  0.57399200  1
  Cu  Cu97  1  0.71475700  0.56162700  0.42600800  1
  Cu  Cu98  1  0.78524300  0.06162700  0.42600800  1
  Cu  Cu99  1  0.28524300  0.43837300  0.57399200  1
  Cu  Cu100  1  0.65636500  0.94839000  0.64535000  1
  Cu  Cu101  1  0.15636500  0.55161000  0.35465000  1
  Cu  Cu102  1  0.34363500  0.05161000  0.35465000  1
  Cu  Cu103  1  0.84363500  0.44839000  0.64535000  1
  Cu  Cu104  1  0.98563500  0.88282800  0.37085600  1
  Cu  Cu105  1  0.48563500  0.61717200  0.62914400  1
  Cu  Cu106  1  0.01436500  0.11717200  0.62914400  1
  Cu  Cu107  1  0.51436500  0.38282800  0.37085600  1
