# generated using pymatgen
data_Cu13Ni3C5
_symmetry_space_group_name_H-M   'P 1'
_cell_length_a   10.50598926
_cell_length_b   10.50598926
_cell_length_c   18.41716546
_cell_angle_alpha   52.02689112
_cell_angle_beta   52.02689112
_cell_angle_gamma   53.98656763
_symmetry_Int_Tables_number   1
_chemical_formula_structural   Cu13Ni3C5
_chemical_formula_sum   'Cu52 Ni12 C20'
_cell_volume   1189.34740924
_cell_formula_units_Z   4
loop_
 _symmetry_equiv_pos_site_id
 _symmetry_equiv_pos_as_xyz
  1  'x, y, z'
loop_
 _atom_site_type_symbol
 _atom_site_label
 _atom_site_symmetry_multiplicity
 _atom_site_fract_x
 _atom_site_fract_y
 _atom_site_fract_z
 _atom_site_occupancy
  C  C0  1  0.30599100  0.32184200  0.12847900  1
  C  C1  1  0.67815800  0.69400900  0.37152100  1
  C  C2  1  0.69400900  0.67815800  0.87152100  1
  C  C3  1  0.32184200  0.30599100  0.62847900  1
  C  C4  1  0.13823100  0.10469000  0.45371100  1
  C  C5  1  0.10469000  0.13823100  0.95371100  1
  C  C6  1  0.86176900  0.89531000  0.54628900  1
  C  C7  1  0.89531000  0.86176900  0.04628900  1
  C  C8  1  0.46727000  0.45665500  0.70553800  1
  C  C9  1  0.12739800  0.68564900  0.35957000  1
  C  C10  1  0.31435100  0.87260200  0.14043000  1
  C  C11  1  0.45665500  0.46727000  0.20553800  1
  C  C12  1  0.68564900  0.12739800  0.85957000  1
  C  C13  1  0.87938700  0.33826200  0.15749000  1
  C  C14  1  0.33826200  0.87938700  0.65749000  1
  C  C15  1  0.53273000  0.54334500  0.29446200  1
  C  C16  1  0.54334500  0.53273000  0.79446200  1
  C  C17  1  0.12061300  0.66173800  0.84251000  1
  C  C18  1  0.66173800  0.12061300  0.34251000  1
  C  C19  1  0.87260200  0.31435100  0.64043000  1
  Ni  Ni20  1  0.26079400  0.26420000  0.98508500  1
  Ni  Ni21  1  0.68185900  0.09717200  0.70625800  1
  Ni  Ni22  1  0.25789700  0.81678100  0.86821400  1
  Ni  Ni23  1  0.31814100  0.90282800  0.29374200  1
  Ni  Ni24  1  0.74210300  0.18321900  0.13178600  1
  Ni  Ni25  1  0.09717200  0.68185900  0.20625800  1
  Ni  Ni26  1  0.90282800  0.31814100  0.79374200  1
  Ni  Ni27  1  0.81678100  0.25789700  0.36821400  1
  Ni  Ni28  1  0.26420000  0.26079400  0.48508500  1
  Ni  Ni29  1  0.18321900  0.74210300  0.63178600  1
  Ni  Ni30  1  0.73920600  0.73580000  0.01491500  1
  Ni  Ni31  1  0.73580000  0.73920600  0.51491500  1
  Cu  Cu32  1  0.46908300  0.74298500  0.31230100  1
  Cu  Cu33  1  0.14431400  0.84079700  0.13835100  1
  Cu  Cu34  1  0.87791000  0.67063400  0.93308000  1
  Cu  Cu35  1  0.87416600  0.25924000  0.08503800  1
  Cu  Cu36  1  0.72503700  0.58004700  0.54141900  1
  Cu  Cu37  1  0.09979800  0.80078400  0.57088700  1
  Cu  Cu38  1  0.71757300  0.91772500  0.97966600  1
  Cu  Cu39  1  0.27496300  0.41995300  0.45858100  1
  Cu  Cu40  1  0.74076000  0.12583400  0.41496200  1
  Cu  Cu41  1  0.94049900  0.28173000  0.26186700  1
  Cu  Cu42  1  0.25924000  0.87416600  0.58503800  1
  Cu  Cu43  1  0.63539000  0.78616100  0.60198300  1
  Cu  Cu44  1  0.57403800  0.32691000  0.12952900  1
  Cu  Cu45  1  0.05950100  0.71827000  0.73813300  1
  Cu  Cu46  1  0.35231600  0.64768400  0.25000000  1
  Cu  Cu47  1  0.02701600  0.30563300  0.81262700  1
  Cu  Cu48  1  0.97298400  0.69436700  0.18737300  1
  Cu  Cu49  1  0.67309000  0.42596200  0.37047100  1
  Cu  Cu50  1  0.85568600  0.15920300  0.86164900  1
  Cu  Cu51  1  0.64768400  0.35231600  0.75000000  1
  Cu  Cu52  1  0.34894500  0.97786200  0.18551100  1
  Cu  Cu53  1  0.84079700  0.14431400  0.63835100  1
  Cu  Cu54  1  0.42596200  0.67309000  0.87047100  1
  Cu  Cu55  1  0.02213800  0.65105500  0.31448900  1
  Cu  Cu56  1  0.41995300  0.27496300  0.95858100  1
  Cu  Cu57  1  0.36461000  0.21383900  0.39801700  1
  Cu  Cu58  1  0.15920300  0.85568600  0.36164900  1
  Cu  Cu59  1  0.28173000  0.94049900  0.76186700  1
  Cu  Cu60  1  0.97786200  0.34894500  0.68551100  1
  Cu  Cu61  1  0.12583400  0.74076000  0.91496200  1
  Cu  Cu62  1  0.71827000  0.05950100  0.23813300  1
  Cu  Cu63  1  0.08227500  0.28242700  0.52033400  1
  Cu  Cu64  1  0.53091700  0.25701500  0.68769900  1
  Cu  Cu65  1  0.90020200  0.19921600  0.42911300  1
  Cu  Cu66  1  0.21383900  0.36461000  0.89801700  1
  Cu  Cu67  1  0.32936600  0.12209000  0.56692000  1
  Cu  Cu68  1  0.28242700  0.08227500  0.02033400  1
  Cu  Cu69  1  0.67063400  0.87791000  0.43308000  1
  Cu  Cu70  1  0.78616100  0.63539000  0.10198300  1
  Cu  Cu71  1  0.12209000  0.32936600  0.06692000  1
  Cu  Cu72  1  0.30563300  0.02701600  0.31262700  1
  Cu  Cu73  1  0.69436700  0.97298400  0.68737300  1
  Cu  Cu74  1  0.80078400  0.09979800  0.07088700  1
  Cu  Cu75  1  0.91772500  0.71757300  0.47966600  1
  Cu  Cu76  1  0.19921600  0.90020200  0.92911300  1
  Cu  Cu77  1  0.25701500  0.53091700  0.18769900  1
  Cu  Cu78  1  0.36217200  0.63782800  0.75000000  1
  Cu  Cu79  1  0.58004700  0.72503700  0.04141900  1
  Cu  Cu80  1  0.63782800  0.36217200  0.25000000  1
  Cu  Cu81  1  0.32691000  0.57403800  0.62952900  1
  Cu  Cu82  1  0.74298500  0.46908300  0.81230100  1
  Cu  Cu83  1  0.65105500  0.02213800  0.81448900  1
