# generated using pymatgen
data_CuNiC3
_symmetry_space_group_name_H-M   'P 1'
_cell_length_a   7.90376300
_cell_length_b   6.99585100
_cell_length_c   12.00589713
_cell_angle_alpha   55.38095578
_cell_angle_beta   90.00000000
_cell_angle_gamma   90.00000000
_symmetry_Int_Tables_number   1
_chemical_formula_structural   CuNiC3
_chemical_formula_sum   'Cu4 Ni4 C12'
_cell_volume   546.31264283
_cell_formula_units_Z   4
loop_
 _symmetry_equiv_pos_site_id
 _symmetry_equiv_pos_as_xyz
  1  'x, y, z'
loop_
 _atom_site_type_symbol
 _atom_site_label
 _atom_site_symmetry_multiplicity
 _atom_site_fract_x
 _atom_site_fract_y
 _atom_site_fract_z
 _atom_site_occupancy
  Ni  Ni0  1  0.88415500  0.80164600  0.21356200  1
  Ni  Ni1  1  0.36916400  0.25541600  0.21151000  1
  Ni  Ni2  1  0.11584500  0.80164600  0.71356200  1
  Ni  Ni3  1  0.63083600  0.25541600  0.71151000  1
  Cu  Cu4  1  0.64230300  0.87402400  0.56618800  1
  Cu  Cu5  1  0.35769700  0.87402400  0.06618800  1
  Cu  Cu6  1  0.14833500  0.12456100  0.93601900  1
  Cu  Cu7  1  0.85166500  0.12456100  0.43601900  1
  C  C8  1  0.94247000  0.90158900  0.94607500  1
  C  C9  1  0.74481700  0.37463700  0.23249000  1
  C  C10  1  0.44945200  0.70571900  0.96750500  1
  C  C11  1  0.24017700  0.62394200  0.26611200  1
  C  C12  1  0.05753000  0.90158900  0.44607500  1
  C  C13  1  0.55435400  0.10646700  0.05916100  1
  C  C14  1  0.05841300  0.27550000  0.04657700  1
  C  C15  1  0.25518300  0.37463700  0.73249000  1
  C  C16  1  0.94158700  0.27550000  0.54657700  1
  C  C17  1  0.55054800  0.70571900  0.46750500  1
  C  C18  1  0.44564600  0.10646700  0.55916100  1
  C  C19  1  0.75982300  0.62394200  0.76611200  1
