# generated using pymatgen
data_Cu6NiC3
_symmetry_space_group_name_H-M   'P 1'
_cell_length_a   5.15117700
_cell_length_b   8.78034400
_cell_length_c   10.01118900
_cell_angle_alpha   90.00000000
_cell_angle_beta   90.00000000
_cell_angle_gamma   90.00000000
_symmetry_Int_Tables_number   1
_chemical_formula_structural   Cu6NiC3
_chemical_formula_sum   'Cu24 Ni4 C12'
_cell_volume   452.79712912
_cell_formula_units_Z   4
loop_
 _symmetry_equiv_pos_site_id
 _symmetry_equiv_pos_as_xyz
  1  'x, y, z'
loop_
 _atom_site_type_symbol
 _atom_site_label
 _atom_site_symmetry_multiplicity
 _atom_site_fract_x
 _atom_site_fract_y
 _atom_site_fract_z
 _atom_site_occupancy
  C  C0  1  0.24076000  0.71161600  0.37839700  1
  C  C1  1  0.74076000  0.78838400  0.62160300  1
  C  C2  1  0.75924000  0.21161600  0.12160300  1
  C  C3  1  0.25924000  0.28838400  0.87839700  1
  C  C4  1  0.88483400  0.92950200  0.02792900  1
  C  C5  1  0.38483400  0.57049800  0.97207100  1
  C  C6  1  0.11516600  0.42950200  0.47207100  1
  C  C7  1  0.61516600  0.07049800  0.52792900  1
  C  C8  1  0.57079300  0.92999300  0.04563900  1
  C  C9  1  0.07079300  0.57000700  0.95436000  1
  C  C10  1  0.42920700  0.42999300  0.45436100  1
  C  C11  1  0.92920700  0.07000700  0.54564000  1
  Ni  Ni12  1  0.76282500  0.58366000  0.17655400  1
  Ni  Ni13  1  0.26282500  0.91634000  0.82344600  1
  Ni  Ni14  1  0.23717500  0.08366000  0.32344600  1
  Ni  Ni15  1  0.73717500  0.41634000  0.67655400  1
  Cu  Cu16  1  0.96586100  0.73659700  0.48120100  1
  Cu  Cu17  1  0.46586100  0.76340300  0.51879900  1
  Cu  Cu18  1  0.03413900  0.23659700  0.01879900  1
  Cu  Cu19  1  0.53413900  0.26340300  0.98120100  1
  Cu  Cu20  1  0.72222100  0.61215400  0.03360000  1
  Cu  Cu21  1  0.22222100  0.88784600  0.96640000  1
  Cu  Cu22  1  0.27777900  0.11215400  0.46640000  1
  Cu  Cu23  1  0.77777900  0.38784600  0.53360000  1
  Cu  Cu24  1  0.25277300  0.91492800  0.29392900  1
  Cu  Cu25  1  0.75277300  0.58507200  0.70607100  1
  Cu  Cu26  1  0.74722700  0.41492800  0.20607100  1
  Cu  Cu27  1  0.24722700  0.08507200  0.79392900  1
  Cu  Cu28  1  0.56609600  0.66011900  0.25979700  1
  Cu  Cu29  1  0.06609600  0.83988100  0.74020300  1
  Cu  Cu30  1  0.43390400  0.16011900  0.24020300  1
  Cu  Cu31  1  0.93390400  0.33988100  0.75979700  1
  Cu  Cu32  1  0.02778100  0.63600800  0.21502100  1
  Cu  Cu33  1  0.52778100  0.86399200  0.78497900  1
  Cu  Cu34  1  0.97221900  0.13600800  0.28497900  1
  Cu  Cu35  1  0.47221900  0.36399200  0.71502100  1
  Cu  Cu36  1  0.73497000  0.97953700  0.07169100  1
  Cu  Cu37  1  0.23497000  0.52046300  0.92830900  1
  Cu  Cu38  1  0.26503000  0.47953700  0.42830900  1
  Cu  Cu39  1  0.76503000  0.02046300  0.57169100  1
