# generated using pymatgen
data_Cu3NiC24
_symmetry_space_group_name_H-M   'P 1'
_cell_length_a   10.13840091
_cell_length_b   10.13840091
_cell_length_c   8.52577900
_cell_angle_alpha   90.00000000
_cell_angle_beta   90.00000000
_cell_angle_gamma   120.00000591
_symmetry_Int_Tables_number   1
_chemical_formula_structural   Cu3NiC24
_chemical_formula_sum   'Cu6 Ni2 C48'
_cell_volume   758.93328107
_cell_formula_units_Z   2
loop_
 _symmetry_equiv_pos_site_id
 _symmetry_equiv_pos_as_xyz
  1  'x, y, z'
loop_
 _atom_site_type_symbol
 _atom_site_label
 _atom_site_symmetry_multiplicity
 _atom_site_fract_x
 _atom_site_fract_y
 _atom_site_fract_z
 _atom_site_occupancy
  Ni  Ni0  1  0.00000000  0.00000000  0.00401700  1
  Ni  Ni1  1  0.00000000  0.00000000  0.50401700  1
  Cu  Cu2  1  0.45029500  0.44123600  0.50072500  1
  Cu  Cu3  1  0.99094100  0.54970500  0.50072500  1
  Cu  Cu4  1  0.44123600  0.99094100  0.00072500  1
  Cu  Cu5  1  0.00905900  0.45029500  0.00072500  1
  Cu  Cu6  1  0.54970500  0.55876400  0.00072500  1
  Cu  Cu7  1  0.55876400  0.00905900  0.50072500  1
  C  C8  1  0.66721400  0.76066600  0.31290200  1
  C  C9  1  0.76066600  0.09345200  0.81290200  1
  C  C10  1  0.66666700  0.33333300  0.30329100  1
  C  C11  1  0.33333300  0.66666700  0.80329100  1
  C  C12  1  0.09345200  0.33278600  0.31290200  1
  C  C13  1  0.90654800  0.66721400  0.81290200  1
  C  C14  1  0.33278600  0.23933400  0.81290200  1
  C  C15  1  0.23933400  0.90654800  0.31290200  1
  C  C16  1  0.90599000  0.66666500  0.18547700  1
  C  C17  1  0.23932500  0.90599000  0.68547700  1
  C  C18  1  0.76067500  0.09401000  0.18547700  1
  C  C19  1  0.66666500  0.76067500  0.68547700  1
  C  C20  1  0.33333300  0.66666700  0.19713600  1
  C  C21  1  0.66666700  0.33333300  0.69713600  1
  C  C22  1  0.33333500  0.23932500  0.18547700  1
  C  C23  1  0.09401000  0.33333500  0.68547700  1
  C  C24  1  0.22529400  0.28402200  0.68364400  1
  C  C25  1  0.77470600  0.71597800  0.18364400  1
  C  C26  1  0.97356700  0.68534700  0.00695900  1
  C  C27  1  0.95798300  0.22208900  0.80676400  1
  C  C28  1  0.05872800  0.77470600  0.68364400  1
  C  C29  1  0.77791100  0.73589300  0.80676400  1
  C  C30  1  0.26410700  0.04201700  0.80676400  1
  C  C31  1  0.49041700  0.65129300  0.74153900  1
  C  C32  1  0.71597800  0.94127200  0.68364400  1
  C  C33  1  0.65129300  0.16087600  0.24153900  1
  C  C34  1  0.17181900  0.52395300  0.25820600  1
  C  C35  1  0.31465300  0.28822000  0.00695900  1
  C  C36  1  0.83912400  0.49041700  0.24153900  1
  C  C37  1  0.52395300  0.35213400  0.75820600  1
  C  C38  1  0.64786600  0.17181900  0.75820600  1
  C  C39  1  0.71178000  0.02643300  0.00695900  1
  C  C40  1  0.50958300  0.34870700  0.24153900  1
  C  C41  1  0.34870700  0.83912400  0.74153900  1
  C  C42  1  0.82818100  0.47604700  0.75820600  1
  C  C43  1  0.28822000  0.97356700  0.50695900  1
  C  C44  1  0.02643300  0.31465300  0.50695900  1
  C  C45  1  0.16087600  0.50958300  0.74153900  1
  C  C46  1  0.04201700  0.77791100  0.30676400  1
  C  C47  1  0.73589300  0.95798300  0.30676400  1
  C  C48  1  0.47604700  0.64786600  0.25820600  1
  C  C49  1  0.28402200  0.05872800  0.18364400  1
  C  C50  1  0.66666700  0.33333300  0.50690900  1
  C  C51  1  0.35213400  0.82818100  0.25820600  1
  C  C52  1  0.94127200  0.22529400  0.18364400  1
  C  C53  1  0.68534700  0.71178000  0.50695900  1
  C  C54  1  0.33333300  0.66666700  0.00690900  1
  C  C55  1  0.22208900  0.26410700  0.30676400  1
