# generated using pymatgen
data_Cu9(NiC3)16
_symmetry_space_group_name_H-M   'P 1'
_cell_length_a   10.76119896
_cell_length_b   10.74683478
_cell_length_c   10.73765450
_cell_angle_alpha   60.11675240
_cell_angle_beta   59.98392886
_cell_angle_gamma   59.89931874
_symmetry_Int_Tables_number   1
_chemical_formula_structural   Cu9(NiC3)16
_chemical_formula_sum   'Cu9 Ni16 C48'
_cell_volume   878.07675646
_cell_formula_units_Z   1
loop_
 _symmetry_equiv_pos_site_id
 _symmetry_equiv_pos_as_xyz
  1  'x, y, z'
loop_
 _atom_site_type_symbol
 _atom_site_label
 _atom_site_symmetry_multiplicity
 _atom_site_fract_x
 _atom_site_fract_y
 _atom_site_fract_z
 _atom_site_occupancy
  Ni  Ni0  1  0.62471900  0.12317200  0.62916500  1
  Ni  Ni1  1  0.37705600  0.37083500  0.87682800  1
  Ni  Ni2  1  0.62916500  0.62294400  0.62471900  1
  Ni  Ni3  1  0.63017000  0.12092400  0.12330800  1
  Ni  Ni4  1  0.62294400  0.62916500  0.12317200  1
  Ni  Ni5  1  0.12092400  0.63017000  0.12559900  1
  Ni  Ni6  1  0.36983000  0.87907600  0.87669200  1
  Ni  Ni7  1  0.37083500  0.37705600  0.37528100  1
  Ni  Ni8  1  0.12559900  0.12330800  0.12092400  1
  Ni  Ni9  1  0.12317200  0.62471900  0.62294400  1
  Ni  Ni10  1  0.87669200  0.87440100  0.36983000  1
  Ni  Ni11  1  0.37528100  0.87682800  0.37083500  1
  Ni  Ni12  1  0.12330800  0.12559900  0.63017000  1
  Ni  Ni13  1  0.87682800  0.37528100  0.37705600  1
  Ni  Ni14  1  0.87440100  0.87669200  0.87907600  1
  Ni  Ni15  1  0.87907600  0.36983000  0.87440100  1
  Cu  Cu16  1  0.50000000  0.00000000  0.50000000  1
  Cu  Cu17  1  0.75000000  0.75000000  0.75000000  1
  Cu  Cu18  1  0.75025200  0.24974800  0.75025200  1
  Cu  Cu19  1  0.00000000  0.50000000  0.00000000  1
  Cu  Cu20  1  0.25000000  0.25000000  0.25000000  1
  Cu  Cu21  1  0.24974800  0.75025200  0.24974800  1
  Cu  Cu22  1  0.50000000  0.50000000  0.50000000  1
  Cu  Cu23  1  0.25141200  0.74858800  0.74858800  1
  Cu  Cu24  1  0.74858800  0.25141200  0.25141200  1
  C  C25  1  0.68710000  0.81165700  0.49866500  1
  C  C26  1  0.49866500  0.00257800  0.68710000  1
  C  C27  1  0.68817600  0.49982500  0.31182400  1
  C  C28  1  0.49442300  0.20153600  0.79846400  1
  C  C29  1  0.70008000  0.99457100  0.00542900  1
  C  C30  1  0.49982500  0.68817600  0.50017500  1
  C  C31  1  0.56242800  0.43757200  0.75699500  1
  C  C32  1  0.74413100  0.25586900  0.93881700  1
  C  C33  1  0.18834300  0.31290000  0.99742200  1
  C  C34  1  0.50133500  0.99742200  0.31290000  1
  C  C35  1  0.43744600  0.25327900  0.06301700  1
  C  C36  1  0.74672100  0.56255400  0.75374300  1
  C  C37  1  0.25541500  0.56285400  0.93591800  1
  C  C38  1  0.74458500  0.43714600  0.06408200  1
  C  C39  1  0.43714600  0.74458500  0.75418700  1
  C  C40  1  0.56285400  0.25541500  0.24581300  1
  C  C41  1  0.56255400  0.74672100  0.93698300  1
  C  C42  1  0.25327900  0.43744600  0.24625700  1
  C  C43  1  0.99742200  0.50133500  0.18834300  1
  C  C44  1  0.31290000  0.18834300  0.50133500  1
  C  C45  1  0.43757200  0.56242800  0.24300500  1
  C  C46  1  0.25586900  0.74413100  0.06118300  1
  C  C47  1  0.20224800  0.00292000  0.79775200  1
  C  C48  1  0.50017500  0.31182400  0.49982500  1
  C  C49  1  0.99457100  0.70008000  0.29992000  1
  C  C50  1  0.29992000  0.00542900  0.99457100  1
  C  C51  1  0.20153600  0.49442300  0.50557700  1
  C  C52  1  0.50557700  0.79846400  0.20153600  1
  C  C53  1  0.00292000  0.20224800  0.99708000  1
  C  C54  1  0.31182400  0.50017500  0.68817600  1
  C  C55  1  0.06118300  0.93881700  0.25586900  1
  C  C56  1  0.24300500  0.75699500  0.43757200  1
  C  C57  1  0.00257800  0.49866500  0.81165700  1
  C  C58  1  0.93698300  0.75374300  0.56255400  1
  C  C59  1  0.24625700  0.06301700  0.25327900  1
  C  C60  1  0.75418700  0.06408200  0.43714600  1
  C  C61  1  0.24581300  0.93591800  0.56285400  1
  C  C62  1  0.06408200  0.75418700  0.74458500  1
  C  C63  1  0.93591800  0.24581300  0.25541500  1
  C  C64  1  0.06301700  0.24625700  0.43744600  1
  C  C65  1  0.75374300  0.93698300  0.74672100  1
  C  C66  1  0.81165700  0.68710000  0.00257800  1
  C  C67  1  0.75699500  0.24300500  0.56242800  1
  C  C68  1  0.93881700  0.06118300  0.74413100  1
  C  C69  1  0.99708000  0.79775200  0.00292000  1
  C  C70  1  0.00542900  0.29992000  0.70008000  1
  C  C71  1  0.79846400  0.50557700  0.49442300  1
  C  C72  1  0.79775200  0.99708000  0.20224800  1
