# generated using pymatgen
data_Cu(Ni3C2)4
_symmetry_space_group_name_H-M   'P 1'
_cell_length_a   9.70390950
_cell_length_b   9.70390950
_cell_length_c   7.10643700
_cell_angle_alpha   90.00000000
_cell_angle_beta   90.00000000
_cell_angle_gamma   119.99999660
_symmetry_Int_Tables_number   1
_chemical_formula_structural   Cu(Ni3C2)4
_chemical_formula_sum   'Cu2 Ni24 C16'
_cell_volume   579.53014616
_cell_formula_units_Z   2
loop_
 _symmetry_equiv_pos_site_id
 _symmetry_equiv_pos_as_xyz
  1  'x, y, z'
loop_
 _atom_site_type_symbol
 _atom_site_label
 _atom_site_symmetry_multiplicity
 _atom_site_fract_x
 _atom_site_fract_y
 _atom_site_fract_z
 _atom_site_occupancy
  C  C0  1  0.25359000  0.24945000  0.75000000  1
  C  C1  1  0.75055000  0.00414000  0.75000000  1
  C  C2  1  0.66666700  0.33333300  0.50021600  1
  C  C3  1  0.33333300  0.66666700  0.00021600  1
  C  C4  1  0.99586000  0.74641000  0.75000000  1
  C  C5  1  0.66666700  0.33333300  0.99978400  1
  C  C6  1  0.74641000  0.75055000  0.25000000  1
  C  C7  1  0.00414000  0.25359000  0.25000000  1
  C  C8  1  0.33333300  0.66666700  0.49978400  1
  C  C9  1  0.24945000  0.99586000  0.25000000  1
  C  C10  1  0.63187600  0.02819400  0.25000000  1
  C  C11  1  0.60368300  0.63187600  0.75000000  1
  C  C12  1  0.97180600  0.60368300  0.25000000  1
  C  C13  1  0.02819400  0.39631700  0.75000000  1
  C  C14  1  0.39631700  0.36812400  0.25000000  1
  C  C15  1  0.36812400  0.97180600  0.75000000  1
  Ni  Ni16  1  0.12577900  0.59335200  0.75000000  1
  Ni  Ni17  1  0.24992400  0.90981300  0.56537300  1
  Ni  Ni18  1  0.32209500  0.48672000  0.25000000  1
  Ni  Ni19  1  0.75007600  0.09018700  0.06537300  1
  Ni  Ni20  1  0.65988900  0.75007600  0.93462700  1
  Ni  Ni21  1  0.40664800  0.53242800  0.75000000  1
  Ni  Ni22  1  0.09018700  0.34011100  0.56537300  1
  Ni  Ni23  1  0.53242800  0.12577900  0.25000000  1
  Ni  Ni24  1  0.90981300  0.65988900  0.43462700  1
  Ni  Ni25  1  0.59335200  0.46757200  0.25000000  1
  Ni  Ni26  1  0.48672000  0.16462500  0.75000000  1
  Ni  Ni27  1  0.34011100  0.24992400  0.43462700  1
  Ni  Ni28  1  0.46757200  0.87422100  0.75000000  1
  Ni  Ni29  1  0.16462500  0.67790500  0.25000000  1
  Ni  Ni30  1  0.83537500  0.32209500  0.75000000  1
  Ni  Ni31  1  0.24992400  0.90981300  0.93462700  1
  Ni  Ni32  1  0.09018700  0.34011100  0.93462700  1
  Ni  Ni33  1  0.75007600  0.09018700  0.43462700  1
  Ni  Ni34  1  0.67790500  0.51328000  0.75000000  1
  Ni  Ni35  1  0.65988900  0.75007600  0.56537300  1
  Ni  Ni36  1  0.87422100  0.40664800  0.25000000  1
  Ni  Ni37  1  0.34011100  0.24992400  0.06537300  1
  Ni  Ni38  1  0.51328000  0.83537500  0.25000000  1
  Ni  Ni39  1  0.90981300  0.65988900  0.06537300  1
  Cu  Cu40  1  0.00000000  0.00000000  0.25000000  1
  Cu  Cu41  1  0.00000000  0.00000000  0.75000000  1
