# generated using pymatgen
data_Cu16Ni4C
_symmetry_space_group_name_H-M   'P 1'
_cell_length_a   8.74357300
_cell_length_b   8.74357300
_cell_length_c   6.28437900
_cell_angle_alpha   90.00000000
_cell_angle_beta   90.00000000
_cell_angle_gamma   90.00000000
_symmetry_Int_Tables_number   1
_chemical_formula_structural   Cu16Ni4C
_chemical_formula_sum   'Cu32 Ni8 C2'
_cell_volume   480.44120696
_cell_formula_units_Z   2
loop_
 _symmetry_equiv_pos_site_id
 _symmetry_equiv_pos_as_xyz
  1  'x, y, z'
loop_
 _atom_site_type_symbol
 _atom_site_label
 _atom_site_symmetry_multiplicity
 _atom_site_fract_x
 _atom_site_fract_y
 _atom_site_fract_z
 _atom_site_occupancy
  C  C0  1  0.00000000  0.00000000  0.00000000  1
  C  C1  1  0.50000000  0.50000000  0.50000000  1
  Ni  Ni2  1  0.22941800  0.00000000  0.22653500  1
  Ni  Ni3  1  0.50000000  0.27058200  0.72653500  1
  Ni  Ni4  1  0.50000000  0.72941800  0.72653500  1
  Ni  Ni5  1  0.77058200  0.00000000  0.22653500  1
  Ni  Ni6  1  0.27058200  0.50000000  0.27346500  1
  Ni  Ni7  1  0.72941800  0.50000000  0.27346500  1
  Ni  Ni8  1  0.00000000  0.22941800  0.77346500  1
  Ni  Ni9  1  0.00000000  0.77058200  0.77346500  1
  Cu  Cu10  1  0.33991500  0.00000000  0.33888200  1
  Cu  Cu11  1  0.50000000  0.16008500  0.83888200  1
  Cu  Cu12  1  0.50000000  0.83991500  0.83888200  1
  Cu  Cu13  1  0.66008500  0.00000000  0.33888200  1
  Cu  Cu14  1  0.16008500  0.50000000  0.16111800  1
  Cu  Cu15  1  0.83991500  0.50000000  0.16111800  1
  Cu  Cu16  1  0.00000000  0.33991500  0.66111800  1
  Cu  Cu17  1  0.00000000  0.66008500  0.66111800  1
  Cu  Cu18  1  0.25762100  0.00000000  0.03013000  1
  Cu  Cu19  1  0.50000000  0.24237900  0.53013000  1
  Cu  Cu20  1  0.50000000  0.75762100  0.53013000  1
  Cu  Cu21  1  0.74237900  0.00000000  0.03013000  1
  Cu  Cu22  1  0.24237900  0.50000000  0.46987000  1
  Cu  Cu23  1  0.75762100  0.50000000  0.46987000  1
  Cu  Cu24  1  0.00000000  0.25762100  0.96987000  1
  Cu  Cu25  1  0.00000000  0.74237900  0.96987000  1
  Cu  Cu26  1  0.14287500  0.11361900  0.25191300  1
  Cu  Cu27  1  0.61361900  0.35712500  0.75191300  1
  Cu  Cu28  1  0.38638100  0.64287500  0.75191300  1
  Cu  Cu29  1  0.85712500  0.88638100  0.25191300  1
  Cu  Cu30  1  0.35712500  0.61361900  0.24808700  1
  Cu  Cu31  1  0.64287500  0.38638100  0.24808700  1
  Cu  Cu32  1  0.11361900  0.14287500  0.74808700  1
  Cu  Cu33  1  0.88638100  0.85712500  0.74808700  1
  Cu  Cu34  1  0.35712500  0.38638100  0.24808700  1
  Cu  Cu35  1  0.88638100  0.14287500  0.74808700  1
  Cu  Cu36  1  0.11361900  0.85712500  0.74808700  1
  Cu  Cu37  1  0.64287500  0.61361900  0.24808700  1
  Cu  Cu38  1  0.14287500  0.88638100  0.25191300  1
  Cu  Cu39  1  0.85712500  0.11361900  0.25191300  1
  Cu  Cu40  1  0.38638100  0.35712500  0.75191300  1
  Cu  Cu41  1  0.61361900  0.64287500  0.75191300  1
