# generated using pymatgen
data_Cu2NiC7
_symmetry_space_group_name_H-M   'P 1'
_cell_length_a   5.70901700
_cell_length_b   10.35137500
_cell_length_c   10.58609900
_cell_angle_alpha   90.00000000
_cell_angle_beta   90.00000000
_cell_angle_gamma   90.00000000
_symmetry_Int_Tables_number   1
_chemical_formula_structural   Cu2NiC7
_chemical_formula_sum   'Cu8 Ni4 C28'
_cell_volume   625.59796805
_cell_formula_units_Z   4
loop_
 _symmetry_equiv_pos_site_id
 _symmetry_equiv_pos_as_xyz
  1  'x, y, z'
loop_
 _atom_site_type_symbol
 _atom_site_label
 _atom_site_symmetry_multiplicity
 _atom_site_fract_x
 _atom_site_fract_y
 _atom_site_fract_z
 _atom_site_occupancy
  C  C0  1  0.25000000  0.38611300  0.50000000  1
  C  C1  1  0.75000000  0.61388700  0.50000000  1
  C  C2  1  0.75000000  0.11388700  0.00000000  1
  C  C3  1  0.25000000  0.88611300  0.00000000  1
  Ni  Ni4  1  0.25000000  0.84635400  0.50000000  1
  Ni  Ni5  1  0.75000000  0.65364600  0.00000000  1
  Ni  Ni6  1  0.75000000  0.15364600  0.50000000  1
  Ni  Ni7  1  0.25000000  0.34635400  0.00000000  1
  Cu  Cu8  1  0.21494300  0.60741300  0.24117800  1
  Cu  Cu9  1  0.78505700  0.39258700  0.75882200  1
  Cu  Cu10  1  0.71494300  0.39258700  0.24117800  1
  Cu  Cu11  1  0.21494300  0.10741300  0.25882200  1
  Cu  Cu12  1  0.28505700  0.60741300  0.75882200  1
  Cu  Cu13  1  0.78505700  0.89258700  0.74117800  1
  Cu  Cu14  1  0.28505700  0.10741300  0.74117800  1
  Cu  Cu15  1  0.71494300  0.89258700  0.25882200  1
  C  C16  1  0.12503500  0.94419200  0.62181200  1
  C  C17  1  0.96500000  0.24962900  0.57848600  1
  C  C18  1  0.01346200  0.47035700  0.35340200  1
  C  C19  1  0.03500000  0.75037100  0.42151400  1
  C  C20  1  0.62503500  0.05580800  0.62181200  1
  C  C21  1  0.98653800  0.02964300  0.85340200  1
  C  C22  1  0.51346200  0.02964300  0.14659800  1
  C  C23  1  0.48653800  0.97035700  0.85340200  1
  C  C24  1  0.87496500  0.55580800  0.12181200  1
  C  C25  1  0.37496500  0.94419200  0.37818800  1
  C  C26  1  0.53500000  0.24962900  0.42151400  1
  C  C27  1  0.98653800  0.52964300  0.64659800  1
  C  C28  1  0.46500000  0.75037100  0.57848600  1
  C  C29  1  0.48653800  0.47035700  0.64659800  1
  C  C30  1  0.87496500  0.05580800  0.37818800  1
  C  C31  1  0.46500000  0.25037100  0.92151400  1
  C  C32  1  0.03500000  0.25037100  0.07848600  1
  C  C33  1  0.01346200  0.97035700  0.14659800  1
  C  C34  1  0.51346200  0.52964300  0.35340200  1
  C  C35  1  0.37496500  0.44419200  0.12181200  1
  C  C36  1  0.12503500  0.44419200  0.87818800  1
  C  C37  1  0.96500000  0.74962900  0.92151400  1
  C  C38  1  0.62503500  0.55580800  0.87818800  1
  C  C39  1  0.53500000  0.74962900  0.07848600  1
