# generated using pymatgen
data_Cu2NiC4
_symmetry_space_group_name_H-M   'P 1'
_cell_length_a   6.03465565
_cell_length_b   6.03465597
_cell_length_c   24.49686530
_cell_angle_alpha   60.48259375
_cell_angle_beta   60.48259199
_cell_angle_gamma   60.00000046
_symmetry_Int_Tables_number   1
_chemical_formula_structural   Cu2NiC4
_chemical_formula_sum   'Cu16 Ni8 C32'
_cell_volume   635.37514710
_cell_formula_units_Z   8
loop_
 _symmetry_equiv_pos_site_id
 _symmetry_equiv_pos_as_xyz
  1  'x, y, z'
loop_
 _atom_site_type_symbol
 _atom_site_label
 _atom_site_symmetry_multiplicity
 _atom_site_fract_x
 _atom_site_fract_y
 _atom_site_fract_z
 _atom_site_occupancy
  Ni  Ni0  1  0.50299000  0.50299000  0.99775800  1
  Ni  Ni1  1  0.49843900  0.49843900  0.25117100  1
  Ni  Ni2  1  0.13020400  0.13020400  0.52734700  1
  Ni  Ni3  1  0.12873100  0.12873100  0.77845100  1
  Ni  Ni4  1  0.87773200  0.87773200  0.21670100  1
  Ni  Ni5  1  0.87593600  0.87593600  0.46804800  1
  Ni  Ni6  1  0.87422200  0.87422200  0.71933400  1
  Ni  Ni7  1  0.87670600  0.87670600  0.96747100  1
  Cu  Cu8  1  0.12412700  0.12412700  0.03190500  1
  Cu  Cu9  1  0.50023500  0.99872000  0.12520300  1
  Cu  Cu10  1  0.12316200  0.12316200  0.28262900  1
  Cu  Cu11  1  0.50023500  0.50023500  0.12520300  1
  Cu  Cu12  1  0.50413400  0.98727000  0.37611600  1
  Cu  Cu13  1  0.99872000  0.50023500  0.12520300  1
  Cu  Cu14  1  0.50413400  0.50413400  0.37611600  1
  Cu  Cu15  1  0.49212000  0.49212000  0.50591000  1
  Cu  Cu16  1  0.50300800  0.99517100  0.62470300  1
  Cu  Cu17  1  0.98727000  0.50413400  0.37611600  1
  Cu  Cu18  1  0.50300800  0.50300800  0.62470300  1
  Cu  Cu19  1  0.49787500  0.49787500  0.75159400  1
  Cu  Cu20  1  0.50000600  0.00586700  0.87353100  1
  Cu  Cu21  1  0.99517100  0.50300800  0.62470300  1
  Cu  Cu22  1  0.50000600  0.50000600  0.87353100  1
  Cu  Cu23  1  0.00586700  0.50000600  0.87353100  1
  C  C24  1  0.24865100  0.24865100  0.06663400  1
  C  C25  1  0.24865100  0.73616500  0.06663400  1
  C  C26  1  0.25387100  0.25387100  0.18459700  1
  C  C27  1  0.73616500  0.24865100  0.06663400  1
  C  C28  1  0.24199200  0.24199200  0.31997000  1
  C  C29  1  0.28801600  0.74668700  0.17965300  1
  C  C30  1  0.73873900  0.73873900  0.07094600  1
  C  C31  1  0.74668700  0.28801600  0.17965300  1
  C  C32  1  0.26644700  0.26644700  0.42516500  1
  C  C33  1  0.24199200  0.73613500  0.31997000  1
  C  C34  1  0.73613500  0.24199200  0.31997000  1
  C  C35  1  0.74668700  0.74668700  0.17965300  1
  C  C36  1  0.28965600  0.72782900  0.43867100  1
  C  C37  1  0.25619200  0.25619200  0.56812500  1
  C  C38  1  0.73977600  0.73977600  0.32016800  1
  C  C39  1  0.26523600  0.26523600  0.67607300  1
  C  C40  1  0.72782900  0.28965600  0.43867100  1
  C  C41  1  0.25619200  0.71511500  0.56812500  1
  C  C42  1  0.72782900  0.72782900  0.43867100  1
  C  C43  1  0.71511500  0.25619200  0.56812500  1
  C  C44  1  0.26327700  0.26327700  0.81462300  1
  C  C45  1  0.29013200  0.73431600  0.68530900  1
  C  C46  1  0.73887300  0.73887300  0.57084600  1
  C  C47  1  0.73431600  0.29013200  0.68530900  1
  C  C48  1  0.25383600  0.25383600  0.93462300  1
  C  C49  1  0.26327700  0.71495200  0.81462300  1
  C  C50  1  0.71495200  0.26327700  0.81462300  1
  C  C51  1  0.73431600  0.73431600  0.68530900  1
  C  C52  1  0.28933700  0.75198100  0.92667500  1
  C  C53  1  0.73783000  0.73783000  0.82162800  1
  C  C54  1  0.75198100  0.28933700  0.92667500  1
  C  C55  1  0.75198100  0.75198100  0.92667500  1
