# generated using pymatgen
data_Cu2NiC5
_symmetry_space_group_name_H-M   'P 1'
_cell_length_a   8.47971600
_cell_length_b   8.47971600
_cell_length_c   9.23209700
_cell_angle_alpha   90.00000000
_cell_angle_beta   90.00000000
_cell_angle_gamma   90.00000000
_symmetry_Int_Tables_number   1
_chemical_formula_structural   Cu2NiC5
_chemical_formula_sum   'Cu8 Ni4 C20'
_cell_volume   663.83932117
_cell_formula_units_Z   4
loop_
 _symmetry_equiv_pos_site_id
 _symmetry_equiv_pos_as_xyz
  1  'x, y, z'
loop_
 _atom_site_type_symbol
 _atom_site_label
 _atom_site_symmetry_multiplicity
 _atom_site_fract_x
 _atom_site_fract_y
 _atom_site_fract_z
 _atom_site_occupancy
  C  C0  1  0.16359100  0.66359100  0.25067500  1
  C  C1  1  0.33640900  0.16359100  0.25067500  1
  C  C2  1  0.66359100  0.83640900  0.25067500  1
  C  C3  1  0.66359100  0.83640900  0.74932500  1
  C  C4  1  0.33640900  0.16359100  0.74932500  1
  C  C5  1  0.83640900  0.33640900  0.25067500  1
  C  C6  1  0.16359100  0.66359100  0.74932500  1
  C  C7  1  0.83640900  0.33640900  0.74932500  1
  Ni  Ni8  1  0.32416300  0.82416300  0.00000000  1
  Ni  Ni9  1  0.17583700  0.32416300  0.00000000  1
  Ni  Ni10  1  0.82416300  0.67583700  0.00000000  1
  Ni  Ni11  1  0.67583700  0.17583700  0.00000000  1
  Cu  Cu12  1  0.00000000  0.00000000  0.23662400  1
  Cu  Cu13  1  0.50000000  0.50000000  0.76337600  1
  Cu  Cu14  1  0.00000000  0.00000000  0.76337600  1
  Cu  Cu15  1  0.50000000  0.50000000  0.23662400  1
  Cu  Cu16  1  0.34984000  0.84984000  0.50000000  1
  Cu  Cu17  1  0.15016000  0.34984000  0.50000000  1
  Cu  Cu18  1  0.84984000  0.65016000  0.50000000  1
  Cu  Cu19  1  0.65016000  0.15016000  0.50000000  1
  C  C20  1  0.21402500  0.71402500  0.00000000  1
  C  C21  1  0.28597500  0.21402500  0.00000000  1
  C  C22  1  0.71402500  0.78597500  0.00000000  1
  C  C23  1  0.78597500  0.28597500  0.00000000  1
  C  C24  1  0.37283900  0.87283900  0.12479800  1
  C  C25  1  0.12716100  0.37283900  0.12479800  1
  C  C26  1  0.87283900  0.62716100  0.12479800  1
  C  C27  1  0.87283900  0.62716100  0.87520200  1
  C  C28  1  0.12716100  0.37283900  0.87520200  1
  C  C29  1  0.62716100  0.12716100  0.12479800  1
  C  C30  1  0.37283900  0.87283900  0.87520200  1
  C  C31  1  0.62716100  0.12716100  0.87520200  1
