# generated using pymatgen
data_Cu6Ni2C3
_symmetry_space_group_name_H-M   'P 1'
_cell_length_a   9.38964700
_cell_length_b   10.44626400
_cell_length_c   17.63812600
_cell_angle_alpha   90.00000000
_cell_angle_beta   90.00000000
_cell_angle_gamma   90.00000000
_symmetry_Int_Tables_number   1
_chemical_formula_structural   Cu6Ni2C3
_chemical_formula_sum   'Cu48 Ni16 C24'
_cell_volume   1730.06612787
_cell_formula_units_Z   8
loop_
 _symmetry_equiv_pos_site_id
 _symmetry_equiv_pos_as_xyz
  1  'x, y, z'
loop_
 _atom_site_type_symbol
 _atom_site_label
 _atom_site_symmetry_multiplicity
 _atom_site_fract_x
 _atom_site_fract_y
 _atom_site_fract_z
 _atom_site_occupancy
  C  C0  1  0.63901900  0.40194700  0.37161800  1
  C  C1  1  0.86098100  0.90194700  0.62838200  1
  C  C2  1  0.63901900  0.90194700  0.12838200  1
  C  C3  1  0.13901900  0.09805300  0.37161800  1
  C  C4  1  0.36098100  0.59805300  0.62838200  1
  C  C5  1  0.13901900  0.59805300  0.12838200  1
  C  C6  1  0.86098100  0.40194700  0.87161800  1
  C  C7  1  0.36098100  0.09805300  0.87161800  1
  C  C8  1  0.03191800  0.64960300  0.74641900  1
  C  C9  1  0.22151900  0.38721000  0.96907600  1
  C  C10  1  0.96808200  0.35039700  0.25358100  1
  C  C11  1  0.46808200  0.14960300  0.25358100  1
  C  C12  1  0.27848100  0.38721000  0.46907600  1
  C  C13  1  0.22151900  0.88721000  0.53092400  1
  C  C14  1  0.96808200  0.85039700  0.24641900  1
  C  C15  1  0.46808200  0.64960300  0.24641900  1
  C  C16  1  0.03191800  0.14960300  0.75358100  1
  C  C17  1  0.77848100  0.11279000  0.46907600  1
  C  C18  1  0.72151900  0.61279000  0.53092400  1
  C  C19  1  0.27848100  0.88721000  0.03092400  1
  C  C20  1  0.53191800  0.35039700  0.75358100  1
  C  C21  1  0.53191800  0.85039700  0.74641900  1
  C  C22  1  0.72151900  0.11279000  0.96907600  1
  C  C23  1  0.77848100  0.61279000  0.03092400  1
  Ni  Ni24  1  0.85826200  0.48776600  0.58362500  1
  Ni  Ni25  1  0.38085300  0.25697900  0.16792600  1
  Ni  Ni26  1  0.35826200  0.01223400  0.58362500  1
  Ni  Ni27  1  0.61914700  0.24302100  0.66792600  1
  Ni  Ni28  1  0.88085300  0.74302100  0.33207400  1
  Ni  Ni29  1  0.61914700  0.74302100  0.83207400  1
  Ni  Ni30  1  0.11914700  0.25697900  0.66792600  1
  Ni  Ni31  1  0.11914700  0.75697900  0.83207400  1
  Ni  Ni32  1  0.88085300  0.24302100  0.16792600  1
  Ni  Ni33  1  0.14173800  0.01223400  0.08362500  1
  Ni  Ni34  1  0.64173800  0.98776600  0.41637500  1
  Ni  Ni35  1  0.85826200  0.98776600  0.91637500  1
  Ni  Ni36  1  0.14173800  0.51223400  0.41637500  1
  Ni  Ni37  1  0.35826200  0.51223400  0.91637500  1
  Ni  Ni38  1  0.64173800  0.48776600  0.08362500  1
  Ni  Ni39  1  0.38085300  0.75697900  0.33207400  1
  Cu  Cu40  1  0.78533100  0.23886700  0.95867400  1
  Cu  Cu41  1  0.56225600  0.23744600  0.29339200  1
  Cu  Cu42  1  0.95676000  0.54673400  0.78494100  1
  Cu  Cu43  1  0.28001300  0.42984300  0.54800500  1
  Cu  Cu44  1  0.08562100  0.90376100  0.56951400  1
  Cu  Cu45  1  0.71998700  0.57015700  0.45199500  1
  Cu  Cu46  1  0.54324000  0.04673400  0.21505900  1
  Cu  Cu47  1  0.91437900  0.59623900  0.06951400  1
  Cu  Cu48  1  0.08562100  0.40376100  0.93048600  1
  Cu  Cu49  1  0.84782400  0.39422100  0.29892000  1
  Cu  Cu50  1  0.28533100  0.76113300  0.54132600  1
  Cu  Cu51  1  0.54324000  0.54673400  0.28494100  1
  Cu  Cu52  1  0.78001300  0.57015700  0.95199500  1
  Cu  Cu53  1  0.41437900  0.40376100  0.43048600  1
  Cu  Cu54  1  0.95676000  0.04673400  0.71505900  1
  Cu  Cu55  1  0.56225600  0.73744600  0.20660800  1
  Cu  Cu56  1  0.58562100  0.09623900  0.93048600  1
  Cu  Cu57  1  0.15217600  0.60577900  0.70108000  1
  Cu  Cu58  1  0.04324000  0.45326600  0.21505900  1
  Cu  Cu59  1  0.71466900  0.73886700  0.04132600  1
  Cu  Cu60  1  0.15217600  0.10577900  0.79892000  1
  Cu  Cu61  1  0.28533100  0.26113300  0.95867400  1
  Cu  Cu62  1  0.34782400  0.60577900  0.20108000  1
  Cu  Cu63  1  0.78533100  0.73886700  0.54132600  1
  Cu  Cu64  1  0.91437900  0.09623900  0.43048600  1
  Cu  Cu65  1  0.43774400  0.76255400  0.70660800  1
  Cu  Cu66  1  0.06225600  0.26255400  0.29339200  1
  Cu  Cu67  1  0.41437900  0.90376100  0.06951400  1
  Cu  Cu68  1  0.21998700  0.92984300  0.45199500  1
  Cu  Cu69  1  0.43774400  0.26255400  0.79339200  1
  Cu  Cu70  1  0.21998700  0.42984300  0.04800500  1
  Cu  Cu71  1  0.58562100  0.59623900  0.56951400  1
  Cu  Cu72  1  0.71466900  0.23886700  0.45867400  1
  Cu  Cu73  1  0.28001300  0.92984300  0.95199500  1
  Cu  Cu74  1  0.45676000  0.95326600  0.78494100  1
  Cu  Cu75  1  0.21466900  0.26113300  0.45867400  1
  Cu  Cu76  1  0.65217600  0.39422100  0.79892000  1
  Cu  Cu77  1  0.06225600  0.76255400  0.20660800  1
  Cu  Cu78  1  0.04324000  0.95326600  0.28494100  1
  Cu  Cu79  1  0.71998700  0.07015700  0.04800500  1
  Cu  Cu80  1  0.21466900  0.76113300  0.04132600  1
  Cu  Cu81  1  0.65217600  0.89422100  0.70108000  1
  Cu  Cu82  1  0.93774400  0.23744600  0.79339200  1
  Cu  Cu83  1  0.93774400  0.73744600  0.70660800  1
  Cu  Cu84  1  0.84782400  0.89422100  0.20108000  1
  Cu  Cu85  1  0.45676000  0.45326600  0.71505900  1
  Cu  Cu86  1  0.78001300  0.07015700  0.54800500  1
  Cu  Cu87  1  0.34782400  0.10577900  0.29892000  1
