# generated using pymatgen
data_Cu6Ni4C19
_symmetry_space_group_name_H-M   'P 1'
_cell_length_a   9.14677700
_cell_length_b   9.14677700
_cell_length_c   12.77044300
_cell_angle_alpha   90.00000000
_cell_angle_beta   90.00000000
_cell_angle_gamma   90.00000000
_symmetry_Int_Tables_number   1
_chemical_formula_structural   Cu6Ni4C19
_chemical_formula_sum   'Cu24 Ni16 C76'
_cell_volume   1068.42033450
_cell_formula_units_Z   4
loop_
 _symmetry_equiv_pos_site_id
 _symmetry_equiv_pos_as_xyz
  1  'x, y, z'
loop_
 _atom_site_type_symbol
 _atom_site_label
 _atom_site_symmetry_multiplicity
 _atom_site_fract_x
 _atom_site_fract_y
 _atom_site_fract_z
 _atom_site_occupancy
  C  C0  1  0.00000000  0.50000000  0.25000000  1
  C  C1  1  0.50000000  0.50000000  0.50000000  1
  C  C2  1  0.00000000  0.00000000  0.00000000  1
  C  C3  1  0.50000000  0.00000000  0.75000000  1
  C  C4  1  0.68667400  0.82315000  0.04143200  1
  C  C5  1  0.81332600  0.32315000  0.54143200  1
  C  C6  1  0.47174400  0.37385400  0.25188600  1
  C  C7  1  0.37385400  0.52825600  0.74811400  1
  C  C8  1  0.48442400  0.14048000  0.98145600  1
  C  C9  1  0.35952000  0.01557600  0.51854400  1
  C  C10  1  0.80798800  0.80473100  0.68268500  1
  C  C11  1  0.68852100  0.64748100  0.17832000  1
  C  C12  1  0.82242600  0.70012800  0.92016000  1
  C  C13  1  0.18667400  0.67685000  0.54143200  1
  C  C14  1  0.32315000  0.18667400  0.45856800  1
  C  C15  1  0.98442400  0.35952000  0.48145600  1
  C  C16  1  0.81147900  0.14748100  0.67832000  1
  C  C17  1  0.31147900  0.35251900  0.17832000  1
  C  C18  1  0.02825600  0.87385400  0.75188600  1
  C  C19  1  0.17685000  0.68667400  0.95856800  1
  C  C20  1  0.67685000  0.81332600  0.45856800  1
  C  C21  1  0.18852100  0.85251900  0.67832000  1
  C  C22  1  0.87385400  0.97174400  0.24811400  1
  C  C23  1  0.30798800  0.69526900  0.18268500  1
  C  C24  1  0.12614600  0.02825600  0.24811400  1
  C  C25  1  0.32242600  0.79987200  0.42016000  1
  C  C26  1  0.19526900  0.80798800  0.31731500  1
  C  C27  1  0.70012800  0.17757400  0.07984000  1
  C  C28  1  0.14748100  0.18852100  0.32168000  1
  C  C29  1  0.97174400  0.12614600  0.75188600  1
  C  C30  1  0.69201200  0.30473100  0.18268500  1
  C  C31  1  0.67757400  0.20012800  0.42016000  1
  C  C32  1  0.52825600  0.62614600  0.25188600  1
  C  C33  1  0.14048000  0.51557600  0.01854400  1
  C  C34  1  0.85251900  0.81147900  0.32168000  1
  C  C35  1  0.31332600  0.17685000  0.04143200  1
  C  C36  1  0.30473100  0.30798800  0.81731500  1
  C  C37  1  0.82315000  0.31332600  0.95856800  1
  C  C38  1  0.51557600  0.85952000  0.98145600  1
  C  C39  1  0.79987200  0.67757400  0.57984000  1
  C  C40  1  0.35251900  0.68852100  0.82168000  1
  C  C41  1  0.01557600  0.64048000  0.48145600  1
  C  C42  1  0.64748100  0.31147900  0.82168000  1
  C  C43  1  0.69526900  0.69201200  0.81731500  1
  C  C44  1  0.29987200  0.82242600  0.07984000  1
  C  C45  1  0.85952000  0.48442400  0.01854400  1
  C  C46  1  0.64048000  0.98442400  0.51854400  1
  C  C47  1  0.20012800  0.32242600  0.57984000  1
  C  C48  1  0.17757400  0.29987200  0.92016000  1
  C  C49  1  0.80473100  0.19201200  0.31731500  1
  C  C50  1  0.19201200  0.19526900  0.68268500  1
  C  C51  1  0.62614600  0.47174400  0.74811400  1
  Ni  Ni52  1  0.75270700  0.49403900  0.87836100  1
  Ni  Ni53  1  0.95739700  0.74370400  0.11971300  1
  Ni  Ni54  1  0.45739700  0.75629600  0.61971300  1
  Ni  Ni55  1  0.24370400  0.45739700  0.38028700  1
  Ni  Ni56  1  0.49403900  0.24729300  0.12163900  1
  Ni  Ni57  1  0.74370400  0.04260300  0.88028700  1
  Ni  Ni58  1  0.74729300  0.99403900  0.37836100  1
  Ni  Ni59  1  0.25629600  0.95739700  0.88028700  1
  Ni  Ni60  1  0.24729300  0.50596100  0.87836100  1
  Ni  Ni61  1  0.99403900  0.25270700  0.62163900  1
  Ni  Ni62  1  0.54260300  0.24370400  0.61971300  1
  Ni  Ni63  1  0.50596100  0.75270700  0.12163900  1
  Ni  Ni64  1  0.04260300  0.25629600  0.11971300  1
  Ni  Ni65  1  0.75629600  0.54260300  0.38028700  1
  Ni  Ni66  1  0.00596100  0.74729300  0.62163900  1
  Ni  Ni67  1  0.25270700  0.00596100  0.37836100  1
  Cu  Cu68  1  0.13926400  0.25915500  0.62959300  1
  Cu  Cu69  1  0.57481600  0.82406200  0.04471000  1
  Cu  Cu70  1  0.42518400  0.17593800  0.04471000  1
  Cu  Cu71  1  0.58246700  0.67663400  0.19263400  1
  Cu  Cu72  1  0.67663400  0.41753300  0.80736600  1
  Cu  Cu73  1  0.07481600  0.67593800  0.54471000  1
  Cu  Cu74  1  0.75915500  0.63926400  0.87040700  1
  Cu  Cu75  1  0.24084500  0.36073600  0.87040700  1
  Cu  Cu76  1  0.91753300  0.17663400  0.69263400  1
  Cu  Cu77  1  0.25915500  0.86073600  0.37040700  1
  Cu  Cu78  1  0.36073600  0.75915500  0.12959300  1
  Cu  Cu79  1  0.74084500  0.13926400  0.37040700  1
  Cu  Cu80  1  0.41753300  0.32336600  0.19263400  1
  Cu  Cu81  1  0.17663400  0.08246700  0.30736600  1
  Cu  Cu82  1  0.86073600  0.74084500  0.62959300  1
  Cu  Cu83  1  0.08246700  0.82336600  0.69263400  1
  Cu  Cu84  1  0.67593800  0.92518400  0.45529000  1
  Cu  Cu85  1  0.17593800  0.57481600  0.95529000  1
  Cu  Cu86  1  0.63926400  0.24084500  0.12959300  1
  Cu  Cu87  1  0.32336600  0.58246700  0.80736600  1
  Cu  Cu88  1  0.92518400  0.32406200  0.54471000  1
  Cu  Cu89  1  0.32406200  0.07481600  0.45529000  1
  Cu  Cu90  1  0.82406200  0.42518400  0.95529000  1
  Cu  Cu91  1  0.82336600  0.91753300  0.30736600  1
  C  C92  1  0.18797000  0.90181900  0.96205600  1
  C  C93  1  0.88655500  0.60027300  0.36174100  1
  C  C94  1  0.68797000  0.59818100  0.46205600  1
  C  C95  1  0.11344500  0.39972700  0.36174100  1
  C  C96  1  0.29825800  0.55662000  0.32355600  1
  C  C97  1  0.59818100  0.31203000  0.53794400  1
  C  C98  1  0.20174200  0.05662000  0.82355600  1
  C  C99  1  0.70174200  0.44338000  0.32355600  1
  C  C100  1  0.09818100  0.18797000  0.03794400  1
  C  C101  1  0.81203000  0.09818100  0.96205600  1
  C  C102  1  0.79825800  0.94338000  0.82355600  1
  C  C103  1  0.94338000  0.20174200  0.17644400  1
  C  C104  1  0.55662000  0.70174200  0.67644400  1
  C  C105  1  0.38655500  0.89972700  0.86174100  1
  C  C106  1  0.44338000  0.29825800  0.67644400  1
  C  C107  1  0.60027300  0.11344500  0.63825900  1
  C  C108  1  0.05662000  0.79825800  0.17644400  1
  C  C109  1  0.61344500  0.10027300  0.86174100  1
  C  C110  1  0.39972700  0.88655500  0.63825900  1
  C  C111  1  0.10027300  0.38655500  0.13825900  1
  C  C112  1  0.40181900  0.68797000  0.53794400  1
  C  C113  1  0.89972700  0.61344500  0.13825900  1
  C  C114  1  0.31203000  0.40181900  0.46205600  1
  C  C115  1  0.90181900  0.81203000  0.03794400  1
