# generated using pymatgen
data_Cu2Ni6C5
_symmetry_space_group_name_H-M   'P 1'
_cell_length_a   6.15339800
_cell_length_b   10.09605000
_cell_length_c   14.80187284
_cell_angle_alpha   69.98889270
_cell_angle_beta   90.00000000
_cell_angle_gamma   90.00000000
_symmetry_Int_Tables_number   1
_chemical_formula_structural   Cu2Ni6C5
_chemical_formula_sum   'Cu8 Ni24 C20'
_cell_volume   864.04891964
_cell_formula_units_Z   4
loop_
 _symmetry_equiv_pos_site_id
 _symmetry_equiv_pos_as_xyz
  1  'x, y, z'
loop_
 _atom_site_type_symbol
 _atom_site_label
 _atom_site_symmetry_multiplicity
 _atom_site_fract_x
 _atom_site_fract_y
 _atom_site_fract_z
 _atom_site_occupancy
  C  C0  1  0.27559200  0.04043400  0.66503400  1
  C  C1  1  0.26889200  0.27753000  0.34578700  1
  C  C2  1  0.73110800  0.72247000  0.65421300  1
  C  C3  1  0.76889200  0.72247000  0.15421300  1
  C  C4  1  0.22440800  0.04043400  0.16503400  1
  C  C5  1  0.23110800  0.27753000  0.84578700  1
  C  C6  1  0.72440800  0.95956600  0.33496600  1
  C  C7  1  0.77559200  0.95956600  0.83496600  1
  C  C8  1  0.30047600  0.69165500  0.44823800  1
  C  C9  1  0.69952400  0.30834500  0.55176200  1
  C  C10  1  0.19952400  0.69165500  0.94823800  1
  C  C11  1  0.80047600  0.30834500  0.05176200  1
  C  C12  1  0.21249500  0.85431600  0.47294000  1
  C  C13  1  0.74133800  0.30139400  0.67929700  1
  C  C14  1  0.25866200  0.69860600  0.32070300  1
  C  C15  1  0.24133800  0.69860600  0.82070300  1
  C  C16  1  0.78750500  0.14568400  0.52706000  1
  C  C17  1  0.75866200  0.30139400  0.17929700  1
  C  C18  1  0.28750500  0.85431600  0.97294000  1
  C  C19  1  0.71249500  0.14568400  0.02706000  1
  Ni  Ni20  1  0.95435200  0.23375800  0.70665600  1
  Ni  Ni21  1  0.15968400  0.84963100  0.05722100  1
  Ni  Ni22  1  0.94066100  0.21301700  0.23106200  1
  Ni  Ni23  1  0.97846100  0.83583800  0.49045900  1
  Ni  Ni24  1  0.76935500  0.02948000  0.11549700  1
  Ni  Ni25  1  0.04564800  0.76624200  0.29334400  1
  Ni  Ni26  1  0.84031600  0.15036900  0.94277900  1
  Ni  Ni27  1  0.34031600  0.84963100  0.55722100  1
  Ni  Ni28  1  0.45435200  0.76624200  0.79334400  1
  Ni  Ni29  1  0.65968400  0.15036900  0.44277900  1
  Ni  Ni30  1  0.73064500  0.02948000  0.61549700  1
  Ni  Ni31  1  0.23064700  0.55293500  0.82452400  1
  Ni  Ni32  1  0.54564800  0.23375800  0.20665600  1
  Ni  Ni33  1  0.52153900  0.83583800  0.99045900  1
  Ni  Ni34  1  0.47846100  0.16416200  0.00954100  1
  Ni  Ni35  1  0.26935300  0.55293500  0.32452400  1
  Ni  Ni36  1  0.76935300  0.44706500  0.17547600  1
  Ni  Ni37  1  0.73064700  0.44706500  0.67547600  1
  Ni  Ni38  1  0.05933900  0.78698300  0.76893800  1
  Ni  Ni39  1  0.23064500  0.97052000  0.88450300  1
  Ni  Ni40  1  0.26935500  0.97052000  0.38450300  1
  Ni  Ni41  1  0.55933900  0.21301700  0.73106200  1
  Ni  Ni42  1  0.44066100  0.78698300  0.26893800  1
  Ni  Ni43  1  0.02153900  0.16416200  0.50954100  1
  Cu  Cu44  1  0.97958200  0.67437500  0.96728600  1
  Cu  Cu45  1  0.52041800  0.67437500  0.46728600  1
  Cu  Cu46  1  0.80383300  0.42171800  0.48980600  1
  Cu  Cu47  1  0.02041800  0.32562500  0.03271400  1
  Cu  Cu48  1  0.19616700  0.57828200  0.51019400  1
  Cu  Cu49  1  0.30383300  0.57828200  0.01019400  1
  Cu  Cu50  1  0.69616700  0.42171800  0.98980600  1
  Cu  Cu51  1  0.47958200  0.32562500  0.53271400  1
