# generated using pymatgen
data_Cu3NiC14
_symmetry_space_group_name_H-M   'P 1'
_cell_length_a   6.35584145
_cell_length_b   6.35584145
_cell_length_c   5.74483400
_cell_angle_alpha   90.00000000
_cell_angle_beta   90.00000000
_cell_angle_gamma   119.99999428
_symmetry_Int_Tables_number   1
_chemical_formula_structural   Cu3NiC14
_chemical_formula_sum   'Cu3 Ni1 C14'
_cell_volume   200.98065198
_cell_formula_units_Z   1
loop_
 _symmetry_equiv_pos_site_id
 _symmetry_equiv_pos_as_xyz
  1  'x, y, z'
loop_
 _atom_site_type_symbol
 _atom_site_label
 _atom_site_symmetry_multiplicity
 _atom_site_fract_x
 _atom_site_fract_y
 _atom_site_fract_z
 _atom_site_occupancy
  Ni  Ni0  1  0.00000000  0.00000000  0.50000000  1
  Cu  Cu1  1  0.00000000  0.50000000  0.50000000  1
  Cu  Cu2  1  0.50000000  0.00000000  0.50000000  1
  Cu  Cu3  1  0.50000000  0.50000000  0.50000000  1
  C  C4  1  0.19927800  0.80072200  0.82146200  1
  C  C5  1  0.80072200  0.19927800  0.17853800  1
  C  C6  1  0.39855500  0.19927800  0.17853800  1
  C  C7  1  0.60144500  0.80072200  0.82146200  1
  C  C8  1  0.19927800  0.39855500  0.82146200  1
  C  C9  1  0.80072200  0.60144500  0.17853800  1
  C  C10  1  0.33333300  0.66666700  0.12234600  1
  C  C11  1  0.66666700  0.33333300  0.87765400  1
  C  C12  1  0.64533600  0.82266800  0.65465600  1
  C  C13  1  0.82266800  0.17733200  0.34534400  1
  C  C14  1  0.35466400  0.17733200  0.34534400  1
  C  C15  1  0.17733200  0.82266800  0.65465600  1
  C  C16  1  0.82266800  0.64533600  0.34534400  1
  C  C17  1  0.17733200  0.35466400  0.65465600  1
