# generated using pymatgen
data_Cu2Ni4C9
_symmetry_space_group_name_H-M   'P 1'
_cell_length_a   6.01419500
_cell_length_b   8.94829000
_cell_length_c   35.01523800
_cell_angle_alpha   90.00000000
_cell_angle_beta   90.00000000
_cell_angle_gamma   90.00000000
_symmetry_Int_Tables_number   1
_chemical_formula_structural   Cu2Ni4C9
_chemical_formula_sum   'Cu16 Ni32 C72'
_cell_volume   1884.40669398
_cell_formula_units_Z   8
loop_
 _symmetry_equiv_pos_site_id
 _symmetry_equiv_pos_as_xyz
  1  'x, y, z'
loop_
 _atom_site_type_symbol
 _atom_site_label
 _atom_site_symmetry_multiplicity
 _atom_site_fract_x
 _atom_site_fract_y
 _atom_site_fract_z
 _atom_site_occupancy
  Ni  Ni0  1  0.22712200  0.61770800  0.27031600  1
  Ni  Ni1  1  0.27051900  0.89747600  0.34684100  1
  Ni  Ni2  1  0.72712200  0.88229200  0.27031600  1
  Ni  Ni3  1  0.27287800  0.61770800  0.77031600  1
  Ni  Ni4  1  0.77051900  0.60252400  0.34684100  1
  Ni  Ni5  1  0.77355000  0.57966100  0.10360200  1
  Ni  Ni6  1  0.24940200  0.07066200  0.47576200  1
  Ni  Ni7  1  0.25059800  0.57066200  0.52423800  1
  Ni  Ni8  1  0.72645000  0.07966100  0.89639800  1
  Ni  Ni9  1  0.22948100  0.89747600  0.84684100  1
  Ni  Ni10  1  0.25059800  0.07066200  0.97576200  1
  Ni  Ni11  1  0.77287800  0.38229200  0.72968400  1
  Ni  Ni12  1  0.72712200  0.38229200  0.22968400  1
  Ni  Ni13  1  0.27355000  0.42033900  0.39639800  1
  Ni  Ni14  1  0.72948100  0.60252400  0.84684100  1
  Ni  Ni15  1  0.74940200  0.92933800  0.02423800  1
  Ni  Ni16  1  0.22948100  0.39747600  0.65315900  1
  Ni  Ni17  1  0.27051900  0.39747600  0.15315900  1
  Ni  Ni18  1  0.77051900  0.10252400  0.15315900  1
  Ni  Ni19  1  0.75059800  0.92933800  0.52423800  1
  Ni  Ni20  1  0.27355000  0.92033900  0.10360200  1
  Ni  Ni21  1  0.75059800  0.42933900  0.97576200  1
  Ni  Ni22  1  0.22712200  0.11770800  0.22968400  1
  Ni  Ni23  1  0.72645000  0.57966100  0.60360200  1
  Ni  Ni24  1  0.77355000  0.07966100  0.39639800  1
  Ni  Ni25  1  0.72948100  0.10252400  0.65315900  1
  Ni  Ni26  1  0.22645000  0.92033900  0.60360200  1
  Ni  Ni27  1  0.22645000  0.42033900  0.89639800  1
  Ni  Ni28  1  0.27287800  0.11770800  0.72968400  1
  Ni  Ni29  1  0.77287800  0.88229200  0.77031600  1
  Ni  Ni30  1  0.74940200  0.42933900  0.47576200  1
  Ni  Ni31  1  0.24940200  0.57066200  0.02423800  1
  Cu  Cu32  1  0.06875000  0.74344400  0.68227800  1
  Cu  Cu33  1  0.06875000  0.24344400  0.81772200  1
  Cu  Cu34  1  0.93125000  0.25655600  0.31772200  1
  Cu  Cu35  1  0.56875000  0.75655600  0.68227800  1
  Cu  Cu36  1  0.90080100  0.75180300  0.93997900  1
  Cu  Cu37  1  0.40080100  0.74819700  0.93997900  1
  Cu  Cu38  1  0.56875000  0.25655600  0.81772200  1
  Cu  Cu39  1  0.59919900  0.25180300  0.06002100  1
  Cu  Cu40  1  0.43125000  0.24344400  0.31772200  1
  Cu  Cu41  1  0.43125000  0.74344400  0.18227800  1
  Cu  Cu42  1  0.90080100  0.25180300  0.56002100  1
  Cu  Cu43  1  0.93125000  0.75655600  0.18227800  1
  Cu  Cu44  1  0.40080100  0.24819700  0.56002100  1
  Cu  Cu45  1  0.09919900  0.24819700  0.06002100  1
  Cu  Cu46  1  0.59919900  0.75180300  0.43997900  1
  Cu  Cu47  1  0.09919900  0.74819700  0.43997900  1
  C  C48  1  0.41120300  0.54013100  0.96466100  1
  C  C49  1  0.36117900  0.64990800  0.88804800  1
  C  C50  1  0.47233600  0.76435900  0.80967200  1
  C  C51  1  0.90699800  0.64356200  0.99196400  1
  C  C52  1  0.02766400  0.76435900  0.30967200  1
  C  C53  1  0.61654100  0.54236200  0.41879300  1
  C  C54  1  0.40699800  0.85643800  0.99196400  1
  C  C55  1  0.90699800  0.14356200  0.50803600  1
  C  C56  1  0.94383700  0.34210100  0.37157600  1
  C  C57  1  0.52766400  0.73564100  0.30967200  1
  C  C58  1  0.43105800  0.45433400  0.34108700  1
  C  C59  1  0.13882100  0.64990800  0.38804800  1
  C  C60  1  0.61654100  0.04236200  0.08120700  1
  C  C61  1  0.40699800  0.35643800  0.50803600  1
  C  C62  1  0.05616300  0.15789900  0.87157600  1
  C  C63  1  0.63882100  0.35009200  0.11195200  1
  C  C64  1  0.40495400  0.82095500  0.23676400  1
  C  C65  1  0.63882100  0.85009200  0.38804800  1
  C  C66  1  0.41120300  0.04013100  0.53533900  1
  C  C67  1  0.59965300  0.96470600  0.70375400  1
  C  C68  1  0.90034700  0.46470600  0.29624600  1
  C  C69  1  0.93105800  0.54566600  0.15891300  1
  C  C70  1  0.56894200  0.54566600  0.65891300  1
  C  C71  1  0.97233600  0.23564100  0.69032800  1
  C  C72  1  0.43105800  0.95433400  0.15891300  1
  C  C73  1  0.09965300  0.53529400  0.70375400  1
  C  C74  1  0.40034700  0.03529400  0.29624600  1
  C  C75  1  0.09504600  0.82095500  0.73676400  1
  C  C76  1  0.56894200  0.04566600  0.84108700  1
  C  C77  1  0.52766400  0.23564100  0.19032800  1
  C  C78  1  0.55616300  0.84210100  0.62842400  1
  C  C79  1  0.88345900  0.54236200  0.91879300  1
  C  C80  1  0.11654100  0.95763800  0.41879300  1
  C  C81  1  0.09300200  0.85643800  0.49196400  1
  C  C82  1  0.58879700  0.95986900  0.46466100  1
  C  C83  1  0.06894200  0.45433400  0.84108700  1
  C  C84  1  0.44383700  0.65789900  0.12842400  1
  C  C85  1  0.90034700  0.96470600  0.20375400  1
  C  C86  1  0.08879700  0.04013100  0.03533900  1
  C  C87  1  0.13882100  0.14990800  0.11195200  1
  C  C88  1  0.40034700  0.53529400  0.20375400  1
  C  C89  1  0.08879700  0.54013100  0.46466100  1
  C  C90  1  0.59504600  0.67904500  0.73676400  1
  C  C91  1  0.02766400  0.26435900  0.19032800  1
  C  C92  1  0.59504600  0.17904500  0.76323600  1
  C  C93  1  0.09300200  0.35643800  0.00803600  1
  C  C94  1  0.59300200  0.14356200  0.00803600  1
  C  C95  1  0.86117900  0.85009200  0.88804800  1
  C  C96  1  0.88345900  0.04236200  0.58120700  1
  C  C97  1  0.38345900  0.45763800  0.58120700  1
  C  C98  1  0.47233600  0.26435900  0.69032800  1
  C  C99  1  0.97233600  0.73564100  0.80967200  1
  C  C100  1  0.55616300  0.34210100  0.87157600  1
  C  C101  1  0.58879700  0.45986900  0.03533900  1
  C  C102  1  0.91120300  0.95986900  0.96466100  1
  C  C103  1  0.06894200  0.95433400  0.65891300  1
  C  C104  1  0.59300200  0.64356200  0.49196400  1
  C  C105  1  0.93105800  0.04566600  0.34108700  1
  C  C106  1  0.36117900  0.14990800  0.61195200  1
  C  C107  1  0.90495400  0.67904500  0.23676400  1
  C  C108  1  0.09504600  0.32095500  0.76323600  1
  C  C109  1  0.05616300  0.65789900  0.62842400  1
  C  C110  1  0.40495400  0.32095500  0.26323600  1
  C  C111  1  0.86117900  0.35009200  0.61195200  1
  C  C112  1  0.94383700  0.84210100  0.12842400  1
  C  C113  1  0.91120300  0.45986900  0.53533900  1
  C  C114  1  0.11654100  0.45763800  0.08120700  1
  C  C115  1  0.59965300  0.46470600  0.79624600  1
  C  C116  1  0.09965300  0.03529400  0.79624600  1
  C  C117  1  0.44383700  0.15789900  0.37157600  1
  C  C118  1  0.38345900  0.95763800  0.91879300  1
  C  C119  1  0.90495400  0.17904500  0.26323600  1
