# generated using pymatgen
data_Cu4NiC2
_symmetry_space_group_name_H-M   'P 1'
_cell_length_a   9.79726522
_cell_length_b   9.79726522
_cell_length_c   9.49073951
_cell_angle_alpha   61.03895898
_cell_angle_beta   61.03895898
_cell_angle_gamma   56.95709675
_symmetry_Int_Tables_number   1
_chemical_formula_structural   Cu4NiC2
_chemical_formula_sum   'Cu16 Ni4 C8'
_cell_volume   637.32741697
_cell_formula_units_Z   4
loop_
 _symmetry_equiv_pos_site_id
 _symmetry_equiv_pos_as_xyz
  1  'x, y, z'
loop_
 _atom_site_type_symbol
 _atom_site_label
 _atom_site_symmetry_multiplicity
 _atom_site_fract_x
 _atom_site_fract_y
 _atom_site_fract_z
 _atom_site_occupancy
  C  C0  1  0.03474200  0.96525800  0.25000000  1
  C  C1  1  0.96525800  0.03474200  0.75000000  1
  C  C2  1  0.76957900  0.53570800  0.22526900  1
  C  C3  1  0.46429200  0.23042100  0.27473100  1
  C  C4  1  0.23042100  0.46429200  0.77473100  1
  C  C5  1  0.53570800  0.76957900  0.72526900  1
  C  C6  1  0.43003500  0.56996500  0.25000000  1
  C  C7  1  0.56996500  0.43003500  0.75000000  1
  Ni  Ni8  1  0.85563900  0.33983500  0.93219000  1
  Ni  Ni9  1  0.66016500  0.14436100  0.56781000  1
  Ni  Ni10  1  0.14436100  0.66016500  0.06781000  1
  Ni  Ni11  1  0.33983500  0.85563900  0.43219000  1
  Cu  Cu12  1  0.21725700  0.86530700  0.92100100  1
  Cu  Cu13  1  0.62944100  0.10151200  0.81306700  1
  Cu  Cu14  1  0.32109800  0.42863100  0.02258100  1
  Cu  Cu15  1  0.10151200  0.62944100  0.31306700  1
  Cu  Cu16  1  0.73897600  0.92646300  0.51905100  1
  Cu  Cu17  1  0.78274300  0.13469300  0.07899900  1
  Cu  Cu18  1  0.07353700  0.26102400  0.98094900  1
  Cu  Cu19  1  0.26102400  0.07353700  0.48094900  1
  Cu  Cu20  1  0.92646300  0.73897600  0.01905100  1
  Cu  Cu21  1  0.86530700  0.21725700  0.42100100  1
  Cu  Cu22  1  0.89848800  0.37055900  0.68693300  1
  Cu  Cu23  1  0.37055900  0.89848800  0.18693300  1
  Cu  Cu24  1  0.67890200  0.57136900  0.97741900  1
  Cu  Cu25  1  0.42863100  0.32109800  0.52258100  1
  Cu  Cu26  1  0.13469300  0.78274300  0.57899900  1
  Cu  Cu27  1  0.57136900  0.67890200  0.47741900  1
