# generated using pymatgen
data_Cu4Ni2C7
_symmetry_space_group_name_H-M   'P 1'
_cell_length_a   9.57919000
_cell_length_b   7.45264800
_cell_length_c   9.11572733
_cell_angle_alpha   73.27041647
_cell_angle_beta   90.00000000
_cell_angle_gamma   90.00000000
_symmetry_Int_Tables_number   1
_chemical_formula_structural   Cu4Ni2C7
_chemical_formula_sum   'Cu8 Ni4 C14'
_cell_volume   623.23009535
_cell_formula_units_Z   2
loop_
 _symmetry_equiv_pos_site_id
 _symmetry_equiv_pos_as_xyz
  1  'x, y, z'
loop_
 _atom_site_type_symbol
 _atom_site_label
 _atom_site_symmetry_multiplicity
 _atom_site_fract_x
 _atom_site_fract_y
 _atom_site_fract_z
 _atom_site_occupancy
  C  C0  1  0.28027500  0.50683800  0.11982800  1
  C  C1  1  0.71972500  0.49316200  0.88017200  1
  C  C2  1  0.78027500  0.49316200  0.38017200  1
  C  C3  1  0.21972500  0.50683800  0.61982800  1
  C  C4  1  0.00000000  0.00000000  0.00000000  1
  C  C5  1  0.50000000  0.00000000  0.50000000  1
  C  C6  1  0.04398500  0.81082600  0.20196900  1
  C  C7  1  0.46732300  0.80156700  0.39277900  1
  C  C8  1  0.54398500  0.18917400  0.29803100  1
  C  C9  1  0.03267700  0.80156700  0.89277900  1
  C  C10  1  0.95601500  0.18917400  0.79803100  1
  C  C11  1  0.45601500  0.81082600  0.70196900  1
  C  C12  1  0.53267700  0.19843300  0.60722100  1
  C  C13  1  0.96732300  0.19843300  0.10722100  1
  Ni  Ni14  1  0.75488800  0.90676100  0.53336100  1
  Ni  Ni15  1  0.74511200  0.90676100  0.03336100  1
  Ni  Ni16  1  0.25488800  0.09323900  0.96663900  1
  Ni  Ni17  1  0.24511200  0.09323900  0.46663900  1
  Cu  Cu18  1  0.43066000  0.69564100  0.81663900  1
  Cu  Cu19  1  0.44722900  0.68253500  0.33489900  1
  Cu  Cu20  1  0.94722900  0.31746500  0.16510100  1
  Cu  Cu21  1  0.55277100  0.31746500  0.66510100  1
  Cu  Cu22  1  0.05277100  0.68253500  0.83489900  1
  Cu  Cu23  1  0.93066000  0.30435900  0.68336100  1
  Cu  Cu24  1  0.06934000  0.69564100  0.31663900  1
  Cu  Cu25  1  0.56934000  0.30435900  0.18336100  1
