# generated using pymatgen
data_CuNiC5
_symmetry_space_group_name_H-M   'P 1'
_cell_length_a   11.38265801
_cell_length_b   11.38265801
_cell_length_c   7.30520900
_cell_angle_alpha   90.00000000
_cell_angle_beta   90.00000000
_cell_angle_gamma   120.00000005
_symmetry_Int_Tables_number   1
_chemical_formula_structural   CuNiC5
_chemical_formula_sum   'Cu8 Ni8 C40'
_cell_volume   819.69191663
_cell_formula_units_Z   8
loop_
 _symmetry_equiv_pos_site_id
 _symmetry_equiv_pos_as_xyz
  1  'x, y, z'
loop_
 _atom_site_type_symbol
 _atom_site_label
 _atom_site_symmetry_multiplicity
 _atom_site_fract_x
 _atom_site_fract_y
 _atom_site_fract_z
 _atom_site_occupancy
  Ni  Ni0  1  0.66604200  0.83302100  0.95481000  1
  Ni  Ni1  1  0.33395800  0.16697900  0.45481000  1
  Ni  Ni2  1  0.83302100  0.16697900  0.45481000  1
  Ni  Ni3  1  0.16697900  0.33395800  0.95481000  1
  Ni  Ni4  1  0.16697900  0.83302100  0.95481000  1
  Ni  Ni5  1  0.66666700  0.33333300  0.14288000  1
  Ni  Ni6  1  0.83302100  0.66604200  0.45481000  1
  Ni  Ni7  1  0.33333300  0.66666700  0.64288000  1
  Cu  Cu8  1  0.47082200  0.94164400  0.27771000  1
  Cu  Cu9  1  0.52917800  0.05835600  0.77771000  1
  Cu  Cu10  1  0.94164400  0.47082200  0.77771000  1
  Cu  Cu11  1  0.00000000  0.00000000  0.25160400  1
  Cu  Cu12  1  0.00000000  0.00000000  0.75160400  1
  Cu  Cu13  1  0.47082200  0.52917800  0.27771000  1
  Cu  Cu14  1  0.05835600  0.52917800  0.27771000  1
  Cu  Cu15  1  0.52917800  0.47082200  0.77771000  1
  C  C16  1  0.34260300  0.17130100  0.00542100  1
  C  C17  1  0.17130100  0.82869900  0.50542100  1
  C  C18  1  0.33333300  0.66666700  0.07021100  1
  C  C19  1  0.82869900  0.17130100  0.00542100  1
  C  C20  1  0.65739700  0.82869900  0.50542100  1
  C  C21  1  0.17130100  0.34260300  0.50542100  1
  C  C22  1  0.82869900  0.65739700  0.00542100  1
  C  C23  1  0.66666700  0.33333300  0.57021100  1
  C  C24  1  0.37399300  0.18699700  0.78789700  1
  C  C25  1  0.81300300  0.62600700  0.78789700  1
  C  C26  1  0.18699700  0.81300300  0.28789700  1
  C  C27  1  0.58794400  0.17588900  0.48821500  1
  C  C28  1  0.58794400  0.41205600  0.48821500  1
  C  C29  1  0.91265700  0.82531400  0.03943000  1
  C  C30  1  0.91265700  0.08734300  0.03943000  1
  C  C31  1  0.91438800  0.59045000  0.09935200  1
  C  C32  1  0.59045000  0.91438800  0.59935200  1
  C  C33  1  0.17468600  0.08734300  0.03943000  1
  C  C34  1  0.66666700  0.33333300  0.79275200  1
  C  C35  1  0.32393800  0.40955000  0.59935200  1
  C  C36  1  0.33333300  0.66666700  0.29275200  1
  C  C37  1  0.82531400  0.91265700  0.53943000  1
  C  C38  1  0.67606200  0.08561200  0.09935200  1
  C  C39  1  0.62600700  0.81300300  0.28789700  1
  C  C40  1  0.67606200  0.59045000  0.09935200  1
  C  C41  1  0.41205600  0.58794400  0.98821500  1
  C  C42  1  0.40955000  0.08561200  0.09935200  1
  C  C43  1  0.91438800  0.32393800  0.09935200  1
  C  C44  1  0.32393800  0.91438800  0.59935200  1
  C  C45  1  0.81300300  0.18699700  0.78789700  1
  C  C46  1  0.08734300  0.17468600  0.53943000  1
  C  C47  1  0.17588900  0.58794400  0.98821500  1
  C  C48  1  0.08561200  0.40955000  0.59935200  1
  C  C49  1  0.08561200  0.67606200  0.59935200  1
  C  C50  1  0.82411100  0.41205600  0.48821500  1
  C  C51  1  0.08734300  0.91265700  0.53943000  1
  C  C52  1  0.18699700  0.37399300  0.28789700  1
  C  C53  1  0.59045000  0.67606200  0.59935200  1
  C  C54  1  0.41205600  0.82411100  0.98821500  1
  C  C55  1  0.40955000  0.32393800  0.09935200  1
