# generated using pymatgen
data_Cu16NiC12
_symmetry_space_group_name_H-M   'P 1'
_cell_length_a   6.08317800
_cell_length_b   6.97003200
_cell_length_c   11.24146600
_cell_angle_alpha   90.00000000
_cell_angle_beta   90.00000000
_cell_angle_gamma   90.00000000
_symmetry_Int_Tables_number   1
_chemical_formula_structural   Cu16NiC12
_chemical_formula_sum   'Cu32 Ni2 C24'
_cell_volume   476.63754374
_cell_formula_units_Z   2
loop_
 _symmetry_equiv_pos_site_id
 _symmetry_equiv_pos_as_xyz
  1  'x, y, z'
loop_
 _atom_site_type_symbol
 _atom_site_label
 _atom_site_symmetry_multiplicity
 _atom_site_fract_x
 _atom_site_fract_y
 _atom_site_fract_z
 _atom_site_occupancy
  C  C0  1  0.62766100  0.00000000  0.37230500  1
  C  C1  1  0.37233900  0.50000000  0.87230500  1
  Ni  Ni2  1  0.00296500  0.00000000  0.00060900  1
  Ni  Ni3  1  0.99703500  0.50000000  0.50060900  1
  Cu  Cu4  1  0.28170600  0.00000000  0.20366500  1
  Cu  Cu5  1  0.71829400  0.50000000  0.70366500  1
  Cu  Cu6  1  0.17820700  0.00000000  0.33683100  1
  Cu  Cu7  1  0.82179300  0.50000000  0.83683100  1
  Cu  Cu8  1  0.00530200  0.88224400  0.49085700  1
  Cu  Cu9  1  0.99469800  0.61775600  0.99085700  1
  Cu  Cu10  1  0.99469800  0.38224400  0.99085700  1
  Cu  Cu11  1  0.00530200  0.11775600  0.49085700  1
  Cu  Cu12  1  0.79152200  0.80078000  0.18052200  1
  Cu  Cu13  1  0.20847800  0.69922000  0.68052200  1
  Cu  Cu14  1  0.20847800  0.30078000  0.68052200  1
  Cu  Cu15  1  0.79152200  0.19922000  0.18052200  1
  Cu  Cu16  1  0.82866400  0.68026600  0.30168400  1
  Cu  Cu17  1  0.17133600  0.81973400  0.80168400  1
  Cu  Cu18  1  0.17133600  0.18026600  0.80168400  1
  Cu  Cu19  1  0.82866400  0.31973400  0.30168400  1
  Cu  Cu20  1  0.61973800  0.68120500  0.51432200  1
  Cu  Cu21  1  0.38026200  0.81879500  0.01432200  1
  Cu  Cu22  1  0.38026200  0.18120500  0.01432200  1
  Cu  Cu23  1  0.61973800  0.31879500  0.51432200  1
  Cu  Cu24  1  0.37094000  0.75646200  0.50259400  1
  Cu  Cu25  1  0.62906000  0.74353800  0.00259400  1
  Cu  Cu26  1  0.62906000  0.25646200  0.00259400  1
  Cu  Cu27  1  0.37094000  0.24353800  0.50259400  1
  Cu  Cu28  1  0.77866600  0.00000000  0.78079800  1
  Cu  Cu29  1  0.22133400  0.50000000  0.28079800  1
  Cu  Cu30  1  0.65411500  0.00000000  0.64156800  1
  Cu  Cu31  1  0.34588500  0.50000000  0.14156800  1
  Cu  Cu32  1  0.53453500  0.87981700  0.75140500  1
  Cu  Cu33  1  0.46546500  0.62018300  0.25140500  1
  Cu  Cu34  1  0.46546500  0.37981700  0.25140500  1
  Cu  Cu35  1  0.53453500  0.12018300  0.75140500  1
  C  C36  1  0.62978400  0.00000000  0.73232000  1
  C  C37  1  0.37021600  0.50000000  0.23232000  1
  C  C38  1  0.31691200  0.00000000  0.29087400  1
  C  C39  1  0.68308800  0.50000000  0.79087400  1
  C  C40  1  0.95207700  0.00000000  0.44695800  1
  C  C41  1  0.04792300  0.50000000  0.94695800  1
  C  C42  1  0.72739200  0.77506600  0.26195500  1
  C  C43  1  0.27260800  0.72493400  0.76195500  1
  C  C44  1  0.27260800  0.27506600  0.76195500  1
  C  C45  1  0.72739200  0.22493400  0.26195500  1
  C  C46  1  0.52775200  0.79781800  0.49451600  1
  C  C47  1  0.47224800  0.70218200  0.99451600  1
  C  C48  1  0.47224800  0.29781800  0.99451600  1
  C  C49  1  0.52775200  0.20218200  0.49451600  1
  C  C50  1  0.02146100  0.00000000  0.86226400  1
  C  C51  1  0.97853900  0.50000000  0.36226400  1
  C  C52  1  0.23890200  0.00000000  0.05568000  1
  C  C53  1  0.76109800  0.50000000  0.55568000  1
  C  C54  1  0.88107800  0.81600300  0.04336800  1
  C  C55  1  0.11892200  0.68399700  0.54336800  1
  C  C56  1  0.11892200  0.31600300  0.54336800  1
  C  C57  1  0.88107800  0.18399700  0.04336800  1
