# generated using pymatgen
data_CuNi6C11
_symmetry_space_group_name_H-M   'P 1'
_cell_length_a   12.45795400
_cell_length_b   12.45795400
_cell_length_c   12.45795400
_cell_angle_alpha   90.00000000
_cell_angle_beta   90.00000000
_cell_angle_gamma   90.00000000
_symmetry_Int_Tables_number   1
_chemical_formula_structural   CuNi6C11
_chemical_formula_sum   'Cu4 Ni24 C44'
_cell_volume   1933.48215815
_cell_formula_units_Z   4
loop_
 _symmetry_equiv_pos_site_id
 _symmetry_equiv_pos_as_xyz
  1  'x, y, z'
loop_
 _atom_site_type_symbol
 _atom_site_label
 _atom_site_symmetry_multiplicity
 _atom_site_fract_x
 _atom_site_fract_y
 _atom_site_fract_z
 _atom_site_occupancy
  Ni  Ni0  1  0.45438700  0.18735500  0.30095300  1
  Ni  Ni1  1  0.19904700  0.95438700  0.18735500  1
  Ni  Ni2  1  0.81264500  0.80095300  0.04561300  1
  Ni  Ni3  1  0.80095300  0.45438700  0.31264500  1
  Ni  Ni4  1  0.31264500  0.69904700  0.95438700  1
  Ni  Ni5  1  0.95438700  0.18735500  0.19904700  1
  Ni  Ni6  1  0.18735500  0.30095300  0.45438700  1
  Ni  Ni7  1  0.54561300  0.81264500  0.69904700  1
  Ni  Ni8  1  0.54561300  0.68735500  0.19904700  1
  Ni  Ni9  1  0.68735500  0.30095300  0.04561300  1
  Ni  Ni10  1  0.31264500  0.80095300  0.45438700  1
  Ni  Ni11  1  0.04561300  0.81264500  0.80095300  1
  Ni  Ni12  1  0.19904700  0.54561300  0.68735500  1
  Ni  Ni13  1  0.95438700  0.31264500  0.69904700  1
  Ni  Ni14  1  0.18735500  0.19904700  0.95438700  1
  Ni  Ni15  1  0.30095300  0.04561300  0.68735500  1
  Ni  Ni16  1  0.30095300  0.45438700  0.18735500  1
  Ni  Ni17  1  0.69904700  0.95438700  0.31264500  1
  Ni  Ni18  1  0.45438700  0.31264500  0.80095300  1
  Ni  Ni19  1  0.68735500  0.19904700  0.54561300  1
  Ni  Ni20  1  0.81264500  0.69904700  0.54561300  1
  Ni  Ni21  1  0.04561300  0.68735500  0.30095300  1
  Ni  Ni22  1  0.69904700  0.54561300  0.81264500  1
  Ni  Ni23  1  0.80095300  0.04561300  0.81264500  1
  Cu  Cu24  1  0.50000000  0.50000000  0.50000000  1
  Cu  Cu25  1  0.00000000  0.50000000  0.00000000  1
  Cu  Cu26  1  0.50000000  0.00000000  0.00000000  1
  Cu  Cu27  1  0.00000000  0.00000000  0.50000000  1
  C  C28  1  0.34841700  0.65158300  0.15158300  1
  C  C29  1  0.15158300  0.15158300  0.15158300  1
  C  C30  1  0.34841700  0.84841700  0.65158300  1
  C  C31  1  0.76688700  0.26688700  0.23311300  1
  C  C32  1  0.65158300  0.34841700  0.84841700  1
  C  C33  1  0.23311300  0.76688700  0.26688700  1
  C  C34  1  0.23311300  0.73311300  0.76688700  1
  C  C35  1  0.84841700  0.84841700  0.84841700  1
  C  C36  1  0.65158300  0.15158300  0.34841700  1
  C  C37  1  0.76688700  0.23311300  0.73311300  1
  C  C38  1  0.26688700  0.23311300  0.76688700  1
  C  C39  1  0.84841700  0.65158300  0.34841700  1
  C  C40  1  0.26688700  0.26688700  0.26688700  1
  C  C41  1  0.73311300  0.73311300  0.73311300  1
  C  C42  1  0.73311300  0.76688700  0.23311300  1
  C  C43  1  0.15158300  0.34841700  0.65158300  1
  C  C44  1  0.54419400  0.68739500  0.46186100  1
  C  C45  1  0.53813900  0.04419400  0.81260500  1
  C  C46  1  0.03813900  0.04419400  0.68739500  1
  C  C47  1  0.95580600  0.31260500  0.96186100  1
  C  C48  1  0.31260500  0.53813900  0.45580600  1
  C  C49  1  0.31260500  0.96186100  0.95580600  1
  C  C50  1  0.46186100  0.54419400  0.68739500  1
  C  C51  1  0.00000000  0.00000000  0.00000000  1
  C  C52  1  0.03813900  0.45580600  0.18739500  1
  C  C53  1  0.18739500  0.03813900  0.45580600  1
  C  C54  1  0.95580600  0.18739500  0.46186100  1
  C  C55  1  0.81260500  0.53813900  0.04419400  1
  C  C56  1  0.68739500  0.03813900  0.04419400  1
  C  C57  1  0.45580600  0.18739500  0.03813900  1
  C  C58  1  0.81260500  0.96186100  0.54419400  1
  C  C59  1  0.68739500  0.46186100  0.54419400  1
  C  C60  1  0.50000000  0.00000000  0.50000000  1
  C  C61  1  0.00000000  0.50000000  0.50000000  1
  C  C62  1  0.50000000  0.50000000  0.00000000  1
  C  C63  1  0.04419400  0.68739500  0.03813900  1
  C  C64  1  0.04419400  0.81260500  0.53813900  1
  C  C65  1  0.46186100  0.95580600  0.18739500  1
  C  C66  1  0.96186100  0.54419400  0.81260500  1
  C  C67  1  0.54419400  0.81260500  0.96186100  1
  C  C68  1  0.45580600  0.31260500  0.53813900  1
  C  C69  1  0.53813900  0.45580600  0.31260500  1
  C  C70  1  0.18739500  0.46186100  0.95580600  1
  C  C71  1  0.96186100  0.95580600  0.31260500  1
