# generated using pymatgen
data_Cu2Ni5C29
_symmetry_space_group_name_H-M   'P 1'
_cell_length_a   13.11040492
_cell_length_b   13.11040492
_cell_length_c   14.82861876
_cell_angle_alpha   75.77433041
_cell_angle_beta   75.77433041
_cell_angle_gamma   31.80542308
_symmetry_Int_Tables_number   1
_chemical_formula_structural   Cu2Ni5C29
_chemical_formula_sum   'Cu4 Ni10 C58'
_cell_volume   1298.70829506
_cell_formula_units_Z   2
loop_
 _symmetry_equiv_pos_site_id
 _symmetry_equiv_pos_as_xyz
  1  'x, y, z'
loop_
 _atom_site_type_symbol
 _atom_site_label
 _atom_site_symmetry_multiplicity
 _atom_site_fract_x
 _atom_site_fract_y
 _atom_site_fract_z
 _atom_site_occupancy
  C  C0  1  0.78768000  0.28572400  0.45156800  1
  C  C1  1  0.62305800  0.11678400  0.61361600  1
  C  C2  1  0.93240100  0.48648200  0.32662200  1
  C  C3  1  0.06759900  0.51351800  0.67337800  1
  C  C4  1  0.71427600  0.21232000  0.04843200  1
  C  C5  1  0.37694200  0.88321600  0.38638400  1
  C  C6  1  0.88321600  0.37694200  0.88638400  1
  C  C7  1  0.11678400  0.62305800  0.11361600  1
  C  C8  1  0.48648200  0.93240100  0.82662200  1
  C  C9  1  0.51351800  0.06759900  0.17337800  1
  C  C10  1  0.28572400  0.78768000  0.95156800  1
  C  C11  1  0.21232000  0.71427600  0.54843200  1
  Ni  Ni12  1  0.81368700  0.89349600  0.88350200  1
  Ni  Ni13  1  0.52748100  0.63825800  0.67184600  1
  Ni  Ni14  1  0.10650400  0.18631300  0.61649800  1
  Ni  Ni15  1  0.18631300  0.10650400  0.11649800  1
  Ni  Ni16  1  0.36174200  0.47251900  0.82815400  1
  Ni  Ni17  1  0.47251900  0.36174200  0.32815400  1
  Ni  Ni18  1  0.08390800  0.91609200  0.25000000  1
  Ni  Ni19  1  0.91609200  0.08390800  0.75000000  1
  Ni  Ni20  1  0.63825800  0.52748100  0.17184600  1
  Ni  Ni21  1  0.89349600  0.81368700  0.38350200  1
  Cu  Cu22  1  0.32967100  0.23461500  0.42997300  1
  Cu  Cu23  1  0.67032900  0.76538500  0.57002700  1
  Cu  Cu24  1  0.23461500  0.32967100  0.92997300  1
  Cu  Cu25  1  0.76538500  0.67032900  0.07002700  1
  C  C26  1  0.15524300  0.17754200  0.72735500  1
  C  C27  1  0.80281200  0.06566200  0.31688300  1
  C  C28  1  0.46015200  0.32397900  0.21900000  1
  C  C29  1  0.68624700  0.15925600  0.81956200  1
  C  C30  1  0.24733000  0.23619300  0.54254600  1
  C  C31  1  0.51006000  0.48994000  0.25000000  1
  C  C32  1  0.15925600  0.68624700  0.31956200  1
  C  C33  1  0.75267000  0.76380700  0.45745400  1
  C  C34  1  0.06935300  0.88504200  0.13869700  1
  C  C35  1  0.32397900  0.46015200  0.71900000  1
  C  C36  1  0.85524400  0.65919900  0.14257600  1
  C  C37  1  0.11495800  0.93064700  0.36130300  1
  C  C38  1  0.76380700  0.75267000  0.95745400  1
  C  C39  1  0.65919900  0.85524400  0.64257600  1
  C  C40  1  0.79862300  0.94035300  0.99864900  1
  C  C41  1  0.51495800  0.61071700  0.55792400  1
  C  C42  1  0.84475700  0.82245800  0.27264500  1
  C  C43  1  0.23619300  0.24733000  0.04254600  1
  C  C44  1  0.34080100  0.14475600  0.35742400  1
  C  C45  1  0.83256400  0.52644500  0.61056000  1
  C  C46  1  0.67602100  0.53984800  0.28100000  1
  C  C47  1  0.12531900  0.55022200  0.91851100  1
  C  C48  1  0.93433800  0.19718800  0.18311700  1
  C  C49  1  0.31375300  0.84074400  0.18043800  1
  C  C50  1  0.14475600  0.34080100  0.85742400  1
  C  C51  1  0.88504200  0.06935300  0.63869700  1
  C  C52  1  0.52644500  0.83256400  0.11056000  1
  C  C53  1  0.55022200  0.12531900  0.41851100  1
  C  C54  1  0.48994000  0.51006000  0.75000000  1
  C  C55  1  0.06566200  0.80281200  0.81688300  1
  C  C56  1  0.19718800  0.93433800  0.68311700  1
  C  C57  1  0.93064700  0.11495800  0.86130300  1
  C  C58  1  0.16743600  0.47355500  0.38944000  1
  C  C59  1  0.38928300  0.48504200  0.94207600  1
  C  C60  1  0.47355500  0.16743600  0.88944000  1
  C  C61  1  0.20137700  0.05964700  0.00135100  1
  C  C62  1  0.05964700  0.20137700  0.50135100  1
  C  C63  1  0.44977800  0.87468100  0.58148900  1
  C  C64  1  0.48504200  0.38928300  0.44207600  1
  C  C65  1  0.82245800  0.84475700  0.77264500  1
  C  C66  1  0.61071700  0.51495800  0.05792400  1
  C  C67  1  0.94035300  0.79862300  0.49864900  1
  C  C68  1  0.84074400  0.31375300  0.68043800  1
  C  C69  1  0.53984800  0.67602100  0.78100000  1
  C  C70  1  0.87468100  0.44977800  0.08148900  1
  C  C71  1  0.17754200  0.15524300  0.22735500  1
