# generated using pymatgen
data_Cu22Ni6C53
_symmetry_space_group_name_H-M   'P 1'
_cell_length_a   3.62743900
_cell_length_b   3.73140900
_cell_length_c   74.42937500
_cell_angle_alpha   90.00000000
_cell_angle_beta   90.00000000
_cell_angle_gamma   90.00000000
_symmetry_Int_Tables_number   1
_chemical_formula_structural   Cu22Ni6C53
_chemical_formula_sum   'Cu22 Ni6 C53'
_cell_volume   1007.43571884
_cell_formula_units_Z   1
loop_
 _symmetry_equiv_pos_site_id
 _symmetry_equiv_pos_as_xyz
  1  'x, y, z'
loop_
 _atom_site_type_symbol
 _atom_site_label
 _atom_site_symmetry_multiplicity
 _atom_site_fract_x
 _atom_site_fract_y
 _atom_site_fract_z
 _atom_site_occupancy
  Ni  Ni0  1  0.50000000  0.50000000  0.60407400  1
  Ni  Ni1  1  0.50000000  0.50000000  0.74797300  1
  Ni  Ni2  1  0.50000000  0.50000000  0.68100600  1
  Ni  Ni3  1  0.50000000  0.50000000  0.89120000  1
  Ni  Ni4  1  0.50000000  0.50000000  0.82423900  1
  Ni  Ni5  1  0.50000000  0.50000000  0.96686900  1
  Cu  Cu6  1  0.00000000  0.00000000  0.00136600  1
  Cu  Cu7  1  0.50000000  0.50000000  0.10729800  1
  Cu  Cu8  1  0.50000000  0.50000000  0.03632000  1
  Cu  Cu9  1  0.50000000  0.50000000  0.25008000  1
  Cu  Cu10  1  0.50000000  0.50000000  0.17862700  1
  Cu  Cu11  1  0.50000000  0.50000000  0.39313800  1
  Cu  Cu12  1  0.50000000  0.50000000  0.32159000  1
  Cu  Cu13  1  0.50000000  0.50000000  0.46456800  1
  Cu  Cu14  1  0.50000000  0.50000000  0.53538300  1
  Cu  Cu15  1  0.00000000  0.00000000  0.07209100  1
  Cu  Cu16  1  0.00000000  0.00000000  0.14330900  1
  Cu  Cu17  1  0.00000000  0.00000000  0.28621100  1
  Cu  Cu18  1  0.00000000  0.00000000  0.35774500  1
  Cu  Cu19  1  0.00000000  0.00000000  0.21472200  1
  Cu  Cu20  1  0.00000000  0.00000000  0.50039700  1
  Cu  Cu21  1  0.00000000  0.00000000  0.57047000  1
  Cu  Cu22  1  0.00000000  0.00000000  0.42925700  1
  Cu  Cu23  1  0.00000000  0.00000000  0.63919900  1
  Cu  Cu24  1  0.00000000  0.00000000  0.71459300  1
  Cu  Cu25  1  0.00000000  0.00000000  0.78285300  1
  Cu  Cu26  1  0.00000000  0.00000000  0.92612200  1
  Cu  Cu27  1  0.00000000  0.00000000  0.85780700  1
  C  C28  1  0.00000000  0.50000000  0.01483100  1
  C  C29  1  0.00000000  0.50000000  0.05008500  1
  C  C30  1  0.00000000  0.50000000  0.08530600  1
  C  C31  1  0.00000000  0.50000000  0.12094600  1
  C  C32  1  0.00000000  0.50000000  0.15645400  1
  C  C33  1  0.00000000  0.50000000  0.19224300  1
  C  C34  1  0.00000000  0.50000000  0.26368500  1
  C  C35  1  0.00000000  0.50000000  0.29933000  1
  C  C36  1  0.00000000  0.50000000  0.33519700  1
  C  C37  1  0.00000000  0.50000000  0.37087900  1
  C  C38  1  0.00000000  0.50000000  0.40679100  1
  C  C39  1  0.00000000  0.50000000  0.47845800  1
  C  C40  1  0.00000000  0.50000000  0.55027300  1
  C  C41  1  0.00000000  0.50000000  0.62913000  1
  C  C42  1  0.00000000  0.50000000  0.69597700  1
  C  C43  1  0.00000000  0.50000000  0.77304600  1
  C  C44  1  0.00000000  0.50000000  0.83910200  1
  C  C45  1  0.00000000  0.50000000  0.91614500  1
  C  C46  1  0.00000000  0.50000000  0.98038600  1
  C  C47  1  0.50000000  0.00000000  0.02225400  1
  C  C48  1  0.50000000  0.00000000  0.09343500  1
  C  C49  1  0.50000000  0.00000000  0.16482100  1
  C  C50  1  0.50000000  0.00000000  0.23629100  1
  C  C51  1  0.50000000  0.00000000  0.30780400  1
  C  C52  1  0.50000000  0.00000000  0.37932800  1
  C  C53  1  0.50000000  0.00000000  0.52072600  1
  C  C54  1  0.50000000  0.00000000  0.58832800  1
  C  C55  1  0.50000000  0.00000000  0.65972400  1
  C  C56  1  0.50000000  0.00000000  0.45060200  1
  C  C57  1  0.50000000  0.00000000  0.73164900  1
  C  C58  1  0.50000000  0.00000000  0.80314900  1
  C  C59  1  0.50000000  0.00000000  0.87496600  1
  C  C60  1  0.50000000  0.00000000  0.94659600  1
  C  C61  1  0.50000000  0.00000000  0.12899800  1
  C  C62  1  0.50000000  0.00000000  0.05768400  1
  C  C63  1  0.50000000  0.00000000  0.20044000  1
  C  C64  1  0.50000000  0.00000000  0.27193800  1
  C  C65  1  0.50000000  0.00000000  0.34346600  1
  C  C66  1  0.50000000  0.00000000  0.48575000  1
  C  C67  1  0.50000000  0.00000000  0.62447800  1
  C  C68  1  0.50000000  0.00000000  0.41492100  1
  C  C69  1  0.50000000  0.00000000  0.55462700  1
  C  C70  1  0.50000000  0.00000000  0.76798100  1
  C  C71  1  0.50000000  0.00000000  0.69793700  1
  C  C72  1  0.50000000  0.00000000  0.84123900  1
  C  C73  1  0.50000000  0.00000000  0.91135900  1
  C  C74  1  0.50000000  0.00000000  0.98661100  1
  C  C75  1  0.00000000  0.50000000  0.22784500  1
  C  C76  1  0.00000000  0.50000000  0.44250900  1
  C  C77  1  0.00000000  0.50000000  0.51418800  1
  C  C78  1  0.00000000  0.50000000  0.58601800  1
  C  C79  1  0.00000000  0.50000000  0.73079900  1
  C  C80  1  0.00000000  0.50000000  0.87390900  1
