# generated using pymatgen
data_CuNi4C15
_symmetry_space_group_name_H-M   'P 1'
_cell_length_a   5.87708756
_cell_length_b   5.87708756
_cell_length_c   19.44966800
_cell_angle_alpha   90.00000000
_cell_angle_beta   90.00000000
_cell_angle_gamma   119.99999504
_symmetry_Int_Tables_number   1
_chemical_formula_structural   CuNi4C15
_chemical_formula_sum   'Cu2 Ni8 C30'
_cell_volume   581.79122690
_cell_formula_units_Z   2
loop_
 _symmetry_equiv_pos_site_id
 _symmetry_equiv_pos_as_xyz
  1  'x, y, z'
loop_
 _atom_site_type_symbol
 _atom_site_label
 _atom_site_symmetry_multiplicity
 _atom_site_fract_x
 _atom_site_fract_y
 _atom_site_fract_z
 _atom_site_occupancy
  Ni  Ni0  1  0.00000000  0.00000000  0.11732000  1
  Ni  Ni1  1  0.00000000  0.00000000  0.61732000  1
  Ni  Ni2  1  0.33333300  0.66666700  0.37263200  1
  Ni  Ni3  1  0.66666700  0.33333300  0.87263200  1
  Ni  Ni4  1  0.66666700  0.33333300  0.49720900  1
  Ni  Ni5  1  0.33333300  0.66666700  0.99720900  1
  Ni  Ni6  1  0.33333300  0.66666700  0.74580300  1
  Ni  Ni7  1  0.66666700  0.33333300  0.24580300  1
  Cu  Cu8  1  0.33333300  0.66666700  0.55971700  1
  Cu  Cu9  1  0.66666700  0.33333300  0.05971700  1
  C  C10  1  0.00000000  0.00000000  0.29905000  1
  C  C11  1  0.00000000  0.00000000  0.79905000  1
  C  C12  1  0.00000000  0.00000000  0.43591700  1
  C  C13  1  0.00000000  0.00000000  0.93591700  1
  C  C14  1  0.33333300  0.66666700  0.18332100  1
  C  C15  1  0.66666700  0.33333300  0.68332100  1
  C  C16  1  0.16537600  0.33075200  0.24450700  1
  C  C17  1  0.83462400  0.16537600  0.74450700  1
  C  C18  1  0.33075200  0.16537600  0.74450700  1
  C  C19  1  0.66924800  0.83462400  0.24450700  1
  C  C20  1  0.16537600  0.83462400  0.24450700  1
  C  C21  1  0.83462400  0.66924800  0.74450700  1
  C  C22  1  0.30446900  0.15223400  0.36431300  1
  C  C23  1  0.15223400  0.30446900  0.86431300  1
  C  C24  1  0.15223400  0.84776600  0.86431300  1
  C  C25  1  0.84776600  0.15223400  0.36431300  1
  C  C26  1  0.84776600  0.69553100  0.36431300  1
  C  C27  1  0.69553100  0.84776600  0.86431300  1
  C  C28  1  0.15639700  0.31279300  0.48844800  1
  C  C29  1  0.84360300  0.15639700  0.98844800  1
  C  C30  1  0.31279300  0.15639700  0.98844800  1
  C  C31  1  0.68720700  0.84360300  0.48844800  1
  C  C32  1  0.15639700  0.84360300  0.48844800  1
  C  C33  1  0.84360300  0.68720700  0.98844800  1
  C  C34  1  0.51348500  0.48651500  0.62840300  1
  C  C35  1  0.02697100  0.51348500  0.12840300  1
  C  C36  1  0.48651500  0.97302900  0.12840300  1
  C  C37  1  0.51348500  0.02697100  0.62840300  1
  C  C38  1  0.97302900  0.48651500  0.62840300  1
  C  C39  1  0.48651500  0.51348500  0.12840300  1
