# generated using pymatgen
data_Cu4NiC8
_symmetry_space_group_name_H-M   'P 1'
_cell_length_a   4.97249500
_cell_length_b   11.81134500
_cell_length_c   21.27813000
_cell_angle_alpha   90.00000000
_cell_angle_beta   90.00000000
_cell_angle_gamma   90.00000000
_symmetry_Int_Tables_number   1
_chemical_formula_structural   Cu4NiC8
_chemical_formula_sum   'Cu32 Ni8 C64'
_cell_volume   1249.70402361
_cell_formula_units_Z   8
loop_
 _symmetry_equiv_pos_site_id
 _symmetry_equiv_pos_as_xyz
  1  'x, y, z'
loop_
 _atom_site_type_symbol
 _atom_site_label
 _atom_site_symmetry_multiplicity
 _atom_site_fract_x
 _atom_site_fract_y
 _atom_site_fract_z
 _atom_site_occupancy
  C  C0  1  0.93598600  0.22676100  0.01051200  1
  C  C1  1  0.43598600  0.27323900  0.51051200  1
  C  C2  1  0.46676100  0.15032800  0.79779500  1
  C  C3  1  0.46676100  0.65032800  0.70220500  1
  C  C4  1  0.43598600  0.77323900  0.98948800  1
  C  C5  1  0.93598600  0.72676100  0.48948800  1
  C  C6  1  0.96676100  0.34967200  0.29779500  1
  C  C7  1  0.96676100  0.84967200  0.20220500  1
  Ni  Ni8  1  0.22987400  0.65995600  0.84829300  1
  Ni  Ni9  1  0.72987400  0.34004400  0.15170700  1
  Ni  Ni10  1  0.73763200  0.66122000  0.84972100  1
  Ni  Ni11  1  0.23763200  0.83878000  0.34972100  1
  Ni  Ni12  1  0.23763200  0.33878000  0.15027900  1
  Ni  Ni13  1  0.72987400  0.84004400  0.34829300  1
  Ni  Ni14  1  0.73763200  0.16122000  0.65027900  1
  Ni  Ni15  1  0.22987400  0.15995600  0.65170700  1
  Cu  Cu16  1  0.45783300  0.96604200  0.11027100  1
  Cu  Cu17  1  0.46880300  0.92886100  0.69962000  1
  Cu  Cu18  1  0.94968600  0.80988300  0.63909300  1
  Cu  Cu19  1  0.47072800  0.89853700  0.84690900  1
  Cu  Cu20  1  0.47072800  0.39853700  0.65309100  1
  Cu  Cu21  1  0.45783300  0.46604200  0.38972900  1
  Cu  Cu22  1  0.45975200  0.49888100  0.04424200  1
  Cu  Cu23  1  0.44968600  0.19011700  0.36090700  1
  Cu  Cu24  1  0.96880300  0.57113900  0.19962000  1
  Cu  Cu25  1  0.96880300  0.07113900  0.30038000  1
  Cu  Cu26  1  0.95717100  0.93981200  0.03331600  1
  Cu  Cu27  1  0.94658700  0.16232500  0.43470100  1
  Cu  Cu28  1  0.46889800  0.14079400  0.22330100  1
  Cu  Cu29  1  0.94658700  0.66232500  0.06529900  1
  Cu  Cu30  1  0.95717100  0.43981200  0.46668400  1
  Cu  Cu31  1  0.94968600  0.30988300  0.86090700  1
  Cu  Cu32  1  0.95975200  0.50111900  0.95575800  1
  Cu  Cu33  1  0.44658700  0.33767500  0.93470100  1
  Cu  Cu34  1  0.44658700  0.83767500  0.56529900  1
  Cu  Cu35  1  0.96889800  0.85920600  0.77669900  1
  Cu  Cu36  1  0.45717100  0.56018800  0.53331600  1
  Cu  Cu37  1  0.46880300  0.42886100  0.80038000  1
  Cu  Cu38  1  0.97072800  0.60146300  0.34690900  1
  Cu  Cu39  1  0.96889800  0.35920600  0.72330100  1
  Cu  Cu40  1  0.44968600  0.69011700  0.13909300  1
  Cu  Cu41  1  0.45717100  0.06018800  0.96668400  1
  Cu  Cu42  1  0.95975200  0.00111900  0.54424200  1
  Cu  Cu43  1  0.95783300  0.03395800  0.88972900  1
  Cu  Cu44  1  0.45975200  0.99888100  0.45575800  1
  Cu  Cu45  1  0.95783300  0.53395800  0.61027100  1
  Cu  Cu46  1  0.46889800  0.64079400  0.27669900  1
  Cu  Cu47  1  0.97072800  0.10146300  0.15309100  1
  C  C48  1  0.29082500  0.13220300  0.29463000  1
  C  C49  1  0.80269900  0.08861500  0.22686600  1
  C  C50  1  0.80505300  0.00292400  0.10168800  1
  C  C51  1  0.30269900  0.41138500  0.72686600  1
  C  C52  1  0.42565800  0.70387800  0.53259800  1
  C  C53  1  0.80123300  0.51054900  0.53346900  1
  C  C54  1  0.98569900  0.93281800  0.31473000  1
  C  C55  1  0.80123300  0.01054900  0.96653100  1
  C  C56  1  0.29745400  0.34474800  0.85797300  1
  C  C57  1  0.48569900  0.56718200  0.81473000  1
  C  C58  1  0.79745400  0.65525200  0.14202700  1
  C  C59  1  0.98280300  0.71974700  0.79282600  1
  C  C60  1  0.27830400  0.94429400  0.52096400  1
  C  C61  1  0.29745400  0.84474800  0.64202700  1
  C  C62  1  0.77830400  0.05570600  0.47903600  1
  C  C63  1  0.98987600  0.10757900  0.59494100  1
  C  C64  1  0.97876900  0.73371200  0.37552800  1
  C  C65  1  0.30004400  0.55318700  0.33300200  1
  C  C66  1  0.80505300  0.50292400  0.39831200  1
  C  C67  1  0.48280300  0.78025300  0.29282600  1
  C  C68  1  0.78973900  0.87808700  0.57322900  1
  C  C69  1  0.91186500  0.66887900  0.63253800  1
  C  C70  1  0.77830400  0.55570600  0.02096400  1
  C  C71  1  0.98987600  0.60757900  0.90505900  1
  C  C72  1  0.80004400  0.94681300  0.83300200  1
  C  C73  1  0.48987600  0.39242100  0.09494100  1
  C  C74  1  0.28973900  0.62191300  0.07322900  1
  C  C75  1  0.30505300  0.49707600  0.60168800  1
  C  C76  1  0.41186500  0.33112100  0.36746200  1
  C  C77  1  0.98280300  0.21974700  0.70717400  1
  C  C78  1  0.91186500  0.16887900  0.86746200  1
  C  C79  1  0.98569900  0.43281800  0.18527000  1
  C  C80  1  0.29082500  0.63220300  0.20537000  1
  C  C81  1  0.92565800  0.79612200  0.03259800  1
  C  C82  1  0.27830400  0.44429400  0.97903600  1
  C  C83  1  0.30269900  0.91138500  0.77313400  1
  C  C84  1  0.41186500  0.83112100  0.13253800  1
  C  C85  1  0.80269900  0.58861500  0.27313400  1
  C  C86  1  0.80004400  0.44681300  0.66699800  1
  C  C87  1  0.30004400  0.05318700  0.16699800  1
  C  C88  1  0.47876900  0.26628800  0.62447200  1
  C  C89  1  0.42565800  0.20387800  0.96740200  1
  C  C90  1  0.79745400  0.15525200  0.35797300  1
  C  C91  1  0.78973900  0.37808700  0.92677100  1
  C  C92  1  0.48280300  0.28025300  0.20717400  1
  C  C93  1  0.79082500  0.86779700  0.70537000  1
  C  C94  1  0.48569900  0.06718200  0.68527000  1
  C  C95  1  0.79082500  0.36779700  0.79463000  1
  C  C96  1  0.28973900  0.12191300  0.42677100  1
  C  C97  1  0.47876900  0.76628800  0.87552800  1
  C  C98  1  0.30123300  0.98945100  0.03346900  1
  C  C99  1  0.30505300  0.99707600  0.89831200  1
  C  C100  1  0.48987600  0.89242100  0.40505900  1
  C  C101  1  0.97876900  0.23371200  0.12447200  1
  C  C102  1  0.30123300  0.48945100  0.46653100  1
  C  C103  1  0.92565800  0.29612200  0.46740200  1
