# generated using pymatgen
data_CuNiC10
_symmetry_space_group_name_H-M   'P 1'
_cell_length_a   5.15802200
_cell_length_b   10.44247700
_cell_length_c   12.60045100
_cell_angle_alpha   90.00000000
_cell_angle_beta   90.00000000
_cell_angle_gamma   90.00000000
_symmetry_Int_Tables_number   1
_chemical_formula_structural   CuNiC10
_chemical_formula_sum   'Cu4 Ni4 C40'
_cell_volume   678.69212087
_cell_formula_units_Z   4
loop_
 _symmetry_equiv_pos_site_id
 _symmetry_equiv_pos_as_xyz
  1  'x, y, z'
loop_
 _atom_site_type_symbol
 _atom_site_label
 _atom_site_symmetry_multiplicity
 _atom_site_fract_x
 _atom_site_fract_y
 _atom_site_fract_z
 _atom_site_occupancy
  Ni  Ni0  1  0.00874900  0.75642900  0.00000000  1
  Ni  Ni1  1  0.49794000  0.49047600  0.50000000  1
  Ni  Ni2  1  0.50206000  0.99047600  0.50000000  1
  Ni  Ni3  1  0.99125100  0.25642900  0.00000000  1
  Cu  Cu4  1  0.03848400  0.47487200  0.24989800  1
  Cu  Cu5  1  0.96151600  0.97487200  0.24989800  1
  Cu  Cu6  1  0.03848400  0.47487200  0.75010200  1
  Cu  Cu7  1  0.96151600  0.97487200  0.75010200  1
  C  C8  1  0.53233900  0.27306400  0.74873100  1
  C  C9  1  0.53233900  0.27306400  0.25126900  1
  C  C10  1  0.46766100  0.77306400  0.25126900  1
  C  C11  1  0.46766100  0.77306400  0.74873100  1
  C  C12  1  0.98104900  0.71938200  0.38262600  1
  C  C13  1  0.01895100  0.21938200  0.61737400  1
  C  C14  1  0.98104900  0.71938200  0.61737400  1
  C  C15  1  0.01895100  0.21938200  0.38262600  1
  C  C16  1  0.53468900  0.52452300  0.11780200  1
  C  C17  1  0.53468900  0.52452300  0.88219800  1
  C  C18  1  0.46531100  0.02452300  0.88219800  1
  C  C19  1  0.46531100  0.02452300  0.11780200  1
  C  C20  1  0.82574800  0.51351900  0.87273200  1
  C  C21  1  0.61622900  0.93348100  0.80746900  1
  C  C22  1  0.31640200  0.23199600  0.62554900  1
  C  C23  1  0.57029500  0.16248100  0.12706700  1
  C  C24  1  0.57029500  0.16248100  0.87293300  1
  C  C25  1  0.91881100  0.08396100  0.62651400  1
  C  C26  1  0.11782900  0.81488500  0.30696800  1
  C  C27  1  0.94469800  0.27582500  0.50000000  1
  C  C28  1  0.91881100  0.08396100  0.37348600  1
  C  C29  1  0.61622900  0.93348100  0.19253100  1
  C  C30  1  0.82574800  0.51351900  0.12726800  1
  C  C31  1  0.31640200  0.23199600  0.37445100  1
  C  C32  1  0.17425200  0.01351900  0.12726800  1
  C  C33  1  0.38377100  0.43348100  0.80746900  1
  C  C34  1  0.08118900  0.58396100  0.37348600  1
  C  C35  1  0.17425200  0.01351900  0.87273200  1
  C  C36  1  0.88217100  0.31488500  0.69303200  1
  C  C37  1  0.44478900  0.47584400  0.00000000  1
  C  C38  1  0.42970500  0.66248100  0.12706700  1
  C  C39  1  0.55521100  0.97584400  0.00000000  1
  C  C40  1  0.11782900  0.81488500  0.69303200  1
  C  C41  1  0.88217100  0.31488500  0.30696800  1
  C  C42  1  0.08118900  0.58396100  0.62651400  1
  C  C43  1  0.42970500  0.66248100  0.87293300  1
  C  C44  1  0.68359800  0.73199600  0.62554900  1
  C  C45  1  0.68359800  0.73199600  0.37445100  1
  C  C46  1  0.05530200  0.77582500  0.50000000  1
  C  C47  1  0.38377100  0.43348100  0.19253100  1
