# generated using pymatgen
data_Cu2NiC8
_symmetry_space_group_name_H-M   'P 1'
_cell_length_a   17.99512937
_cell_length_b   17.99512937
_cell_length_c   6.30578900
_cell_angle_alpha   90.00000000
_cell_angle_beta   90.00000000
_cell_angle_gamma   119.99999769
_symmetry_Int_Tables_number   1
_chemical_formula_structural   Cu2NiC8
_chemical_formula_sum   'Cu18 Ni9 C72'
_cell_volume   1768.39803208
_cell_formula_units_Z   9
loop_
 _symmetry_equiv_pos_site_id
 _symmetry_equiv_pos_as_xyz
  1  'x, y, z'
loop_
 _atom_site_type_symbol
 _atom_site_label
 _atom_site_symmetry_multiplicity
 _atom_site_fract_x
 _atom_site_fract_y
 _atom_site_fract_z
 _atom_site_occupancy
  Ni  Ni0  1  0.33373200  0.00031800  0.24685100  1
  Ni  Ni1  1  0.99968200  0.33341400  0.24685100  1
  Ni  Ni2  1  0.66666700  0.33333300  0.49632000  1
  Ni  Ni3  1  0.00031800  0.66658600  0.75314900  1
  Ni  Ni4  1  0.33333300  0.66666700  0.50368000  1
  Ni  Ni5  1  0.66626800  0.99968200  0.75314900  1
  Ni  Ni6  1  0.66658600  0.66626800  0.24685100  1
  Ni  Ni7  1  0.33341400  0.33373200  0.75314900  1
  Ni  Ni8  1  0.00000000  0.00000000  0.00000000  1
  Cu  Cu9  1  0.10260300  0.50381600  0.74287300  1
  Cu  Cu10  1  0.17044400  0.73442300  0.24095900  1
  Cu  Cu11  1  0.26557700  0.43602100  0.24095900  1
  Cu  Cu12  1  0.23116700  0.16479900  0.25767300  1
  Cu  Cu13  1  0.16479900  0.93363200  0.74232700  1
  Cu  Cu14  1  0.06636800  0.23116700  0.74232700  1
  Cu  Cu15  1  0.82955600  0.26557700  0.75904100  1
  Cu  Cu16  1  0.56397900  0.82955600  0.24095900  1
  Cu  Cu17  1  0.40121300  0.89739700  0.74287300  1
  Cu  Cu18  1  0.50381600  0.40121300  0.25712700  1
  Cu  Cu19  1  0.49618400  0.59878700  0.74287300  1
  Cu  Cu20  1  0.59878700  0.10260300  0.25712700  1
  Cu  Cu21  1  0.83520100  0.06636800  0.25767300  1
  Cu  Cu22  1  0.89739700  0.49618400  0.25712700  1
  Cu  Cu23  1  0.73442300  0.56397900  0.75904100  1
  Cu  Cu24  1  0.43602100  0.17044400  0.75904100  1
  Cu  Cu25  1  0.76883300  0.83520100  0.74232700  1
  Cu  Cu26  1  0.93363200  0.76883300  0.25767300  1
  C  C27  1  0.54695200  0.25335200  0.70607900  1
  C  C28  1  0.58765400  0.37260200  0.28288600  1
  C  C29  1  0.75778400  0.78718500  0.48751500  1
  C  C30  1  0.03610900  0.11938800  0.79244900  1
  C  C31  1  0.21690600  0.84730700  0.22069800  1
  C  C32  1  0.88185600  0.17934800  0.23892000  1
  C  C33  1  0.63215100  0.08202100  0.00772000  1
  C  C34  1  0.63040100  0.78309400  0.22069800  1
  C  C35  1  0.08327900  0.96389100  0.79244900  1
  C  C36  1  0.29749200  0.11814400  0.23892000  1
  C  C37  1  0.70250800  0.88185600  0.76108000  1
  C  C38  1  0.24221600  0.21281500  0.51248500  1
  C  C39  1  0.65408900  0.08178900  0.46399700  1
  C  C40  1  0.91797900  0.55012900  0.00772000  1
  C  C41  1  0.69660600  0.59918100  0.54126000  1
  C  C42  1  0.45304800  0.74664800  0.29392100  1
  C  C43  1  0.24660600  0.98396600  0.94005000  1
  C  C44  1  0.54904400  0.51361200  0.28700800  1
  C  C45  1  0.30339400  0.40081900  0.45874000  1
  C  C46  1  0.59918100  0.90257500  0.45874000  1
  C  C47  1  0.55012900  0.63215100  0.99228000  1
  C  C48  1  0.57074900  0.88721700  0.00302600  1
  C  C49  1  0.57230000  0.65408900  0.53600300  1
  C  C50  1  0.21505200  0.58765400  0.71711400  1
  C  C51  1  0.51361200  0.96456800  0.71299200  1
  C  C52  1  0.78494800  0.41234600  0.28288600  1
  C  C53  1  0.02940100  0.24221600  0.48751500  1
  C  C54  1  0.34591100  0.91821100  0.53600300  1
  C  C55  1  0.42770000  0.34591100  0.46399700  1
  C  C56  1  0.70640000  0.45304800  0.70607900  1
  C  C57  1  0.88061200  0.91672100  0.79244900  1
  C  C58  1  0.91672100  0.03610900  0.20755100  1
  C  C59  1  0.78309400  0.15269300  0.77930200  1
  C  C60  1  0.11814400  0.82065200  0.76108000  1
  C  C61  1  0.88721700  0.31646900  0.99697400  1
  C  C62  1  0.03543200  0.54904400  0.71299200  1
  C  C63  1  0.31646900  0.42925100  0.00302600  1
  C  C64  1  0.45095600  0.48638800  0.71299200  1
  C  C65  1  0.98396600  0.73736000  0.05995000  1
  C  C66  1  0.44987100  0.36784900  0.00772000  1
  C  C67  1  0.37260200  0.78494800  0.71711400  1
  C  C68  1  0.97059900  0.75778400  0.51248500  1
  C  C69  1  0.36959900  0.21690600  0.77930200  1
  C  C70  1  0.84730700  0.63040100  0.77930200  1
  C  C71  1  0.91821100  0.57230000  0.46399700  1
  C  C72  1  0.78718500  0.02940100  0.51248500  1
  C  C73  1  0.08178900  0.42770000  0.53600300  1
  C  C74  1  0.73736000  0.75339400  0.94005000  1
  C  C75  1  0.29360000  0.54695200  0.29392100  1
  C  C76  1  0.11938800  0.08327900  0.20755100  1
  C  C77  1  0.09742500  0.69660600  0.45874000  1
  C  C78  1  0.40081900  0.09742500  0.54126000  1
  C  C79  1  0.01603400  0.26264000  0.94005000  1
  C  C80  1  0.25335200  0.70640000  0.29392100  1
  C  C81  1  0.96456800  0.45095600  0.28700800  1
  C  C82  1  0.74664800  0.29360000  0.70607900  1
  C  C83  1  0.42925100  0.11278300  0.99697400  1
  C  C84  1  0.68353100  0.57074900  0.99697400  1
  C  C85  1  0.11278300  0.68353100  0.00302600  1
  C  C86  1  0.96389100  0.88061200  0.20755100  1
  C  C87  1  0.36784900  0.91797900  0.99228000  1
  C  C88  1  0.15269300  0.36959900  0.22069800  1
  C  C89  1  0.82065200  0.70250800  0.23892000  1
  C  C90  1  0.48638800  0.03543200  0.28700800  1
  C  C91  1  0.75339400  0.01603400  0.05995000  1
  C  C92  1  0.41234600  0.62739800  0.71711400  1
  C  C93  1  0.17934800  0.29749200  0.76108000  1
  C  C94  1  0.62739800  0.21505200  0.28288600  1
  C  C95  1  0.26264000  0.24660600  0.05995000  1
  C  C96  1  0.90257500  0.30339400  0.54126000  1
  C  C97  1  0.21281500  0.97059900  0.48751500  1
  C  C98  1  0.08202100  0.44987100  0.99228000  1
