# generated using pymatgen
data_CuNiC5
_symmetry_space_group_name_H-M   'P 1'
_cell_length_a   7.07583100
_cell_length_b   5.14129500
_cell_length_c   10.85557806
_cell_angle_alpha   64.18384321
_cell_angle_beta   90.00000000
_cell_angle_gamma   90.00000000
_symmetry_Int_Tables_number   1
_chemical_formula_structural   CuNiC5
_chemical_formula_sum   'Cu4 Ni4 C20'
_cell_volume   355.50033242
_cell_formula_units_Z   4
loop_
 _symmetry_equiv_pos_site_id
 _symmetry_equiv_pos_as_xyz
  1  'x, y, z'
loop_
 _atom_site_type_symbol
 _atom_site_label
 _atom_site_symmetry_multiplicity
 _atom_site_fract_x
 _atom_site_fract_y
 _atom_site_fract_z
 _atom_site_occupancy
  C  C0  1  0.93880900  0.53056400  0.74638300  1
  C  C1  1  0.43880900  0.46943600  0.75361700  1
  C  C2  1  0.69212500  0.88128300  0.89567300  1
  C  C3  1  0.19212500  0.11871700  0.60432700  1
  C  C4  1  0.06119100  0.46943600  0.25361700  1
  C  C5  1  0.30787500  0.11871700  0.10432700  1
  C  C6  1  0.80787500  0.88128300  0.39567300  1
  C  C7  1  0.56119100  0.53056400  0.24638300  1
  Ni  Ni8  1  0.74049000  0.24322700  0.57329400  1
  Ni  Ni9  1  0.24049000  0.75677300  0.92670600  1
  Ni  Ni10  1  0.25951000  0.75677300  0.42670600  1
  Ni  Ni11  1  0.75951000  0.24322700  0.07329400  1
  Cu  Cu12  1  0.57039100  0.08750000  0.58628600  1
  Cu  Cu13  1  0.92960900  0.08750000  0.08628600  1
  Cu  Cu14  1  0.07039100  0.91250000  0.91371400  1
  Cu  Cu15  1  0.42960900  0.91250000  0.41371400  1
  C  C16  1  0.12544500  0.96668000  0.31521100  1
  C  C17  1  0.69058100  0.32832400  0.92562700  1
  C  C18  1  0.62544500  0.03332000  0.18478900  1
  C  C19  1  0.80941900  0.32832400  0.42562700  1
  C  C20  1  0.69282700  0.50728700  0.59909200  1
  C  C21  1  0.30941900  0.67167600  0.07437300  1
  C  C22  1  0.87455500  0.03332000  0.68478900  1
  C  C23  1  0.30717300  0.49271300  0.40090800  1
  C  C24  1  0.37455500  0.96668000  0.81521100  1
  C  C25  1  0.19058100  0.67167600  0.57437300  1
  C  C26  1  0.19282700  0.49271300  0.90090800  1
  C  C27  1  0.80717300  0.50728700  0.09909200  1
