# generated using pymatgen
data_Cu5(NiC4)3
_symmetry_space_group_name_H-M   'P 1'
_cell_length_a   12.45635597
_cell_length_b   12.45635597
_cell_length_c   12.45635595
_cell_angle_alpha   57.96541061
_cell_angle_beta   57.96541061
_cell_angle_gamma   57.96540627
_symmetry_Int_Tables_number   1
_chemical_formula_structural   Cu5(NiC4)3
_chemical_formula_sum   'Cu10 Ni6 C24'
_cell_volume   1302.85713254
_cell_formula_units_Z   2
loop_
 _symmetry_equiv_pos_site_id
 _symmetry_equiv_pos_as_xyz
  1  'x, y, z'
loop_
 _atom_site_type_symbol
 _atom_site_label
 _atom_site_symmetry_multiplicity
 _atom_site_fract_x
 _atom_site_fract_y
 _atom_site_fract_z
 _atom_site_occupancy
  Ni  Ni0  1  0.22977700  0.74811100  0.27313300  1
  Ni  Ni1  1  0.74811100  0.27313300  0.22977700  1
  Ni  Ni2  1  0.72977700  0.77313300  0.24811100  1
  Ni  Ni3  1  0.27313300  0.22977700  0.74811100  1
  Ni  Ni4  1  0.24811100  0.72977700  0.77313300  1
  Ni  Ni5  1  0.77313300  0.24811100  0.72977700  1
  Cu  Cu6  1  0.40563700  0.25252300  0.09066900  1
  Cu  Cu7  1  0.90563700  0.59066900  0.75252300  1
  Cu  Cu8  1  0.17195500  0.17195500  0.17195500  1
  Cu  Cu9  1  0.67195500  0.67195500  0.67195500  1
  Cu  Cu10  1  0.59066900  0.75252300  0.90563700  1
  Cu  Cu11  1  0.82721600  0.82721600  0.82721600  1
  Cu  Cu12  1  0.32721600  0.32721600  0.32721600  1
  Cu  Cu13  1  0.09066900  0.40563700  0.25252300  1
  Cu  Cu14  1  0.75252300  0.90563700  0.59066900  1
  Cu  Cu15  1  0.25252300  0.09066900  0.40563700  1
  C  C16  1  0.07195900  0.69636200  0.95864500  1
  C  C17  1  0.45864500  0.19636200  0.57195900  1
  C  C18  1  0.19636200  0.57195900  0.45864500  1
  C  C19  1  0.29897200  0.89764100  0.72606400  1
  C  C20  1  0.60773000  0.19720600  0.77108900  1
  C  C21  1  0.69636200  0.95864500  0.07195900  1
  C  C22  1  0.72606400  0.29897200  0.89764100  1
  C  C23  1  0.19720600  0.77108900  0.60773000  1
  C  C24  1  0.80885200  0.42565900  0.54545000  1
  C  C25  1  0.69720600  0.10773000  0.27108900  1
  C  C26  1  0.95864500  0.07195900  0.69636200  1
  C  C27  1  0.54545000  0.80885200  0.42565900  1
  C  C28  1  0.92565900  0.30885200  0.04545000  1
  C  C29  1  0.30885200  0.04545000  0.92565900  1
  C  C30  1  0.27108900  0.69720600  0.10773000  1
  C  C31  1  0.79897200  0.22606400  0.39764100  1
  C  C32  1  0.22606400  0.39764100  0.79897200  1
  C  C33  1  0.77108900  0.60773000  0.19720600  1
  C  C34  1  0.10773000  0.27108900  0.69720600  1
  C  C35  1  0.04545000  0.92565900  0.30885200  1
  C  C36  1  0.57195900  0.45864500  0.19636200  1
  C  C37  1  0.42565900  0.54545000  0.80885200  1
  C  C38  1  0.89764100  0.72606400  0.29897200  1
  C  C39  1  0.39764100  0.79897200  0.22606400  1
