# generated using pymatgen
data_Cu8Ni4C3
_symmetry_space_group_name_H-M   'P 1'
_cell_length_a   6.69441900
_cell_length_b   12.02671100
_cell_length_c   12.44201300
_cell_angle_alpha   90.00000000
_cell_angle_beta   90.00000000
_cell_angle_gamma   90.00000000
_symmetry_Int_Tables_number   1
_chemical_formula_structural   Cu8Ni4C3
_chemical_formula_sum   'Cu32 Ni16 C12'
_cell_volume   1001.72939261
_cell_formula_units_Z   4
loop_
 _symmetry_equiv_pos_site_id
 _symmetry_equiv_pos_as_xyz
  1  'x, y, z'
loop_
 _atom_site_type_symbol
 _atom_site_label
 _atom_site_symmetry_multiplicity
 _atom_site_fract_x
 _atom_site_fract_y
 _atom_site_fract_z
 _atom_site_occupancy
  C  C0  1  0.09107800  0.99981800  0.35245700  1
  C  C1  1  0.09107800  0.50018200  0.35245700  1
  C  C2  1  0.90892200  0.49981800  0.64754300  1
  C  C3  1  0.40892200  0.50018200  0.85245700  1
  C  C4  1  0.59107800  0.49981800  0.14754300  1
  C  C5  1  0.59107800  0.00018200  0.14754300  1
  C  C6  1  0.90892200  0.00018200  0.64754300  1
  C  C7  1  0.40892200  0.99981800  0.85245700  1
  C  C8  1  0.48870300  0.75000000  0.51615300  1
  C  C9  1  0.98870300  0.25000000  0.98384700  1
  C  C10  1  0.51129700  0.25000000  0.48384700  1
  C  C11  1  0.01129700  0.75000000  0.01615300  1
  Ni  Ni12  1  0.07790800  0.25000000  0.75095400  1
  Ni  Ni13  1  0.13218600  0.06862600  0.12437400  1
  Ni  Ni14  1  0.57790800  0.75000000  0.74904600  1
  Ni  Ni15  1  0.63218600  0.56862600  0.37562600  1
  Ni  Ni16  1  0.42209200  0.25000000  0.25095400  1
  Ni  Ni17  1  0.92209200  0.75000000  0.24904600  1
  Ni  Ni18  1  0.05907400  0.75000000  0.56125100  1
  Ni  Ni19  1  0.86781400  0.56862600  0.87562600  1
  Ni  Ni20  1  0.36781400  0.06862600  0.62437400  1
  Ni  Ni21  1  0.44092600  0.75000000  0.06125100  1
  Ni  Ni22  1  0.86781400  0.93137400  0.87562600  1
  Ni  Ni23  1  0.36781400  0.43137400  0.62437400  1
  Ni  Ni24  1  0.63218600  0.93137400  0.37562600  1
  Ni  Ni25  1  0.94092600  0.25000000  0.43874900  1
  Ni  Ni26  1  0.55907400  0.25000000  0.93874900  1
  Ni  Ni27  1  0.13218600  0.43137400  0.12437400  1
  Cu  Cu28  1  0.03113900  0.61635600  0.85331600  1
  Cu  Cu29  1  0.15878200  0.83867600  0.54731800  1
  Cu  Cu30  1  0.53113900  0.38364400  0.64668400  1
  Cu  Cu31  1  0.78392500  0.89761500  0.96122200  1
  Cu  Cu32  1  0.15878200  0.66132400  0.54731800  1
  Cu  Cu33  1  0.93818900  0.66128100  0.19435100  1
  Cu  Cu34  1  0.71607500  0.89761500  0.46122200  1
  Cu  Cu35  1  0.34121800  0.83867600  0.04731800  1
  Cu  Cu36  1  0.84121800  0.33867600  0.45268200  1
  Cu  Cu37  1  0.96886100  0.11635600  0.14668400  1
  Cu  Cu38  1  0.21607500  0.10238500  0.03877800  1
  Cu  Cu39  1  0.06181100  0.16128100  0.80564900  1
  Cu  Cu40  1  0.06181100  0.33871900  0.80564900  1
  Cu  Cu41  1  0.78392500  0.60238500  0.96122200  1
  Cu  Cu42  1  0.46886100  0.88364400  0.35331600  1
  Cu  Cu43  1  0.53113900  0.11635600  0.64668400  1
  Cu  Cu44  1  0.21607500  0.39761500  0.03877800  1
  Cu  Cu45  1  0.65878200  0.16132400  0.95268200  1
  Cu  Cu46  1  0.34121800  0.66132400  0.04731800  1
  Cu  Cu47  1  0.43818900  0.33871900  0.30564900  1
  Cu  Cu48  1  0.93818900  0.83871900  0.19435100  1
  Cu  Cu49  1  0.28392500  0.10238500  0.53877800  1
  Cu  Cu50  1  0.71607500  0.60238500  0.46122200  1
  Cu  Cu51  1  0.28392500  0.39761500  0.53877800  1
  Cu  Cu52  1  0.65878200  0.33867600  0.95268200  1
  Cu  Cu53  1  0.84121800  0.16132400  0.45268200  1
  Cu  Cu54  1  0.46886100  0.61635600  0.35331600  1
  Cu  Cu55  1  0.96886100  0.38364400  0.14668400  1
  Cu  Cu56  1  0.56181100  0.83871900  0.69435100  1
  Cu  Cu57  1  0.56181100  0.66128100  0.69435100  1
  Cu  Cu58  1  0.43818900  0.16128100  0.30564900  1
  Cu  Cu59  1  0.03113900  0.88364400  0.85331600  1
