# generated using pymatgen
data_Cu9NiC
_symmetry_space_group_name_H-M   'P 1'
_cell_length_a   10.57774812
_cell_length_b   10.57774812
_cell_length_c   6.74393900
_cell_angle_alpha   90.00000000
_cell_angle_beta   90.00000000
_cell_angle_gamma   107.34723525
_symmetry_Int_Tables_number   1
_chemical_formula_structural   Cu9NiC
_chemical_formula_sum   'Cu18 Ni2 C2'
_cell_volume   720.24952035
_cell_formula_units_Z   2
loop_
 _symmetry_equiv_pos_site_id
 _symmetry_equiv_pos_as_xyz
  1  'x, y, z'
loop_
 _atom_site_type_symbol
 _atom_site_label
 _atom_site_symmetry_multiplicity
 _atom_site_fract_x
 _atom_site_fract_y
 _atom_site_fract_z
 _atom_site_occupancy
  C  C0  1  0.75000000  0.25000000  0.89258200  1
  C  C1  1  0.25000000  0.75000000  0.10741800  1
  Ni  Ni2  1  0.25000000  0.25000000  0.50000000  1
  Ni  Ni3  1  0.75000000  0.75000000  0.50000000  1
  Cu  Cu4  1  0.91656600  0.41656600  0.72573600  1
  Cu  Cu5  1  0.77390500  0.90608500  0.33125200  1
  Cu  Cu6  1  0.22609500  0.09391500  0.66874800  1
  Cu  Cu7  1  0.27390500  0.40608500  0.66874800  1
  Cu  Cu8  1  0.59391500  0.72609500  0.66874800  1
  Cu  Cu9  1  0.10532900  0.89467100  0.10342700  1
  Cu  Cu10  1  0.72609500  0.59391500  0.33125200  1
  Cu  Cu11  1  0.90608500  0.77390500  0.66874800  1
  Cu  Cu12  1  0.09391500  0.22609500  0.33125200  1
  Cu  Cu13  1  0.41656600  0.91656600  0.27426400  1
  Cu  Cu14  1  0.08343400  0.58343400  0.27426400  1
  Cu  Cu15  1  0.40608500  0.27390500  0.33125200  1
  Cu  Cu16  1  0.25000000  0.75000000  0.75386400  1
  Cu  Cu17  1  0.39467100  0.60532900  0.10342700  1
  Cu  Cu18  1  0.58343400  0.08343400  0.72573600  1
  Cu  Cu19  1  0.60532900  0.39467100  0.89657300  1
  Cu  Cu20  1  0.75000000  0.25000000  0.24613600  1
  Cu  Cu21  1  0.89467100  0.10532900  0.89657300  1
