# generated using pymatgen
data_CuNi4C29
_symmetry_space_group_name_H-M   'P 1'
_cell_length_a   8.68260299
_cell_length_b   8.68260299
_cell_length_c   8.68260299
_cell_angle_alpha   105.25586470
_cell_angle_beta   105.25586470
_cell_angle_gamma   118.27734750
_symmetry_Int_Tables_number   1
_chemical_formula_structural   CuNi4C29
_chemical_formula_sum   'Cu1 Ni4 C29'
_cell_volume   494.82983401
_cell_formula_units_Z   1
loop_
 _symmetry_equiv_pos_site_id
 _symmetry_equiv_pos_as_xyz
  1  'x, y, z'
loop_
 _atom_site_type_symbol
 _atom_site_label
 _atom_site_symmetry_multiplicity
 _atom_site_fract_x
 _atom_site_fract_y
 _atom_site_fract_z
 _atom_site_occupancy
  C  C0  1  0.99646500  0.49646500  0.50000000  1
  C  C1  1  0.53990200  0.79440900  0.74549400  1
  C  C2  1  0.43432600  0.19201200  0.24231400  1
  C  C3  1  0.80798800  0.56567400  0.75768600  1
  C  C4  1  0.50000000  0.50000000  0.00000000  1
  C  C5  1  0.50353500  0.00353500  0.50000000  1
  C  C6  1  0.04891500  0.79440900  0.25450600  1
  C  C7  1  0.20559100  0.95108500  0.74549400  1
  C  C8  1  0.94969800  0.19201200  0.75768600  1
  C  C9  1  0.80798800  0.05030200  0.24231400  1
  C  C10  1  0.20559100  0.46009800  0.25450600  1
  Ni  Ni11  1  0.28909200  0.71090800  0.00000000  1
  Ni  Ni12  1  0.28909200  0.28909200  0.57818400  1
  Ni  Ni13  1  0.71090800  0.71090800  0.42181600  1
  Ni  Ni14  1  0.71090800  0.28909200  0.00000000  1
  Cu  Cu15  1  0.00000000  0.00000000  0.00000000  1
  C  C16  1  0.50530400  0.79469600  0.00143700  1
  C  C17  1  0.50530400  0.50386700  0.71060800  1
  C  C18  1  0.20530400  0.20674100  0.71060800  1
  C  C19  1  0.67749600  0.13136800  0.81724300  1
  C  C20  1  0.20530400  0.49469600  0.99856300  1
  C  C21  1  0.67749600  0.86025300  0.54612800  1
  C  C22  1  0.49613300  0.20674100  0.00143700  1
  C  C23  1  0.31412500  0.13136800  0.45387200  1
  C  C24  1  0.13974700  0.68587500  0.81724300  1
  C  C25  1  0.75000000  0.25000000  0.50000000  1
  C  C26  1  0.31412500  0.86025300  0.18275700  1
  C  C27  1  0.79325900  0.79469600  0.28939200  1
  C  C28  1  0.86863200  0.68587500  0.54612800  1
  C  C29  1  0.86863200  0.32250400  0.18275700  1
  C  C30  1  0.79325900  0.50386700  0.99856300  1
  C  C31  1  0.13974700  0.32250400  0.45387200  1
  C  C32  1  0.49613300  0.49469600  0.28939200  1
  C  C33  1  0.25000000  0.75000000  0.50000000  1
