# generated using pymatgen
data_Cu3Ni2C3
_symmetry_space_group_name_H-M   'P 1'
_cell_length_a   4.61245100
_cell_length_b   7.36225200
_cell_length_c   16.09482600
_cell_angle_alpha   90.00000000
_cell_angle_beta   90.00000000
_cell_angle_gamma   90.00000000
_symmetry_Int_Tables_number   1
_chemical_formula_structural   Cu3Ni2C3
_chemical_formula_sum   'Cu6 Ni4 C6'
_cell_volume   546.54852942
_cell_formula_units_Z   2
loop_
 _symmetry_equiv_pos_site_id
 _symmetry_equiv_pos_as_xyz
  1  'x, y, z'
loop_
 _atom_site_type_symbol
 _atom_site_label
 _atom_site_symmetry_multiplicity
 _atom_site_fract_x
 _atom_site_fract_y
 _atom_site_fract_z
 _atom_site_occupancy
  C  C0  1  0.15197200  0.00000000  0.50000000  1
  C  C1  1  0.84802800  0.50000000  0.00000000  1
  Ni  Ni2  1  0.28398500  0.50000000  0.80057500  1
  Ni  Ni3  1  0.28398500  0.50000000  0.19942500  1
  Ni  Ni4  1  0.71601500  0.00000000  0.69942500  1
  Ni  Ni5  1  0.71601500  0.00000000  0.30057500  1
  Cu  Cu6  1  0.87689500  0.00000000  0.18040000  1
  Cu  Cu7  1  0.17366400  0.00000000  0.00000000  1
  Cu  Cu8  1  0.12310500  0.50000000  0.31960000  1
  Cu  Cu9  1  0.12310500  0.50000000  0.68040000  1
  Cu  Cu10  1  0.87689500  0.00000000  0.81960000  1
  Cu  Cu11  1  0.82633600  0.50000000  0.50000000  1
  C  C12  1  0.36870200  0.50000000  0.86934600  1
  C  C13  1  0.63129800  0.00000000  0.63065400  1
  C  C14  1  0.36870200  0.50000000  0.13065400  1
  C  C15  1  0.63129800  0.00000000  0.36934600  1
