# generated using pymatgen
data_Cu4Ni4C5
_symmetry_space_group_name_H-M   'P 1'
_cell_length_a   9.72399468
_cell_length_b   9.72399468
_cell_length_c   9.72399510
_cell_angle_alpha   59.21553813
_cell_angle_beta   59.21553813
_cell_angle_gamma   59.21553137
_symmetry_Int_Tables_number   1
_chemical_formula_structural   Cu4Ni4C5
_chemical_formula_sum   'Cu12 Ni12 C15'
_cell_volume   638.53919419
_cell_formula_units_Z   3
loop_
 _symmetry_equiv_pos_site_id
 _symmetry_equiv_pos_as_xyz
  1  'x, y, z'
loop_
 _atom_site_type_symbol
 _atom_site_label
 _atom_site_symmetry_multiplicity
 _atom_site_fract_x
 _atom_site_fract_y
 _atom_site_fract_z
 _atom_site_occupancy
  C  C0  1  0.00000000  0.00000000  0.00000000  1
  C  C1  1  0.63580900  0.63580900  0.63580900  1
  C  C2  1  0.36419100  0.36419100  0.36419100  1
  Ni  Ni3  1  0.54131100  0.75798200  0.04148600  1
  Ni  Ni4  1  0.61531300  0.17281100  0.97471200  1
  Ni  Ni5  1  0.82718900  0.02528800  0.38468700  1
  Ni  Ni6  1  0.04148600  0.54131100  0.75798200  1
  Ni  Ni7  1  0.02528800  0.38468700  0.82718900  1
  Ni  Ni8  1  0.45868900  0.24201800  0.95851400  1
  Ni  Ni9  1  0.24201800  0.95851400  0.45868900  1
  Ni  Ni10  1  0.95851400  0.45868900  0.24201800  1
  Ni  Ni11  1  0.75798200  0.04148600  0.54131100  1
  Ni  Ni12  1  0.17281100  0.97471200  0.61531300  1
  Ni  Ni13  1  0.97471200  0.61531300  0.17281100  1
  Ni  Ni14  1  0.38468700  0.82718900  0.02528800  1
  Cu  Cu15  1  0.29400100  0.94648300  0.32595700  1
  Cu  Cu16  1  0.01030100  0.25201600  0.89231200  1
  Cu  Cu17  1  0.10768800  0.98969900  0.74798400  1
  Cu  Cu18  1  0.70599900  0.05351700  0.67404300  1
  Cu  Cu19  1  0.74798400  0.10768800  0.98969900  1
  Cu  Cu20  1  0.67404300  0.70599900  0.05351700  1
  Cu  Cu21  1  0.32595700  0.29400100  0.94648300  1
  Cu  Cu22  1  0.89231200  0.01030100  0.25201600  1
  Cu  Cu23  1  0.98969900  0.74798400  0.10768800  1
  Cu  Cu24  1  0.25201600  0.89231200  0.01030100  1
  Cu  Cu25  1  0.94648300  0.32595700  0.29400100  1
  Cu  Cu26  1  0.05351700  0.67404300  0.70599900  1
  C  C27  1  0.71859700  0.42526500  0.63626700  1
  C  C28  1  0.55199000  0.84521700  0.64013300  1
  C  C29  1  0.28140300  0.57473500  0.36373300  1
  C  C30  1  0.84521700  0.64013300  0.55199000  1
  C  C31  1  0.35986700  0.44801000  0.15478300  1
  C  C32  1  0.63626700  0.71859700  0.42526500  1
  C  C33  1  0.42526500  0.63626700  0.71859700  1
  C  C34  1  0.64013300  0.55199000  0.84521700  1
  C  C35  1  0.44801000  0.15478300  0.35986700  1
  C  C36  1  0.57473500  0.36373300  0.28140300  1
  C  C37  1  0.36373300  0.28140300  0.57473500  1
  C  C38  1  0.15478300  0.35986700  0.44801000  1
