# generated using pymatgen
data_Cu13Ni29C19
_symmetry_space_group_name_H-M   'P 1'
_cell_length_a   19.32568890
_cell_length_b   19.32568895
_cell_length_c   19.32568860
_cell_angle_alpha   60.00000061
_cell_angle_beta   60.00000051
_cell_angle_gamma   59.99999944
_symmetry_Int_Tables_number   1
_chemical_formula_structural   Cu13Ni29C19
_chemical_formula_sum   'Cu26 Ni58 C38'
_cell_volume   5103.75655571
_cell_formula_units_Z   2
loop_
 _symmetry_equiv_pos_site_id
 _symmetry_equiv_pos_as_xyz
  1  'x, y, z'
loop_
 _atom_site_type_symbol
 _atom_site_label
 _atom_site_symmetry_multiplicity
 _atom_site_fract_x
 _atom_site_fract_y
 _atom_site_fract_z
 _atom_site_occupancy
  C  C0  1  0.04240362  0.64117076  0.27402201  1
  C  C1  1  0.27402201  0.64117076  0.04240362  1
  C  C2  1  0.65572725  0.65572725  0.03281824  1
  C  C3  1  0.49681702  0.49681702  0.12693688  1
  C  C4  1  0.04240362  0.04240362  0.27402201  1
  C  C5  1  0.90696522  0.27910435  0.90696522  1
  C  C6  1  0.90696522  0.90696522  0.90696522  1
  C  C7  1  0.49681702  0.12693688  0.49681702  1
  C  C8  1  0.04240362  0.27402201  0.04240362  1
  C  C9  1  0.40540360  0.40540360  0.78378920  1
  C  C10  1  0.04240362  0.27402201  0.64117076  1
  C  C11  1  0.90696522  0.90696522  0.27910435  1
  C  C12  1  0.27910435  0.90696522  0.90696522  1
  C  C13  1  0.12693688  0.87942907  0.49681702  1
  C  C14  1  0.49681702  0.49681702  0.87942907  1
  C  C15  1  0.12693688  0.49681702  0.87942907  1
  C  C16  1  0.64117076  0.04240362  0.27402201  1
  C  C17  1  0.87942907  0.49681702  0.49681702  1
  C  C18  1  0.87942907  0.49681702  0.12693688  1
  C  C19  1  0.75000000  0.75000000  0.75000000  1
  C  C20  1  0.65572725  0.03281824  0.65572725  1
  C  C21  1  0.78378920  0.40540360  0.40540360  1
  C  C22  1  0.49681702  0.12693688  0.87942907  1
  C  C23  1  0.49681702  0.87942907  0.49681702  1
  C  C24  1  0.40540360  0.40540360  0.40540360  1
  C  C25  1  0.27402201  0.04240362  0.04240362  1
  C  C26  1  0.04240362  0.64117076  0.04240362  1
  C  C27  1  0.27402201  0.04240362  0.64117076  1
  C  C28  1  0.40540360  0.78378920  0.40540360  1
  C  C29  1  0.65572725  0.65572725  0.65572725  1
  C  C30  1  0.12693688  0.49681702  0.49681702  1
  C  C31  1  0.03281824  0.65572725  0.65572725  1
  C  C32  1  0.64117076  0.04240362  0.04240362  1
  C  C33  1  0.87942907  0.12693688  0.49681702  1
  C  C34  1  0.49681702  0.87942907  0.12693688  1
  C  C35  1  0.50000000  0.50000000  0.50000000  1
  C  C36  1  0.64117076  0.27402201  0.04240362  1
  C  C37  1  0.04240362  0.04240362  0.64117076  1
  Ni  Ni38  1  0.51195032  0.69880224  0.89462372  1
  Ni  Ni39  1  0.26765771  0.26765771  0.83204519  1
  Ni  Ni40  1  0.63263939  0.26765771  0.26765771  1
  Ni  Ni41  1  0.04931570  0.85205290  0.04931570  1
  Ni  Ni42  1  0.08176281  0.76290972  0.76290972  1
  Ni  Ni43  1  0.76290972  0.08176281  0.39241774  1
  Ni  Ni44  1  0.04931570  0.04931570  0.85205290  1
  Ni  Ni45  1  0.83204519  0.26765771  0.63263939  1
  Ni  Ni46  1  0.69880224  0.89462372  0.89462372  1
  Ni  Ni47  1  0.45496268  0.26689866  0.63906933  1
  Ni  Ni48  1  0.26765771  0.63263939  0.83204519  1
  Ni  Ni49  1  0.63906933  0.26689866  0.45496268  1
  Ni  Ni50  1  0.26765771  0.63263939  0.26765771  1
  Ni  Ni51  1  0.63906933  0.45496268  0.63906933  1
  Ni  Ni52  1  0.63263939  0.83204519  0.26765771  1
  Ni  Ni53  1  0.45496268  0.63906933  0.63906933  1
  Ni  Ni54  1  0.08176281  0.39241774  0.76290972  1
  Ni  Ni55  1  0.51195032  0.89462372  0.69880224  1
  Ni  Ni56  1  0.63906933  0.63906933  0.45496268  1
  Ni  Ni57  1  0.89462372  0.69880224  0.89462372  1
  Ni  Ni58  1  0.76290972  0.76290972  0.08176281  1
  Ni  Ni59  1  0.63906933  0.63906933  0.26689866  1
  Ni  Ni60  1  0.63906933  0.45496268  0.26689866  1
  Ni  Ni61  1  0.39241774  0.76290972  0.08176281  1
  Ni  Ni62  1  0.04931570  0.04931570  0.04931570  1
  Ni  Ni63  1  0.84086408  0.15913592  0.84086408  1
  Ni  Ni64  1  0.84086408  0.15913592  0.15913592  1
  Ni  Ni65  1  0.63263939  0.26765771  0.83204519  1
  Ni  Ni66  1  0.26765771  0.83204519  0.63263939  1
  Ni  Ni67  1  0.39241774  0.76290972  0.76290972  1
  Ni  Ni68  1  0.63906933  0.26689866  0.63906933  1
  Ni  Ni69  1  0.84086408  0.84086408  0.15913592  1
  Ni  Ni70  1  0.89462372  0.89462372  0.51195032  1
  Ni  Ni71  1  0.51195032  0.89462372  0.89462372  1
  Ni  Ni72  1  0.76290972  0.39241774  0.76290972  1
  Ni  Ni73  1  0.85205290  0.04931570  0.04931570  1
  Ni  Ni74  1  0.76290972  0.08176281  0.76290972  1
  Ni  Ni75  1  0.15913592  0.15913592  0.84086408  1
  Ni  Ni76  1  0.08176281  0.76290972  0.39241774  1
  Ni  Ni77  1  0.83204519  0.63263939  0.26765771  1
  Ni  Ni78  1  0.89462372  0.51195032  0.69880224  1
  Ni  Ni79  1  0.76290972  0.39241774  0.08176281  1
  Ni  Ni80  1  0.69880224  0.89462372  0.51195032  1
  Ni  Ni81  1  0.83204519  0.26765771  0.26765771  1
  Ni  Ni82  1  0.39241774  0.08176281  0.76290972  1
  Ni  Ni83  1  0.26765771  0.26765771  0.63263939  1
  Ni  Ni84  1  0.69880224  0.51195032  0.89462372  1
  Ni  Ni85  1  0.26765771  0.83204519  0.26765771  1
  Ni  Ni86  1  0.45496268  0.63906933  0.26689866  1
  Ni  Ni87  1  0.26689866  0.63906933  0.63906933  1
  Ni  Ni88  1  0.89462372  0.51195032  0.89462372  1
  Ni  Ni89  1  0.89462372  0.89462372  0.69880224  1
  Ni  Ni90  1  0.15913592  0.84086408  0.15913592  1
  Ni  Ni91  1  0.89462372  0.69880224  0.51195032  1
  Ni  Ni92  1  0.15913592  0.84086408  0.84086408  1
  Ni  Ni93  1  0.26689866  0.63906933  0.45496268  1
  Ni  Ni94  1  0.26689866  0.45496268  0.63906933  1
  Ni  Ni95  1  0.76290972  0.76290972  0.39241774  1
  Cu  Cu96  1  0.18162311  0.18162311  0.18162311  1
  Cu  Cu97  1  0.18162311  0.18162311  0.45513068  1
  Cu  Cu98  1  0.99409405  0.45626003  0.27482296  1
  Cu  Cu99  1  0.38747155  0.38747155  0.11252845  1
  Cu  Cu100  1  0.45513068  0.18162311  0.18162311  1
  Cu  Cu101  1  0.28939649  0.28939649  0.13181052  1
  Cu  Cu102  1  0.11252845  0.38747155  0.38747155  1
  Cu  Cu103  1  0.27482296  0.27482296  0.99409405  1
  Cu  Cu104  1  0.45626003  0.27482296  0.99409405  1
  Cu  Cu105  1  0.27482296  0.99409405  0.45626003  1
  Cu  Cu106  1  0.18162311  0.45513068  0.18162311  1
  Cu  Cu107  1  0.27482296  0.45626003  0.27482296  1
  Cu  Cu108  1  0.27482296  0.27482296  0.45626003  1
  Cu  Cu109  1  0.45626003  0.27482296  0.27482296  1
  Cu  Cu110  1  0.27482296  0.99409405  0.27482296  1
  Cu  Cu111  1  0.13181052  0.28939649  0.28939649  1
  Cu  Cu112  1  0.28939649  0.13181052  0.28939649  1
  Cu  Cu113  1  0.45626003  0.99409405  0.27482296  1
  Cu  Cu114  1  0.38747155  0.11252845  0.38747155  1
  Cu  Cu115  1  0.28939649  0.28939649  0.28939649  1
  Cu  Cu116  1  0.27482296  0.45626003  0.99409405  1
  Cu  Cu117  1  0.11252845  0.38747155  0.11252845  1
  Cu  Cu118  1  0.99409405  0.27482296  0.45626003  1
  Cu  Cu119  1  0.38747155  0.11252845  0.11252845  1
  Cu  Cu120  1  0.99409405  0.27482296  0.27482296  1
  Cu  Cu121  1  0.11252845  0.11252845  0.38747155  1
