# generated using pymatgen
data_Cu17(NiC3)32
_symmetry_space_group_name_H-M   'P 1'
_cell_length_a   7.57275330
_cell_length_b   7.58866151
_cell_length_c   30.51388974
_cell_angle_alpha   90.00000000
_cell_angle_beta   90.00000000
_cell_angle_gamma   90.00000000
_symmetry_Int_Tables_number   1
_chemical_formula_structural   Cu17(NiC3)32
_chemical_formula_sum   'Cu17 Ni32 C96'
_cell_volume   1753.54357806
_cell_formula_units_Z   1
loop_
 _symmetry_equiv_pos_site_id
 _symmetry_equiv_pos_as_xyz
  1  'x, y, z'
loop_
 _atom_site_type_symbol
 _atom_site_label
 _atom_site_symmetry_multiplicity
 _atom_site_fract_x
 _atom_site_fract_y
 _atom_site_fract_z
 _atom_site_occupancy
  Cu  Cu0  1  0.00000000  0.00000000  0.12496769  1
  Cu  Cu1  1  0.00000000  0.50000000  0.12519642  1
  Cu  Cu2  1  0.00000000  0.00000000  0.37503231  1
  Cu  Cu3  1  0.00000000  0.50000000  0.37480358  1
  Cu  Cu4  1  0.00000000  0.00000000  0.62483334  1
  Cu  Cu5  1  0.00000000  0.50000000  0.62469615  1
  Cu  Cu6  1  0.00000000  0.50000000  0.75000000  1
  Cu  Cu7  1  0.00000000  0.00000000  0.87516666  1
  Cu  Cu8  1  0.00000000  0.50000000  0.87530385  1
  Cu  Cu9  1  0.50000000  0.00000000  0.00065685  1
  Cu  Cu10  1  0.50000000  0.00000000  0.25000000  1
  Cu  Cu11  1  0.50000000  0.00000000  0.49934315  1
  Cu  Cu12  1  0.50000000  0.00000000  0.75000000  1
  Cu  Cu13  1  0.50000000  0.00000000  0.12488545  1
  Cu  Cu14  1  0.50000000  0.00000000  0.37511455  1
  Cu  Cu15  1  0.50000000  0.00000000  0.62385427  1
  Cu  Cu16  1  0.50000000  0.00000000  0.87614573  1
  C  C17  1  0.00000000  0.28697710  0.04751860  1
  C  C18  1  0.00000000  0.71302290  0.04751860  1
  C  C19  1  0.00000000  0.28683963  0.20214275  1
  C  C20  1  0.00000000  0.28683963  0.29785725  1
  C  C21  1  0.00000000  0.71316037  0.29785725  1
  C  C22  1  0.00000000  0.28697710  0.45248140  1
  C  C23  1  0.00000000  0.28760332  0.54832266  1
  C  C24  1  0.00000000  0.71239668  0.54832266  1
  C  C25  1  0.00000000  0.30507962  0.70510802  1
  C  C26  1  0.00000000  0.30507962  0.79489198  1
  C  C27  1  0.00000000  0.69492038  0.70510802  1
  C  C28  1  0.00000000  0.69492038  0.79489198  1
  C  C29  1  0.18818837  0.00000000  0.07898894  1
  C  C30  1  0.18809491  0.00000000  0.32919424  1
  C  C31  1  0.18809491  0.00000000  0.17080576  1
  C  C32  1  0.18850856  0.00000000  0.57956840  1
  C  C33  1  0.18237126  0.00000000  0.67291383  1
  C  C34  1  0.18818837  0.00000000  0.42101106  1
  C  C35  1  0.18237126  0.00000000  0.82708617  1
  C  C36  1  0.18850856  0.00000000  0.92043160  1
  C  C37  1  0.18867309  0.31588829  0.12491499  1
  C  C38  1  0.18867309  0.68411171  0.12491499  1
  C  C39  1  0.18867309  0.68411171  0.37508501  1
  C  C40  1  0.18867309  0.31588829  0.37508501  1
  C  C41  1  0.18830950  0.31290296  0.62584083  1
  C  C42  1  0.18830950  0.68709704  0.62584083  1
  C  C43  1  0.18830950  0.31290296  0.87415917  1
  C  C44  1  0.18830950  0.68709704  0.87415917  1
  C  C45  1  0.30407768  0.50000000  0.19799314  1
  C  C46  1  0.30456001  0.50000000  0.44835844  1
  C  C47  1  0.30592181  0.50000000  0.69846390  1
  C  C48  1  0.30372448  0.50000000  0.94703882  1
  C  C49  1  0.30456001  0.50000000  0.05164156  1
  C  C50  1  0.30407768  0.50000000  0.30200686  1
  C  C51  1  0.30372448  0.50000000  0.55296118  1
  C  C52  1  0.30592181  0.50000000  0.80153610  1
  C  C53  1  0.30989124  0.18347477  0.99978630  1
  C  C54  1  0.31067850  0.18312966  0.25000000  1
  C  C55  1  0.30989124  0.81652523  0.99978630  1
  C  C56  1  0.30989124  0.18347477  0.50021370  1
  C  C57  1  0.31067850  0.81687034  0.25000000  1
  C  C58  1  0.30970248  0.18496252  0.75000000  1
  C  C59  1  0.30989124  0.81652523  0.50021370  1
  C  C60  1  0.30970248  0.81503748  0.75000000  1
  C  C61  1  0.50000000  0.81146925  0.32957210  1
  C  C62  1  0.50000000  0.18853075  0.17042790  1
  C  C63  1  0.50000000  0.81169935  0.07914633  1
  C  C64  1  0.50000000  0.18830065  0.42085367  1
  C  C65  1  0.50000000  0.81136309  0.82941756  1
  C  C66  1  0.50000000  0.18863691  0.67058244  1
  C  C67  1  0.50000000  0.80982396  0.57945407  1
  C  C68  1  0.50000000  0.19017604  0.92054593  1
  C  C69  1  0.50000000  0.18830065  0.07914633  1
  C  C70  1  0.50000000  0.18853075  0.32957210  1
  C  C71  1  0.50000000  0.19017604  0.57945407  1
  C  C72  1  0.50000000  0.18863691  0.82941756  1
  C  C73  1  0.50000000  0.81169935  0.42085367  1
  C  C74  1  0.50000000  0.81146925  0.17042790  1
  C  C75  1  0.50000000  0.80982396  0.92054593  1
  C  C76  1  0.50000000  0.81136309  0.67058244  1
  C  C77  1  0.69010876  0.18347477  0.99978630  1
  C  C78  1  0.69010876  0.81652523  0.99978630  1
  C  C79  1  0.68932150  0.18312966  0.25000000  1
  C  C80  1  0.69010876  0.18347477  0.50021370  1
  C  C81  1  0.68932150  0.81687034  0.25000000  1
  C  C82  1  0.69010876  0.81652523  0.50021370  1
  C  C83  1  0.69029752  0.18496252  0.75000000  1
  C  C84  1  0.69029752  0.81503748  0.75000000  1
  C  C85  1  0.69543999  0.50000000  0.05164156  1
  C  C86  1  0.69592232  0.50000000  0.30200686  1
  C  C87  1  0.69407819  0.50000000  0.80153610  1
  C  C88  1  0.69627552  0.50000000  0.55296118  1
  C  C89  1  0.69592232  0.50000000  0.19799314  1
  C  C90  1  0.69543999  0.50000000  0.44835844  1
  C  C91  1  0.69407819  0.50000000  0.69846390  1
  C  C92  1  0.69627552  0.50000000  0.94703882  1
  C  C93  1  0.81132691  0.31588829  0.12491499  1
  C  C94  1  0.81132691  0.68411171  0.12491499  1
  C  C95  1  0.81132691  0.31588829  0.37508501  1
  C  C96  1  0.81169050  0.31290296  0.62584083  1
  C  C97  1  0.81132691  0.68411171  0.37508501  1
  C  C98  1  0.81169050  0.68709704  0.62584083  1
  C  C99  1  0.81169050  0.31290296  0.87415917  1
  C  C100  1  0.81169050  0.68709704  0.87415917  1
  C  C101  1  0.81181163  0.00000000  0.07898894  1
  C  C102  1  0.81190509  0.00000000  0.17080576  1
  C  C103  1  0.81190509  0.00000000  0.32919424  1
  C  C104  1  0.81149144  0.00000000  0.57956840  1
  C  C105  1  0.81762874  0.00000000  0.67291383  1
  C  C106  1  0.81762874  0.00000000  0.82708617  1
  C  C107  1  0.81181163  0.00000000  0.42101106  1
  C  C108  1  0.81149144  0.00000000  0.92043160  1
  C  C109  1  0.00000000  0.71316037  0.20214275  1
  C  C110  1  0.00000000  0.71302290  0.45248140  1
  C  C111  1  0.00000000  0.28760332  0.95167734  1
  C  C112  1  0.00000000  0.71239668  0.95167734  1
  Ni  Ni113  1  0.24780320  0.74536860  0.18847730  1
  Ni  Ni114  1  0.24696573  0.74442024  0.43781074  1
  Ni  Ni115  1  0.25125478  0.74615215  0.68757319  1
  Ni  Ni116  1  0.24822690  0.74606122  0.93905509  1
  Ni  Ni117  1  0.24696573  0.74442024  0.06218926  1
  Ni  Ni118  1  0.24780320  0.25463140  0.18847730  1
  Ni  Ni119  1  0.24780320  0.74536860  0.31152270  1
  Ni  Ni120  1  0.24696573  0.25557976  0.43781074  1
  Ni  Ni121  1  0.24822690  0.74606122  0.56094491  1
  Ni  Ni122  1  0.25125478  0.25384785  0.68757319  1
  Ni  Ni123  1  0.24822690  0.25393878  0.93905509  1
  Ni  Ni124  1  0.25125478  0.74615215  0.81242681  1
  Ni  Ni125  1  0.24696573  0.25557976  0.06218926  1
  Ni  Ni126  1  0.24780320  0.25463140  0.31152270  1
  Ni  Ni127  1  0.24822690  0.25393878  0.56094491  1
  Ni  Ni128  1  0.25125478  0.25384785  0.81242681  1
  Ni  Ni129  1  0.75219680  0.74536860  0.18847730  1
  Ni  Ni130  1  0.75303427  0.74442024  0.43781074  1
  Ni  Ni131  1  0.74874522  0.74615215  0.68757319  1
  Ni  Ni132  1  0.75177310  0.74606122  0.93905509  1
  Ni  Ni133  1  0.75219680  0.25463140  0.18847730  1
  Ni  Ni134  1  0.75303427  0.74442024  0.06218926  1
  Ni  Ni135  1  0.75303427  0.25557976  0.43781074  1
  Ni  Ni136  1  0.74874522  0.25384785  0.68757319  1
  Ni  Ni137  1  0.75219680  0.74536860  0.31152270  1
  Ni  Ni138  1  0.75177310  0.74606122  0.56094491  1
  Ni  Ni139  1  0.74874522  0.74615215  0.81242681  1
  Ni  Ni140  1  0.75177310  0.25393878  0.93905509  1
  Ni  Ni141  1  0.75303427  0.25557976  0.06218926  1
  Ni  Ni142  1  0.75219680  0.25463140  0.31152270  1
  Ni  Ni143  1  0.75177310  0.25393878  0.56094491  1
  Ni  Ni144  1  0.74874522  0.25384785  0.81242681  1
