# generated using pymatgen
data_Cu2NiC5
_symmetry_space_group_name_H-M   'P 1'
_cell_length_a   6.79458953
_cell_length_b   6.79458953
_cell_length_c   6.52522000
_cell_angle_alpha   90.00000000
_cell_angle_beta   90.00000000
_cell_angle_gamma   119.99999538
_symmetry_Int_Tables_number   1
_chemical_formula_structural   Cu2NiC5
_chemical_formula_sum   'Cu6 Ni3 C15'
_cell_volume   260.88689328
_cell_formula_units_Z   3
loop_
 _symmetry_equiv_pos_site_id
 _symmetry_equiv_pos_as_xyz
  1  'x, y, z'
loop_
 _atom_site_type_symbol
 _atom_site_label
 _atom_site_symmetry_multiplicity
 _atom_site_fract_x
 _atom_site_fract_y
 _atom_site_fract_z
 _atom_site_occupancy
  Ni  Ni0  1  0.23448500  0.29345500  0.78488700  1
  Ni  Ni1  1  0.05897000  0.76551500  0.11822100  1
  Ni  Ni2  1  0.70654500  0.94103000  0.45155400  1
  Cu  Cu3  1  0.76388500  0.31095300  0.78391800  1
  Cu  Cu4  1  0.68471600  0.95576400  0.99982000  1
  Cu  Cu5  1  0.54706800  0.23611500  0.11725100  1
  Cu  Cu6  1  0.27104800  0.31528400  0.33315400  1
  Cu  Cu7  1  0.68904700  0.45293200  0.45058500  1
  Cu  Cu8  1  0.04423600  0.72895200  0.66648700  1
  C  C9  1  0.31477400  0.17802200  0.18518200  1
  C  C10  1  0.97896400  0.53568000  0.80979800  1
  C  C11  1  0.70220500  0.27633900  0.56750600  1
  C  C12  1  0.72366100  0.42586600  0.23417300  1
  C  C13  1  0.46432000  0.44328400  0.47646500  1
  C  C14  1  0.82197800  0.13675200  0.85184900  1
  C  C15  1  0.10885400  0.92278300  0.80232200  1
  C  C16  1  0.55671600  0.02103600  0.14313200  1
  C  C17  1  0.81392800  0.89114600  0.13565500  1
  C  C18  1  0.86324800  0.68522600  0.51851500  1
  C  C19  1  0.57413400  0.29779500  0.90083900  1
  C  C20  1  0.07721700  0.18607200  0.46898900  1
  C  C21  1  0.23576800  0.47482400  0.20930000  1
  C  C22  1  0.52517600  0.76094500  0.87596700  1
  C  C23  1  0.23905500  0.76423200  0.54263300  1
