# generated using pymatgen
data_Cu3NiC6
_symmetry_space_group_name_H-M   'P 1'
_cell_length_a   6.40319600
_cell_length_b   5.43041600
_cell_length_c   20.17216392
_cell_angle_alpha   89.69923799
_cell_angle_beta   90.00000000
_cell_angle_gamma   90.00000000
_symmetry_Int_Tables_number   1
_chemical_formula_structural   Cu3NiC6
_chemical_formula_sum   'Cu12 Ni4 C24'
_cell_volume   701.41718328
_cell_formula_units_Z   4
loop_
 _symmetry_equiv_pos_site_id
 _symmetry_equiv_pos_as_xyz
  1  'x, y, z'
loop_
 _atom_site_type_symbol
 _atom_site_label
 _atom_site_symmetry_multiplicity
 _atom_site_fract_x
 _atom_site_fract_y
 _atom_site_fract_z
 _atom_site_occupancy
  C  C0  1  0.71827900  0.24762600  0.09069200  1
  C  C1  1  0.21827900  0.75237400  0.40930800  1
  C  C2  1  0.78172100  0.24762600  0.59069200  1
  C  C3  1  0.28172100  0.75237400  0.90930800  1
  Ni  Ni4  1  0.17021600  0.75385100  0.74111800  1
  Ni  Ni5  1  0.32978400  0.75385100  0.24111800  1
  Ni  Ni6  1  0.82978400  0.24614900  0.25888200  1
  Ni  Ni7  1  0.67021600  0.24614900  0.75888200  1
  Cu  Cu8  1  0.18091400  0.60468200  0.18976100  1
  Cu  Cu9  1  0.68660900  0.38293000  0.17795200  1
  Cu  Cu10  1  0.72684700  0.95275000  0.75809600  1
  Cu  Cu11  1  0.31908600  0.60468200  0.68976100  1
  Cu  Cu12  1  0.81908600  0.39531800  0.81023900  1
  Cu  Cu13  1  0.68091400  0.39531800  0.31023900  1
  Cu  Cu14  1  0.22684700  0.04725000  0.74190400  1
  Cu  Cu15  1  0.77315300  0.95275000  0.25809600  1
  Cu  Cu16  1  0.18660900  0.61707000  0.32204800  1
  Cu  Cu17  1  0.27315300  0.04725000  0.24190400  1
  Cu  Cu18  1  0.81339100  0.38293000  0.67795200  1
  Cu  Cu19  1  0.31339100  0.61707000  0.82204800  1
  C  C20  1  0.75707200  0.11487200  0.50596400  1
  C  C21  1  0.52350900  0.10497500  0.61364900  1
  C  C22  1  0.08288900  0.04703400  0.38364000  1
  C  C23  1  0.85471300  0.53079500  0.05989600  1
  C  C24  1  0.64528700  0.53079500  0.55989600  1
  C  C25  1  0.58288900  0.95296600  0.11636000  1
  C  C26  1  0.91711100  0.95296600  0.61636000  1
  C  C27  1  0.02350900  0.89502500  0.88635100  1
  C  C28  1  0.74292800  0.11487200  0.00596400  1
  C  C29  1  0.14528700  0.46920500  0.94010400  1
  C  C30  1  0.47649100  0.89502500  0.38635100  1
  C  C31  1  0.24292800  0.88512800  0.49403600  1
  C  C32  1  0.54066900  0.61636000  0.93236700  1
  C  C33  1  0.97649100  0.10497500  0.11364900  1
  C  C34  1  0.45933100  0.38364000  0.06763300  1
  C  C35  1  0.41711100  0.04703400  0.88364000  1
  C  C36  1  0.35471300  0.46920500  0.44010400  1
  C  C37  1  0.04066900  0.38364000  0.56763300  1
  C  C38  1  0.95933100  0.61636000  0.43236700  1
  C  C39  1  0.25707200  0.88512800  0.99403600  1
