# generated using pymatgen
data_Cu3Ni2C11
_symmetry_space_group_name_H-M   'P 1'
_cell_length_a   8.82211990
_cell_length_b   8.82211990
_cell_length_c   8.82212032
_cell_angle_alpha   37.61431483
_cell_angle_beta   37.61431483
_cell_angle_gamma   37.61431692
_symmetry_Int_Tables_number   1
_chemical_formula_structural   Cu3Ni2C11
_chemical_formula_sum   'Cu3 Ni2 C11'
_cell_volume   229.43783071
_cell_formula_units_Z   1
loop_
 _symmetry_equiv_pos_site_id
 _symmetry_equiv_pos_as_xyz
  1  'x, y, z'
loop_
 _atom_site_type_symbol
 _atom_site_label
 _atom_site_symmetry_multiplicity
 _atom_site_fract_x
 _atom_site_fract_y
 _atom_site_fract_z
 _atom_site_occupancy
  Ni  Ni0  1  0.19951400  0.19951400  0.19951400  1
  Ni  Ni1  1  0.80048600  0.80048600  0.80048600  1
  Cu  Cu2  1  0.37145100  0.37145100  0.37145100  1
  Cu  Cu3  1  0.50000000  0.50000000  0.50000000  1
  Cu  Cu4  1  0.62854900  0.62854900  0.62854900  1
  C  C5  1  0.06408600  0.06408600  0.06408600  1
  C  C6  1  0.93591400  0.93591400  0.93591400  1
  C  C7  1  0.34285200  0.18653400  0.78674300  1
  C  C8  1  0.81346600  0.65714800  0.21325700  1
  C  C9  1  0.78674300  0.34285200  0.18653400  1
  C  C10  1  0.21325700  0.81346600  0.65714800  1
  C  C11  1  0.18653400  0.78674300  0.34285200  1
  C  C12  1  0.25843100  0.00000000  0.74156900  1
  C  C13  1  0.74156900  0.25843100  0.00000000  1
  C  C14  1  0.00000000  0.74156900  0.25843100  1
  C  C15  1  0.65714800  0.21325700  0.81346600  1
