# generated using pymatgen
data_Cu(NiC7)3
_symmetry_space_group_name_H-M   'P 1'
_cell_length_a   11.65801151
_cell_length_b   11.65801151
_cell_length_c   10.64344900
_cell_angle_alpha   90.00000000
_cell_angle_beta   90.00000000
_cell_angle_gamma   101.14734858
_symmetry_Int_Tables_number   1
_chemical_formula_structural   Cu(NiC7)3
_chemical_formula_sum   'Cu4 Ni12 C84'
_cell_volume   1419.25139003
_cell_formula_units_Z   4
loop_
 _symmetry_equiv_pos_site_id
 _symmetry_equiv_pos_as_xyz
  1  'x, y, z'
loop_
 _atom_site_type_symbol
 _atom_site_label
 _atom_site_symmetry_multiplicity
 _atom_site_fract_x
 _atom_site_fract_y
 _atom_site_fract_z
 _atom_site_occupancy
  Ni  Ni0  1  0.92779100  0.07220900  0.24954400  1
  Ni  Ni1  1  0.76183600  0.76183600  0.00000000  1
  Ni  Ni2  1  0.47297300  0.02702700  0.25000000  1
  Ni  Ni3  1  0.52702700  0.97297300  0.75000000  1
  Ni  Ni4  1  0.42779100  0.57220900  0.25045600  1
  Ni  Ni5  1  0.97297300  0.52702700  0.25000000  1
  Ni  Ni6  1  0.26183600  0.26183600  0.50000000  1
  Ni  Ni7  1  0.02702700  0.47297300  0.75000000  1
  Ni  Ni8  1  0.23816400  0.23816400  0.00000000  1
  Ni  Ni9  1  0.57220900  0.42779100  0.74954400  1
  Ni  Ni10  1  0.07220900  0.92779100  0.75045600  1
  Ni  Ni11  1  0.73816400  0.73816400  0.50000000  1
  Cu  Cu12  1  0.33993000  0.16007000  0.75000000  1
  Cu  Cu13  1  0.16007000  0.33993000  0.25000000  1
  Cu  Cu14  1  0.83993000  0.66007000  0.75000000  1
  Cu  Cu15  1  0.66007000  0.83993000  0.25000000  1
  C  C16  1  0.69181000  0.52775200  0.29968500  1
  C  C17  1  0.97224800  0.80819000  0.20031500  1
  C  C18  1  0.47170000  0.74178000  0.97988200  1
  C  C19  1  0.25822000  0.52830000  0.97988200  1
  C  C20  1  0.52775200  0.69181000  0.70031500  1
  C  C21  1  0.41644500  0.79654300  0.46599700  1
  C  C22  1  0.97170000  0.24178000  0.52011800  1
  C  C23  1  0.30819000  0.47224800  0.70031500  1
  C  C24  1  0.20345700  0.58355500  0.46599700  1
  C  C25  1  0.74178000  0.47170000  0.02011800  1
  C  C26  1  0.79654300  0.41644500  0.53400300  1
  C  C27  1  0.52830000  0.25822000  0.02011800  1
  C  C28  1  0.24178000  0.97170000  0.47988200  1
  C  C29  1  0.19181000  0.02775200  0.20031500  1
  C  C30  1  0.70345700  0.08355500  0.03400300  1
  C  C31  1  0.47224800  0.30819000  0.29968500  1
  C  C32  1  0.58355500  0.20345700  0.53400300  1
  C  C33  1  0.08355500  0.70345700  0.96599700  1
  C  C34  1  0.29654300  0.91644500  0.96599700  1
  C  C35  1  0.91644500  0.29654300  0.03400300  1
  C  C36  1  0.80819000  0.97224800  0.79968500  1
  C  C37  1  0.02775200  0.19181000  0.79968500  1
  C  C38  1  0.75822000  0.02830000  0.52011800  1
  C  C39  1  0.02830000  0.75822000  0.47988200  1
  C  C40  1  0.07806000  0.25089400  0.42417900  1
  C  C41  1  0.38949300  0.61050700  0.99179000  1
  C  C42  1  0.39064100  0.83821100  0.01360600  1
  C  C43  1  0.65602500  0.65259000  0.31847000  1
  C  C44  1  0.65259000  0.65602500  0.68153000  1
  C  C45  1  0.76528700  0.51531100  0.16853500  1
  C  C46  1  0.84107500  0.48936500  0.65771800  1
  C  C47  1  0.75089400  0.57806000  0.92417900  1
  C  C48  1  0.42194000  0.24910600  0.92417900  1
  C  C49  1  0.15259000  0.15602500  0.81847000  1
  C  C50  1  0.78049700  0.50030400  0.41190000  1
  C  C51  1  0.07162400  0.92837600  0.20235200  1
  C  C52  1  0.25089400  0.07806000  0.57582100  1
  C  C53  1  0.10935900  0.66178900  0.51360600  1
  C  C54  1  0.60935900  0.16178900  0.98639400  1
  C  C55  1  0.89064100  0.33821100  0.48639400  1
  C  C56  1  0.11050700  0.88949300  0.49179000  1
  C  C57  1  0.33250100  0.66749900  0.43669900  1
  C  C58  1  0.98936500  0.34107500  0.15771800  1
  C  C59  1  0.98468900  0.73471300  0.33146500  1
  C  C60  1  0.21950300  0.49969600  0.58810000  1
  C  C61  1  0.50030400  0.78049700  0.58810000  1
  C  C62  1  0.48468900  0.23471300  0.16853500  1
  C  C63  1  0.74910600  0.92194000  0.42417900  1
  C  C64  1  0.65892500  0.01063500  0.15771800  1
  C  C65  1  0.34741000  0.34397500  0.31847000  1
  C  C66  1  0.26528700  0.01531100  0.33146500  1
  C  C67  1  0.84741000  0.84397500  0.18153000  1
  C  C68  1  0.51531100  0.76528700  0.83146500  1
  C  C69  1  0.73471300  0.98468900  0.66853500  1
  C  C70  1  0.88949300  0.11050700  0.50821000  1
  C  C71  1  0.92194000  0.74910600  0.57582100  1
  C  C72  1  0.01531100  0.26528700  0.66853500  1
  C  C73  1  0.28049700  0.00030400  0.08810000  1
  C  C74  1  0.92837600  0.07162400  0.79764800  1
  C  C75  1  0.84397500  0.84741000  0.81847000  1
  C  C76  1  0.66178900  0.10935900  0.48639400  1
  C  C77  1  0.33821100  0.89064100  0.51360600  1
  C  C78  1  0.51063500  0.15892500  0.65771800  1
  C  C79  1  0.16749900  0.83250100  0.93669900  1
  C  C80  1  0.57806000  0.75089400  0.07582100  1
  C  C81  1  0.15892500  0.51063500  0.34228200  1
  C  C82  1  0.99969600  0.71950300  0.08810000  1
  C  C83  1  0.66749900  0.33250100  0.56330100  1
  C  C84  1  0.48936500  0.84107500  0.34228200  1
  C  C85  1  0.83821100  0.39064100  0.98639400  1
  C  C86  1  0.16178900  0.60935900  0.01360600  1
  C  C87  1  0.57162400  0.42837600  0.29764800  1
  C  C88  1  0.83250100  0.16749900  0.06330100  1
  C  C89  1  0.71950300  0.99969600  0.91190000  1
  C  C90  1  0.61050700  0.38949300  0.00821000  1
  C  C91  1  0.49969600  0.21950300  0.41190000  1
  C  C92  1  0.01063500  0.65892500  0.84228200  1
  C  C93  1  0.24910600  0.42194000  0.07582100  1
  C  C94  1  0.23471300  0.48468900  0.83146500  1
  C  C95  1  0.34107500  0.98936500  0.84228200  1
  C  C96  1  0.00030400  0.28049700  0.91190000  1
  C  C97  1  0.34397500  0.34741000  0.68153000  1
  C  C98  1  0.15602500  0.15259000  0.18153000  1
  C  C99  1  0.42837600  0.57162400  0.70235200  1
