# generated using pymatgen
data_Cu4NiC2
_symmetry_space_group_name_H-M   'P 1'
_cell_length_a   15.41176780
_cell_length_b   12.74360261
_cell_length_c   12.58330267
_cell_angle_alpha   74.96122326
_cell_angle_beta   52.99230856
_cell_angle_gamma   52.04646818
_symmetry_Int_Tables_number   1
_chemical_formula_structural   Cu4NiC2
_chemical_formula_sum   'Cu32 Ni8 C16'
_cell_volume   1531.90112786
_cell_formula_units_Z   8
loop_
 _symmetry_equiv_pos_site_id
 _symmetry_equiv_pos_as_xyz
  1  'x, y, z'
loop_
 _atom_site_type_symbol
 _atom_site_label
 _atom_site_symmetry_multiplicity
 _atom_site_fract_x
 _atom_site_fract_y
 _atom_site_fract_z
 _atom_site_occupancy
  C  C0  1  0.49024600  0.75873100  0.73728600  1
  C  C1  1  0.26361000  0.98755800  0.59496600  1
  C  C2  1  0.23626300  0.51271400  0.49126900  1
  C  C3  1  0.26244200  0.98639000  0.09613400  1
  C  C4  1  0.49126900  0.75975400  0.23626300  1
  C  C5  1  0.15386600  0.59496600  0.98755800  1
  C  C6  1  0.65503400  0.09613400  0.98639000  1
  C  C7  1  0.75975400  0.49126900  0.51271400  1
  C  C8  1  0.09613400  0.65503400  0.26244200  1
  C  C9  1  0.59496600  0.15386600  0.26361000  1
  C  C10  1  0.98639000  0.26244200  0.65503400  1
  C  C11  1  0.73728600  0.01373700  0.49024600  1
  C  C12  1  0.51271400  0.23626300  0.75975400  1
  C  C13  1  0.75873100  0.49024600  0.01373700  1
  C  C14  1  0.98755800  0.26361000  0.15386600  1
  C  C15  1  0.01373700  0.73728600  0.75873100  1
  Ni  Ni16  1  0.24737700  0.24737700  0.75262300  1
  Ni  Ni17  1  0.25000000  0.25000000  0.25000000  1
  Ni  Ni18  1  0.00000000  0.00000000  0.00000000  1
  Ni  Ni19  1  0.75262300  0.75262300  0.24737700  1
  Ni  Ni20  1  0.00262300  0.00262300  0.49737700  1
  Ni  Ni21  1  0.49737700  0.49737700  0.00262300  1
  Ni  Ni22  1  0.50000000  0.50000000  0.50000000  1
  Ni  Ni23  1  0.75000000  0.75000000  0.75000000  1
  Cu  Cu24  1  0.78042300  0.96794400  0.28233800  1
  Cu  Cu25  1  0.21123800  0.70781700  0.54074200  1
  Cu  Cu26  1  0.30712400  0.43786500  0.78048100  1
  Cu  Cu27  1  0.20754900  0.21190900  0.53937600  1
  Cu  Cu28  1  0.04116600  0.53937600  0.21190900  1
  Cu  Cu29  1  0.54020300  0.54074200  0.70781700  1
  Cu  Cu30  1  0.54218300  0.03876200  0.70979700  1
  Cu  Cu31  1  0.04245100  0.03809100  0.71062400  1
  Cu  Cu32  1  0.43786500  0.30712400  0.47453000  1
  Cu  Cu33  1  0.70979700  0.70925800  0.54218300  1
  Cu  Cu34  1  0.70925800  0.70979700  0.03876200  1
  Cu  Cu35  1  0.78048100  0.47453000  0.30712400  1
  Cu  Cu36  1  0.54074200  0.54020300  0.21123800  1
  Cu  Cu37  1  0.81213500  0.94287600  0.77547000  1
  Cu  Cu38  1  0.96794400  0.78042300  0.96929600  1
  Cu  Cu39  1  0.46957700  0.28205600  0.96766200  1
  Cu  Cu40  1  0.46951900  0.77547000  0.94287600  1
  Cu  Cu41  1  0.28205600  0.46957700  0.28070400  1
  Cu  Cu42  1  0.71062400  0.20883400  0.04245100  1
  Cu  Cu43  1  0.96766200  0.28070400  0.46957700  1
  Cu  Cu44  1  0.03876200  0.54218300  0.70925800  1
  Cu  Cu45  1  0.21190900  0.20754900  0.04116600  1
  Cu  Cu46  1  0.47453000  0.78048100  0.43786500  1
  Cu  Cu47  1  0.77547000  0.46951900  0.81213500  1
  Cu  Cu48  1  0.70781700  0.21123800  0.54020300  1
  Cu  Cu49  1  0.20883400  0.71062400  0.03809100  1
  Cu  Cu50  1  0.94287600  0.81213500  0.46951900  1
  Cu  Cu51  1  0.53937600  0.04116600  0.20754900  1
  Cu  Cu52  1  0.28233800  0.96929600  0.78042300  1
  Cu  Cu53  1  0.03809100  0.04245100  0.20883400  1
  Cu  Cu54  1  0.28070400  0.96766200  0.28205600  1
  Cu  Cu55  1  0.96929600  0.28233800  0.96794400  1
