# generated using pymatgen
data_Cu7Ni2C5
_symmetry_space_group_name_H-M   'P 1'
_cell_length_a   10.65299900
_cell_length_b   8.36077500
_cell_length_c   14.94041305
_cell_angle_alpha   58.63278872
_cell_angle_beta   90.00000000
_cell_angle_gamma   90.00000000
_symmetry_Int_Tables_number   1
_chemical_formula_structural   Cu7Ni2C5
_chemical_formula_sum   'Cu28 Ni8 C20'
_cell_volume   1136.21889582
_cell_formula_units_Z   4
loop_
 _symmetry_equiv_pos_site_id
 _symmetry_equiv_pos_as_xyz
  1  'x, y, z'
loop_
 _atom_site_type_symbol
 _atom_site_label
 _atom_site_symmetry_multiplicity
 _atom_site_fract_x
 _atom_site_fract_y
 _atom_site_fract_z
 _atom_site_occupancy
  C  C0  1  0.15518300  0.87933100  0.36909800  1
  C  C1  1  0.82815100  0.58785100  0.66096200  1
  C  C2  1  0.17184900  0.41214900  0.33903800  1
  C  C3  1  0.84481700  0.12066900  0.63090200  1
  C  C4  1  0.32815100  0.41214900  0.83903800  1
  C  C5  1  0.65518300  0.12066900  0.13090200  1
  C  C6  1  0.67184900  0.58785100  0.16096200  1
  C  C7  1  0.34481700  0.87933100  0.86909800  1
  C  C8  1  0.16570300  0.34097500  0.61434900  1
  C  C9  1  0.83747600  0.06343900  0.38918400  1
  C  C10  1  0.83429700  0.65902500  0.38565100  1
  C  C11  1  0.33429700  0.34097500  0.11434900  1
  C  C12  1  0.16252400  0.93656100  0.61081600  1
  C  C13  1  0.66252400  0.06343900  0.88918400  1
  C  C14  1  0.33747600  0.93656100  0.11081600  1
  C  C15  1  0.66570300  0.65902500  0.88565100  1
  C  C16  1  0.50000000  0.00000000  0.50000000  1
  C  C17  1  0.00000000  0.00000000  0.00000000  1
  C  C18  1  0.00000000  0.50000000  0.00000000  1
  C  C19  1  0.50000000  0.50000000  0.50000000  1
  Ni  Ni20  1  0.52165300  0.06709800  0.63597600  1
  Ni  Ni21  1  0.02060800  0.43333300  0.86426000  1
  Ni  Ni22  1  0.02165300  0.93290200  0.86402400  1
  Ni  Ni23  1  0.52060800  0.56666700  0.63574000  1
  Ni  Ni24  1  0.47834700  0.93290200  0.36402400  1
  Ni  Ni25  1  0.47939200  0.43333300  0.36426000  1
  Ni  Ni26  1  0.97834700  0.06709800  0.13597600  1
  Ni  Ni27  1  0.97939200  0.56666700  0.13574000  1
  Cu  Cu28  1  0.75626300  0.19245900  0.28256900  1
  Cu  Cu29  1  0.75338800  0.01345600  0.49353000  1
  Cu  Cu30  1  0.74051100  0.50296400  0.99304600  1
  Cu  Cu31  1  0.24051100  0.49703600  0.50695400  1
  Cu  Cu32  1  0.88446700  0.84793700  0.40065900  1
  Cu  Cu33  1  0.75948900  0.50296400  0.49304600  1
  Cu  Cu34  1  0.24373700  0.80754100  0.71743100  1
  Cu  Cu35  1  0.74373700  0.19245900  0.78256900  1
  Cu  Cu36  1  0.24661200  0.98654400  0.50647000  1
  Cu  Cu37  1  0.03373500  0.83007600  0.61340300  1
  Cu  Cu38  1  0.96626500  0.16992400  0.38659700  1
  Cu  Cu39  1  0.53849000  0.56765600  0.87096000  1
  Cu  Cu40  1  0.24246700  0.26493300  0.21589900  1
  Cu  Cu41  1  0.25948900  0.49703600  0.00695400  1
  Cu  Cu42  1  0.25753300  0.26493300  0.71589900  1
  Cu  Cu43  1  0.74661200  0.01345600  0.99353000  1
  Cu  Cu44  1  0.25338800  0.98654400  0.00647000  1
  Cu  Cu45  1  0.46626500  0.83007600  0.11340300  1
  Cu  Cu46  1  0.61553300  0.84793700  0.90065900  1
  Cu  Cu47  1  0.53373500  0.16992400  0.88659700  1
  Cu  Cu48  1  0.38446700  0.15206300  0.09934100  1
  Cu  Cu49  1  0.46151000  0.43234400  0.12904000  1
  Cu  Cu50  1  0.03849000  0.43234400  0.62904000  1
  Cu  Cu51  1  0.75753300  0.73506700  0.78410100  1
  Cu  Cu52  1  0.74246700  0.73506700  0.28410100  1
  Cu  Cu53  1  0.96151000  0.56765600  0.37096000  1
  Cu  Cu54  1  0.11553300  0.15206300  0.59934100  1
  Cu  Cu55  1  0.25626300  0.80754100  0.21743100  1
