# generated using pymatgen
data_Cu9Ni3C
_symmetry_space_group_name_H-M   'P 1'
_cell_length_a   9.10813003
_cell_length_b   9.10813003
_cell_length_c   5.34279100
_cell_angle_alpha   90.00000000
_cell_angle_beta   90.00000000
_cell_angle_gamma   120.00000025
_symmetry_Int_Tables_number   1
_chemical_formula_structural   Cu9Ni3C
_chemical_formula_sum   'Cu18 Ni6 C2'
_cell_volume   383.84621356
_cell_formula_units_Z   2
loop_
 _symmetry_equiv_pos_site_id
 _symmetry_equiv_pos_as_xyz
  1  'x, y, z'
loop_
 _atom_site_type_symbol
 _atom_site_label
 _atom_site_symmetry_multiplicity
 _atom_site_fract_x
 _atom_site_fract_y
 _atom_site_fract_z
 _atom_site_occupancy
  C  C0  1  0.33333300  0.66666700  0.08313200  1
  C  C1  1  0.66666700  0.33333300  0.58313200  1
  Ni  Ni2  1  0.33696500  0.31434900  0.22489500  1
  Ni  Ni3  1  0.66303500  0.68565100  0.72489500  1
  Ni  Ni4  1  0.02261500  0.33696500  0.72489500  1
  Ni  Ni5  1  0.97738500  0.66303500  0.22489500  1
  Ni  Ni6  1  0.31434900  0.97738500  0.72489500  1
  Ni  Ni7  1  0.68565100  0.02261500  0.22489500  1
  Cu  Cu8  1  0.13148000  0.55147000  0.87884900  1
  Cu  Cu9  1  0.51698700  0.80521600  0.30552100  1
  Cu  Cu10  1  0.28822900  0.48301300  0.30552100  1
  Cu  Cu11  1  0.19478400  0.71177100  0.30552100  1
  Cu  Cu12  1  0.48301300  0.19478400  0.80552100  1
  Cu  Cu13  1  0.80521600  0.28822900  0.80552100  1
  Cu  Cu14  1  0.58001000  0.13148000  0.37884900  1
  Cu  Cu15  1  0.21681200  0.17211500  0.47599200  1
  Cu  Cu16  1  0.17211500  0.95530200  0.97599200  1
  Cu  Cu17  1  0.44853000  0.58001000  0.87884900  1
  Cu  Cu18  1  0.82788500  0.04469800  0.47599200  1
  Cu  Cu19  1  0.55147000  0.41999000  0.37884900  1
  Cu  Cu20  1  0.41999000  0.86852000  0.87884900  1
  Cu  Cu21  1  0.95530200  0.78318800  0.47599200  1
  Cu  Cu22  1  0.71177100  0.51698700  0.80552100  1
  Cu  Cu23  1  0.04469800  0.21681200  0.97599200  1
  Cu  Cu24  1  0.86852000  0.44853000  0.37884900  1
  Cu  Cu25  1  0.78318800  0.82788500  0.97599200  1
