# generated using pymatgen
data_Cu20Ni4C5
_symmetry_space_group_name_H-M   'P 1'
_cell_length_a   7.10187700
_cell_length_b   8.17943191
_cell_length_c   9.36155611
_cell_angle_alpha   90.16523310
_cell_angle_beta   104.68402230
_cell_angle_gamma   92.18755395
_symmetry_Int_Tables_number   1
_chemical_formula_structural   Cu20Ni4C5
_chemical_formula_sum   'Cu20 Ni4 C5'
_cell_volume   525.61713892
_cell_formula_units_Z   1
loop_
 _symmetry_equiv_pos_site_id
 _symmetry_equiv_pos_as_xyz
  1  'x, y, z'
loop_
 _atom_site_type_symbol
 _atom_site_label
 _atom_site_symmetry_multiplicity
 _atom_site_fract_x
 _atom_site_fract_y
 _atom_site_fract_z
 _atom_site_occupancy
  C  C0  1  0.24378400  0.58789200  0.85083600  1
  C  C1  1  0.75621600  0.41210800  0.14916400  1
  C  C2  1  0.54866400  0.92080300  0.19154300  1
  C  C3  1  0.45133600  0.07919700  0.80845700  1
  C  C4  1  0.00000000  0.00000000  0.00000000  1
  Ni  Ni5  1  0.12174200  0.79978000  0.37470000  1
  Ni  Ni6  1  0.69860300  0.64986900  0.55386100  1
  Ni  Ni7  1  0.30139700  0.35013100  0.44613900  1
  Ni  Ni8  1  0.87825800  0.20022000  0.62530000  1
  Cu  Cu9  1  0.52178300  0.70892300  0.12146700  1
  Cu  Cu10  1  0.57980600  0.12871800  0.27016600  1
  Cu  Cu11  1  0.04921700  0.28388800  0.44729700  1
  Cu  Cu12  1  0.64576400  0.48055900  0.42049800  1
  Cu  Cu13  1  0.22691900  0.91749400  0.23702500  1
  Cu  Cu14  1  0.43486700  0.18727900  0.56162700  1
  Cu  Cu15  1  0.69031300  0.01043300  0.01198300  1
  Cu  Cu16  1  0.30968700  0.98956700  0.98801700  1
  Cu  Cu17  1  0.11294100  0.11416500  0.71922800  1
  Cu  Cu18  1  0.35423600  0.51944100  0.57950200  1
  Cu  Cu19  1  0.47821700  0.29107700  0.87853300  1
  Cu  Cu20  1  0.04448800  0.21284100  0.06422100  1
  Cu  Cu21  1  0.89565800  0.39895900  0.71304200  1
  Cu  Cu22  1  0.42019400  0.87128200  0.72983400  1
  Cu  Cu23  1  0.10434200  0.60104100  0.28695800  1
  Cu  Cu24  1  0.95078300  0.71611200  0.55270300  1
  Cu  Cu25  1  0.88705900  0.88583500  0.28077200  1
  Cu  Cu26  1  0.56513300  0.81272100  0.43837300  1
  Cu  Cu27  1  0.77308100  0.08250600  0.76297500  1
  Cu  Cu28  1  0.95551200  0.78715900  0.93577900  1
