# generated using pymatgen
data_Cu13NiC5
_symmetry_space_group_name_H-M   'P 1'
_cell_length_a   13.68319100
_cell_length_b   9.60367700
_cell_length_c   11.61937084
_cell_angle_alpha   61.44821773
_cell_angle_beta   90.00000000
_cell_angle_gamma   90.00000000
_symmetry_Int_Tables_number   1
_chemical_formula_structural   Cu13NiC5
_chemical_formula_sum   'Cu52 Ni4 C20'
_cell_volume   1341.19742432
_cell_formula_units_Z   4
loop_
 _symmetry_equiv_pos_site_id
 _symmetry_equiv_pos_as_xyz
  1  'x, y, z'
loop_
 _atom_site_type_symbol
 _atom_site_label
 _atom_site_symmetry_multiplicity
 _atom_site_fract_x
 _atom_site_fract_y
 _atom_site_fract_z
 _atom_site_occupancy
  C  C0  1  0.68594300  0.02124100  0.04256700  1
  C  C1  1  0.19462800  0.46789000  0.05071000  1
  C  C2  1  0.30537200  0.46789000  0.55071000  1
  C  C3  1  0.80537200  0.53211000  0.94929000  1
  C  C4  1  0.81405700  0.02124100  0.54256700  1
  C  C5  1  0.69462800  0.53211000  0.44929000  1
  C  C6  1  0.18594300  0.97875900  0.45743300  1
  C  C7  1  0.31405700  0.97875900  0.95743300  1
  C  C8  1  0.51560000  0.80690800  0.52479000  1
  C  C9  1  0.43864600  0.14965100  0.20082300  1
  C  C10  1  0.99290200  0.45883000  0.36620000  1
  C  C11  1  0.98440000  0.80690800  0.02479000  1
  C  C12  1  0.06135400  0.14965100  0.70082300  1
  C  C13  1  0.00709800  0.54117000  0.63380000  1
  C  C14  1  0.48440000  0.19309200  0.47521000  1
  C  C15  1  0.49290200  0.54117000  0.13380000  1
  C  C16  1  0.56135400  0.85034900  0.79917700  1
  C  C17  1  0.01560000  0.19309200  0.97521000  1
  C  C18  1  0.93864600  0.85034900  0.29917700  1
  C  C19  1  0.50709800  0.45883000  0.86620000  1
  Ni  Ni20  1  0.33377000  0.75019900  0.75060800  1
  Ni  Ni21  1  0.66623000  0.24980100  0.24939200  1
  Ni  Ni22  1  0.16623000  0.75019900  0.25060800  1
  Ni  Ni23  1  0.83377000  0.24980100  0.74939200  1
  Cu  Cu24  1  0.85608200  0.42302900  0.66439100  1
  Cu  Cu25  1  0.12688000  0.61018300  0.60224300  1
  Cu  Cu26  1  0.39839900  0.84322000  0.79508300  1
  Cu  Cu27  1  0.31315700  0.16874500  0.21577200  1
  Cu  Cu28  1  0.46436000  0.32998300  0.28424400  1
  Cu  Cu29  1  0.10160100  0.84322000  0.29508300  1
  Cu  Cu30  1  0.60160100  0.15678000  0.20491700  1
  Cu  Cu31  1  0.63876100  0.82503500  0.48397000  1
  Cu  Cu32  1  0.54107600  0.63873300  0.95198400  1
  Cu  Cu33  1  0.14391800  0.57697100  0.33560900  1
  Cu  Cu34  1  0.35608200  0.57697100  0.83560900  1
  Cu  Cu35  1  0.35937300  0.79685400  0.61046500  1
  Cu  Cu36  1  0.96411500  0.98708800  0.10891500  1
  Cu  Cu37  1  0.62688000  0.38981700  0.89775700  1
  Cu  Cu38  1  0.64062700  0.20314600  0.38953500  1
  Cu  Cu39  1  0.18684300  0.16874500  0.71577200  1
  Cu  Cu40  1  0.64391800  0.42302900  0.16439100  1
  Cu  Cu41  1  0.55037700  0.97184200  0.87022400  1
  Cu  Cu42  1  0.37312000  0.61018300  0.10224300  1
  Cu  Cu43  1  0.52492800  0.32532400  0.52603800  1
  Cu  Cu44  1  0.14062700  0.79685400  0.11046500  1
  Cu  Cu45  1  0.89839900  0.15678000  0.70491700  1
  Cu  Cu46  1  0.45445700  0.34659000  0.80271300  1
  Cu  Cu47  1  0.76822500  0.21803700  0.23711800  1
  Cu  Cu48  1  0.53564000  0.67001700  0.71575600  1
  Cu  Cu49  1  0.44962300  0.02815800  0.12977600  1
  Cu  Cu50  1  0.47507200  0.67467600  0.47396200  1
  Cu  Cu51  1  0.81315700  0.83125500  0.28422800  1
  Cu  Cu52  1  0.04107600  0.36126700  0.54801600  1
  Cu  Cu53  1  0.26822500  0.78196300  0.26288200  1
  Cu  Cu54  1  0.23177500  0.78196300  0.76288200  1
  Cu  Cu55  1  0.73177500  0.21803700  0.73711800  1
  Cu  Cu56  1  0.95445700  0.65341000  0.69728700  1
  Cu  Cu57  1  0.45892400  0.36126700  0.04801600  1
  Cu  Cu58  1  0.94962300  0.97184200  0.37022400  1
  Cu  Cu59  1  0.53588500  0.98708800  0.60891500  1
  Cu  Cu60  1  0.86123900  0.82503500  0.98397000  1
  Cu  Cu61  1  0.85937300  0.20314600  0.88953500  1
  Cu  Cu62  1  0.87312000  0.38981700  0.39775700  1
  Cu  Cu63  1  0.54554300  0.65341000  0.19728700  1
  Cu  Cu64  1  0.97507200  0.32532400  0.02603800  1
  Cu  Cu65  1  0.36123900  0.17496500  0.51603000  1
  Cu  Cu66  1  0.13876100  0.17496500  0.01603000  1
  Cu  Cu67  1  0.46411500  0.01291200  0.39108500  1
  Cu  Cu68  1  0.96436000  0.67001700  0.21575600  1
  Cu  Cu69  1  0.04554300  0.34659000  0.30271300  1
  Cu  Cu70  1  0.03588500  0.01291200  0.89108500  1
  Cu  Cu71  1  0.68684300  0.83125500  0.78422800  1
  Cu  Cu72  1  0.05037700  0.02815800  0.62977600  1
  Cu  Cu73  1  0.95892400  0.63873300  0.45198400  1
  Cu  Cu74  1  0.03564000  0.32998300  0.78424400  1
  Cu  Cu75  1  0.02492800  0.67467600  0.97396200  1
