# generated using pymatgen
data_Cu7NiC5
_symmetry_space_group_name_H-M   'P 1'
_cell_length_a   13.12612000
_cell_length_b   6.94938300
_cell_length_c   13.59036774
_cell_angle_alpha   60.36282604
_cell_angle_beta   90.00000000
_cell_angle_gamma   90.00000000
_symmetry_Int_Tables_number   1
_chemical_formula_structural   Cu7NiC5
_chemical_formula_sum   'Cu28 Ni4 C20'
_cell_volume   1077.50846133
_cell_formula_units_Z   4
loop_
 _symmetry_equiv_pos_site_id
 _symmetry_equiv_pos_as_xyz
  1  'x, y, z'
loop_
 _atom_site_type_symbol
 _atom_site_label
 _atom_site_symmetry_multiplicity
 _atom_site_fract_x
 _atom_site_fract_y
 _atom_site_fract_z
 _atom_site_occupancy
  C  C0  1  0.44572800  0.18132800  0.07513700  1
  C  C1  1  0.24129300  0.53829900  0.06551500  1
  C  C2  1  0.73607200  0.85803100  0.09275500  1
  C  C3  1  0.24167700  0.83108800  0.25897900  1
  C  C4  1  0.05427200  0.18132800  0.57513700  1
  C  C5  1  0.94307100  0.83509100  0.91888800  1
  C  C6  1  0.05692900  0.16490900  0.08111200  1
  C  C7  1  0.23607200  0.14196900  0.40724500  1
  C  C8  1  0.94572800  0.81867200  0.42486300  1
  C  C9  1  0.74167700  0.16891200  0.24102100  1
  C  C10  1  0.76392800  0.85803100  0.59275500  1
  C  C11  1  0.75870700  0.46170100  0.93448500  1
  C  C12  1  0.25870700  0.53829900  0.56551500  1
  C  C13  1  0.44307100  0.16490900  0.58111200  1
  C  C14  1  0.75832300  0.16891200  0.74102100  1
  C  C15  1  0.26392800  0.14196900  0.90724500  1
  C  C16  1  0.55427200  0.81867200  0.92486300  1
  C  C17  1  0.74129300  0.46170100  0.43448500  1
  C  C18  1  0.25832300  0.83108800  0.75897900  1
  C  C19  1  0.55692900  0.83509100  0.41888800  1
  Ni  Ni20  1  0.00474100  0.43542300  0.75623800  1
  Ni  Ni21  1  0.49525900  0.43542300  0.25623800  1
  Ni  Ni22  1  0.99525900  0.56457700  0.24376200  1
  Ni  Ni23  1  0.50474100  0.56457700  0.74376200  1
  Cu  Cu24  1  0.66836100  0.59498000  0.00310600  1
  Cu  Cu25  1  0.63497900  0.97987400  0.78275800  1
  Cu  Cu26  1  0.85748400  0.92021000  0.77871300  1
  Cu  Cu27  1  0.24999600  0.83348300  0.91393100  1
  Cu  Cu28  1  0.36502100  0.02012600  0.21724200  1
  Cu  Cu29  1  0.17151600  0.01536700  0.04233300  1
  Cu  Cu30  1  0.61925300  0.53221900  0.49631100  1
  Cu  Cu31  1  0.83163900  0.59498000  0.50310600  1
  Cu  Cu32  1  0.64251600  0.92021000  0.27871300  1
  Cu  Cu33  1  0.86502100  0.97987400  0.28275800  1
  Cu  Cu34  1  0.25000400  0.83348300  0.41393100  1
  Cu  Cu35  1  0.14251600  0.07979000  0.22128700  1
  Cu  Cu36  1  0.13497900  0.02012600  0.71724200  1
  Cu  Cu37  1  0.88603700  0.98777400  0.49588600  1
  Cu  Cu38  1  0.75000400  0.16651700  0.08606900  1
  Cu  Cu39  1  0.38074700  0.46778100  0.50368900  1
  Cu  Cu40  1  0.82848400  0.98463300  0.95766700  1
  Cu  Cu41  1  0.33163900  0.40502000  0.99689400  1
  Cu  Cu42  1  0.74999600  0.16651700  0.58606900  1
  Cu  Cu43  1  0.88074700  0.53221900  0.99631100  1
  Cu  Cu44  1  0.35748400  0.07979000  0.72128700  1
  Cu  Cu45  1  0.67151600  0.98463300  0.45766700  1
  Cu  Cu46  1  0.11396300  0.01222600  0.50411400  1
  Cu  Cu47  1  0.16836100  0.40502000  0.49689400  1
  Cu  Cu48  1  0.32848400  0.01536700  0.54233300  1
  Cu  Cu49  1  0.11925300  0.46778100  0.00368900  1
  Cu  Cu50  1  0.38603700  0.01222600  0.00411400  1
  Cu  Cu51  1  0.61396300  0.98777400  0.99588600  1
