# generated using pymatgen
data_Cu3NiC10
_symmetry_space_group_name_H-M   'P 1'
_cell_length_a   9.97960300
_cell_length_b   6.45269700
_cell_length_c   10.77324510
_cell_angle_alpha   87.64149053
_cell_angle_beta   90.00000000
_cell_angle_gamma   90.00000000
_symmetry_Int_Tables_number   1
_chemical_formula_structural   Cu3NiC10
_chemical_formula_sum   'Cu6 Ni2 C20'
_cell_volume   693.15925716
_cell_formula_units_Z   2
loop_
 _symmetry_equiv_pos_site_id
 _symmetry_equiv_pos_as_xyz
  1  'x, y, z'
loop_
 _atom_site_type_symbol
 _atom_site_label
 _atom_site_symmetry_multiplicity
 _atom_site_fract_x
 _atom_site_fract_y
 _atom_site_fract_z
 _atom_site_occupancy
  Ni  Ni0  1  0.75000000  0.49905900  0.83257200  1
  Ni  Ni1  1  0.25000000  0.50094100  0.16742800  1
  Cu  Cu2  1  0.25000000  0.05855700  0.51750400  1
  Cu  Cu3  1  0.12401900  0.97393800  0.84457900  1
  Cu  Cu4  1  0.62401900  0.02606200  0.15542100  1
  Cu  Cu5  1  0.75000000  0.94144300  0.48249600  1
  Cu  Cu6  1  0.87598100  0.02606200  0.15542100  1
  Cu  Cu7  1  0.37598100  0.97393800  0.84457900  1
  C  C8  1  0.06578900  0.13630600  0.65258500  1
  C  C9  1  0.43421100  0.13630600  0.65258500  1
  C  C10  1  0.75000000  0.34056300  0.22569700  1
  C  C11  1  0.25000000  0.65943700  0.77430300  1
  C  C12  1  0.56578900  0.86369400  0.34741500  1
  C  C13  1  0.75000000  0.31427500  0.44268700  1
  C  C14  1  0.93421100  0.86369400  0.34741500  1
  C  C15  1  0.25000000  0.68572500  0.55731300  1
  C  C16  1  0.75000000  0.27700300  0.71719900  1
  C  C17  1  0.61522600  0.35190400  0.92935900  1
  C  C18  1  0.38662800  0.36109400  0.26453100  1
  C  C19  1  0.75000000  0.71770200  0.94856600  1
  C  C20  1  0.11337200  0.36109400  0.26453100  1
  C  C21  1  0.25000000  0.28229800  0.05143400  1
  C  C22  1  0.11522600  0.64809600  0.07064100  1
  C  C23  1  0.61337200  0.63890600  0.73546900  1
  C  C24  1  0.88662800  0.63890600  0.73546900  1
  C  C25  1  0.88477400  0.35190400  0.92935900  1
  C  C26  1  0.38477400  0.64809600  0.07064100  1
  C  C27  1  0.25000000  0.72299700  0.28280100  1
