# generated using pymatgen
data_Cu6NiC15
_symmetry_space_group_name_H-M   'P 1'
_cell_length_a   11.07269200
_cell_length_b   11.07269200
_cell_length_c   11.07269200
_cell_angle_alpha   90.00000000
_cell_angle_beta   90.00000000
_cell_angle_gamma   90.00000000
_symmetry_Int_Tables_number   1
_chemical_formula_structural   Cu6NiC15
_chemical_formula_sum   'Cu24 Ni4 C60'
_cell_volume   1357.56195630
_cell_formula_units_Z   4
loop_
 _symmetry_equiv_pos_site_id
 _symmetry_equiv_pos_as_xyz
  1  'x, y, z'
loop_
 _atom_site_type_symbol
 _atom_site_label
 _atom_site_symmetry_multiplicity
 _atom_site_fract_x
 _atom_site_fract_y
 _atom_site_fract_z
 _atom_site_occupancy
  C  C0  1  0.50000000  0.50000000  0.00000000  1
  C  C1  1  0.00000000  0.50000000  0.50000000  1
  C  C2  1  0.00000000  0.00000000  0.00000000  1
  C  C3  1  0.50000000  0.00000000  0.50000000  1
  Ni  Ni4  1  0.00000000  0.00000000  0.50000000  1
  Ni  Ni5  1  0.50000000  0.50000000  0.50000000  1
  Ni  Ni6  1  0.50000000  0.00000000  0.00000000  1
  Ni  Ni7  1  0.00000000  0.50000000  0.00000000  1
  Cu  Cu8  1  0.99119300  0.73501800  0.77245700  1
  Cu  Cu9  1  0.49119300  0.73501800  0.72754300  1
  Cu  Cu10  1  0.76498200  0.27245700  0.99119300  1
  Cu  Cu11  1  0.26498200  0.22754300  0.00880700  1
  Cu  Cu12  1  0.73501800  0.77245700  0.99119300  1
  Cu  Cu13  1  0.73501800  0.72754300  0.49119300  1
  Cu  Cu14  1  0.27245700  0.99119300  0.76498200  1
  Cu  Cu15  1  0.77245700  0.99119300  0.73501800  1
  Cu  Cu16  1  0.22754300  0.00880700  0.26498200  1
  Cu  Cu17  1  0.99119300  0.76498200  0.27245700  1
  Cu  Cu18  1  0.77245700  0.50880700  0.23501800  1
  Cu  Cu19  1  0.00880700  0.23501800  0.72754300  1
  Cu  Cu20  1  0.72754300  0.49119300  0.73501800  1
  Cu  Cu21  1  0.26498200  0.27245700  0.50880700  1
  Cu  Cu22  1  0.23501800  0.72754300  0.00880700  1
  Cu  Cu23  1  0.27245700  0.50880700  0.26498200  1
  Cu  Cu24  1  0.49119300  0.76498200  0.22754300  1
  Cu  Cu25  1  0.72754300  0.00880700  0.23501800  1
  Cu  Cu26  1  0.22754300  0.49119300  0.76498200  1
  Cu  Cu27  1  0.50880700  0.26498200  0.27245700  1
  Cu  Cu28  1  0.76498200  0.22754300  0.49119300  1
  Cu  Cu29  1  0.50880700  0.23501800  0.77245700  1
  Cu  Cu30  1  0.00880700  0.26498200  0.22754300  1
  Cu  Cu31  1  0.23501800  0.77245700  0.50880700  1
  C  C32  1  0.87747000  0.38940700  0.30717600  1
  C  C33  1  0.62253000  0.61059300  0.80717600  1
  C  C34  1  0.12450700  0.43150600  0.88674300  1
  C  C35  1  0.11059300  0.80717600  0.87747000  1
  C  C36  1  0.62253000  0.88940700  0.30717600  1
  C  C37  1  0.12253000  0.88940700  0.19282400  1
  C  C38  1  0.43150600  0.61325700  0.62450700  1
  C  C39  1  0.37747000  0.11059300  0.69282400  1
  C  C40  1  0.62450700  0.43150600  0.61325700  1
  C  C41  1  0.06849400  0.11325700  0.62450700  1
  C  C42  1  0.30717600  0.87747000  0.38940700  1
  C  C43  1  0.88674300  0.12450700  0.43150600  1
  C  C44  1  0.14751900  0.14751900  0.14751900  1
  C  C45  1  0.38940700  0.30717600  0.87747000  1
  C  C46  1  0.87549300  0.56849400  0.11325700  1
  C  C47  1  0.87549300  0.93150600  0.61325700  1
  C  C48  1  0.88940700  0.30717600  0.62253000  1
  C  C49  1  0.56849400  0.38674300  0.37549300  1
  C  C50  1  0.06849400  0.38674300  0.12450700  1
  C  C51  1  0.85248100  0.64751900  0.35248100  1
  C  C52  1  0.37549300  0.93150600  0.88674300  1
  C  C53  1  0.93150600  0.88674300  0.37549300  1
  C  C54  1  0.14751900  0.35248100  0.64751900  1
  C  C55  1  0.43150600  0.88674300  0.12450700  1
  C  C56  1  0.37747000  0.38940700  0.19282400  1
  C  C57  1  0.12253000  0.61059300  0.69282400  1
  C  C58  1  0.56849400  0.11325700  0.87549300  1
  C  C59  1  0.38940700  0.19282400  0.37747000  1
  C  C60  1  0.80717600  0.87747000  0.11059300  1
  C  C61  1  0.19282400  0.37747000  0.38940700  1
  C  C62  1  0.37549300  0.56849400  0.38674300  1
  C  C63  1  0.11059300  0.69282400  0.37747000  1
  C  C64  1  0.85248100  0.85248100  0.85248100  1
  C  C65  1  0.88940700  0.19282400  0.12253000  1
  C  C66  1  0.12450700  0.06849400  0.38674300  1
  C  C67  1  0.69282400  0.37747000  0.11059300  1
  C  C68  1  0.64751900  0.35248100  0.85248100  1
  C  C69  1  0.11325700  0.87549300  0.56849400  1
  C  C70  1  0.19282400  0.12253000  0.88940700  1
  C  C71  1  0.61059300  0.80717600  0.62253000  1
  C  C72  1  0.30717600  0.62253000  0.88940700  1
  C  C73  1  0.93150600  0.61325700  0.87549300  1
  C  C74  1  0.61059300  0.69282400  0.12253000  1
  C  C75  1  0.11325700  0.62450700  0.06849400  1
  C  C76  1  0.61325700  0.62450700  0.43150600  1
  C  C77  1  0.69282400  0.12253000  0.61059300  1
  C  C78  1  0.80717600  0.62253000  0.61059300  1
  C  C79  1  0.35248100  0.85248100  0.64751900  1
  C  C80  1  0.87747000  0.11059300  0.80717600  1
  C  C81  1  0.61325700  0.87549300  0.93150600  1
  C  C82  1  0.88674300  0.37549300  0.93150600  1
  C  C83  1  0.64751900  0.14751900  0.35248100  1
  C  C84  1  0.35248100  0.64751900  0.14751900  1
  C  C85  1  0.62450700  0.06849400  0.11325700  1
  C  C86  1  0.38674300  0.12450700  0.06849400  1
  C  C87  1  0.38674300  0.37549300  0.56849400  1
