# generated using pymatgen
data_Cu3Ni2C
_symmetry_space_group_name_H-M   'P 1'
_cell_length_a   7.24003232
_cell_length_b   7.24003232
_cell_length_c   14.84982800
_cell_angle_alpha   90.00000000
_cell_angle_beta   90.00000000
_cell_angle_gamma   120.00000288
_symmetry_Int_Tables_number   1
_chemical_formula_structural   Cu3Ni2C
_chemical_formula_sum   'Cu18 Ni12 C6'
_cell_volume   674.11354225
_cell_formula_units_Z   6
loop_
 _symmetry_equiv_pos_site_id
 _symmetry_equiv_pos_as_xyz
  1  'x, y, z'
loop_
 _atom_site_type_symbol
 _atom_site_label
 _atom_site_symmetry_multiplicity
 _atom_site_fract_x
 _atom_site_fract_y
 _atom_site_fract_z
 _atom_site_occupancy
  C  C0  1  0.33333300  0.66666700  0.06954600  1
  C  C1  1  0.66666700  0.33333300  0.93045400  1
  C  C2  1  0.33333300  0.66666700  0.43045400  1
  C  C3  1  0.66666700  0.33333300  0.56954600  1
  C  C4  1  0.00000000  0.00000000  0.00000000  1
  C  C5  1  0.00000000  0.00000000  0.50000000  1
  Ni  Ni6  1  0.85772200  0.19770600  0.32756800  1
  Ni  Ni7  1  0.85772200  0.19770600  0.17243200  1
  Ni  Ni8  1  0.66001600  0.85772200  0.82756800  1
  Ni  Ni9  1  0.33998400  0.14227800  0.32756800  1
  Ni  Ni10  1  0.14227800  0.80229400  0.67243200  1
  Ni  Ni11  1  0.14227800  0.80229400  0.82756800  1
  Ni  Ni12  1  0.66001600  0.85772200  0.67243200  1
  Ni  Ni13  1  0.80229400  0.66001600  0.32756800  1
  Ni  Ni14  1  0.80229400  0.66001600  0.17243200  1
  Ni  Ni15  1  0.19770600  0.33998400  0.67243200  1
  Ni  Ni16  1  0.33998400  0.14227800  0.17243200  1
  Ni  Ni17  1  0.19770600  0.33998400  0.82756800  1
  Cu  Cu18  1  0.86574500  0.67260900  0.40208800  1
  Cu  Cu19  1  0.32739100  0.19313600  0.40208800  1
  Cu  Cu20  1  0.71281400  0.64401500  0.25000000  1
  Cu  Cu21  1  0.80686400  0.13425500  0.40208800  1
  Cu  Cu22  1  0.67260900  0.80686400  0.59791200  1
  Cu  Cu23  1  0.67260900  0.80686400  0.90208800  1
  Cu  Cu24  1  0.28718600  0.35598500  0.75000000  1
  Cu  Cu25  1  0.13425500  0.32739100  0.90208800  1
  Cu  Cu26  1  0.19313600  0.86574500  0.90208800  1
  Cu  Cu27  1  0.19313600  0.86574500  0.59791200  1
  Cu  Cu28  1  0.06879900  0.71281400  0.75000000  1
  Cu  Cu29  1  0.13425500  0.32739100  0.59791200  1
  Cu  Cu30  1  0.64401500  0.93120100  0.75000000  1
  Cu  Cu31  1  0.80686400  0.13425500  0.09791200  1
  Cu  Cu32  1  0.35598500  0.06879900  0.25000000  1
  Cu  Cu33  1  0.32739100  0.19313600  0.09791200  1
  Cu  Cu34  1  0.93120100  0.28718600  0.25000000  1
  Cu  Cu35  1  0.86574500  0.67260900  0.09791200  1
