# generated using pymatgen
data_Cu4NiC7
_symmetry_space_group_name_H-M   'P 1'
_cell_length_a   6.36384396
_cell_length_b   6.36384396
_cell_length_c   5.22112800
_cell_angle_alpha   90.00000000
_cell_angle_beta   90.00000000
_cell_angle_gamma   118.06880590
_symmetry_Int_Tables_number   1
_chemical_formula_structural   Cu4NiC7
_chemical_formula_sum   'Cu8 Ni2 C14'
_cell_volume   186.57807286
_cell_formula_units_Z   2
loop_
 _symmetry_equiv_pos_site_id
 _symmetry_equiv_pos_as_xyz
  1  'x, y, z'
loop_
 _atom_site_type_symbol
 _atom_site_label
 _atom_site_symmetry_multiplicity
 _atom_site_fract_x
 _atom_site_fract_y
 _atom_site_fract_z
 _atom_site_occupancy
  Ni  Ni0  1  0.76610300  0.76610300  0.75000000  1
  Ni  Ni1  1  0.23389700  0.23389700  0.25000000  1
  Cu  Cu2  1  0.70242900  0.29757100  0.50000000  1
  Cu  Cu3  1  0.29757100  0.70242900  0.00000000  1
  Cu  Cu4  1  0.70242900  0.29757100  0.00000000  1
  Cu  Cu5  1  0.68956400  0.92463100  0.25000000  1
  Cu  Cu6  1  0.92463100  0.68956400  0.25000000  1
  Cu  Cu7  1  0.29757100  0.70242900  0.50000000  1
  Cu  Cu8  1  0.07536900  0.31043600  0.75000000  1
  Cu  Cu9  1  0.31043600  0.07536900  0.75000000  1
  C  C10  1  0.92034100  0.92034100  0.25000000  1
  C  C11  1  0.44580600  0.18930700  0.97694100  1
  C  C12  1  0.07965900  0.07965900  0.75000000  1
  C  C13  1  0.55419400  0.81069300  0.02305900  1
  C  C14  1  0.81069300  0.55419400  0.47694100  1
  C  C15  1  0.19550300  0.75492600  0.25000000  1
  C  C16  1  0.44580600  0.18930700  0.52305900  1
  C  C17  1  0.18930700  0.44580600  0.97694100  1
  C  C18  1  0.24507400  0.80449700  0.75000000  1
  C  C19  1  0.81069300  0.55419400  0.02305900  1
  C  C20  1  0.75492600  0.19550300  0.25000000  1
  C  C21  1  0.18930700  0.44580600  0.52305900  1
  C  C22  1  0.80449700  0.24507400  0.75000000  1
  C  C23  1  0.55419400  0.81069300  0.47694100  1
