# generated using pymatgen
data_Cu11NiC14
_symmetry_space_group_name_H-M   'P 1'
_cell_length_a   17.95679985
_cell_length_b   17.95679985
_cell_length_c   17.95679985
_cell_angle_alpha   117.88730789
_cell_angle_beta   117.88730789
_cell_angle_gamma   93.69997866
_symmetry_Int_Tables_number   1
_chemical_formula_structural   Cu11NiC14
_chemical_formula_sum   'Cu44 Ni4 C56'
_cell_volume   4215.46032204
_cell_formula_units_Z   4
loop_
 _symmetry_equiv_pos_site_id
 _symmetry_equiv_pos_as_xyz
  1  'x, y, z'
loop_
 _atom_site_type_symbol
 _atom_site_label
 _atom_site_symmetry_multiplicity
 _atom_site_fract_x
 _atom_site_fract_y
 _atom_site_fract_z
 _atom_site_occupancy
  C  C0  1  0.62631400  0.28642400  0.97582100  1
  C  C1  1  0.90049300  0.06060300  0.52417900  1
  C  C2  1  0.13214400  0.49832600  0.72311700  1
  C  C3  1  0.65902700  0.52520900  0.77688300  1
  C  C4  1  0.40049300  0.87631400  0.83989000  1
  C  C5  1  0.81060300  0.78642400  0.66011000  1
  C  C6  1  0.03642400  0.56060300  0.16011000  1
  C  C7  1  0.12631400  0.15049300  0.33989000  1
  C  C8  1  0.89456300  0.74825200  0.89422100  1
  C  C9  1  0.15902700  0.38214400  0.13381800  1
  C  C10  1  0.25034200  0.60403100  0.60577900  1
  C  C11  1  0.27520900  0.99832600  0.36618200  1
  C  C12  1  0.75174800  0.60543700  0.10577900  1
  C  C13  1  0.31060300  0.65049300  0.02417900  1
  C  C14  1  0.89596900  0.24965800  0.39422100  1
  C  C15  1  0.24832600  0.02520900  0.86618200  1
  C  C16  1  0.98111800  0.87500000  0.60611800  1
  C  C17  1  0.53642400  0.37631400  0.47582100  1
  C  C18  1  0.63214400  0.90902700  0.63381800  1
  C  C19  1  0.62500000  0.01888200  0.89388200  1
  C  C20  1  0.49825200  0.10403100  0.35368900  1
  C  C21  1  0.39456300  0.50034200  0.14631100  1
  C  C22  1  0.62500000  0.51888200  0.39388200  1
  C  C23  1  0.48111800  0.87500000  0.10611800  1
  C  C24  1  0.75034200  0.14456300  0.64631100  1
  C  C25  1  0.00167400  0.36785600  0.27688300  1
  C  C26  1  0.77520900  0.40902700  0.27688300  1
  C  C27  1  0.35403100  0.24825200  0.85368900  1
  C  C28  1  0.39596900  0.00174800  0.64631100  1
  C  C29  1  0.97479100  0.84097300  0.22311700  1
  C  C30  1  0.74832600  0.88214400  0.22311700  1
  C  C31  1  0.99965800  0.10543700  0.85368900  1
  C  C32  1  0.26888200  0.37500000  0.39388200  1
  C  C33  1  0.12500000  0.73111800  0.10611800  1
  C  C34  1  0.35543700  0.74965800  0.35368900  1
  C  C35  1  0.25174800  0.14596900  0.14631100  1
  C  C36  1  0.12500000  0.23111800  0.60611800  1
  C  C37  1  0.11785600  0.34097300  0.86618200  1
  C  C38  1  0.21357600  0.87368600  0.02417900  1
  C  C39  1  0.76888200  0.37500000  0.89388200  1
  C  C40  1  0.50167400  0.22479100  0.63381800  1
  C  C41  1  0.85403100  0.00034200  0.10577900  1
  C  C42  1  0.43939700  0.59950700  0.47582100  1
  C  C43  1  0.99825200  0.64456300  0.39422100  1
  C  C44  1  0.47479100  0.25167400  0.13381800  1
  C  C45  1  0.49965800  0.64596900  0.89422100  1
  C  C46  1  0.59097300  0.86785600  0.36618200  1
  C  C47  1  0.85543700  0.50174800  0.60577900  1
  C  C48  1  0.62368600  0.09950700  0.16011000  1
  C  C49  1  0.71357600  0.68939700  0.33989000  1
  C  C50  1  0.93939700  0.46357600  0.83989000  1
  C  C51  1  0.34950700  0.37368600  0.66011000  1
  C  C52  1  0.09097300  0.72479100  0.72311700  1
  C  C53  1  0.61785600  0.75167400  0.77688300  1
  C  C54  1  0.84950700  0.18939700  0.97582100  1
  C  C55  1  0.12368600  0.96357600  0.52417900  1
  Ni  Ni56  1  0.25000000  0.75000000  0.50000000  1
  Ni  Ni57  1  0.75000000  0.25000000  0.50000000  1
  Ni  Ni58  1  0.50000000  0.50000000  0.00000000  1
  Ni  Ni59  1  0.00000000  0.00000000  0.00000000  1
  Cu  Cu60  1  0.85341700  0.44557300  0.14220000  1
  Cu  Cu61  1  0.96121700  0.05337300  0.35780000  1
  Cu  Cu62  1  0.19557300  0.55337300  0.09215600  1
  Cu  Cu63  1  0.35341700  0.21121700  0.40784400  1
  Cu  Cu64  1  0.19296300  0.56004100  0.37174800  1
  Cu  Cu65  1  0.07121600  0.93829400  0.12825200  1
  Cu  Cu66  1  0.31004100  0.43829400  0.86707800  1
  Cu  Cu67  1  0.69296300  0.32121600  0.63292200  1
  Cu  Cu68  1  0.57121600  0.44296300  0.13292200  1
  Cu  Cu69  1  0.68829400  0.06004100  0.36707800  1
  Cu  Cu70  1  0.37035600  0.87035600  0.24071300  1
  Cu  Cu71  1  0.25000000  0.25000000  0.00000000  1
  Cu  Cu72  1  0.12035600  0.12035600  0.74071300  1
  Cu  Cu73  1  0.46121700  0.10341700  0.90784400  1
  Cu  Cu74  1  0.80337300  0.94557300  0.59215600  1
  Cu  Cu75  1  0.18829400  0.82121600  0.62825200  1
  Cu  Cu76  1  0.81004100  0.94296300  0.87174800  1
  Cu  Cu77  1  0.62035600  0.87964400  0.00000000  1
  Cu  Cu78  1  0.87035600  0.62964400  0.50000000  1
  Cu  Cu79  1  0.05442700  0.64658300  0.85780000  1
  Cu  Cu80  1  0.44662700  0.53878300  0.64220000  1
  Cu  Cu81  1  0.75000000  0.75000000  0.00000000  1
  Cu  Cu82  1  0.00000000  0.50000000  0.50000000  1
  Cu  Cu83  1  0.30337300  0.71121700  0.85780000  1
  Cu  Cu84  1  0.69557300  0.60341700  0.64220000  1
  Cu  Cu85  1  0.87964400  0.62035600  0.00000000  1
  Cu  Cu86  1  0.12964400  0.37035600  0.50000000  1
  Cu  Cu87  1  0.93995900  0.30703700  0.62825200  1
  Cu  Cu88  1  0.56170600  0.42878400  0.87174800  1
  Cu  Cu89  1  0.94662700  0.30442700  0.90784400  1
  Cu  Cu90  1  0.28878300  0.14658300  0.59215600  1
  Cu  Cu91  1  0.62964400  0.12964400  0.75928700  1
  Cu  Cu92  1  0.50000000  0.00000000  0.50000000  1
  Cu  Cu93  1  0.37964400  0.37964400  0.25928700  1
  Cu  Cu94  1  0.06170600  0.18995900  0.13292200  1
  Cu  Cu95  1  0.17878400  0.80703700  0.36707800  1
  Cu  Cu96  1  0.05703700  0.92878400  0.86707800  1
  Cu  Cu97  1  0.43995900  0.81170600  0.63292200  1
  Cu  Cu98  1  0.67878400  0.31170600  0.37174800  1
  Cu  Cu99  1  0.55703700  0.68995900  0.12825200  1
  Cu  Cu100  1  0.39658300  0.03878300  0.09215600  1
  Cu  Cu101  1  0.55442700  0.69662700  0.40784400  1
  Cu  Cu102  1  0.78878300  0.19662700  0.14220000  1
  Cu  Cu103  1  0.89658300  0.80442700  0.35780000  1
