# generated using pymatgen
data_CuNiC12
_symmetry_space_group_name_H-M   'P 1'
_cell_length_a   9.62576800
_cell_length_b   9.62576800
_cell_length_c   9.62576800
_cell_angle_alpha   90.00000000
_cell_angle_beta   90.00000000
_cell_angle_gamma   90.00000000
_symmetry_Int_Tables_number   1
_chemical_formula_structural   CuNiC12
_chemical_formula_sum   'Cu4 Ni4 C48'
_cell_volume   891.87947666
_cell_formula_units_Z   4
loop_
 _symmetry_equiv_pos_site_id
 _symmetry_equiv_pos_as_xyz
  1  'x, y, z'
loop_
 _atom_site_type_symbol
 _atom_site_label
 _atom_site_symmetry_multiplicity
 _atom_site_fract_x
 _atom_site_fract_y
 _atom_site_fract_z
 _atom_site_occupancy
  Ni  Ni0  1  0.00000000  0.00000000  0.50000000  1
  Ni  Ni1  1  0.00000000  0.50000000  0.00000000  1
  Ni  Ni2  1  0.50000000  0.00000000  0.00000000  1
  Ni  Ni3  1  0.50000000  0.50000000  0.50000000  1
  Cu  Cu4  1  0.00000000  0.00000000  0.00000000  1
  Cu  Cu5  1  0.50000000  0.00000000  0.50000000  1
  Cu  Cu6  1  0.50000000  0.50000000  0.00000000  1
  Cu  Cu7  1  0.00000000  0.50000000  0.50000000  1
  C  C8  1  0.88397700  0.63681500  0.56204400  1
  C  C9  1  0.44043100  0.60254400  0.64154900  1
  C  C10  1  0.89745600  0.35845100  0.94043100  1
  C  C11  1  0.11602300  0.13681500  0.93795600  1
  C  C12  1  0.36318500  0.43795600  0.11602300  1
  C  C13  1  0.38397700  0.86318500  0.43795600  1
  C  C14  1  0.35845100  0.94043100  0.89745600  1
  C  C15  1  0.05956900  0.39745600  0.14154900  1
  C  C16  1  0.36318500  0.06204400  0.61602300  1
  C  C17  1  0.88397700  0.86318500  0.06204400  1
  C  C18  1  0.05956900  0.10254400  0.64154900  1
  C  C19  1  0.55956900  0.39745600  0.35845100  1
  C  C20  1  0.86318500  0.06204400  0.88397700  1
  C  C21  1  0.43795600  0.11602300  0.36318500  1
  C  C22  1  0.14154900  0.44043100  0.89745600  1
  C  C23  1  0.63681500  0.56204400  0.88397700  1
  C  C24  1  0.63681500  0.93795600  0.38397700  1
  C  C25  1  0.64154900  0.05956900  0.10254400  1
  C  C26  1  0.61602300  0.36318500  0.06204400  1
  C  C27  1  0.85845100  0.94043100  0.60254400  1
  C  C28  1  0.93795600  0.11602300  0.13681500  1
  C  C29  1  0.06204400  0.61602300  0.36318500  1
  C  C30  1  0.10254400  0.64154900  0.05956900  1
  C  C31  1  0.55956900  0.10254400  0.85845100  1
  C  C32  1  0.64154900  0.44043100  0.60254400  1
  C  C33  1  0.13681500  0.56204400  0.61602300  1
  C  C34  1  0.39745600  0.14154900  0.05956900  1
  C  C35  1  0.14154900  0.05956900  0.39745600  1
  C  C36  1  0.06204400  0.88397700  0.86318500  1
  C  C37  1  0.44043100  0.89745600  0.14154900  1
  C  C38  1  0.13681500  0.93795600  0.11602300  1
  C  C39  1  0.38397700  0.63681500  0.93795600  1
  C  C40  1  0.85845100  0.55956900  0.10254400  1
  C  C41  1  0.89745600  0.14154900  0.44043100  1
  C  C42  1  0.86318500  0.43795600  0.38397700  1
  C  C43  1  0.60254400  0.64154900  0.44043100  1
  C  C44  1  0.60254400  0.85845100  0.94043100  1
  C  C45  1  0.11602300  0.36318500  0.43795600  1
  C  C46  1  0.56204400  0.61602300  0.13681500  1
  C  C47  1  0.43795600  0.38397700  0.86318500  1
  C  C48  1  0.35845100  0.55956900  0.39745600  1
  C  C49  1  0.94043100  0.60254400  0.85845100  1
  C  C50  1  0.61602300  0.13681500  0.56204400  1
  C  C51  1  0.93795600  0.38397700  0.63681500  1
  C  C52  1  0.94043100  0.89745600  0.35845100  1
  C  C53  1  0.39745600  0.35845100  0.55956900  1
  C  C54  1  0.10254400  0.85845100  0.55956900  1
  C  C55  1  0.56204400  0.88397700  0.63681500  1
