# generated using pymatgen
data_Cu9NiC8
_symmetry_space_group_name_H-M   'P 1'
_cell_length_a   8.79787207
_cell_length_b   8.79787207
_cell_length_c   7.48775300
_cell_angle_alpha   90.00000000
_cell_angle_beta   90.00000000
_cell_angle_gamma   109.99575621
_symmetry_Int_Tables_number   1
_chemical_formula_structural   Cu9NiC8
_chemical_formula_sum   'Cu18 Ni2 C16'
_cell_volume   544.63345821
_cell_formula_units_Z   2
loop_
 _symmetry_equiv_pos_site_id
 _symmetry_equiv_pos_as_xyz
  1  'x, y, z'
loop_
 _atom_site_type_symbol
 _atom_site_label
 _atom_site_symmetry_multiplicity
 _atom_site_fract_x
 _atom_site_fract_y
 _atom_site_fract_z
 _atom_site_occupancy
  C  C0  1  0.76126400  0.76126400  0.00000000  1
  C  C1  1  0.26211300  0.00464200  0.93623400  1
  C  C2  1  0.23873600  0.23873600  0.50000000  1
  C  C3  1  0.63496000  0.36504000  0.75000000  1
  C  C4  1  0.36504000  0.63496000  0.25000000  1
  C  C5  1  0.36230200  0.63769800  0.75000000  1
  C  C6  1  0.73788700  0.99535800  0.43623400  1
  C  C7  1  0.63769800  0.36230200  0.25000000  1
  C  C8  1  0.99535800  0.73788700  0.56376600  1
  C  C9  1  0.00464200  0.26211300  0.06376600  1
  C  C10  1  0.98527800  0.40929600  0.47061600  1
  C  C11  1  0.59070400  0.01472200  0.02938400  1
  C  C12  1  0.37016000  0.37016000  0.00000000  1
  C  C13  1  0.40929600  0.98527800  0.52938400  1
  C  C14  1  0.62984000  0.62984000  0.50000000  1
  C  C15  1  0.01472200  0.59070400  0.97061600  1
  Ni  Ni16  1  0.94674800  0.05325200  0.75000000  1
  Ni  Ni17  1  0.05325200  0.94674800  0.25000000  1
  Cu  Cu18  1  0.49083700  0.49083700  0.50000000  1
  Cu  Cu19  1  0.44477600  0.84696100  0.48748000  1
  Cu  Cu20  1  0.50916300  0.50916300  0.00000000  1
  Cu  Cu21  1  0.30335600  0.30484200  0.16224300  1
  Cu  Cu22  1  0.84696100  0.44477600  0.51252000  1
  Cu  Cu23  1  0.02859500  0.73466800  0.88567900  1
  Cu  Cu24  1  0.97140500  0.26533200  0.38567900  1
  Cu  Cu25  1  0.69664400  0.69515800  0.66224300  1
  Cu  Cu26  1  0.30484200  0.30335600  0.83775700  1
  Cu  Cu27  1  0.15303900  0.55522400  0.01252000  1
  Cu  Cu28  1  0.52124500  0.13920600  0.49023400  1
  Cu  Cu29  1  0.73466800  0.02859500  0.11432100  1
  Cu  Cu30  1  0.69515800  0.69664400  0.33775700  1
  Cu  Cu31  1  0.47875500  0.86079400  0.99023400  1
  Cu  Cu32  1  0.55522400  0.15303900  0.98748000  1
  Cu  Cu33  1  0.86079400  0.47875500  0.00976600  1
  Cu  Cu34  1  0.26533200  0.97140500  0.61432100  1
  Cu  Cu35  1  0.13920600  0.52124500  0.50976600  1
