# generated using pymatgen
data_Cu2(Ni2C7)3
_symmetry_space_group_name_H-M   'P 1'
_cell_length_a   5.91000658
_cell_length_b   5.91000658
_cell_length_c   14.75961800
_cell_angle_alpha   90.00000000
_cell_angle_beta   90.00000000
_cell_angle_gamma   120.00000647
_symmetry_Int_Tables_number   1
_chemical_formula_structural   Cu2(Ni2C7)3
_chemical_formula_sum   'Cu2 Ni6 C21'
_cell_volume   446.45906910
_cell_formula_units_Z   1
loop_
 _symmetry_equiv_pos_site_id
 _symmetry_equiv_pos_as_xyz
  1  'x, y, z'
loop_
 _atom_site_type_symbol
 _atom_site_label
 _atom_site_symmetry_multiplicity
 _atom_site_fract_x
 _atom_site_fract_y
 _atom_site_fract_z
 _atom_site_occupancy
  Ni  Ni0  1  0.66666700  0.33333300  0.65619300  1
  Ni  Ni1  1  0.33333300  0.66666700  0.34380700  1
  Ni  Ni2  1  0.66666700  0.33333300  0.18031300  1
  Ni  Ni3  1  0.33333300  0.66666700  0.81968700  1
  Ni  Ni4  1  0.00000000  0.00000000  0.00000000  1
  Ni  Ni5  1  0.00000000  0.00000000  0.50000000  1
  Cu  Cu6  1  0.00000000  0.00000000  0.75300300  1
  Cu  Cu7  1  0.00000000  0.00000000  0.24699700  1
  C  C8  1  0.33333300  0.66666700  0.58811500  1
  C  C9  1  0.66666700  0.33333300  0.41188500  1
  C  C10  1  0.33333300  0.66666700  0.10473100  1
  C  C11  1  0.66666700  0.33333300  0.89526900  1
  C  C12  1  0.17648000  0.35296000  0.66098600  1
  C  C13  1  0.81018400  0.18981600  0.85715300  1
  C  C14  1  0.50000000  0.00000000  0.50000000  1
  C  C15  1  0.64704000  0.82352000  0.66098600  1
  C  C16  1  0.18981600  0.37963200  0.14284700  1
  C  C17  1  0.33333300  0.66666700  0.00040500  1
  C  C18  1  0.82352000  0.64704000  0.33901400  1
  C  C19  1  0.82352000  0.17648000  0.33901400  1
  C  C20  1  0.62036800  0.81018400  0.14284700  1
  C  C21  1  0.66666700  0.33333300  0.99959500  1
  C  C22  1  0.81018400  0.62036800  0.85715300  1
  C  C23  1  0.37963200  0.18981600  0.85715300  1
  C  C24  1  0.18981600  0.81018400  0.14284700  1
  C  C25  1  0.00000000  0.50000000  0.50000000  1
  C  C26  1  0.17648000  0.82352000  0.66098600  1
  C  C27  1  0.35296000  0.17648000  0.33901400  1
  C  C28  1  0.50000000  0.50000000  0.50000000  1
