# generated using pymatgen
data_CuNi2C7
_symmetry_space_group_name_H-M   'P 1'
_cell_length_a   10.80258952
_cell_length_b   10.80258952
_cell_length_c   10.80258984
_cell_angle_alpha   33.78505130
_cell_angle_beta   33.78505130
_cell_angle_gamma   33.78505037
_symmetry_Int_Tables_number   1
_chemical_formula_structural   CuNi2C7
_chemical_formula_sum   'Cu2 Ni4 C14'
_cell_volume   347.34605819
_cell_formula_units_Z   2
loop_
 _symmetry_equiv_pos_site_id
 _symmetry_equiv_pos_as_xyz
  1  'x, y, z'
loop_
 _atom_site_type_symbol
 _atom_site_label
 _atom_site_symmetry_multiplicity
 _atom_site_fract_x
 _atom_site_fract_y
 _atom_site_fract_z
 _atom_site_occupancy
  Ni  Ni0  1  0.28354400  0.28354400  0.28354400  1
  Ni  Ni1  1  0.12782500  0.12782500  0.12782500  1
  Ni  Ni2  1  0.71645600  0.71645600  0.71645600  1
  Ni  Ni3  1  0.87217500  0.87217500  0.87217500  1
  Cu  Cu4  1  0.40441900  0.40441900  0.40441900  1
  Cu  Cu5  1  0.59558100  0.59558100  0.59558100  1
  C  C6  1  0.00000000  0.00000000  0.00000000  1
  C  C7  1  0.50000000  0.50000000  0.50000000  1
  C  C8  1  0.17848600  0.74858900  0.17848600  1
  C  C9  1  0.82151400  0.25141100  0.82151400  1
  C  C10  1  0.74858900  0.17848600  0.17848600  1
  C  C11  1  0.60211800  0.18518400  0.60211800  1
  C  C12  1  0.39788200  0.39788200  0.81481600  1
  C  C13  1  0.82151400  0.82151400  0.25141100  1
  C  C14  1  0.60211800  0.60211800  0.18518400  1
  C  C15  1  0.17848600  0.17848600  0.74858900  1
  C  C16  1  0.81481600  0.39788200  0.39788200  1
  C  C17  1  0.25141100  0.82151400  0.82151400  1
  C  C18  1  0.39788200  0.81481600  0.39788200  1
  C  C19  1  0.18518400  0.60211800  0.60211800  1
