# generated using pymatgen
data_Cu(Ni2C3)3
_symmetry_space_group_name_H-M   'P 1'
_cell_length_a   7.57030350
_cell_length_b   7.57030350
_cell_length_c   12.44946100
_cell_angle_alpha   90.00000000
_cell_angle_beta   90.00000000
_cell_angle_gamma   119.99999562
_symmetry_Int_Tables_number   1
_chemical_formula_structural   Cu(Ni2C3)3
_chemical_formula_sum   'Cu2 Ni12 C18'
_cell_volume   617.88518455
_cell_formula_units_Z   2
loop_
 _symmetry_equiv_pos_site_id
 _symmetry_equiv_pos_as_xyz
  1  'x, y, z'
loop_
 _atom_site_type_symbol
 _atom_site_label
 _atom_site_symmetry_multiplicity
 _atom_site_fract_x
 _atom_site_fract_y
 _atom_site_fract_z
 _atom_site_occupancy
  Ni  Ni0  1  0.83887600  0.67775300  0.10490300  1
  Ni  Ni1  1  0.50351200  0.49648800  0.35381100  1
  Ni  Ni2  1  0.00702400  0.50351200  0.85381100  1
  Ni  Ni3  1  0.83887600  0.16112400  0.10490300  1
  Ni  Ni4  1  0.49648800  0.50351200  0.85381100  1
  Ni  Ni5  1  0.16112400  0.32224700  0.60490300  1
  Ni  Ni6  1  0.50351200  0.00702400  0.35381100  1
  Ni  Ni7  1  0.99297600  0.49648800  0.35381100  1
  Ni  Ni8  1  0.16112400  0.83887600  0.60490300  1
  Ni  Ni9  1  0.49648800  0.99297600  0.85381100  1
  Ni  Ni10  1  0.67775300  0.83887600  0.60490300  1
  Ni  Ni11  1  0.32224700  0.16112400  0.10490300  1
  Cu  Cu12  1  0.00000000  0.00000000  0.85178600  1
  Cu  Cu13  1  0.00000000  0.00000000  0.35178600  1
  C  C14  1  0.33333300  0.66666700  0.48147600  1
  C  C15  1  0.66666700  0.33333300  0.98147600  1
  C  C16  1  0.00000000  0.00000000  0.03427700  1
  C  C17  1  0.32955100  0.16477600  0.28968100  1
  C  C18  1  0.83522400  0.16477600  0.28968100  1
  C  C19  1  0.00659900  0.50330000  0.54128800  1
  C  C20  1  0.83522400  0.67044900  0.28968100  1
  C  C21  1  0.66666700  0.33333300  0.79941300  1
  C  C22  1  0.16477600  0.32955100  0.78968100  1
  C  C23  1  0.49670000  0.50330000  0.54128800  1
  C  C24  1  0.00000000  0.00000000  0.53427700  1
  C  C25  1  0.33333300  0.66666700  0.29941300  1
  C  C26  1  0.99340100  0.49670000  0.04128800  1
  C  C27  1  0.49670000  0.99340100  0.54128800  1
  C  C28  1  0.16477600  0.83522400  0.78968100  1
  C  C29  1  0.67044900  0.83522400  0.78968100  1
  C  C30  1  0.50330000  0.00659900  0.04128800  1
  C  C31  1  0.50330000  0.49670000  0.04128800  1
