# generated using pymatgen
data_Cu4(NiC)3
_symmetry_space_group_name_H-M   'P 1'
_cell_length_a   3.97260800
_cell_length_b   15.76082000
_cell_length_c   18.27086800
_cell_angle_alpha   90.00000000
_cell_angle_beta   90.00000000
_cell_angle_gamma   90.00000000
_symmetry_Int_Tables_number   1
_chemical_formula_structural   Cu4(NiC)3
_chemical_formula_sum   'Cu24 Ni18 C18'
_cell_volume   1143.96754106
_cell_formula_units_Z   6
loop_
 _symmetry_equiv_pos_site_id
 _symmetry_equiv_pos_as_xyz
  1  'x, y, z'
loop_
 _atom_site_type_symbol
 _atom_site_label
 _atom_site_symmetry_multiplicity
 _atom_site_fract_x
 _atom_site_fract_y
 _atom_site_fract_z
 _atom_site_occupancy
  C  C0  1  0.50000000  0.67470300  0.61453700  1
  C  C1  1  0.50000000  0.15008400  0.90083700  1
  C  C2  1  0.00000000  0.82529700  0.38546300  1
  C  C3  1  0.50000000  0.84991600  0.90083700  1
  C  C4  1  0.50000000  0.32529700  0.61453700  1
  C  C5  1  0.00000000  0.00000000  0.13388800  1
  C  C6  1  0.00000000  0.17470300  0.38546300  1
  C  C7  1  0.50000000  0.50000000  0.34503100  1
  C  C8  1  0.00000000  0.65008400  0.09916300  1
  C  C9  1  0.50000000  0.50000000  0.86611200  1
  C  C10  1  0.00000000  0.34991600  0.09916300  1
  C  C11  1  0.00000000  0.00000000  0.65496900  1
  C  C12  1  0.00000000  0.50000000  0.51678700  1
  C  C13  1  0.50000000  0.80692300  0.20297200  1
  C  C14  1  0.50000000  0.19307700  0.20297200  1
  C  C15  1  0.00000000  0.69307700  0.79702800  1
  C  C16  1  0.00000000  0.30692300  0.79702800  1
  C  C17  1  0.50000000  0.00000000  0.48321300  1
  Ni  Ni18  1  0.50000000  0.66742800  0.97335200  1
  Ni  Ni19  1  0.00000000  0.83257200  0.02664800  1
  Ni  Ni20  1  0.00000000  0.00000000  0.85582600  1
  Ni  Ni21  1  0.50000000  0.33257200  0.97335200  1
  Ni  Ni22  1  0.00000000  0.50000000  0.99744400  1
  Ni  Ni23  1  0.50000000  0.50000000  0.14417400  1
  Ni  Ni24  1  0.00000000  0.16742800  0.02664800  1
  Ni  Ni25  1  0.50000000  0.11385000  0.72738400  1
  Ni  Ni26  1  0.00000000  0.38615000  0.27261600  1
  Ni  Ni27  1  0.50000000  0.88615000  0.72738400  1
  Ni  Ni28  1  0.50000000  0.50000000  0.70062400  1
  Ni  Ni29  1  0.00000000  0.18761200  0.56213200  1
  Ni  Ni30  1  0.50000000  0.68761200  0.43786800  1
  Ni  Ni31  1  0.50000000  0.00000000  0.00255600  1
  Ni  Ni32  1  0.00000000  0.00000000  0.29937600  1
  Ni  Ni33  1  0.50000000  0.31238800  0.43786800  1
  Ni  Ni34  1  0.00000000  0.81238800  0.56213200  1
  Ni  Ni35  1  0.00000000  0.61385000  0.27261600  1
  Cu  Cu36  1  0.00000000  0.41506400  0.83973100  1
  Cu  Cu37  1  0.50000000  0.50000000  0.51028600  1
  Cu  Cu38  1  0.00000000  0.30751500  0.69431800  1
  Cu  Cu39  1  0.50000000  0.08493600  0.16026900  1
  Cu  Cu40  1  0.00000000  0.58493600  0.83973100  1
  Cu  Cu41  1  0.00000000  0.20090800  0.19832700  1
  Cu  Cu42  1  0.00000000  0.79502400  0.85885800  1
  Cu  Cu43  1  0.50000000  0.00000000  0.58931200  1
  Cu  Cu44  1  0.50000000  0.70497600  0.14114200  1
  Cu  Cu45  1  0.50000000  0.70090800  0.80167300  1
  Cu  Cu46  1  0.00000000  0.20497600  0.85885800  1
  Cu  Cu47  1  0.00000000  0.69248500  0.69431800  1
  Cu  Cu48  1  0.00000000  0.60261900  0.56988500  1
  Cu  Cu49  1  0.50000000  0.91506400  0.16026900  1
  Cu  Cu50  1  0.00000000  0.00000000  0.48971400  1
  Cu  Cu51  1  0.50000000  0.10261900  0.43011500  1
  Cu  Cu52  1  0.00000000  0.50000000  0.41068800  1
  Cu  Cu53  1  0.50000000  0.89738100  0.43011500  1
  Cu  Cu54  1  0.00000000  0.39738100  0.56988500  1
  Cu  Cu55  1  0.50000000  0.29909200  0.80167300  1
  Cu  Cu56  1  0.50000000  0.80751500  0.30568200  1
  Cu  Cu57  1  0.50000000  0.19248500  0.30568200  1
  Cu  Cu58  1  0.00000000  0.79909200  0.19832700  1
  Cu  Cu59  1  0.50000000  0.29502400  0.14114200  1
