# generated using pymatgen
data_Cu7(NiC)2
_symmetry_space_group_name_H-M   'P 1'
_cell_length_a   8.63180900
_cell_length_b   11.90666200
_cell_length_c   12.51232998
_cell_angle_alpha   85.35894460
_cell_angle_beta   90.00000000
_cell_angle_gamma   90.00000000
_symmetry_Int_Tables_number   1
_chemical_formula_structural   Cu7(NiC)2
_chemical_formula_sum   'Cu28 Ni8 C8'
_cell_volume   1281.75114162
_cell_formula_units_Z   4
loop_
 _symmetry_equiv_pos_site_id
 _symmetry_equiv_pos_as_xyz
  1  'x, y, z'
loop_
 _atom_site_type_symbol
 _atom_site_label
 _atom_site_symmetry_multiplicity
 _atom_site_fract_x
 _atom_site_fract_y
 _atom_site_fract_z
 _atom_site_occupancy
  C  C0  1  0.11457600  0.68162200  0.66393200  1
  C  C1  1  0.61457600  0.81837800  0.33606800  1
  C  C2  1  0.88542400  0.31837800  0.33606800  1
  C  C3  1  0.38542400  0.18162200  0.66393200  1
  C  C4  1  0.92038200  0.64893800  0.82324800  1
  C  C5  1  0.42038200  0.85106200  0.17675200  1
  C  C6  1  0.07961800  0.35106200  0.17675200  1
  C  C7  1  0.57961800  0.14893800  0.82324800  1
  Ni  Ni8  1  0.14386500  0.88532400  0.84261100  1
  Ni  Ni9  1  0.64386500  0.61467600  0.15738900  1
  Ni  Ni10  1  0.85613500  0.11467600  0.15738900  1
  Ni  Ni11  1  0.35613500  0.38532400  0.84261100  1
  Ni  Ni12  1  0.83273500  0.88632800  0.65790500  1
  Ni  Ni13  1  0.33273500  0.61367200  0.34209500  1
  Ni  Ni14  1  0.16726500  0.11367200  0.34209500  1
  Ni  Ni15  1  0.66726500  0.38632800  0.65790500  1
  Cu  Cu16  1  0.97771400  0.98515400  0.75152500  1
  Cu  Cu17  1  0.47771400  0.51484600  0.24847500  1
  Cu  Cu18  1  0.02228600  0.01484600  0.24847500  1
  Cu  Cu19  1  0.52228600  0.48515400  0.75152500  1
  Cu  Cu20  1  0.28253900  0.80066500  0.73820700  1
  Cu  Cu21  1  0.78253900  0.69933500  0.26179300  1
  Cu  Cu22  1  0.71746100  0.19933500  0.26179300  1
  Cu  Cu23  1  0.21746100  0.30066500  0.73820700  1
  Cu  Cu24  1  0.97116300  0.80144300  0.55257900  1
  Cu  Cu25  1  0.47116300  0.69855700  0.44742100  1
  Cu  Cu26  1  0.02883700  0.19855700  0.44742100  1
  Cu  Cu27  1  0.52883700  0.30144300  0.55257900  1
  Cu  Cu28  1  0.03047200  0.76136200  0.94151100  1
  Cu  Cu29  1  0.53047200  0.73863800  0.05848900  1
  Cu  Cu30  1  0.96952800  0.23863800  0.05848900  1
  Cu  Cu31  1  0.46952800  0.26136200  0.94151100  1
  Cu  Cu32  1  0.72267400  0.76116900  0.75682400  1
  Cu  Cu33  1  0.22267400  0.73883100  0.24317600  1
  Cu  Cu34  1  0.27732600  0.23883100  0.24317600  1
  Cu  Cu35  1  0.77732600  0.26116900  0.75682400  1
  Cu  Cu36  1  0.26025100  0.99080100  0.92242600  1
  Cu  Cu37  1  0.76025100  0.50919900  0.07757400  1
  Cu  Cu38  1  0.73974900  0.00919900  0.07757400  1
  Cu  Cu39  1  0.23974900  0.49080100  0.92242600  1
  Cu  Cu40  1  0.68717600  0.98980200  0.58355300  1
  Cu  Cu41  1  0.18717600  0.51019800  0.41644700  1
  Cu  Cu42  1  0.31282400  0.01019800  0.41644700  1
  Cu  Cu43  1  0.81282400  0.48980200  0.58355300  1
