# generated using pymatgen
data_Cu2NiC12
_symmetry_space_group_name_H-M   'P 1'
_cell_length_a   7.94227500
_cell_length_b   8.64539590
_cell_length_c   9.09602911
_cell_angle_alpha   113.78987686
_cell_angle_beta   109.92436415
_cell_angle_gamma   83.57661204
_symmetry_Int_Tables_number   1
_chemical_formula_structural   Cu2NiC12
_chemical_formula_sum   'Cu4 Ni2 C24'
_cell_volume   537.05560317
_cell_formula_units_Z   2
loop_
 _symmetry_equiv_pos_site_id
 _symmetry_equiv_pos_as_xyz
  1  'x, y, z'
loop_
 _atom_site_type_symbol
 _atom_site_label
 _atom_site_symmetry_multiplicity
 _atom_site_fract_x
 _atom_site_fract_y
 _atom_site_fract_z
 _atom_site_occupancy
  C  C0  1  0.33280800  0.30405300  0.48422700  1
  C  C1  1  0.66719200  0.69594700  0.51577300  1
  C  C2  1  0.78503200  0.07850400  0.33389800  1
  C  C3  1  0.21496800  0.92149600  0.66610200  1
  Ni  Ni4  1  0.75458500  0.42192900  0.98791500  1
  Ni  Ni5  1  0.24541500  0.57807100  0.01208500  1
  Cu  Cu6  1  0.95726600  0.32515700  0.71611100  1
  Cu  Cu7  1  0.04273400  0.67484300  0.28388900  1
  Cu  Cu8  1  0.47295200  0.26387400  0.05629700  1
  Cu  Cu9  1  0.52704800  0.73612600  0.94370300  1
  C  C10  1  0.36738500  0.99210900  0.59366800  1
  C  C11  1  0.55618800  0.22749100  0.21826200  1
  C  C12  1  0.32005700  0.13645600  0.92682200  1
  C  C13  1  0.88748000  0.54097100  0.21253100  1
  C  C14  1  0.05494300  0.84599100  0.72655200  1
  C  C15  1  0.20024700  0.64573700  0.42400500  1
  C  C16  1  0.97566200  0.85209000  0.37609600  1
  C  C17  1  0.40234700  0.44831800  0.11583400  1
  C  C18  1  0.90837300  0.32308100  0.86631200  1
  C  C19  1  0.79975300  0.35426300  0.57599500  1
  C  C20  1  0.67994300  0.86354400  0.07317800  1
  C  C21  1  0.02433800  0.14791000  0.62390400  1
  C  C22  1  0.94505700  0.15400900  0.27344800  1
  C  C23  1  0.44381200  0.77250900  0.78173800  1
  C  C24  1  0.09162700  0.67691900  0.13368800  1
  C  C25  1  0.61746800  0.25570900  0.97254800  1
  C  C26  1  0.38253200  0.74429100  0.02745200  1
  C  C27  1  0.11252000  0.45902900  0.78746900  1
  C  C28  1  0.59765300  0.55168200  0.88416600  1
  C  C29  1  0.63261500  0.00789100  0.40633200  1
