# generated using pymatgen
data_Cu5Ni3C13
_symmetry_space_group_name_H-M   'P 1'
_cell_length_a   7.58696800
_cell_length_b   10.45477000
_cell_length_c   20.95293635
_cell_angle_alpha   60.09611970
_cell_angle_beta   90.00000000
_cell_angle_gamma   90.00000000
_symmetry_Int_Tables_number   1
_chemical_formula_structural   Cu5Ni3C13
_chemical_formula_sum   'Cu20 Ni12 C52'
_cell_volume   1440.71503776
_cell_formula_units_Z   4
loop_
 _symmetry_equiv_pos_site_id
 _symmetry_equiv_pos_as_xyz
  1  'x, y, z'
loop_
 _atom_site_type_symbol
 _atom_site_label
 _atom_site_symmetry_multiplicity
 _atom_site_fract_x
 _atom_site_fract_y
 _atom_site_fract_z
 _atom_site_occupancy
  Ni  Ni0  1  0.74376200  0.58826400  0.76414300  1
  Ni  Ni1  1  0.25570100  0.97592400  0.05770800  1
  Ni  Ni2  1  0.74429900  0.02407600  0.94229200  1
  Ni  Ni3  1  0.24376200  0.41173600  0.73585700  1
  Ni  Ni4  1  0.25538700  0.61712600  0.45470800  1
  Ni  Ni5  1  0.74461300  0.38287400  0.54529200  1
  Ni  Ni6  1  0.75623800  0.58826400  0.26414300  1
  Ni  Ni7  1  0.25623800  0.41173600  0.23585700  1
  Ni  Ni8  1  0.24429900  0.97592400  0.55770800  1
  Ni  Ni9  1  0.75570100  0.02407600  0.44229200  1
  Ni  Ni10  1  0.24461300  0.61712600  0.95470800  1
  Ni  Ni11  1  0.75538700  0.38287400  0.04529200  1
  Cu  Cu12  1  0.27070900  0.25542700  0.62931200  1
  Cu  Cu13  1  0.99380700  0.66762200  0.07675600  1
  Cu  Cu14  1  0.77084300  0.01061100  0.62223800  1
  Cu  Cu15  1  0.77831300  0.24265000  0.75462200  1
  Cu  Cu16  1  0.72929100  0.74457300  0.37068800  1
  Cu  Cu17  1  0.27084300  0.98938900  0.87776200  1
  Cu  Cu18  1  0.22915700  0.98938900  0.37776200  1
  Cu  Cu19  1  0.49176400  0.33427300  0.91116500  1
  Cu  Cu20  1  0.77070900  0.74457300  0.87068800  1
  Cu  Cu21  1  0.99176400  0.66572700  0.58883500  1
  Cu  Cu22  1  0.49380700  0.33237800  0.42324400  1
  Cu  Cu23  1  0.00823600  0.33427300  0.41116500  1
  Cu  Cu24  1  0.50823600  0.66572700  0.08883500  1
  Cu  Cu25  1  0.72915700  0.01061100  0.12223800  1
  Cu  Cu26  1  0.27831300  0.75735000  0.74537800  1
  Cu  Cu27  1  0.22929100  0.25542700  0.12931200  1
  Cu  Cu28  1  0.72168700  0.24265000  0.25462200  1
  Cu  Cu29  1  0.22168700  0.75735000  0.24537800  1
  Cu  Cu30  1  0.00619300  0.33237800  0.92324400  1
  Cu  Cu31  1  0.50619300  0.66762200  0.57675600  1
  C  C32  1  0.48734500  0.99724400  0.24964100  1
  C  C33  1  0.01265500  0.99724400  0.74964100  1
  C  C34  1  0.51265500  0.00275600  0.75035900  1
  C  C35  1  0.98734500  0.00275600  0.25035900  1
  C  C36  1  0.24840500  0.50694200  0.91535300  1
  C  C37  1  0.23059800  0.51771200  0.54981900  1
  C  C38  1  0.28132900  0.88598200  0.50791100  1
  C  C39  1  0.74840500  0.49305800  0.58464700  1
  C  C40  1  0.55179000  0.62705400  0.79585900  1
  C  C41  1  0.24885100  0.33451700  0.83006700  1
  C  C42  1  0.73059800  0.48228800  0.95018100  1
  C  C43  1  0.95655800  0.08854400  0.39896900  1
  C  C44  1  0.40437700  0.91620000  0.62493900  1
  C  C45  1  0.76940200  0.48228800  0.45018100  1
  C  C46  1  0.95419500  0.29086800  0.05889400  1
  C  C47  1  0.59277100  0.25000100  0.08002000  1
  C  C48  1  0.25304500  0.60349200  0.68999900  1
  C  C49  1  0.74695500  0.39650800  0.31000100  1
  C  C50  1  0.41327200  0.35026000  0.70310800  1
  C  C51  1  0.08672800  0.35026000  0.20310800  1
  C  C52  1  0.24695500  0.60349200  0.18999900  1
  C  C53  1  0.24804700  0.16510000  0.50238500  1
  C  C54  1  0.26940200  0.51771200  0.04981900  1
  C  C55  1  0.25195300  0.16510000  0.00238500  1
  C  C56  1  0.21867100  0.88598200  0.00791100  1
  C  C57  1  0.71867100  0.11401800  0.49208900  1
  C  C58  1  0.90722900  0.25000100  0.58002000  1
  C  C59  1  0.25114900  0.33451700  0.33006700  1
  C  C60  1  0.44821000  0.37294600  0.20414100  1
  C  C61  1  0.04344200  0.91145600  0.60103100  1
  C  C62  1  0.25159500  0.50694200  0.41535300  1
  C  C63  1  0.45655800  0.91145600  0.10103100  1
  C  C64  1  0.09277100  0.74999900  0.41998000  1
  C  C65  1  0.78132900  0.11401800  0.99208900  1
  C  C66  1  0.54580500  0.29086800  0.55889400  1
  C  C67  1  0.75304500  0.39650800  0.81000100  1
  C  C68  1  0.74885100  0.66548300  0.66993300  1
  C  C69  1  0.04580500  0.70913200  0.94110600  1
  C  C70  1  0.54344200  0.08854400  0.89896900  1
  C  C71  1  0.59562300  0.08380000  0.37506100  1
  C  C72  1  0.94821000  0.62705400  0.29585900  1
  C  C73  1  0.75159500  0.49305800  0.08464700  1
  C  C74  1  0.58672800  0.64974000  0.29689200  1
  C  C75  1  0.74804700  0.83490000  0.99761500  1
  C  C76  1  0.91327200  0.64974000  0.79689200  1
  C  C77  1  0.75195300  0.83490000  0.49761500  1
  C  C78  1  0.45419500  0.70913200  0.44110600  1
  C  C79  1  0.90437700  0.08380000  0.87506100  1
  C  C80  1  0.09562300  0.91620000  0.12493900  1
  C  C81  1  0.05179000  0.37294600  0.70414100  1
  C  C82  1  0.75114900  0.66548300  0.16993300  1
  C  C83  1  0.40722900  0.74999900  0.91998000  1
