# generated using pymatgen
data_Cu2NiC7
_symmetry_space_group_name_H-M   'P 1'
_cell_length_a   4.80639597
_cell_length_b   4.80639597
_cell_length_c   12.10629700
_cell_angle_alpha   90.00000000
_cell_angle_beta   90.00000000
_cell_angle_gamma   119.99999956
_symmetry_Int_Tables_number   1
_chemical_formula_structural   Cu2NiC7
_chemical_formula_sum   'Cu4 Ni2 C14'
_cell_volume   242.20385492
_cell_formula_units_Z   2
loop_
 _symmetry_equiv_pos_site_id
 _symmetry_equiv_pos_as_xyz
  1  'x, y, z'
loop_
 _atom_site_type_symbol
 _atom_site_label
 _atom_site_symmetry_multiplicity
 _atom_site_fract_x
 _atom_site_fract_y
 _atom_site_fract_z
 _atom_site_occupancy
  Ni  Ni0  1  0.00000000  0.00000000  0.00000000  1
  Ni  Ni1  1  0.00000000  0.00000000  0.50000000  1
  Cu  Cu2  1  0.33333300  0.66666700  0.88005200  1
  Cu  Cu3  1  0.66666700  0.33333300  0.11994800  1
  Cu  Cu4  1  0.66666700  0.33333300  0.38005200  1
  Cu  Cu5  1  0.33333300  0.66666700  0.61994800  1
  C  C6  1  0.92575400  0.25557200  0.08635300  1
  C  C7  1  0.74442800  0.67018200  0.08635300  1
  C  C8  1  0.07424600  0.74442800  0.58635300  1
  C  C9  1  0.25557200  0.32981800  0.91364700  1
  C  C10  1  0.33333300  0.66666700  0.75000000  1
  C  C11  1  0.67018200  0.92575400  0.58635300  1
  C  C12  1  0.74442800  0.67018200  0.41364700  1
  C  C13  1  0.67018200  0.92575400  0.91364700  1
  C  C14  1  0.32981800  0.07424600  0.08635300  1
  C  C15  1  0.25557200  0.32981800  0.58635300  1
  C  C16  1  0.92575400  0.25557200  0.41364700  1
  C  C17  1  0.32981800  0.07424600  0.41364700  1
  C  C18  1  0.07424600  0.74442800  0.91364700  1
  C  C19  1  0.66666700  0.33333300  0.25000000  1
