# generated using pymatgen
data_CuNi24C17
_symmetry_space_group_name_H-M   'P 1'
_cell_length_a   7.31866800
_cell_length_b   9.97497500
_cell_length_c   17.27021100
_cell_angle_alpha   89.99889192
_cell_angle_beta   90.00000000
_cell_angle_gamma   90.00000000
_symmetry_Int_Tables_number   1
_chemical_formula_structural   CuNi24C17
_chemical_formula_sum   'Cu2 Ni48 C34'
_cell_volume   1260.78637260
_cell_formula_units_Z   2
loop_
 _symmetry_equiv_pos_site_id
 _symmetry_equiv_pos_as_xyz
  1  'x, y, z'
loop_
 _atom_site_type_symbol
 _atom_site_label
 _atom_site_symmetry_multiplicity
 _atom_site_fract_x
 _atom_site_fract_y
 _atom_site_fract_z
 _atom_site_occupancy
  C  C0  1  0.75000000  0.74151900  0.00412800  1
  C  C1  1  0.75000000  0.61533300  0.37619500  1
  C  C2  1  0.99982500  0.49860000  0.16770400  1
  C  C3  1  0.50017500  0.49860000  0.16770400  1
  C  C4  1  0.25000000  0.36992800  0.38074100  1
  C  C5  1  0.75000000  0.25195000  0.50446400  1
  C  C6  1  0.75000000  0.13541800  0.13026100  1
  C  C7  1  0.75000000  0.12550500  0.86620900  1
  C  C8  1  0.49980400  0.99844600  0.33454500  1
  C  C9  1  0.99980400  0.00155400  0.66545500  1
  C  C10  1  0.50019600  0.00155400  0.66545500  1
  C  C11  1  0.00019600  0.99844600  0.33454500  1
  C  C12  1  0.25000000  0.87449500  0.13379100  1
  C  C13  1  0.25000000  0.86458200  0.86973900  1
  C  C14  1  0.25000000  0.74805000  0.49553600  1
  C  C15  1  0.75000000  0.63007200  0.61925900  1
  C  C16  1  0.49982500  0.50140000  0.83229600  1
  C  C17  1  0.00017500  0.50140000  0.83229600  1
  C  C18  1  0.25000000  0.38466700  0.62380500  1
  C  C19  1  0.25000000  0.25848100  0.99587200  1
  C  C20  1  0.25000000  0.61086700  0.01820800  1
  C  C21  1  0.25000000  0.66726700  0.30215900  1
  C  C22  1  0.75000000  0.28544500  0.31755500  1
  C  C23  1  0.25000000  0.22131200  0.18790400  1
  C  C24  1  0.25000000  0.11585600  0.51484700  1
  C  C25  1  0.25000000  0.17008500  0.79463600  1
  C  C26  1  0.75000000  0.82991500  0.20536400  1
  C  C27  1  0.75000000  0.88414400  0.48515300  1
  C  C28  1  0.75000000  0.77868800  0.81209600  1
  C  C29  1  0.25000000  0.71455500  0.68244500  1
  C  C30  1  0.75000000  0.33273300  0.69784100  1
  C  C31  1  0.75000000  0.38913300  0.98179200  1
  C  C32  1  0.00000000  0.00000000  0.00000000  1
  C  C33  1  0.50000000  0.00000000  0.00000000  1
  Ni  Ni34  1  0.42258200  0.68794800  0.04588700  1
  Ni  Ni35  1  0.07741800  0.68794800  0.04588700  1
  Ni  Ni36  1  0.75000000  0.68754700  0.16828900  1
  Ni  Ni37  1  0.25000000  0.66689400  0.21156400  1
  Ni  Ni38  1  0.42192400  0.58995000  0.33035500  1
  Ni  Ni39  1  0.07807600  0.58995000  0.33035500  1
  Ni  Ni40  1  0.25000000  0.47317600  0.06146400  1
  Ni  Ni41  1  0.75000000  0.40913600  0.07126800  1
  Ni  Ni42  1  0.75000000  0.40473400  0.25928800  1
  Ni  Ni43  1  0.25000000  0.35313100  0.23664500  1
  Ni  Ni44  1  0.92154700  0.28909900  0.37054600  1
  Ni  Ni45  1  0.57845300  0.28909900  0.37054600  1
  Ni  Ni46  1  0.42287100  0.22502100  0.13539600  1
  Ni  Ni47  1  0.07712900  0.22502100  0.13539600  1
  Ni  Ni48  1  0.07825400  0.19689900  0.54021900  1
  Ni  Ni49  1  0.42174600  0.19689900  0.54021900  1
  Ni  Ni50  1  0.75000000  0.18585000  0.66697900  1
  Ni  Ni51  1  0.75000000  0.14903000  0.27283700  1
  Ni  Ni52  1  0.25000000  0.17712600  0.70439800  1
  Ni  Ni53  1  0.25000000  0.09447200  0.24055000  1
  Ni  Ni54  1  0.07761800  0.08893700  0.81909000  1
  Ni  Ni55  1  0.42238200  0.08893700  0.81909000  1
  Ni  Ni56  1  0.25000000  0.09300900  0.42562600  1
  Ni  Ni57  1  0.25000000  0.97896300  0.55879500  1
  Ni  Ni58  1  0.75000000  0.02103700  0.44120500  1
  Ni  Ni59  1  0.75000000  0.90699100  0.57437400  1
  Ni  Ni60  1  0.92238200  0.91106300  0.18091000  1
  Ni  Ni61  1  0.57761800  0.91106300  0.18091000  1
  Ni  Ni62  1  0.75000000  0.90552800  0.75945000  1
  Ni  Ni63  1  0.75000000  0.82287400  0.29560200  1
  Ni  Ni64  1  0.25000000  0.85097000  0.72716300  1
  Ni  Ni65  1  0.25000000  0.81415000  0.33302100  1
  Ni  Ni66  1  0.92174600  0.80310100  0.45978100  1
  Ni  Ni67  1  0.57825400  0.80310100  0.45978100  1
  Ni  Ni68  1  0.92287100  0.77497900  0.86460400  1
  Ni  Ni69  1  0.57712900  0.77497900  0.86460400  1
  Ni  Ni70  1  0.07845300  0.71090100  0.62945400  1
  Ni  Ni71  1  0.42154700  0.71090100  0.62945400  1
  Ni  Ni72  1  0.75000000  0.64686900  0.76335500  1
  Ni  Ni73  1  0.25000000  0.59526600  0.74071200  1
  Ni  Ni74  1  0.25000000  0.59086400  0.92873200  1
  Ni  Ni75  1  0.75000000  0.52682400  0.93853600  1
  Ni  Ni76  1  0.92192400  0.41005000  0.66964500  1
  Ni  Ni77  1  0.57807600  0.41005000  0.66964500  1
  Ni  Ni78  1  0.75000000  0.33310600  0.78843600  1
  Ni  Ni79  1  0.25000000  0.31245300  0.83171100  1
  Ni  Ni80  1  0.57741800  0.31205200  0.95411300  1
  Ni  Ni81  1  0.92258200  0.31205200  0.95411300  1
  Cu  Cu82  1  0.75000000  0.49755900  0.50017800  1
  Cu  Cu83  1  0.25000000  0.50244100  0.49982200  1
