# generated using pymatgen
data_Cu2Ni3C16
_symmetry_space_group_name_H-M   'P 1'
_cell_length_a   8.55053556
_cell_length_b   8.55053556
_cell_length_c   6.61969551
_cell_angle_alpha   73.25460288
_cell_angle_beta   73.25460288
_cell_angle_gamma   91.05281667
_symmetry_Int_Tables_number   1
_chemical_formula_structural   Cu2Ni3C16
_chemical_formula_sum   'Cu4 Ni6 C32'
_cell_volume   441.07966377
_cell_formula_units_Z   2
loop_
 _symmetry_equiv_pos_site_id
 _symmetry_equiv_pos_as_xyz
  1  'x, y, z'
loop_
 _atom_site_type_symbol
 _atom_site_label
 _atom_site_symmetry_multiplicity
 _atom_site_fract_x
 _atom_site_fract_y
 _atom_site_fract_z
 _atom_site_occupancy
  C  C0  1  0.95658100  0.04341900  0.25000000  1
  C  C1  1  0.04341900  0.95658100  0.75000000  1
  C  C2  1  0.72384900  0.27615100  0.75000000  1
  C  C3  1  0.27615100  0.72384900  0.25000000  1
  C  C4  1  0.62598700  0.95040000  0.62565800  1
  C  C5  1  0.04960000  0.37401300  0.87434200  1
  C  C6  1  0.37401300  0.04960000  0.37434200  1
  C  C7  1  0.95040000  0.62598700  0.12565800  1
  Ni  Ni8  1  0.31742600  0.68257400  0.75000000  1
  Ni  Ni9  1  0.68257400  0.31742600  0.25000000  1
  Ni  Ni10  1  0.32814000  0.10610200  0.88953800  1
  Ni  Ni11  1  0.89389800  0.67186000  0.61046200  1
  Ni  Ni12  1  0.67186000  0.89389800  0.11046200  1
  Ni  Ni13  1  0.10610200  0.32814000  0.38953800  1
  Cu  Cu14  1  0.38782100  0.37591300  0.81088700  1
  Cu  Cu15  1  0.62408700  0.61217900  0.68911300  1
  Cu  Cu16  1  0.61217900  0.62408700  0.18911300  1
  Cu  Cu17  1  0.37591300  0.38782100  0.31088700  1
  C  C18  1  0.72088400  0.20748700  0.46073300  1
  C  C19  1  0.79251300  0.27911600  0.03926700  1
  C  C20  1  0.27911600  0.79251300  0.53926700  1
  C  C21  1  0.20748700  0.72088400  0.96073300  1
  C  C22  1  0.50097600  0.71545400  0.73187300  1
  C  C23  1  0.28454600  0.49902400  0.76812700  1
  C  C24  1  0.49902400  0.28454600  0.26812700  1
  C  C25  1  0.71545400  0.50097600  0.23187300  1
  C  C26  1  0.67169800  0.01808400  0.88752500  1
  C  C27  1  0.98191600  0.32830200  0.61247500  1
  C  C28  1  0.32830200  0.98191600  0.11247500  1
  C  C29  1  0.01808400  0.67169800  0.38752500  1
  C  C30  1  0.73312900  0.55103000  0.65557900  1
  C  C31  1  0.44897000  0.26687100  0.84442100  1
  C  C32  1  0.26687100  0.44897000  0.34442100  1
  C  C33  1  0.55103000  0.73312900  0.15557900  1
  C  C34  1  0.39303100  0.03506400  0.69651900  1
  C  C35  1  0.96493600  0.60696900  0.80348100  1
  C  C36  1  0.60696900  0.96493600  0.30348100  1
  C  C37  1  0.03506400  0.39303100  0.19651900  1
  C  C38  1  0.84566800  0.84638800  0.59565100  1
  C  C39  1  0.15361200  0.15433200  0.90434900  1
  C  C40  1  0.15433200  0.15361200  0.40434900  1
  C  C41  1  0.84638800  0.84566800  0.09565100  1
