# generated using pymatgen
data_CuNiC7
_symmetry_space_group_name_H-M   'P 1'
_cell_length_a   5.10063433
_cell_length_b   5.10063433
_cell_length_c   9.81474200
_cell_angle_alpha   90.00000000
_cell_angle_beta   90.00000000
_cell_angle_gamma   120.00000428
_symmetry_Int_Tables_number   1
_chemical_formula_structural   CuNiC7
_chemical_formula_sum   'Cu2 Ni2 C14'
_cell_volume   221.13520073
_cell_formula_units_Z   2
loop_
 _symmetry_equiv_pos_site_id
 _symmetry_equiv_pos_as_xyz
  1  'x, y, z'
loop_
 _atom_site_type_symbol
 _atom_site_label
 _atom_site_symmetry_multiplicity
 _atom_site_fract_x
 _atom_site_fract_y
 _atom_site_fract_z
 _atom_site_occupancy
  Ni  Ni0  1  0.33333300  0.66666700  0.25000000  1
  Ni  Ni1  1  0.66666700  0.33333300  0.75000000  1
  Cu  Cu2  1  0.00000000  0.00000000  0.00000000  1
  Cu  Cu3  1  0.00000000  0.00000000  0.50000000  1
  C  C4  1  0.66666700  0.33333300  0.25000000  1
  C  C5  1  0.33333300  0.66666700  0.75000000  1
  C  C6  1  0.65423700  0.02572100  0.35821600  1
  C  C7  1  0.02572100  0.37148400  0.64178400  1
  C  C8  1  0.62851600  0.97427900  0.85821600  1
  C  C9  1  0.02572100  0.65423700  0.85821600  1
  C  C10  1  0.34576300  0.37148400  0.85821600  1
  C  C11  1  0.97427900  0.34576300  0.14178400  1
  C  C12  1  0.62851600  0.65423700  0.64178400  1
  C  C13  1  0.37148400  0.02572100  0.14178400  1
  C  C14  1  0.97427900  0.62851600  0.35821600  1
  C  C15  1  0.37148400  0.34576300  0.35821600  1
  C  C16  1  0.34576300  0.97427900  0.64178400  1
  C  C17  1  0.65423700  0.62851600  0.14178400  1
