# generated using pymatgen
data_Cu23Ni11C3
_symmetry_space_group_name_H-M   'P 1'
_cell_length_a   12.06293622
_cell_length_b   12.06293622
_cell_length_c   12.06293622
_cell_angle_alpha   60.00000000
_cell_angle_beta   60.00000000
_cell_angle_gamma   60.00000000
_symmetry_Int_Tables_number   1
_chemical_formula_structural   Cu23Ni11C3
_chemical_formula_sum   'Cu46 Ni22 C6'
_cell_volume   1241.20665826
_cell_formula_units_Z   2
loop_
 _symmetry_equiv_pos_site_id
 _symmetry_equiv_pos_as_xyz
  1  'x, y, z'
loop_
 _atom_site_type_symbol
 _atom_site_label
 _atom_site_symmetry_multiplicity
 _atom_site_fract_x
 _atom_site_fract_y
 _atom_site_fract_z
 _atom_site_occupancy
  C  C0  1  0.50000000  0.00000000  0.50000000  1
  C  C1  1  0.00000000  0.50000000  0.50000000  1
  C  C2  1  0.50000000  0.50000000  0.00000000  1
  C  C3  1  0.50000000  0.00000000  0.00000000  1
  C  C4  1  0.00000000  0.00000000  0.50000000  1
  C  C5  1  0.00000000  0.50000000  0.00000000  1
  Ni  Ni6  1  0.16563700  0.16563700  0.16563700  1
  Ni  Ni7  1  0.83436300  0.83436300  0.49691100  1
  Ni  Ni8  1  0.82945200  0.17054800  0.82945200  1
  Ni  Ni9  1  0.50308900  0.16563700  0.16563700  1
  Ni  Ni10  1  0.39368400  0.39368400  0.39368400  1
  Ni  Ni11  1  0.16563700  0.50308900  0.16563700  1
  Ni  Ni12  1  0.17054800  0.82945200  0.82945200  1
  Ni  Ni13  1  0.60631600  0.18105200  0.60631600  1
  Ni  Ni14  1  0.39368400  0.39368400  0.81894800  1
  Ni  Ni15  1  0.17054800  0.82945200  0.17054800  1
  Ni  Ni16  1  0.17054800  0.17054800  0.82945200  1
  Ni  Ni17  1  0.81894800  0.39368400  0.39368400  1
  Ni  Ni18  1  0.82945200  0.82945200  0.17054800  1
  Ni  Ni19  1  0.83436300  0.83436300  0.83436300  1
  Ni  Ni20  1  0.82945200  0.17054800  0.17054800  1
  Ni  Ni21  1  0.16563700  0.16563700  0.50308900  1
  Ni  Ni22  1  0.60631600  0.60631600  0.60631600  1
  Ni  Ni23  1  0.60631600  0.60631600  0.18105200  1
  Ni  Ni24  1  0.39368400  0.81894800  0.39368400  1
  Ni  Ni25  1  0.49691100  0.83436300  0.83436300  1
  Ni  Ni26  1  0.83436300  0.49691100  0.83436300  1
  Ni  Ni27  1  0.18105200  0.60631600  0.60631600  1
  Cu  Cu28  1  0.37426700  0.62573300  0.37426700  1
  Cu  Cu29  1  0.25193500  0.57926200  0.91686700  1
  Cu  Cu30  1  0.74806500  0.08313300  0.42073800  1
  Cu  Cu31  1  0.42073800  0.74806500  0.74806500  1
  Cu  Cu32  1  0.08307600  0.08307600  0.75077200  1
  Cu  Cu33  1  0.25193500  0.25193500  0.91686700  1
  Cu  Cu34  1  0.37426700  0.62573300  0.62573300  1
  Cu  Cu35  1  0.57926200  0.25193500  0.25193500  1
  Cu  Cu36  1  0.74806500  0.42073800  0.08313300  1
  Cu  Cu37  1  0.08313300  0.74806500  0.42073800  1
  Cu  Cu38  1  0.25193500  0.91686700  0.25193500  1
  Cu  Cu39  1  0.57926200  0.25193500  0.91686700  1
  Cu  Cu40  1  0.74806500  0.42073800  0.74806500  1
  Cu  Cu41  1  0.74806500  0.74806500  0.42073800  1
  Cu  Cu42  1  0.91692400  0.91692400  0.24922800  1
  Cu  Cu43  1  0.75077200  0.08307600  0.08307600  1
  Cu  Cu44  1  0.62573300  0.62573300  0.37426700  1
  Cu  Cu45  1  0.69140700  0.69140700  0.92578000  1
  Cu  Cu46  1  0.92578000  0.69140700  0.69140700  1
  Cu  Cu47  1  0.42073800  0.74806500  0.08313300  1
  Cu  Cu48  1  0.08307600  0.08307600  0.08307600  1
  Cu  Cu49  1  0.08313300  0.42073800  0.74806500  1
  Cu  Cu50  1  0.91692400  0.91692400  0.91692400  1
  Cu  Cu51  1  0.74806500  0.74806500  0.08313300  1
  Cu  Cu52  1  0.07422000  0.30859300  0.30859300  1
  Cu  Cu53  1  0.69140700  0.69140700  0.69140700  1
  Cu  Cu54  1  0.91686700  0.25193500  0.25193500  1
  Cu  Cu55  1  0.08313300  0.74806500  0.74806500  1
  Cu  Cu56  1  0.30859300  0.30859300  0.07422000  1
  Cu  Cu57  1  0.08307600  0.75077200  0.08307600  1
  Cu  Cu58  1  0.74806500  0.08313300  0.74806500  1
  Cu  Cu59  1  0.25193500  0.57926200  0.25193500  1
  Cu  Cu60  1  0.24922800  0.91692400  0.91692400  1
  Cu  Cu61  1  0.91692400  0.24922800  0.91692400  1
  Cu  Cu62  1  0.91686700  0.57926200  0.25193500  1
  Cu  Cu63  1  0.37426700  0.37426700  0.62573300  1
  Cu  Cu64  1  0.91686700  0.25193500  0.57926200  1
  Cu  Cu65  1  0.25193500  0.25193500  0.57926200  1
  Cu  Cu66  1  0.62573300  0.37426700  0.62573300  1
  Cu  Cu67  1  0.69140700  0.92578000  0.69140700  1
  Cu  Cu68  1  0.30859300  0.07422000  0.30859300  1
  Cu  Cu69  1  0.42073800  0.08313300  0.74806500  1
  Cu  Cu70  1  0.30859300  0.30859300  0.30859300  1
  Cu  Cu71  1  0.62573300  0.37426700  0.37426700  1
  Cu  Cu72  1  0.25193500  0.91686700  0.57926200  1
  Cu  Cu73  1  0.57926200  0.91686700  0.25193500  1
