# generated using pymatgen
data_Cu(NiC)5
_symmetry_space_group_name_H-M   'P 1'
_cell_length_a   4.20901200
_cell_length_b   4.20901200
_cell_length_c   8.53966000
_cell_angle_alpha   90.00000000
_cell_angle_beta   90.00000000
_cell_angle_gamma   90.00000000
_symmetry_Int_Tables_number   1
_chemical_formula_structural   Cu(NiC)5
_chemical_formula_sum   'Cu1 Ni5 C5'
_cell_volume   151.28675505
_cell_formula_units_Z   1
loop_
 _symmetry_equiv_pos_site_id
 _symmetry_equiv_pos_as_xyz
  1  'x, y, z'
loop_
 _atom_site_type_symbol
 _atom_site_label
 _atom_site_symmetry_multiplicity
 _atom_site_fract_x
 _atom_site_fract_y
 _atom_site_fract_z
 _atom_site_occupancy
  C  C0  1  0.00000000  0.00000000  0.50000000  1
  C  C1  1  0.50000000  0.50000000  0.23630300  1
  C  C2  1  0.50000000  0.50000000  0.76369700  1
  C  C3  1  0.50000000  0.00000000  0.00000000  1
  C  C4  1  0.00000000  0.50000000  0.00000000  1
  Ni  Ni5  1  0.00000000  0.50000000  0.24860500  1
  Ni  Ni6  1  0.00000000  0.50000000  0.75139500  1
  Ni  Ni7  1  0.50000000  0.00000000  0.24860500  1
  Ni  Ni8  1  0.00000000  0.00000000  0.00000000  1
  Ni  Ni9  1  0.50000000  0.00000000  0.75139500  1
  Cu  Cu10  1  0.50000000  0.50000000  0.50000000  1
