# generated using pymatgen
data_Cu4NiC2
_symmetry_space_group_name_H-M   'P 1'
_cell_length_a   5.93998100
_cell_length_b   6.50067157
_cell_length_c   6.94009223
_cell_angle_alpha   73.47456232
_cell_angle_beta   77.85245261
_cell_angle_gamma   71.09817172
_symmetry_Int_Tables_number   1
_chemical_formula_structural   Cu4NiC2
_chemical_formula_sum   'Cu8 Ni2 C4'
_cell_volume   240.98437032
_cell_formula_units_Z   2
loop_
 _symmetry_equiv_pos_site_id
 _symmetry_equiv_pos_as_xyz
  1  'x, y, z'
loop_
 _atom_site_type_symbol
 _atom_site_label
 _atom_site_symmetry_multiplicity
 _atom_site_fract_x
 _atom_site_fract_y
 _atom_site_fract_z
 _atom_site_occupancy
  C  C0  1  0.75758300  0.80162300  0.13119400  1
  C  C1  1  0.24241700  0.19837700  0.86880600  1
  C  C2  1  0.62377000  0.64416400  0.73255100  1
  C  C3  1  0.37623000  0.35583600  0.26744900  1
  Ni  Ni4  1  0.01007000  0.02501500  0.22551200  1
  Ni  Ni5  1  0.98993000  0.97498500  0.77448800  1
  Cu  Cu6  1  0.09119400  0.52292100  0.19023000  1
  Cu  Cu7  1  0.90880600  0.47707900  0.80977000  1
  Cu  Cu8  1  0.34410100  0.25007100  0.53421100  1
  Cu  Cu9  1  0.57673200  0.52558000  0.20171300  1
  Cu  Cu10  1  0.65589900  0.74992900  0.46578900  1
  Cu  Cu11  1  0.47766400  0.12969700  0.12938300  1
  Cu  Cu12  1  0.52233600  0.87030300  0.87061700  1
  Cu  Cu13  1  0.42326800  0.47442000  0.79828700  1
