# generated using pymatgen
data_Cu6Ni6C
_symmetry_space_group_name_H-M   'P 1'
_cell_length_a   6.58040800
_cell_length_b   11.58306400
_cell_length_c   12.16580600
_cell_angle_alpha   90.00000000
_cell_angle_beta   90.00000000
_cell_angle_gamma   90.00000000
_symmetry_Int_Tables_number   1
_chemical_formula_structural   Cu6Ni6C
_chemical_formula_sum   'Cu24 Ni24 C4'
_cell_volume   927.29339084
_cell_formula_units_Z   4
loop_
 _symmetry_equiv_pos_site_id
 _symmetry_equiv_pos_as_xyz
  1  'x, y, z'
loop_
 _atom_site_type_symbol
 _atom_site_label
 _atom_site_symmetry_multiplicity
 _atom_site_fract_x
 _atom_site_fract_y
 _atom_site_fract_z
 _atom_site_occupancy
  C  C0  1  0.93758900  0.75000000  0.12729200  1
  C  C1  1  0.06241100  0.25000000  0.87270800  1
  C  C2  1  0.56241100  0.75000000  0.62729200  1
  C  C3  1  0.43758900  0.25000000  0.37270800  1
  Ni  Ni4  1  0.93798500  0.37803200  0.77259200  1
  Ni  Ni5  1  0.68525800  0.62324700  0.52541300  1
  Ni  Ni6  1  0.56201500  0.12196800  0.27259200  1
  Ni  Ni7  1  0.67415000  0.75000000  0.22222800  1
  Ni  Ni8  1  0.32585000  0.25000000  0.77777200  1
  Ni  Ni9  1  0.31474200  0.37675300  0.47458700  1
  Ni  Ni10  1  0.70136200  0.25000000  0.46731200  1
  Ni  Ni11  1  0.79863800  0.25000000  0.96731200  1
  Ni  Ni12  1  0.20136200  0.75000000  0.03268800  1
  Ni  Ni13  1  0.17415000  0.25000000  0.27777200  1
  Ni  Ni14  1  0.18525800  0.37675300  0.97458700  1
  Ni  Ni15  1  0.93798500  0.12196800  0.77259200  1
  Ni  Ni16  1  0.06201500  0.87803200  0.22740800  1
  Ni  Ni17  1  0.81474200  0.62324700  0.02541300  1
  Ni  Ni18  1  0.43798500  0.62196800  0.72740800  1
  Ni  Ni19  1  0.06201500  0.62196800  0.22740800  1
  Ni  Ni20  1  0.29863800  0.75000000  0.53268800  1
  Ni  Ni21  1  0.81474200  0.87675300  0.02541300  1
  Ni  Ni22  1  0.56201500  0.37803200  0.27259200  1
  Ni  Ni23  1  0.82585000  0.75000000  0.72222800  1
  Ni  Ni24  1  0.31474200  0.12324700  0.47458700  1
  Ni  Ni25  1  0.18525800  0.12324700  0.97458700  1
  Ni  Ni26  1  0.68525800  0.87675300  0.52541300  1
  Ni  Ni27  1  0.43798500  0.87803200  0.72740800  1
  Cu  Cu28  1  0.75261700  0.94681300  0.46782400  1
  Cu  Cu29  1  0.84928600  0.25000000  0.51931900  1
  Cu  Cu30  1  0.24738300  0.05318700  0.53217600  1
  Cu  Cu31  1  0.25261700  0.44681300  0.03217600  1
  Cu  Cu32  1  0.15071400  0.75000000  0.48068100  1
  Cu  Cu33  1  0.34928600  0.75000000  0.98068100  1
  Cu  Cu34  1  0.75261700  0.55318700  0.46782400  1
  Cu  Cu35  1  0.52654100  0.75000000  0.27461600  1
  Cu  Cu36  1  0.74738300  0.55318700  0.96782400  1
  Cu  Cu37  1  0.47345900  0.25000000  0.72538400  1
  Cu  Cu38  1  0.36938000  0.94993500  0.78239400  1
  Cu  Cu39  1  0.86938000  0.05006500  0.71760600  1
  Cu  Cu40  1  0.63062000  0.05006500  0.21760600  1
  Cu  Cu41  1  0.86938000  0.44993500  0.71760600  1
  Cu  Cu42  1  0.74738300  0.94681300  0.96782400  1
  Cu  Cu43  1  0.24738300  0.44681300  0.53217600  1
  Cu  Cu44  1  0.13062000  0.55006500  0.28239400  1
  Cu  Cu45  1  0.13062000  0.94993500  0.28239400  1
  Cu  Cu46  1  0.65071400  0.25000000  0.01931900  1
  Cu  Cu47  1  0.63062000  0.44993500  0.21760600  1
  Cu  Cu48  1  0.25261700  0.05318700  0.03217600  1
  Cu  Cu49  1  0.97345900  0.75000000  0.77461600  1
  Cu  Cu50  1  0.36938000  0.55006500  0.78239400  1
  Cu  Cu51  1  0.02654100  0.25000000  0.22538400  1
