# generated using pymatgen
data_Cu3Ni2C15
_symmetry_space_group_name_H-M   'P 1'
_cell_length_a   9.73310471
_cell_length_b   9.73310471
_cell_length_c   8.95670400
_cell_angle_alpha   90.00000000
_cell_angle_beta   90.00000000
_cell_angle_gamma   126.39137759
_symmetry_Int_Tables_number   1
_chemical_formula_structural   Cu3Ni2C15
_chemical_formula_sum   'Cu6 Ni4 C30'
_cell_volume   683.02684194
_cell_formula_units_Z   2
loop_
 _symmetry_equiv_pos_site_id
 _symmetry_equiv_pos_as_xyz
  1  'x, y, z'
loop_
 _atom_site_type_symbol
 _atom_site_label
 _atom_site_symmetry_multiplicity
 _atom_site_fract_x
 _atom_site_fract_y
 _atom_site_fract_z
 _atom_site_occupancy
  C  C0  1  0.16174800  0.93235700  0.47354300  1
  C  C1  1  0.06764300  0.83825200  0.97354300  1
  C  C2  1  0.35735200  0.35735200  0.17822700  1
  C  C3  1  0.93235700  0.16174800  0.47354300  1
  C  C4  1  0.83825200  0.06764300  0.97354300  1
  C  C5  1  0.64264800  0.64264800  0.67822700  1
  Ni  Ni6  1  0.17938000  0.51417100  0.81902500  1
  Ni  Ni7  1  0.48582900  0.82062000  0.31902500  1
  Ni  Ni8  1  0.82062000  0.48582900  0.31902500  1
  Ni  Ni9  1  0.51417100  0.17938000  0.81902500  1
  Cu  Cu10  1  0.46608500  0.87578300  0.65914800  1
  Cu  Cu11  1  0.76580500  0.76580500  0.25296800  1
  Cu  Cu12  1  0.23419500  0.23419500  0.75296800  1
  Cu  Cu13  1  0.53391500  0.12421700  0.15914800  1
  Cu  Cu14  1  0.87578300  0.46608500  0.65914800  1
  Cu  Cu15  1  0.12421700  0.53391500  0.15914800  1
  C  C16  1  0.63282800  0.77472700  0.34971500  1
  C  C17  1  0.65177400  0.95622300  0.68814200  1
  C  C18  1  0.30563600  0.64880300  0.22938800  1
  C  C19  1  0.14773300  0.58080600  0.98966500  1
  C  C20  1  0.59335900  0.01613900  0.22023800  1
  C  C21  1  0.01613900  0.59335900  0.22023800  1
  C  C22  1  0.36717200  0.22527300  0.84971500  1
  C  C23  1  0.30488100  0.30488100  0.59786300  1
  C  C24  1  0.22527300  0.36717200  0.84971500  1
  C  C25  1  0.77472700  0.63282800  0.34971500  1
  C  C26  1  0.85226700  0.41919400  0.48966500  1
  C  C27  1  0.69436400  0.35119700  0.72938800  1
  C  C28  1  0.04377700  0.34822600  0.18814200  1
  C  C29  1  0.06059300  0.06059300  0.75633300  1
  C  C30  1  0.64880300  0.30563600  0.22938800  1
  C  C31  1  0.69511900  0.69511900  0.09786300  1
  C  C32  1  0.40664100  0.98386100  0.72023800  1
  C  C33  1  0.93940700  0.93940700  0.25633300  1
  C  C34  1  0.98386100  0.40664100  0.72023800  1
  C  C35  1  0.58080600  0.14773300  0.98966500  1
  C  C36  1  0.41919400  0.85226700  0.48966500  1
  C  C37  1  0.95622300  0.65177400  0.68814200  1
  C  C38  1  0.34822600  0.04377700  0.18814200  1
  C  C39  1  0.35119700  0.69436400  0.72938800  1
