# generated using pymatgen
data_Cu(NiC8)3
_symmetry_space_group_name_H-M   'P 1'
_cell_length_a   16.36775284
_cell_length_b   16.36775284
_cell_length_c   7.27978000
_cell_angle_alpha   90.00000000
_cell_angle_beta   90.00000000
_cell_angle_gamma   120.00000338
_symmetry_Int_Tables_number   1
_chemical_formula_structural   Cu(NiC8)3
_chemical_formula_sum   'Cu4 Ni12 C96'
_cell_volume   1688.98965015
_cell_formula_units_Z   4
loop_
 _symmetry_equiv_pos_site_id
 _symmetry_equiv_pos_as_xyz
  1  'x, y, z'
loop_
 _atom_site_type_symbol
 _atom_site_label
 _atom_site_symmetry_multiplicity
 _atom_site_fract_x
 _atom_site_fract_y
 _atom_site_fract_z
 _atom_site_occupancy
  Ni  Ni0  1  0.36611300  0.90472700  0.46775100  1
  Ni  Ni1  1  0.24297400  0.00396400  0.12220100  1
  Ni  Ni2  1  0.75702600  0.99603600  0.87779900  1
  Ni  Ni3  1  0.90472700  0.53861400  0.53224900  1
  Ni  Ni4  1  0.23901000  0.24297400  0.87779900  1
  Ni  Ni5  1  0.76099000  0.75702600  0.12220100  1
  Ni  Ni6  1  0.99603600  0.23901000  0.12220100  1
  Ni  Ni7  1  0.09527300  0.46138600  0.46775100  1
  Ni  Ni8  1  0.63388700  0.09527300  0.53224900  1
  Ni  Ni9  1  0.53861400  0.63388700  0.46775100  1
  Ni  Ni10  1  0.46138600  0.36611300  0.53224900  1
  Ni  Ni11  1  0.00396400  0.76099000  0.87779900  1
  Cu  Cu12  1  0.00000000  0.00000000  0.00000000  1
  Cu  Cu13  1  0.00000000  0.50000000  0.00000000  1
  Cu  Cu14  1  0.50000000  0.00000000  0.00000000  1
  Cu  Cu15  1  0.50000000  0.50000000  0.00000000  1
  C  C16  1  0.61961000  0.90640000  0.30169400  1
  C  C17  1  0.74826100  0.20872700  0.97892900  1
  C  C18  1  0.20872700  0.46046600  0.02107100  1
  C  C19  1  0.09360000  0.71321000  0.30169400  1
  C  C20  1  0.71321000  0.61961000  0.69830600  1
  C  C21  1  0.53953400  0.74826100  0.02107100  1
  C  C22  1  0.69292500  0.52568100  0.32576500  1
  C  C23  1  0.30707500  0.47431900  0.67423500  1
  C  C24  1  0.99191000  0.15605400  0.62182100  1
  C  C25  1  0.79127300  0.53953400  0.97892900  1
  C  C26  1  0.33333300  0.66666700  0.13343000  1
  C  C27  1  0.52568100  0.83275600  0.67423500  1
  C  C28  1  0.28679000  0.38039000  0.30169400  1
  C  C29  1  0.66666700  0.33333300  0.42383600  1
  C  C30  1  0.84394600  0.83585600  0.62182100  1
  C  C31  1  0.83585600  0.99191000  0.37817900  1
  C  C32  1  0.16724400  0.69292500  0.67423500  1
  C  C33  1  0.15605400  0.16414400  0.37817900  1
  C  C34  1  0.46046600  0.25173900  0.97892900  1
  C  C35  1  0.33333300  0.66666700  0.57616400  1
  C  C36  1  0.83275600  0.30707500  0.32576500  1
  C  C37  1  0.47431900  0.16724400  0.32576500  1
  C  C38  1  0.25173900  0.79127300  0.02107100  1
  C  C39  1  0.90640000  0.28679000  0.69830600  1
  C  C40  1  0.66666700  0.33333300  0.86657000  1
  C  C41  1  0.38039000  0.09360000  0.69830600  1
  C  C42  1  0.16414400  0.00809000  0.62182100  1
  C  C43  1  0.00809000  0.84394600  0.37817900  1
  C  C44  1  0.59076300  0.22803600  0.35287300  1
  C  C45  1  0.37494000  0.15625300  0.87338100  1
  C  C46  1  0.36272700  0.59076300  0.64712700  1
  C  C47  1  0.07039900  0.18142100  0.45625600  1
  C  C48  1  0.25131800  0.27015700  0.36205300  1
  C  C49  1  0.74468300  0.30616400  0.93566300  1
  C  C50  1  0.34375200  0.88512600  0.08184600  1
  C  C51  1  0.57105500  0.83064500  0.47271300  1
  C  C52  1  0.01883900  0.74868200  0.36205300  1
  C  C53  1  0.81857900  0.88897800  0.45625600  1
  C  C54  1  0.11487400  0.45862600  0.08184600  1
  C  C55  1  0.25531700  0.69383600  0.06433700  1
  C  C56  1  0.84374700  0.21868700  0.87338100  1
  C  C57  1  0.11073400  0.98048200  0.81638600  1
  C  C58  1  0.93314700  0.37869300  0.24075300  1
  C  C59  1  0.56148100  0.25531700  0.93566300  1
  C  C60  1  0.55924900  0.77063000  0.79967400  1
  C  C61  1  0.44075100  0.22937000  0.20032600  1
  C  C62  1  0.92960100  0.81857900  0.54374400  1
  C  C63  1  0.86974800  0.88926600  0.81638600  1
  C  C64  1  0.21138100  0.44075100  0.79967400  1
  C  C65  1  0.03939200  0.60317000  0.25550300  1
  C  C66  1  0.27015700  0.01883900  0.63794700  1
  C  C67  1  0.11102200  0.92960100  0.45625600  1
  C  C68  1  0.44554600  0.06685300  0.24075300  1
  C  C69  1  0.78861900  0.55924900  0.20032600  1
  C  C70  1  0.65624800  0.11487400  0.91815400  1
  C  C71  1  0.77196400  0.36272700  0.35287300  1
  C  C72  1  0.88926600  0.01951800  0.18361400  1
  C  C73  1  0.74041000  0.57105500  0.52728700  1
  C  C74  1  0.43622200  0.03939200  0.74449700  1
  C  C75  1  0.30616400  0.56148100  0.06433700  1
  C  C76  1  0.45862600  0.34375200  0.91815400  1
  C  C77  1  0.42894500  0.16935500  0.52728700  1
  C  C78  1  0.22803600  0.63727300  0.64712700  1
  C  C79  1  0.83064500  0.25959000  0.52728700  1
  C  C80  1  0.06685300  0.62130700  0.75924700  1
  C  C81  1  0.96060800  0.39683000  0.74449700  1
  C  C82  1  0.22937000  0.78861900  0.79967400  1
  C  C83  1  0.55445400  0.93314700  0.75924700  1
  C  C84  1  0.21868700  0.37494000  0.12661900  1
  C  C85  1  0.18142100  0.11102200  0.54374400  1
  C  C86  1  0.16935500  0.74041000  0.47271300  1
  C  C87  1  0.63727300  0.40923700  0.35287300  1
  C  C88  1  0.98048200  0.86974800  0.18361400  1
  C  C89  1  0.54137400  0.65624800  0.08184600  1
  C  C90  1  0.25959000  0.42894500  0.47271300  1
  C  C91  1  0.39683000  0.43622200  0.25550300  1
  C  C92  1  0.01951800  0.13025200  0.81638600  1
  C  C93  1  0.88512600  0.54137400  0.91815400  1
  C  C94  1  0.72984300  0.98116100  0.36205300  1
  C  C95  1  0.77063000  0.21138100  0.20032600  1
  C  C96  1  0.37869300  0.44554600  0.75924700  1
  C  C97  1  0.43851900  0.74468300  0.06433700  1
  C  C98  1  0.33333300  0.66666700  0.35523100  1
  C  C99  1  0.40923700  0.77196400  0.64712700  1
  C  C100  1  0.15625300  0.78131300  0.12661900  1
  C  C101  1  0.78131300  0.62506000  0.87338100  1
  C  C102  1  0.13025200  0.11073400  0.18361400  1
  C  C103  1  0.56377800  0.96060800  0.25550300  1
  C  C104  1  0.66666700  0.33333300  0.64476900  1
  C  C105  1  0.62130700  0.55445400  0.24075300  1
  C  C106  1  0.62506000  0.84374700  0.12661900  1
  C  C107  1  0.69383600  0.43851900  0.93566300  1
  C  C108  1  0.98116100  0.25131800  0.63794700  1
  C  C109  1  0.88897800  0.07039900  0.54374400  1
  C  C110  1  0.60317000  0.56377800  0.74449700  1
  C  C111  1  0.74868200  0.72984300  0.63794700  1
