# generated using pymatgen
data_Cu3Ni24C
_symmetry_space_group_name_H-M   'P 1'
_cell_length_a   15.25233786
_cell_length_b   15.25233786
_cell_length_c   15.25233768
_cell_angle_alpha   118.77501647
_cell_angle_beta   118.77501647
_cell_angle_gamma   118.77501423
_symmetry_Int_Tables_number   1
_chemical_formula_structural   Cu3Ni24C
_chemical_formula_sum   'Cu3 Ni24 C1'
_cell_volume   1014.55847342
_cell_formula_units_Z   1
loop_
 _symmetry_equiv_pos_site_id
 _symmetry_equiv_pos_as_xyz
  1  'x, y, z'
loop_
 _atom_site_type_symbol
 _atom_site_label
 _atom_site_symmetry_multiplicity
 _atom_site_fract_x
 _atom_site_fract_y
 _atom_site_fract_z
 _atom_site_occupancy
  C  C0  1  0.27819200  0.27819200  0.27819200  1
  Ni  Ni1  1  0.01430900  0.60852300  0.60852300  1
  Ni  Ni2  1  0.60852300  0.60852300  0.01430900  1
  Ni  Ni3  1  0.60852300  0.01430900  0.60852300  1
  Ni  Ni4  1  0.23192900  0.84175300  0.71377600  1
  Ni  Ni5  1  0.84175300  0.71377600  0.23192900  1
  Ni  Ni6  1  0.71377600  0.23192900  0.84175300  1
  Ni  Ni7  1  0.84175300  0.23192900  0.71377600  1
  Ni  Ni8  1  0.23192900  0.71377600  0.84175300  1
  Ni  Ni9  1  0.71377600  0.84175300  0.23192900  1
  Ni  Ni10  1  0.10268300  0.63054800  0.44944900  1
  Ni  Ni11  1  0.63054800  0.44944900  0.10268300  1
  Ni  Ni12  1  0.44944900  0.10268300  0.63054800  1
  Ni  Ni13  1  0.63054800  0.10268300  0.44944900  1
  Ni  Ni14  1  0.10268300  0.44944900  0.63054800  1
  Ni  Ni15  1  0.44944900  0.63054800  0.10268300  1
  Ni  Ni16  1  0.35627100  0.74442200  0.61629900  1
  Ni  Ni17  1  0.74442200  0.61629900  0.35627100  1
  Ni  Ni18  1  0.61629900  0.35627100  0.74442200  1
  Ni  Ni19  1  0.74442200  0.35627100  0.61629900  1
  Ni  Ni20  1  0.35627100  0.61629900  0.74442200  1
  Ni  Ni21  1  0.61629900  0.74442200  0.35627100  1
  Ni  Ni22  1  0.18964400  0.47016300  0.47016300  1
  Ni  Ni23  1  0.47016300  0.47016300  0.18964400  1
  Ni  Ni24  1  0.47016300  0.18964400  0.47016300  1
  Cu  Cu25  1  0.11740300  0.95796000  0.95796000  1
  Cu  Cu26  1  0.95796000  0.95796000  0.11740300  1
  Cu  Cu27  1  0.95796000  0.11740300  0.95796000  1
