# generated using pymatgen
data_Cu10Ni4C17
_symmetry_space_group_name_H-M   'P 1'
_cell_length_a   5.47198400
_cell_length_b   7.71509669
_cell_length_c   8.62467286
_cell_angle_alpha   107.77565859
_cell_angle_beta   98.54817875
_cell_angle_gamma   92.94246448
_symmetry_Int_Tables_number   1
_chemical_formula_structural   Cu10Ni4C17
_chemical_formula_sum   'Cu10 Ni4 C17'
_cell_volume   341.05936149
_cell_formula_units_Z   1
loop_
 _symmetry_equiv_pos_site_id
 _symmetry_equiv_pos_as_xyz
  1  'x, y, z'
loop_
 _atom_site_type_symbol
 _atom_site_label
 _atom_site_symmetry_multiplicity
 _atom_site_fract_x
 _atom_site_fract_y
 _atom_site_fract_z
 _atom_site_occupancy
  C  C0  1  0.00000000  0.00000000  0.00000000  1
  Ni  Ni1  1  0.03428600  0.28184500  0.69892200  1
  Ni  Ni2  1  0.96571400  0.71815500  0.30107800  1
  Ni  Ni3  1  0.42136200  0.81516300  0.79749900  1
  Ni  Ni4  1  0.57863800  0.18483700  0.20250100  1
  Cu  Cu5  1  0.11029000  0.10735000  0.44160300  1
  Cu  Cu6  1  0.88971000  0.89265000  0.55839700  1
  Cu  Cu7  1  0.98497100  0.59156900  0.77626800  1
  Cu  Cu8  1  0.01502900  0.40843100  0.22373200  1
  Cu  Cu9  1  0.31390900  0.28404400  0.92583800  1
  Cu  Cu10  1  0.68609100  0.71595600  0.07416200  1
  Cu  Cu11  1  0.57605900  0.54764200  0.66435700  1
  Cu  Cu12  1  0.42394100  0.45235800  0.33564300  1
  Cu  Cu13  1  0.59105300  0.03901000  0.70385600  1
  Cu  Cu14  1  0.40894700  0.96099000  0.29614400  1
  C  C15  1  0.86842900  0.47361100  0.72555000  1
  C  C16  1  0.13157100  0.52638900  0.27445000  1
  C  C17  1  0.12038200  0.24150100  0.50565400  1
  C  C18  1  0.87961800  0.75849900  0.49434600  1
  C  C19  1  0.87134400  0.09684100  0.71188100  1
  C  C20  1  0.12865600  0.90315900  0.28811900  1
  C  C21  1  0.29537400  0.36453900  0.85275000  1
  C  C22  1  0.70462600  0.63546100  0.14725000  1
  C  C23  1  0.67488900  0.84889400  0.95119300  1
  C  C24  1  0.32511100  0.15110600  0.04880700  1
  C  C25  1  0.41897600  0.60435800  0.64654700  1
  C  C26  1  0.58102400  0.39564200  0.35345300  1
  C  C27  1  0.14066400  0.79447600  0.85919400  1
  C  C28  1  0.85933600  0.20552400  0.14080600  1
  C  C29  1  0.41614000  0.97955700  0.69654300  1
  C  C30  1  0.58386000  0.02044300  0.30345700  1
