# generated using pymatgen
data_Cu(NiC2)2
_symmetry_space_group_name_H-M   'P 1'
_cell_length_a   6.44360400
_cell_length_b   13.51824000
_cell_length_c   24.76095400
_cell_angle_alpha   90.00000000
_cell_angle_beta   90.00000000
_cell_angle_gamma   90.00000000
_symmetry_Int_Tables_number   1
_chemical_formula_structural   Cu(NiC2)2
_chemical_formula_sum   'Cu12 Ni24 C48'
_cell_volume   2156.83224824
_cell_formula_units_Z   12
loop_
 _symmetry_equiv_pos_site_id
 _symmetry_equiv_pos_as_xyz
  1  'x, y, z'
loop_
 _atom_site_type_symbol
 _atom_site_label
 _atom_site_symmetry_multiplicity
 _atom_site_fract_x
 _atom_site_fract_y
 _atom_site_fract_z
 _atom_site_occupancy
  C  C0  1  0.07467200  0.21436700  0.82061700  1
  C  C1  1  0.92532800  0.71436700  0.82061700  1
  C  C2  1  0.42532800  0.78563300  0.32061700  1
  C  C3  1  0.07467200  0.28563300  0.17938300  1
  C  C4  1  0.42532800  0.71436700  0.67938300  1
  C  C5  1  0.57467200  0.21436700  0.67938300  1
  C  C6  1  0.92532800  0.78563300  0.17938300  1
  C  C7  1  0.57467200  0.28563300  0.32061700  1
  Ni  Ni8  1  0.41887700  0.58529400  0.04075900  1
  Ni  Ni9  1  0.55083900  0.29021200  0.10034800  1
  Ni  Ni10  1  0.49126500  0.52884700  0.40785600  1
  Ni  Ni11  1  0.05083900  0.29021200  0.39965200  1
  Ni  Ni12  1  0.94916100  0.79021200  0.39965200  1
  Ni  Ni13  1  0.49126500  0.97115300  0.59214400  1
  Ni  Ni14  1  0.99126500  0.52884700  0.09214400  1
  Ni  Ni15  1  0.58112300  0.41470600  0.95924100  1
  Ni  Ni16  1  0.55083900  0.20978800  0.89965200  1
  Ni  Ni17  1  0.58112300  0.08529400  0.04075900  1
  Ni  Ni18  1  0.44916100  0.79021200  0.10034800  1
  Ni  Ni19  1  0.91887700  0.58529400  0.45924100  1
  Ni  Ni20  1  0.91887700  0.91470600  0.54075900  1
  Ni  Ni21  1  0.08112300  0.08529400  0.45924100  1
  Ni  Ni22  1  0.50873500  0.47115300  0.59214400  1
  Ni  Ni23  1  0.00873500  0.47115300  0.90785600  1
  Ni  Ni24  1  0.99126500  0.97115300  0.90785600  1
  Ni  Ni25  1  0.41887700  0.91470600  0.95924100  1
  Ni  Ni26  1  0.00873500  0.02884700  0.09214400  1
  Ni  Ni27  1  0.94916100  0.70978800  0.60034800  1
  Ni  Ni28  1  0.50873500  0.02884700  0.40785600  1
  Ni  Ni29  1  0.08112300  0.41470600  0.54075900  1
  Ni  Ni30  1  0.44916100  0.70978800  0.89965200  1
  Ni  Ni31  1  0.05083900  0.20978800  0.60034800  1
  Cu  Cu32  1  0.55005200  0.44162500  0.79930600  1
  Cu  Cu33  1  0.47526200  0.75000000  0.50000000  1
  Cu  Cu34  1  0.05005200  0.05837500  0.29930600  1
  Cu  Cu35  1  0.05005200  0.44162500  0.70069400  1
  Cu  Cu36  1  0.02473800  0.25000000  0.00000000  1
  Cu  Cu37  1  0.94994800  0.94162500  0.70069400  1
  Cu  Cu38  1  0.44994800  0.94162500  0.79930600  1
  Cu  Cu39  1  0.55005200  0.05837500  0.20069400  1
  Cu  Cu40  1  0.44994800  0.55837500  0.20069400  1
  Cu  Cu41  1  0.97526200  0.75000000  0.00000000  1
  Cu  Cu42  1  0.52473800  0.25000000  0.50000000  1
  Cu  Cu43  1  0.94994800  0.55837500  0.29930600  1
  C  C44  1  0.30218000  0.12227100  0.54031300  1
  C  C45  1  0.66270900  0.96747800  0.12106300  1
  C  C46  1  0.19782000  0.62227100  0.95968700  1
  C  C47  1  0.66270900  0.53252200  0.87893700  1
  C  C48  1  0.41025600  0.76799900  0.80382200  1
  C  C49  1  0.33729100  0.46747800  0.12106300  1
  C  C50  1  0.26119200  0.67175000  0.43114200  1
  C  C51  1  0.31064700  0.00182400  0.71183600  1
  C  C52  1  0.58974400  0.23200100  0.19617800  1
  C  C53  1  0.73880800  0.32825000  0.56885800  1
  C  C54  1  0.80218000  0.12227100  0.95968700  1
  C  C55  1  0.91025600  0.73200100  0.30382200  1
  C  C56  1  0.19782000  0.87772900  0.04031300  1
  C  C57  1  0.83729100  0.46747800  0.37893700  1
  C  C58  1  0.58974400  0.26799900  0.80382200  1
  C  C59  1  0.23880800  0.17175000  0.06885800  1
  C  C60  1  0.30218000  0.37772900  0.45968700  1
  C  C61  1  0.08974400  0.26799900  0.69617800  1
  C  C62  1  0.33729100  0.03252200  0.87893700  1
  C  C63  1  0.83729100  0.03252200  0.62106300  1
  C  C64  1  0.76119200  0.67175000  0.06885800  1
  C  C65  1  0.69782000  0.87772900  0.45968700  1
  C  C66  1  0.16270900  0.53252200  0.62106300  1
  C  C67  1  0.73880800  0.17175000  0.43114200  1
  C  C68  1  0.91025600  0.76799900  0.69617800  1
  C  C69  1  0.26119200  0.82825000  0.56885800  1
  C  C70  1  0.68935300  0.50182400  0.71183600  1
  C  C71  1  0.18935300  0.99817600  0.21183600  1
  C  C72  1  0.16270900  0.96747800  0.37893700  1
  C  C73  1  0.08974400  0.23200100  0.30382200  1
  C  C74  1  0.81064700  0.00182400  0.78816400  1
  C  C75  1  0.31064700  0.49817600  0.28816400  1
  C  C76  1  0.80218000  0.37772900  0.04031300  1
  C  C77  1  0.68935300  0.99817600  0.28816400  1
  C  C78  1  0.41025600  0.73200100  0.19617800  1
  C  C79  1  0.23880800  0.32825000  0.93114200  1
  C  C80  1  0.69782000  0.62227100  0.54031300  1
  C  C81  1  0.81064700  0.49817600  0.21183600  1
  C  C82  1  0.18935300  0.50182400  0.78816400  1
  C  C83  1  0.76119200  0.82825000  0.93114200  1
