# generated using pymatgen
data_CuNi2C5
_symmetry_space_group_name_H-M   'P 1'
_cell_length_a   10.64538625
_cell_length_b   10.64538625
_cell_length_c   7.64426000
_cell_angle_alpha   90.00000000
_cell_angle_beta   90.00000000
_cell_angle_gamma   120.00000157
_symmetry_Int_Tables_number   1
_chemical_formula_structural   CuNi2C5
_chemical_formula_sum   'Cu9 Ni18 C45'
_cell_volume   750.22049182
_cell_formula_units_Z   9
loop_
 _symmetry_equiv_pos_site_id
 _symmetry_equiv_pos_as_xyz
  1  'x, y, z'
loop_
 _atom_site_type_symbol
 _atom_site_label
 _atom_site_symmetry_multiplicity
 _atom_site_fract_x
 _atom_site_fract_y
 _atom_site_fract_z
 _atom_site_occupancy
  C  C0  1  0.18474000  0.09351200  0.33167600  1
  C  C1  1  0.51854300  0.75068900  0.35363900  1
  C  C2  1  0.85221400  0.42686700  0.34004100  1
  C  C3  1  0.23214600  0.48145700  0.02030500  1
  C  C4  1  0.24931100  0.76785400  0.68697200  1
  C  C5  1  0.57313300  0.42534800  0.67337400  1
  C  C6  1  0.90648800  0.09122800  0.66501000  1
  C  C7  1  0.57465200  0.14778600  0.00670700  1
  C  C8  1  0.90877200  0.81526000  0.99834300  1
  Ni  Ni9  1  0.33698600  0.21502500  0.92290300  1
  Ni  Ni10  1  0.21621700  0.33071700  0.57988800  1
  Ni  Ni11  1  0.21286800  0.87978000  0.09046800  1
  Ni  Ni12  1  0.33109800  0.11597700  0.76565800  1
  Ni  Ni13  1  0.46148400  0.99631000  0.42963300  1
  Ni  Ni14  1  0.87803800  0.66301400  0.58956900  1
  Ni  Ni15  1  0.12022000  0.33308800  0.42380200  1
  Ni  Ni16  1  0.78497500  0.12196200  0.25623600  1
  Ni  Ni17  1  0.00369000  0.46517400  0.76296600  1
  Ni  Ni18  1  0.78487900  0.66890200  0.43232400  1
  Ni  Ni19  1  0.66691200  0.78713200  0.75713500  1
  Ni  Ni20  1  0.56059300  0.00191200  0.58645800  1
  Ni  Ni21  1  0.11449900  0.78378300  0.24655500  1
  Ni  Ni22  1  0.66928300  0.88550100  0.91322100  1
  Ni  Ni23  1  0.88402300  0.21512100  0.09899100  1
  Ni  Ni24  1  0.99808800  0.55868200  0.91979100  1
  Ni  Ni25  1  0.44131800  0.43940700  0.25312500  1
  Ni  Ni26  1  0.53482600  0.53851600  0.09629900  1
  Cu  Cu27  1  0.76684400  0.25708000  0.71180400  1
  Cu  Cu28  1  0.74292000  0.50976400  0.04513700  1
  Cu  Cu29  1  0.42827800  0.58461700  0.72575500  1
  Cu  Cu30  1  0.08321200  0.90528700  0.63303600  1
  Cu  Cu31  1  0.15633900  0.57172200  0.39242200  1
  Cu  Cu32  1  0.41538300  0.84366100  0.05908800  1
  Cu  Cu33  1  0.49023600  0.23315600  0.37847100  1
  Cu  Cu34  1  0.09471300  0.17792500  0.96637000  1
  Cu  Cu35  1  0.82207500  0.91678800  0.29970300  1
  C  C36  1  0.05513900  0.05823400  0.88529300  1
  C  C37  1  0.47625500  0.93339400  0.51366200  1
  C  C38  1  0.06660600  0.54286100  0.84699500  1
  C  C39  1  0.54358400  0.64132100  0.62507800  1
  C  C40  1  0.02533800  0.24856800  0.93721000  1
  C  C41  1  0.00309400  0.94486100  0.55195900  1
  C  C42  1  0.20765300  0.23543400  0.06926500  1
  C  C43  1  0.88113100  0.31407300  0.61145800  1
  C  C44  1  0.02778100  0.79234700  0.73593200  1
  C  C45  1  0.13255500  0.86659500  0.17039800  1
  C  C46  1  0.68592700  0.56705800  0.94479200  1
  C  C47  1  0.61194200  0.27703000  0.45661300  1
  C  C48  1  0.73404000  0.86744500  0.83706500  1
  C  C49  1  0.76456600  0.97221900  0.40259800  1
  C  C50  1  0.13340500  0.26596000  0.50373200  1
  C  C51  1  0.94176600  0.99690600  0.21862600  1
  C  C52  1  0.66508800  0.38805800  0.12328000  1
  C  C53  1  0.08579800  0.64062000  0.42023300  1
  C  C54  1  0.55482300  0.91420200  0.08690000  1
  C  C55  1  0.22323000  0.97466200  0.60387700  1
  C  C56  1  0.72297000  0.33491200  0.78994700  1
  C  C57  1  0.09773700  0.45641600  0.29174500  1
  C  C58  1  0.35867900  0.90226300  0.95841200  1
  C  C59  1  0.39978900  0.19675600  0.84260000  1
  C  C60  1  0.43294200  0.11886900  0.27812500  1
  C  C61  1  0.41747800  0.30037400  0.40920000  1
  C  C62  1  0.45713900  0.52374500  0.18032900  1
  C  C63  1  0.79696700  0.60021100  0.50926700  1
  C  C64  1  0.38774000  0.66476100  0.80486400  1
  C  C65  1  0.80324400  0.20303300  0.17593400  1
  C  C66  1  0.88289600  0.58252200  0.07586700  1
  C  C67  1  0.27702100  0.61226000  0.47153100  1
  C  C68  1  0.33523900  0.72297900  0.13819700  1
  C  C69  1  0.75143200  0.77677000  0.27054400  1
  C  C70  1  0.69962600  0.11710400  0.74253300  1
  C  C71  1  0.35938000  0.44517700  0.75356600  1
