# generated using pymatgen
data_CuNiC13
_symmetry_space_group_name_H-M   'P 1'
_cell_length_a   8.81671700
_cell_length_b   9.36154600
_cell_length_c   9.59614089
_cell_angle_alpha   75.43254452
_cell_angle_beta   90.00000000
_cell_angle_gamma   90.00000000
_symmetry_Int_Tables_number   1
_chemical_formula_structural   CuNiC13
_chemical_formula_sum   'Cu4 Ni4 C52'
_cell_volume   766.58467070
_cell_formula_units_Z   4
loop_
 _symmetry_equiv_pos_site_id
 _symmetry_equiv_pos_as_xyz
  1  'x, y, z'
loop_
 _atom_site_type_symbol
 _atom_site_label
 _atom_site_symmetry_multiplicity
 _atom_site_fract_x
 _atom_site_fract_y
 _atom_site_fract_z
 _atom_site_occupancy
  C  C0  1  0.61774200  0.30458800  0.55653900  1
  C  C1  1  0.11774200  0.69541200  0.94346100  1
  C  C2  1  0.38225800  0.69541200  0.44346100  1
  C  C3  1  0.88225800  0.30458800  0.05653900  1
  Ni  Ni4  1  0.15350400  0.30289700  0.42767300  1
  Ni  Ni5  1  0.65350400  0.69710300  0.07232700  1
  Ni  Ni6  1  0.84649600  0.69710300  0.57232700  1
  Ni  Ni7  1  0.34649600  0.30289700  0.92767300  1
  Cu  Cu8  1  0.96681500  0.15631800  0.70131900  1
  Cu  Cu9  1  0.46681500  0.84368200  0.79868100  1
  Cu  Cu10  1  0.03318500  0.84368200  0.29868100  1
  Cu  Cu11  1  0.53318500  0.15631800  0.20131900  1
  C  C12  1  0.07389500  0.42845700  0.70058400  1
  C  C13  1  0.57389500  0.57154300  0.79941600  1
  C  C14  1  0.92610500  0.57154300  0.29941600  1
  C  C15  1  0.42610500  0.42845700  0.20058400  1
  C  C16  1  0.77225100  0.91097300  0.78264000  1
  C  C17  1  0.27225100  0.08902700  0.71736000  1
  C  C18  1  0.22774900  0.08902700  0.21736000  1
  C  C19  1  0.72774900  0.91097300  0.28264000  1
  C  C20  1  0.94504400  0.10576900  0.50230100  1
  C  C21  1  0.44504400  0.89423100  0.99769900  1
  C  C22  1  0.05495600  0.89423100  0.49769900  1
  C  C23  1  0.55495600  0.10576900  0.00230100  1
  C  C24  1  0.95114400  0.29927400  0.73635300  1
  C  C25  1  0.45114400  0.70072600  0.76364700  1
  C  C26  1  0.04885600  0.70072600  0.26364700  1
  C  C27  1  0.54885600  0.29927400  0.23635300  1
  C  C28  1  0.10177100  0.07091500  0.76789600  1
  C  C29  1  0.60177100  0.92908500  0.73210400  1
  C  C30  1  0.89822900  0.92908500  0.23210400  1
  C  C31  1  0.39822900  0.07091500  0.26789600  1
  C  C32  1  0.18136000  0.40502300  0.83035100  1
  C  C33  1  0.68136000  0.59497700  0.66964900  1
  C  C34  1  0.81864000  0.59497700  0.16964900  1
  C  C35  1  0.31864000  0.40502300  0.33035100  1
  C  C36  1  0.82757800  0.07514700  0.75586100  1
  C  C37  1  0.32757800  0.92485300  0.74413900  1
  C  C38  1  0.17242200  0.92485300  0.24413900  1
  C  C39  1  0.67242200  0.07514700  0.25586100  1
  C  C40  1  0.78208600  0.83697400  0.94310900  1
  C  C41  1  0.28208600  0.16302600  0.55689100  1
  C  C42  1  0.21791400  0.16302600  0.05689100  1
  C  C43  1  0.71791400  0.83697400  0.44310900  1
  C  C44  1  0.86645800  0.83466100  0.68852600  1
  C  C45  1  0.36645800  0.16533900  0.81147400  1
  C  C46  1  0.13354200  0.16533900  0.31147400  1
  C  C47  1  0.63354200  0.83466100  0.18852600  1
  C  C48  1  0.98996400  0.57375900  0.69056500  1
  C  C49  1  0.48996400  0.42624100  0.80943500  1
  C  C50  1  0.01003600  0.42624100  0.30943500  1
  C  C51  1  0.51003600  0.57375900  0.19056500  1
  C  C52  1  0.15574200  0.42167400  0.56137200  1
  C  C53  1  0.65574200  0.57832600  0.93862800  1
  C  C54  1  0.84425800  0.57832600  0.43862800  1
  C  C55  1  0.34425800  0.42167400  0.06137200  1
  C  C56  1  0.97468000  0.18891000  0.53994000  1
  C  C57  1  0.47468000  0.81109000  0.96006000  1
  C  C58  1  0.02532000  0.81109000  0.46006000  1
  C  C59  1  0.52532000  0.18891000  0.03994000  1
