# generated using pymatgen
data_CuNiC7
_symmetry_space_group_name_H-M   'P 1'
_cell_length_a   5.63405191
_cell_length_b   9.91089572
_cell_length_c   8.45088589
_cell_angle_alpha   69.93745976
_cell_angle_beta   96.03328131
_cell_angle_gamma   91.47809959
_symmetry_Int_Tables_number   1
_chemical_formula_structural   CuNiC7
_chemical_formula_sum   'Cu4 Ni4 C28'
_cell_volume   440.76847843
_cell_formula_units_Z   4
loop_
 _symmetry_equiv_pos_site_id
 _symmetry_equiv_pos_as_xyz
  1  'x, y, z'
loop_
 _atom_site_type_symbol
 _atom_site_label
 _atom_site_symmetry_multiplicity
 _atom_site_fract_x
 _atom_site_fract_y
 _atom_site_fract_z
 _atom_site_occupancy
  Ni  Ni0  1  0.20738000  0.00765400  0.62593100  1
  Ni  Ni1  1  0.20763200  0.50793200  0.12576500  1
  Ni  Ni2  1  0.79262200  0.99234600  0.37406900  1
  Ni  Ni3  1  0.79236900  0.49206700  0.87423500  1
  Cu  Cu4  1  0.00000100  0.50000100  0.49999900  1
  Cu  Cu5  1  0.49999700  0.99999900  0.00000000  1
  Cu  Cu6  1  0.00000000  0.00000100  0.99999900  1
  Cu  Cu7  1  0.50000100  0.50000000  0.49999900  1
  C  C8  1  0.30057700  0.83173400  0.38595200  1
  C  C9  1  0.29978600  0.33161900  0.88598200  1
  C  C10  1  0.69942400  0.16826900  0.61405000  1
  C  C11  1  0.70021400  0.66838000  0.11402000  1
  C  C12  1  0.26629000  0.31406400  0.41372900  1
  C  C13  1  0.26678900  0.81395400  0.91387200  1
  C  C14  1  0.73371200  0.68593500  0.58627100  1
  C  C15  1  0.73321300  0.18604700  0.08612700  1
  C  C16  1  0.44534600  0.15109100  0.53241100  1
  C  C17  1  0.44595000  0.65130400  0.03254100  1
  C  C18  1  0.55465800  0.84890900  0.46758700  1
  C  C19  1  0.55404900  0.34869600  0.96745600  1
  C  C20  1  0.22857900  0.91785100  0.86866500  1
  C  C21  1  0.22851700  0.41802200  0.36860200  1
  C  C22  1  0.77142100  0.08215000  0.13133500  1
  C  C23  1  0.77148900  0.58197800  0.63139800  1
  C  C24  1  0.27350400  0.92094000  0.19448300  1
  C  C25  1  0.27265600  0.42088800  0.69449700  1
  C  C26  1  0.72649600  0.07905800  0.80551700  1
  C  C27  1  0.72733900  0.57911200  0.30550300  1
  C  C28  1  0.11558800  0.89189200  0.47377200  1
  C  C29  1  0.11518200  0.39170100  0.97417200  1
  C  C30  1  0.88441500  0.10810900  0.52623200  1
  C  C31  1  0.88481700  0.60829500  0.02583300  1
  C  C32  1  0.25121000  0.67115700  0.41804400  1
  C  C33  1  0.25046500  0.17110600  0.91802000  1
  C  C34  1  0.74879000  0.32884700  0.58195200  1
  C  C35  1  0.74952200  0.82889400  0.08198100  1
