# generated using pymatgen
data_Cu(Ni2C17)3
_symmetry_space_group_name_H-M   'P 1'
_cell_length_a   9.89018700
_cell_length_b   9.89018700
_cell_length_c   9.89018700
_cell_angle_alpha   90.00000000
_cell_angle_beta   90.00000000
_cell_angle_gamma   90.00000000
_symmetry_Int_Tables_number   1
_chemical_formula_structural   Cu(Ni2C17)3
_chemical_formula_sum   'Cu1 Ni6 C51'
_cell_volume   967.41654263
_cell_formula_units_Z   1
loop_
 _symmetry_equiv_pos_site_id
 _symmetry_equiv_pos_as_xyz
  1  'x, y, z'
loop_
 _atom_site_type_symbol
 _atom_site_label
 _atom_site_symmetry_multiplicity
 _atom_site_fract_x
 _atom_site_fract_y
 _atom_site_fract_z
 _atom_site_occupancy
  Ni  Ni0  1  0.69925200  0.00000000  0.00000000  1
  Ni  Ni1  1  0.00000000  0.00000000  0.69925200  1
  Ni  Ni2  1  0.00000000  0.69925200  0.00000000  1
  Ni  Ni3  1  0.00000000  0.30074800  0.00000000  1
  Ni  Ni4  1  0.00000000  0.00000000  0.30074800  1
  Ni  Ni5  1  0.30074800  0.00000000  0.00000000  1
  Cu  Cu6  1  0.50000000  0.50000000  0.50000000  1
  C  C7  1  0.13368900  0.36639900  0.36639900  1
  C  C8  1  0.13368900  0.36639900  0.63360100  1
  C  C9  1  0.13368900  0.63360100  0.36639900  1
  C  C10  1  0.13368900  0.63360100  0.63360100  1
  C  C11  1  0.36639900  0.13368900  0.63360100  1
  C  C12  1  0.36639900  0.63360100  0.13368900  1
  C  C13  1  0.36639900  0.63360100  0.86631100  1
  C  C14  1  0.36639900  0.86631100  0.63360100  1
  C  C15  1  0.36639900  0.13368900  0.36639900  1
  C  C16  1  0.36639900  0.36639900  0.13368900  1
  C  C17  1  0.36639900  0.36639900  0.86631100  1
  C  C18  1  0.36639900  0.86631100  0.36639900  1
  C  C19  1  0.63360100  0.13368900  0.36639900  1
  C  C20  1  0.63360100  0.13368900  0.63360100  1
  C  C21  1  0.63360100  0.36639900  0.13368900  1
  C  C22  1  0.63360100  0.63360100  0.13368900  1
  C  C23  1  0.63360100  0.63360100  0.86631100  1
  C  C24  1  0.63360100  0.86631100  0.63360100  1
  C  C25  1  0.63360100  0.36639900  0.86631100  1
  C  C26  1  0.63360100  0.86631100  0.36639900  1
  C  C27  1  0.86631100  0.36639900  0.63360100  1
  C  C28  1  0.86631100  0.36639900  0.36639900  1
  C  C29  1  0.86631100  0.63360100  0.36639900  1
  C  C30  1  0.86631100  0.63360100  0.63360100  1
  C  C31  1  0.50000000  0.00000000  0.74900400  1
  C  C32  1  0.50000000  0.25099600  0.00000000  1
  C  C33  1  0.50000000  0.24597900  0.50000000  1
  C  C34  1  0.50000000  0.50000000  0.24597900  1
  C  C35  1  0.75402100  0.50000000  0.50000000  1
  C  C36  1  0.74900400  0.00000000  0.50000000  1
  C  C37  1  0.74900400  0.50000000  0.00000000  1
  C  C38  1  0.77248600  0.22751400  0.22751400  1
  C  C39  1  0.77248600  0.77248600  0.22751400  1
  C  C40  1  0.77248600  0.22751400  0.77248600  1
  C  C41  1  0.77248600  0.77248600  0.77248600  1
  C  C42  1  0.00000000  0.74900400  0.50000000  1
  C  C43  1  0.00000000  0.50000000  0.74900400  1
  C  C44  1  0.00000000  0.25099600  0.50000000  1
  C  C45  1  0.00000000  0.50000000  0.25099600  1
  C  C46  1  0.22751400  0.22751400  0.22751400  1
  C  C47  1  0.22751400  0.77248600  0.22751400  1
  C  C48  1  0.22751400  0.22751400  0.77248600  1
  C  C49  1  0.22751400  0.77248600  0.77248600  1
  C  C50  1  0.25099600  0.00000000  0.50000000  1
  C  C51  1  0.25099600  0.50000000  0.00000000  1
  C  C52  1  0.24597900  0.50000000  0.50000000  1
  C  C53  1  0.50000000  0.75402100  0.50000000  1
  C  C54  1  0.50000000  0.50000000  0.75402100  1
  C  C55  1  0.50000000  0.74900400  0.00000000  1
  C  C56  1  0.50000000  0.00000000  0.25099600  1
  C  C57  1  0.00000000  0.00000000  0.00000000  1
