# generated using pymatgen
data_Cu5(NiC3)2
_symmetry_space_group_name_H-M   'P 1'
_cell_length_a   6.66506346
_cell_length_b   7.47118162
_cell_length_c   7.47096495
_cell_angle_alpha   61.49963691
_cell_angle_beta   116.49787352
_cell_angle_gamma   116.49686268
_symmetry_Int_Tables_number   1
_chemical_formula_structural   Cu5(NiC3)2
_chemical_formula_sum   'Cu10 Ni4 C12'
_cell_volume   279.43076482
_cell_formula_units_Z   2
loop_
 _symmetry_equiv_pos_site_id
 _symmetry_equiv_pos_as_xyz
  1  'x, y, z'
loop_
 _atom_site_type_symbol
 _atom_site_label
 _atom_site_symmetry_multiplicity
 _atom_site_fract_x
 _atom_site_fract_y
 _atom_site_fract_z
 _atom_site_occupancy
  C  C0  1  0.49994000  0.99997700  0.00001500  1
  C  C1  1  0.99999100  0.50000400  0.49998700  1
  C  C2  1  0.00000100  0.00000200  0.49999700  1
  C  C3  1  0.00000900  0.50000500  0.00000300  1
  C  C4  1  0.21481100  0.99426600  0.19978800  1
  C  C5  1  0.52076000  0.50574600  0.30020700  1
  C  C6  1  0.78521200  0.80019400  0.00575100  1
  C  C7  1  0.47925900  0.69980700  0.49424600  1
  C  C8  1  0.78520800  0.00574600  0.80020200  1
  C  C9  1  0.47926000  0.49425900  0.69978200  1
  C  C10  1  0.21479900  0.19981400  0.99424300  1
  C  C11  1  0.52075600  0.30020700  0.50575100  1
  Ni  Ni12  1  0.72262800  0.92302500  0.92304200  1
  Ni  Ni13  1  0.37652900  0.57695400  0.57693500  1
  Ni  Ni14  1  0.27735400  0.07696700  0.07692800  1
  Ni  Ni15  1  0.62349000  0.42306000  0.42306900  1
  Cu  Cu16  1  0.06488500  0.25003200  0.25004600  1
  Cu  Cu17  1  0.93512400  0.74996400  0.74994400  1
  Cu  Cu18  1  0.32134900  0.08881900  0.65859200  1
  Cu  Cu19  1  0.07383400  0.41134400  0.84131500  1
  Cu  Cu20  1  0.67864800  0.34138800  0.91121100  1
  Cu  Cu21  1  0.92615500  0.15871000  0.58864300  1
  Cu  Cu22  1  0.67862000  0.91119700  0.34139200  1
  Cu  Cu23  1  0.92618300  0.58865000  0.15872800  1
  Cu  Cu24  1  0.32136300  0.65859600  0.08880200  1
  Cu  Cu25  1  0.07383000  0.84126600  0.41138000  1
