# generated using pymatgen
data_Cu2Ni7C25
_symmetry_space_group_name_H-M   'P 1'
_cell_length_a   17.75532635
_cell_length_b   17.75532635
_cell_length_c   17.75532621
_cell_angle_alpha   19.14672983
_cell_angle_beta   19.14672983
_cell_angle_gamma   19.14673066
_symmetry_Int_Tables_number   1
_chemical_formula_structural   Cu2Ni7C25
_chemical_formula_sum   'Cu2 Ni7 C25'
_cell_volume   526.32708832
_cell_formula_units_Z   1
loop_
 _symmetry_equiv_pos_site_id
 _symmetry_equiv_pos_as_xyz
  1  'x, y, z'
loop_
 _atom_site_type_symbol
 _atom_site_label
 _atom_site_symmetry_multiplicity
 _atom_site_fract_x
 _atom_site_fract_y
 _atom_site_fract_z
 _atom_site_occupancy
  Ni  Ni0  1  0.85433200  0.85433200  0.85433200  1
  Ni  Ni1  1  0.14566800  0.14566800  0.14566800  1
  Ni  Ni2  1  0.00000000  0.00000000  0.00000000  1
  Ni  Ni3  1  0.38792300  0.38792300  0.38792300  1
  Ni  Ni4  1  0.77325000  0.77325000  0.77325000  1
  Ni  Ni5  1  0.22675000  0.22675000  0.22675000  1
  Ni  Ni6  1  0.61207700  0.61207700  0.61207700  1
  Cu  Cu7  1  0.07455000  0.07455000  0.07455000  1
  Cu  Cu8  1  0.92545000  0.92545000  0.92545000  1
  C  C9  1  0.69701400  0.69701400  0.69701400  1
  C  C10  1  0.30298600  0.30298600  0.30298600  1
  C  C11  1  0.54943100  0.54943100  0.54943100  1
  C  C12  1  0.45056900  0.45056900  0.45056900  1
  C  C13  1  0.50000000  0.50000000  0.50000000  1
  C  C14  1  0.72292400  0.26222100  0.72292400  1
  C  C15  1  0.39210000  0.86716700  0.86716700  1
  C  C16  1  0.26222100  0.72292400  0.72292400  1
  C  C17  1  0.86716700  0.86716700  0.39210000  1
  C  C18  1  0.73777900  0.27707600  0.27707600  1
  C  C19  1  0.37681600  0.81661000  0.37681600  1
  C  C20  1  0.81661000  0.37681600  0.37681600  1
  C  C21  1  0.62318400  0.18339000  0.62318400  1
  C  C22  1  0.72292400  0.72292400  0.26222100  1
  C  C23  1  0.27707600  0.73777900  0.27707600  1
  C  C24  1  0.66477100  0.66477100  0.66477100  1
  C  C25  1  0.13283300  0.60790000  0.13283300  1
  C  C26  1  0.37681600  0.37681600  0.81661000  1
  C  C27  1  0.86716700  0.39210000  0.86716700  1
  C  C28  1  0.13283300  0.13283300  0.60790000  1
  C  C29  1  0.18339000  0.62318400  0.62318400  1
  C  C30  1  0.60790000  0.13283300  0.13283300  1
  C  C31  1  0.33522900  0.33522900  0.33522900  1
  C  C32  1  0.62318400  0.62318400  0.18339000  1
  C  C33  1  0.27707600  0.27707600  0.73777900  1
