# generated using pymatgen
data_Cu(NiC4)4
_symmetry_space_group_name_H-M   'P 1'
_cell_length_a   7.18364400
_cell_length_b   8.64123300
_cell_length_c   13.67327200
_cell_angle_alpha   90.00000000
_cell_angle_beta   90.00000000
_cell_angle_gamma   90.00000000
_symmetry_Int_Tables_number   1
_chemical_formula_structural   Cu(NiC4)4
_chemical_formula_sum   'Cu4 Ni16 C64'
_cell_volume   848.77576475
_cell_formula_units_Z   4
loop_
 _symmetry_equiv_pos_site_id
 _symmetry_equiv_pos_as_xyz
  1  'x, y, z'
loop_
 _atom_site_type_symbol
 _atom_site_label
 _atom_site_symmetry_multiplicity
 _atom_site_fract_x
 _atom_site_fract_y
 _atom_site_fract_z
 _atom_site_occupancy
  C  C0  1  0.54265800  0.52240400  0.81139300  1
  C  C1  1  0.75000000  0.72549100  0.21170200  1
  C  C2  1  0.12506200  0.85034100  0.18233000  1
  C  C3  1  0.57991100  0.57600000  0.09169700  1
  C  C4  1  0.07876500  0.86675700  0.40277900  1
  C  C5  1  0.87493800  0.35034100  0.31767000  1
  C  C6  1  0.62463900  0.87292000  0.80715600  1
  C  C7  1  0.12463900  0.12708000  0.19284400  1
  C  C8  1  0.25000000  0.27450900  0.78829800  1
  C  C9  1  0.62506200  0.14965900  0.81767000  1
  C  C10  1  0.92008900  0.92400000  0.59169700  1
  C  C11  1  0.07991100  0.42400000  0.90830300  1
  C  C12  1  0.07876500  0.63324300  0.90277900  1
  C  C13  1  0.87536100  0.87292000  0.80715600  1
  C  C14  1  0.04265800  0.47759600  0.18860700  1
  C  C15  1  0.07991100  0.07600000  0.40830300  1
  C  C16  1  0.92008900  0.57600000  0.09169700  1
  C  C17  1  0.42123500  0.63324300  0.90277900  1
  C  C18  1  0.92123500  0.13324300  0.59722100  1
  C  C19  1  0.57876500  0.13324300  0.59722100  1
  C  C20  1  0.25000000  0.22549100  0.28829800  1
  C  C21  1  0.75000000  0.26382700  0.72856400  1
  C  C22  1  0.57876500  0.36675700  0.09722100  1
  C  C23  1  0.37493800  0.64965900  0.68233000  1
  C  C24  1  0.75000000  0.23617300  0.22856400  1
  C  C25  1  0.95734200  0.52240400  0.81139300  1
  C  C26  1  0.75000000  0.77450900  0.71170200  1
  C  C27  1  0.37536100  0.12708000  0.19284400  1
  C  C28  1  0.37536100  0.37292000  0.69284400  1
  C  C29  1  0.45734200  0.02240400  0.68860700  1
  C  C30  1  0.95734200  0.97759600  0.31139300  1
  C  C31  1  0.87536100  0.62708000  0.30715600  1
  C  C32  1  0.54265800  0.97759600  0.31139300  1
  C  C33  1  0.12463900  0.37292000  0.69284400  1
  C  C34  1  0.62463900  0.62708000  0.30715600  1
  C  C35  1  0.37493800  0.85034100  0.18233000  1
  C  C36  1  0.12506200  0.64965900  0.68233000  1
  C  C37  1  0.25000000  0.76382700  0.77143600  1
  C  C38  1  0.57991100  0.92400000  0.59169700  1
  C  C39  1  0.42123500  0.86675700  0.40277900  1
  C  C40  1  0.92123500  0.36675700  0.09722100  1
  C  C41  1  0.42008900  0.07600000  0.40830300  1
  C  C42  1  0.87493800  0.14965900  0.81767000  1
  C  C43  1  0.42008900  0.42400000  0.90830300  1
  C  C44  1  0.25000000  0.73617300  0.27143600  1
  C  C45  1  0.62506200  0.35034100  0.31767000  1
  C  C46  1  0.04265800  0.02240400  0.68860700  1
  C  C47  1  0.45734200  0.47759600  0.18860700  1
  Ni  Ni48  1  0.25000000  0.65649400  0.72833400  1
  Ni  Ni49  1  0.75000000  0.62589600  0.26140500  1
  Ni  Ni50  1  0.25000000  0.37410400  0.73859500  1
  Ni  Ni51  1  0.57868000  0.02571300  0.63989300  1
  Ni  Ni52  1  0.92132000  0.02571300  0.63989300  1
  Ni  Ni53  1  0.25000000  0.84350600  0.22833400  1
  Ni  Ni54  1  0.25000000  0.12589600  0.23859500  1
  Ni  Ni55  1  0.07868000  0.97428700  0.36010700  1
  Ni  Ni56  1  0.92132000  0.47428700  0.13989300  1
  Ni  Ni57  1  0.75000000  0.87410400  0.76140500  1
  Ni  Ni58  1  0.07868000  0.52571300  0.86010700  1
  Ni  Ni59  1  0.75000000  0.15649400  0.77166600  1
  Ni  Ni60  1  0.42132000  0.97428700  0.36010700  1
  Ni  Ni61  1  0.57868000  0.47428700  0.13989300  1
  Ni  Ni62  1  0.75000000  0.34350600  0.27166600  1
  Ni  Ni63  1  0.42132000  0.52571300  0.86010700  1
  Cu  Cu64  1  0.25000000  0.46039100  0.46924800  1
  Cu  Cu65  1  0.75000000  0.53960900  0.53075200  1
  Cu  Cu66  1  0.75000000  0.96039100  0.03075200  1
  Cu  Cu67  1  0.25000000  0.03960900  0.96924800  1
  C  C68  1  0.25000000  0.52094100  0.79710000  1
  C  C69  1  0.75000000  0.47905900  0.20290000  1
  C  C70  1  0.25000000  0.97905900  0.29710000  1
  C  C71  1  0.75000000  0.02094100  0.70290000  1
  C  C72  1  0.05308700  0.17400800  0.98180300  1
  C  C73  1  0.05308700  0.32599200  0.48180300  1
  C  C74  1  0.25000000  0.00072500  0.83772200  1
  C  C75  1  0.55308700  0.67400800  0.51819700  1
  C  C76  1  0.94691300  0.82599200  0.01819700  1
  C  C77  1  0.55308700  0.82599200  0.01819700  1
  C  C78  1  0.94691300  0.67400800  0.51819700  1
  C  C79  1  0.44691300  0.32599200  0.48180300  1
  C  C80  1  0.75000000  0.50072500  0.66227800  1
  C  C81  1  0.25000000  0.49927500  0.33772200  1
  C  C82  1  0.44691300  0.17400800  0.98180300  1
  C  C83  1  0.75000000  0.99927500  0.16227800  1
