# generated using pymatgen
data_CuNiC8
_symmetry_space_group_name_H-M   'P 1'
_cell_length_a   16.29721600
_cell_length_b   5.47379300
_cell_length_c   7.70250800
_cell_angle_alpha   90.00000000
_cell_angle_beta   90.00000000
_cell_angle_gamma   90.00000000
_symmetry_Int_Tables_number   1
_chemical_formula_structural   CuNiC8
_chemical_formula_sum   'Cu6 Ni6 C48'
_cell_volume   687.12215145
_cell_formula_units_Z   6
loop_
 _symmetry_equiv_pos_site_id
 _symmetry_equiv_pos_as_xyz
  1  'x, y, z'
loop_
 _atom_site_type_symbol
 _atom_site_label
 _atom_site_symmetry_multiplicity
 _atom_site_fract_x
 _atom_site_fract_y
 _atom_site_fract_z
 _atom_site_occupancy
  Ni  Ni0  1  0.16707000  0.53808700  0.75000000  1
  Ni  Ni1  1  0.33642500  0.95805600  0.25000000  1
  Ni  Ni2  1  0.50546800  0.54354900  0.75000000  1
  Ni  Ni3  1  0.66119800  0.04354900  0.75000000  1
  Ni  Ni4  1  0.83024200  0.45805600  0.25000000  1
  Ni  Ni5  1  0.99959800  0.03808700  0.75000000  1
  Cu  Cu6  1  0.99875000  0.96837400  0.25000000  1
  Cu  Cu7  1  0.16791600  0.46837400  0.25000000  1
  Cu  Cu8  1  0.33129900  0.03285500  0.75000000  1
  Cu  Cu9  1  0.49442700  0.46148000  0.25000000  1
  Cu  Cu10  1  0.67224000  0.96148000  0.25000000  1
  Cu  Cu11  1  0.83536800  0.53285500  0.75000000  1
  C  C12  1  0.99997200  0.49947600  0.99727800  1
  C  C13  1  0.99997200  0.49947600  0.50272200  1
  C  C14  1  0.16669500  0.99947600  0.50272200  1
  C  C15  1  0.16669500  0.99947600  0.99727800  1
  C  C16  1  0.33403000  0.50066400  0.50284900  1
  C  C17  1  0.33403000  0.50066400  0.99715100  1
  C  C18  1  0.50077300  0.99893700  0.99703800  1
  C  C19  1  0.50077300  0.99893700  0.50296200  1
  C  C20  1  0.66589400  0.49893700  0.50296200  1
  C  C21  1  0.66589400  0.49893700  0.99703800  1
  C  C22  1  0.83263600  0.00066400  0.99715100  1
  C  C23  1  0.83263600  0.00066400  0.50284900  1
  C  C24  1  0.02302900  0.48078400  0.75000000  1
  C  C25  1  0.07437000  0.22270700  0.04174900  1
  C  C26  1  0.07437000  0.22270700  0.45825100  1
  C  C27  1  0.09229700  0.72270700  0.04174900  1
  C  C28  1  0.09229700  0.72270700  0.45825100  1
  C  C29  1  0.14363800  0.98078400  0.75000000  1
  C  C30  1  0.19113200  0.00999300  0.25000000  1
  C  C31  1  0.23841500  0.28550200  0.53983300  1
  C  C32  1  0.23841500  0.28550200  0.96016700  1
  C  C33  1  0.25998600  0.77876900  0.53503400  1
  C  C34  1  0.25998600  0.77876900  0.96496600  1
  C  C35  1  0.31543100  0.51500500  0.25000000  1
  C  C36  1  0.35929300  0.48832100  0.75000000  1
  C  C37  1  0.40400800  0.21024100  0.03655800  1
  C  C38  1  0.40400800  0.21024100  0.46344200  1
  C  C39  1  0.42817200  0.71791300  0.03117800  1
  C  C40  1  0.42817200  0.71791300  0.46882200  1
  C  C41  1  0.47904200  0.98379800  0.75000000  1
  C  C42  1  0.52284800  0.00672900  0.25000000  1
  C  C43  1  0.56905800  0.29227600  0.53160800  1
  C  C44  1  0.56905800  0.29227600  0.96839200  1
  C  C45  1  0.59760900  0.79227600  0.53160800  1
  C  C46  1  0.59760900  0.79227600  0.96839200  1
  C  C47  1  0.64381900  0.50672900  0.25000000  1
  C  C48  1  0.68762400  0.48379800  0.75000000  1
  C  C49  1  0.73849500  0.21791300  0.03117800  1
  C  C50  1  0.73849500  0.21791300  0.46882200  1
  C  C51  1  0.76265800  0.71024100  0.03655800  1
  C  C52  1  0.76265800  0.71024100  0.46344200  1
  C  C53  1  0.80737400  0.98832100  0.75000000  1
  C  C54  1  0.85123600  0.01500500  0.25000000  1
  C  C55  1  0.90668000  0.27876900  0.53503400  1
  C  C56  1  0.90668000  0.27876900  0.96496600  1
  C  C57  1  0.92825200  0.78550200  0.53983300  1
  C  C58  1  0.92825200  0.78550200  0.96016700  1
  C  C59  1  0.97553400  0.50999300  0.25000000  1
