# generated using pymatgen
data_Cu6Ni2C5
_symmetry_space_group_name_H-M   'P 1'
_cell_length_a   8.99317729
_cell_length_b   8.99317729
_cell_length_c   23.88539600
_cell_angle_alpha   90.00000000
_cell_angle_beta   90.00000000
_cell_angle_gamma   118.91286953
_symmetry_Int_Tables_number   1
_chemical_formula_structural   Cu6Ni2C5
_chemical_formula_sum   'Cu24 Ni8 C20'
_cell_volume   1690.99936816
_cell_formula_units_Z   4
loop_
 _symmetry_equiv_pos_site_id
 _symmetry_equiv_pos_as_xyz
  1  'x, y, z'
loop_
 _atom_site_type_symbol
 _atom_site_label
 _atom_site_symmetry_multiplicity
 _atom_site_fract_x
 _atom_site_fract_y
 _atom_site_fract_z
 _atom_site_occupancy
  C  C0  1  0.74552800  0.75142000  0.75164700  1
  C  C1  1  0.25447200  0.24858000  0.25164700  1
  C  C2  1  0.24858000  0.25447200  0.75164700  1
  C  C3  1  0.75142000  0.74552800  0.25164700  1
  C  C4  1  0.50382600  0.00758200  0.74888300  1
  C  C5  1  0.49617400  0.99241800  0.24888300  1
  C  C6  1  0.99241800  0.49617400  0.74888300  1
  C  C7  1  0.00758200  0.50382600  0.24888300  1
  C  C8  1  0.56474100  0.91759000  0.91213100  1
  C  C9  1  0.43525900  0.08241000  0.41213100  1
  C  C10  1  0.08241000  0.43525900  0.91213100  1
  C  C11  1  0.91759000  0.56474100  0.41213100  1
  C  C12  1  0.31844200  0.15917800  0.58665400  1
  C  C13  1  0.68155800  0.84082200  0.08665400  1
  C  C14  1  0.84082200  0.68155800  0.58665400  1
  C  C15  1  0.15917800  0.31844200  0.08665400  1
  C  C16  1  0.43268000  0.18378600  0.99984600  1
  C  C17  1  0.56732000  0.81621400  0.49984600  1
  C  C18  1  0.81621400  0.56732000  0.99984600  1
  C  C19  1  0.18378600  0.43268000  0.49984600  1
  Ni  Ni20  1  0.03381500  0.96618500  0.88015500  1
  Ni  Ni21  1  0.96618500  0.03381500  0.38015500  1
  Ni  Ni22  1  0.26589300  0.73410700  0.62232000  1
  Ni  Ni23  1  0.73410700  0.26589300  0.12232000  1
  Ni  Ni24  1  0.78376800  0.21623200  0.61719200  1
  Ni  Ni25  1  0.21623200  0.78376800  0.11719200  1
  Ni  Ni26  1  0.51234800  0.48765200  0.87978300  1
  Ni  Ni27  1  0.48765200  0.51234800  0.37978300  1
  Cu  Cu28  1  0.21973300  0.78026700  0.99656600  1
  Cu  Cu29  1  0.78026700  0.21973300  0.49656600  1
  Cu  Cu30  1  0.12232000  0.87768000  0.69227500  1
  Cu  Cu31  1  0.87768000  0.12232000  0.19227500  1
  Cu  Cu32  1  0.37036900  0.62963100  0.80890900  1
  Cu  Cu33  1  0.62963100  0.37036900  0.30890900  1
  Cu  Cu34  1  0.03067000  0.96933000  0.00076100  1
  Cu  Cu35  1  0.96933000  0.03067000  0.50076100  1
  Cu  Cu36  1  0.62386400  0.85943800  0.64018100  1
  Cu  Cu37  1  0.37613600  0.14056200  0.14018100  1
  Cu  Cu38  1  0.14056200  0.37613600  0.64018100  1
  Cu  Cu39  1  0.85943800  0.62386400  0.14018100  1
  Cu  Cu40  1  0.39267300  0.13229300  0.85895900  1
  Cu  Cu41  1  0.60732700  0.86770700  0.35895900  1
  Cu  Cu42  1  0.86770700  0.60732700  0.85895900  1
  Cu  Cu43  1  0.13229300  0.39267300  0.35895900  1
  Cu  Cu44  1  0.45251800  0.54748200  0.99168200  1
  Cu  Cu45  1  0.54748200  0.45251800  0.49168200  1
  Cu  Cu46  1  0.62921700  0.37078300  0.67500000  1
  Cu  Cu47  1  0.37078300  0.62921700  0.17500000  1
  Cu  Cu48  1  0.12235200  0.87764800  0.32385100  1
  Cu  Cu49  1  0.87764800  0.12235200  0.82385100  1
  Cu  Cu50  1  0.20429700  0.79570300  0.51010400  1
  Cu  Cu51  1  0.79570300  0.20429700  0.01010400  1
