# generated using pymatgen
data_Cu3NiC3
_symmetry_space_group_name_H-M   'P 1'
_cell_length_a   4.28799500
_cell_length_b   4.28799500
_cell_length_c   15.27099200
_cell_angle_alpha   90.00000000
_cell_angle_beta   90.00000000
_cell_angle_gamma   90.00000000
_symmetry_Int_Tables_number   1
_chemical_formula_structural   Cu3NiC3
_chemical_formula_sum   'Cu6 Ni2 C6'
_cell_volume   280.78621991
_cell_formula_units_Z   2
loop_
 _symmetry_equiv_pos_site_id
 _symmetry_equiv_pos_as_xyz
  1  'x, y, z'
loop_
 _atom_site_type_symbol
 _atom_site_label
 _atom_site_symmetry_multiplicity
 _atom_site_fract_x
 _atom_site_fract_y
 _atom_site_fract_z
 _atom_site_occupancy
  C  C0  1  0.50000000  0.00000000  0.09479500  1
  C  C1  1  0.50000000  0.00000000  0.35245300  1
  C  C2  1  0.00000000  0.50000000  0.64754700  1
  C  C3  1  0.00000000  0.50000000  0.90520500  1
  C  C4  1  0.50000000  0.00000000  0.78664500  1
  C  C5  1  0.00000000  0.50000000  0.21335500  1
  Ni  Ni6  1  0.50000000  0.00000000  0.57435800  1
  Ni  Ni7  1  0.00000000  0.50000000  0.42564200  1
  Cu  Cu8  1  0.00000000  0.50000000  0.07471500  1
  Cu  Cu9  1  0.00000000  0.00000000  0.23811600  1
  Cu  Cu10  1  0.50000000  0.50000000  0.76188400  1
  Cu  Cu11  1  0.50000000  0.00000000  0.92528500  1
  Cu  Cu12  1  0.00000000  0.00000000  0.76188400  1
  Cu  Cu13  1  0.50000000  0.50000000  0.23811600  1
