# generated using pymatgen
data_Cu13Ni9C4
_symmetry_space_group_name_H-M   'P 1'
_cell_length_a   3.95137700
_cell_length_b   11.00682600
_cell_length_c   19.00473100
_cell_angle_alpha   90.00000000
_cell_angle_beta   90.00000000
_cell_angle_gamma   90.00000000
_symmetry_Int_Tables_number   1
_chemical_formula_structural   Cu13Ni9C4
_chemical_formula_sum   'Cu26 Ni18 C8'
_cell_volume   826.55602410
_cell_formula_units_Z   2
loop_
 _symmetry_equiv_pos_site_id
 _symmetry_equiv_pos_as_xyz
  1  'x, y, z'
loop_
 _atom_site_type_symbol
 _atom_site_label
 _atom_site_symmetry_multiplicity
 _atom_site_fract_x
 _atom_site_fract_y
 _atom_site_fract_z
 _atom_site_occupancy
  C  C0  1  0.50000000  0.69088000  0.20793300  1
  C  C1  1  0.00000000  0.80912000  0.79206700  1
  C  C2  1  0.00000000  0.19088000  0.79206700  1
  C  C3  1  0.50000000  0.30912000  0.20793300  1
  C  C4  1  0.50000000  0.00000000  0.51936400  1
  C  C5  1  0.00000000  0.50000000  0.48063600  1
  C  C6  1  0.50000000  0.50000000  0.02194000  1
  C  C7  1  0.00000000  0.00000000  0.97806000  1
  Ni  Ni8  1  0.00000000  0.00000000  0.39773200  1
  Ni  Ni9  1  0.50000000  0.50000000  0.60226800  1
  Ni  Ni10  1  0.50000000  0.31855800  0.41458900  1
  Ni  Ni11  1  0.00000000  0.18144200  0.58541100  1
  Ni  Ni12  1  0.00000000  0.81855800  0.58541100  1
  Ni  Ni13  1  0.50000000  0.68144200  0.41458900  1
  Ni  Ni14  1  0.00000000  0.68782400  0.08049300  1
  Ni  Ni15  1  0.50000000  0.81217600  0.91950700  1
  Ni  Ni16  1  0.50000000  0.18782400  0.91950700  1
  Ni  Ni17  1  0.00000000  0.31217600  0.08049300  1
  Ni  Ni18  1  0.50000000  0.00000000  0.10208800  1
  Ni  Ni19  1  0.00000000  0.50000000  0.89791200  1
  Ni  Ni20  1  0.50000000  0.37343000  0.72938800  1
  Ni  Ni21  1  0.00000000  0.12657000  0.27061200  1
  Ni  Ni22  1  0.00000000  0.87343000  0.27061200  1
  Ni  Ni23  1  0.50000000  0.62657000  0.72938800  1
  Ni  Ni24  1  0.50000000  0.00000000  0.73239000  1
  Ni  Ni25  1  0.00000000  0.50000000  0.26761000  1
  Cu  Cu26  1  0.00000000  0.68383900  0.33509500  1
  Cu  Cu27  1  0.50000000  0.81616100  0.66490500  1
  Cu  Cu28  1  0.50000000  0.18383900  0.66490500  1
  Cu  Cu29  1  0.00000000  0.31616100  0.33509500  1
  Cu  Cu30  1  0.00000000  0.50000000  0.14210400  1
  Cu  Cu31  1  0.50000000  0.00000000  0.85789600  1
  Cu  Cu32  1  0.50000000  0.50000000  0.34290500  1
  Cu  Cu33  1  0.00000000  0.00000000  0.65709500  1
  Cu  Cu34  1  0.00000000  0.50000000  0.77262000  1
  Cu  Cu35  1  0.50000000  0.00000000  0.22738000  1
  Cu  Cu36  1  0.50000000  0.68877900  0.53890600  1
  Cu  Cu37  1  0.00000000  0.81122100  0.46109400  1
  Cu  Cu38  1  0.00000000  0.18877900  0.46109400  1
  Cu  Cu39  1  0.50000000  0.31122100  0.53890600  1
  Cu  Cu40  1  0.00000000  0.70039800  0.95333700  1
  Cu  Cu41  1  0.50000000  0.79960200  0.04666300  1
  Cu  Cu42  1  0.50000000  0.20039800  0.04666300  1
  Cu  Cu43  1  0.00000000  0.29960200  0.95333700  1
  Cu  Cu44  1  0.00000000  0.87508100  0.14343500  1
  Cu  Cu45  1  0.50000000  0.62491900  0.85656500  1
  Cu  Cu46  1  0.50000000  0.37508100  0.85656500  1
  Cu  Cu47  1  0.00000000  0.12491900  0.14343500  1
  Cu  Cu48  1  0.50000000  0.87224900  0.35553400  1
  Cu  Cu49  1  0.00000000  0.62775100  0.64446600  1
  Cu  Cu50  1  0.00000000  0.37224900  0.64446600  1
  Cu  Cu51  1  0.50000000  0.12775100  0.35553400  1
