# generated using pymatgen
data_Cu(NiC2)4
_symmetry_space_group_name_H-M   'P 1'
_cell_length_a   3.50884600
_cell_length_b   8.14579600
_cell_length_c   9.32077100
_cell_angle_alpha   90.00000000
_cell_angle_beta   90.00000000
_cell_angle_gamma   90.00000000
_symmetry_Int_Tables_number   1
_chemical_formula_structural   Cu(NiC2)4
_chemical_formula_sum   'Cu2 Ni8 C16'
_cell_volume   266.40948038
_cell_formula_units_Z   2
loop_
 _symmetry_equiv_pos_site_id
 _symmetry_equiv_pos_as_xyz
  1  'x, y, z'
loop_
 _atom_site_type_symbol
 _atom_site_label
 _atom_site_symmetry_multiplicity
 _atom_site_fract_x
 _atom_site_fract_y
 _atom_site_fract_z
 _atom_site_occupancy
  Ni  Ni0  1  0.00000000  0.48758800  0.19778300  1
  Ni  Ni1  1  0.00000000  0.51241200  0.80221700  1
  Ni  Ni2  1  0.50000000  0.01241200  0.69778300  1
  Ni  Ni3  1  0.50000000  0.98758800  0.30221700  1
  Ni  Ni4  1  0.50000000  0.66904800  0.95096800  1
  Ni  Ni5  1  0.50000000  0.33095200  0.04903200  1
  Ni  Ni6  1  0.00000000  0.83095200  0.45096800  1
  Ni  Ni7  1  0.00000000  0.16904800  0.54903200  1
  Cu  Cu8  1  0.50000000  0.50000000  0.50000000  1
  Cu  Cu9  1  0.00000000  0.00000000  0.00000000  1
  C  C10  1  0.50000000  0.72828500  0.20929900  1
  C  C11  1  0.50000000  0.27171500  0.79070100  1
  C  C12  1  0.00000000  0.77171500  0.70929900  1
  C  C13  1  0.00000000  0.22828500  0.29070100  1
  C  C14  1  0.50000000  0.75239300  0.35740800  1
  C  C15  1  0.50000000  0.24760700  0.64259200  1
  C  C16  1  0.00000000  0.74760700  0.85740800  1
  C  C17  1  0.00000000  0.25239300  0.14259200  1
  C  C18  1  0.50000000  0.57298900  0.14908100  1
  C  C19  1  0.50000000  0.42701100  0.85092000  1
  C  C20  1  0.00000000  0.92701100  0.64908000  1
  C  C21  1  0.00000000  0.07298900  0.35091900  1
  C  C22  1  0.00000000  0.36547600  0.38090700  1
  C  C23  1  0.00000000  0.63452400  0.61909300  1
  C  C24  1  0.50000000  0.13452400  0.88090700  1
  C  C25  1  0.50000000  0.86547600  0.11909300  1
