# generated using pymatgen
data_Cu(NiC2)2
_symmetry_space_group_name_H-M   'P 1'
_cell_length_a   5.74962485
_cell_length_b   5.74962485
_cell_length_c   19.24040982
_cell_angle_alpha   80.98534829
_cell_angle_beta   80.98534829
_cell_angle_gamma   60.01260201
_symmetry_Int_Tables_number   1
_chemical_formula_structural   Cu(NiC2)2
_chemical_formula_sum   'Cu8 Ni16 C32'
_cell_volume   541.81501138
_cell_formula_units_Z   8
loop_
 _symmetry_equiv_pos_site_id
 _symmetry_equiv_pos_as_xyz
  1  'x, y, z'
loop_
 _atom_site_type_symbol
 _atom_site_label
 _atom_site_symmetry_multiplicity
 _atom_site_fract_x
 _atom_site_fract_y
 _atom_site_fract_z
 _atom_site_occupancy
  Ni  Ni0  1  0.37778800  0.37778800  0.87418800  1
  Ni  Ni1  1  0.87021300  0.37789800  0.87419000  1
  Ni  Ni2  1  0.37789800  0.87021300  0.87419000  1
  Ni  Ni3  1  0.12559500  0.12559500  0.62456600  1
  Ni  Ni4  1  0.62620400  0.12545700  0.62439900  1
  Ni  Ni5  1  0.34655200  0.34655200  0.46965200  1
  Ni  Ni6  1  0.12545700  0.62620400  0.62439900  1
  Ni  Ni7  1  0.00078100  0.00078100  0.50258700  1
  Ni  Ni8  1  0.37723800  0.87058400  0.37512600  1
  Ni  Ni9  1  0.90562900  0.90562900  0.78466400  1
  Ni  Ni10  1  0.87058400  0.37723800  0.37512600  1
  Ni  Ni11  1  0.62588000  0.62588000  0.12457700  1
  Ni  Ni12  1  0.12172400  0.62640000  0.12491000  1
  Ni  Ni13  1  0.74808600  0.74808600  0.24968600  1
  Ni  Ni14  1  0.62640000  0.12172400  0.12491000  1
  Ni  Ni15  1  0.15651400  0.15651400  0.03140000  1
  Cu  Cu16  1  0.84297000  0.84297000  0.96909300  1
  Cu  Cu17  1  0.50038200  0.50038200  0.99760100  1
  Cu  Cu18  1  0.59423300  0.59423300  0.71566100  1
  Cu  Cu19  1  0.25136500  0.25136500  0.74603500  1
  Cu  Cu20  1  0.87063300  0.87063300  0.37561700  1
  Cu  Cu21  1  0.09198400  0.09198400  0.22191500  1
  Cu  Cu22  1  0.65732000  0.65732000  0.53206200  1
  Cu  Cu23  1  0.40591100  0.40591100  0.27836600  1
  C  C24  1  0.67516300  0.21842400  0.92915800  1
  C  C25  1  0.56044800  0.56044800  0.82090100  1
  C  C26  1  0.21842400  0.67516300  0.92915800  1
  C  C27  1  0.67594300  0.67594300  0.92889400  1
  C  C28  1  0.06615100  0.06615100  0.81922700  1
  C  C29  1  0.42571200  0.97149100  0.67678000  1
  C  C30  1  0.54915200  0.06689400  0.81908600  1
  C  C31  1  0.31205400  0.31205400  0.56490600  1
  C  C32  1  0.18902700  0.18902700  0.93178800  1
  C  C33  1  0.97149100  0.42571200  0.67678000  1
  C  C34  1  0.06689400  0.54915200  0.81908600  1
  C  C35  1  0.42635200  0.42635200  0.67617900  1
  C  C36  1  0.83309000  0.83309000  0.56873200  1
  C  C37  1  0.19427400  0.70660400  0.44211600  1
  C  C38  1  0.26779900  0.83503000  0.56819800  1
  C  C39  1  0.93770700  0.93770700  0.68744100  1
  C  C40  1  0.06276500  0.06276500  0.32874000  1
  C  C41  1  0.70660400  0.19427400  0.44211600  1
  C  C42  1  0.83503000  0.26779900  0.56819800  1
  C  C43  1  0.18165300  0.18165300  0.43846900  1
  C  C44  1  0.91685400  0.47649700  0.18398600  1
  C  C45  1  0.57675100  0.57675100  0.31724700  1
  C  C46  1  0.02618100  0.56400200  0.31325300  1
  C  C47  1  0.80931000  0.80931000  0.07328400  1
  C  C48  1  0.68389800  0.68389800  0.42821200  1
  C  C49  1  0.47649700  0.91685400  0.18398600  1
  C  C50  1  0.56400200  0.02618100  0.31325300  1
  C  C51  1  0.91840100  0.91840100  0.18409100  1
  C  C52  1  0.31323200  0.31323200  0.06715900  1
  C  C53  1  0.80611100  0.31382600  0.06699500  1
  C  C54  1  0.44186500  0.44186500  0.17066500  1
  C  C55  1  0.31382600  0.80611100  0.06699500  1
