# generated using pymatgen
data_Cu3Ni9C7
_symmetry_space_group_name_H-M   'P 1'
_cell_length_a   7.52408728
_cell_length_b   7.52408728
_cell_length_c   7.52408763
_cell_angle_alpha   97.56832178
_cell_angle_beta   97.56832178
_cell_angle_gamma   97.56831809
_symmetry_Int_Tables_number   1
_chemical_formula_structural   Cu3Ni9C7
_chemical_formula_sum   'Cu6 Ni18 C14'
_cell_volume   413.72041901
_cell_formula_units_Z   2
loop_
 _symmetry_equiv_pos_site_id
 _symmetry_equiv_pos_as_xyz
  1  'x, y, z'
loop_
 _atom_site_type_symbol
 _atom_site_label
 _atom_site_symmetry_multiplicity
 _atom_site_fract_x
 _atom_site_fract_y
 _atom_site_fract_z
 _atom_site_occupancy
  C  C0  1  0.00000000  0.00000000  0.00000000  1
  C  C1  1  0.50000000  0.50000000  0.50000000  1
  Ni  Ni2  1  0.39753100  0.73182800  0.75431600  1
  Ni  Ni3  1  0.75431600  0.39753100  0.73182800  1
  Ni  Ni4  1  0.73182800  0.75431600  0.39753100  1
  Ni  Ni5  1  0.60246900  0.26817200  0.24568400  1
  Ni  Ni6  1  0.24568400  0.60246900  0.26817200  1
  Ni  Ni7  1  0.26817200  0.24568400  0.60246900  1
  Ni  Ni8  1  0.66745100  0.55955500  0.84303500  1
  Ni  Ni9  1  0.84303500  0.66745100  0.55955500  1
  Ni  Ni10  1  0.55955500  0.84303500  0.66745100  1
  Ni  Ni11  1  0.33254900  0.44044500  0.15696500  1
  Ni  Ni12  1  0.15696500  0.33254900  0.44044500  1
  Ni  Ni13  1  0.44044500  0.15696500  0.33254900  1
  Ni  Ni14  1  0.55742400  0.35132800  0.80368000  1
  Ni  Ni15  1  0.80368000  0.55742400  0.35132800  1
  Ni  Ni16  1  0.35132800  0.80368000  0.55742400  1
  Ni  Ni17  1  0.44257600  0.64867200  0.19632000  1
  Ni  Ni18  1  0.19632000  0.44257600  0.64867200  1
  Ni  Ni19  1  0.64867200  0.19632000  0.44257600  1
  Cu  Cu20  1  0.05058400  0.76025500  0.86948200  1
  Cu  Cu21  1  0.86948200  0.05058400  0.76025500  1
  Cu  Cu22  1  0.76025500  0.86948200  0.05058400  1
  Cu  Cu23  1  0.94941600  0.23974500  0.13051800  1
  Cu  Cu24  1  0.13051800  0.94941600  0.23974500  1
  Cu  Cu25  1  0.23974500  0.13051800  0.94941600  1
  C  C26  1  0.07621400  0.62350700  0.78857600  1
  C  C27  1  0.78857600  0.07621400  0.62350700  1
  C  C28  1  0.62350700  0.78857600  0.07621400  1
  C  C29  1  0.92378600  0.37649300  0.21142400  1
  C  C30  1  0.21142400  0.92378600  0.37649300  1
  C  C31  1  0.37649300  0.21142400  0.92378600  1
  C  C32  1  0.63496500  0.44604800  0.74596600  1
  C  C33  1  0.74596600  0.63496500  0.44604800  1
  C  C34  1  0.44604800  0.74596600  0.63496500  1
  C  C35  1  0.36503500  0.55395200  0.25403400  1
  C  C36  1  0.25403400  0.36503500  0.55395200  1
  C  C37  1  0.55395200  0.25403400  0.36503500  1
