# generated using pymatgen
data_Cu2(Ni2C5)3
_symmetry_space_group_name_H-M   'P 1'
_cell_length_a   10.98856095
_cell_length_b   10.98856095
_cell_length_c   8.38769767
_cell_angle_alpha   75.51378301
_cell_angle_beta   75.51378301
_cell_angle_gamma   50.68653752
_symmetry_Int_Tables_number   1
_chemical_formula_structural   Cu2(Ni2C5)3
_chemical_formula_sum   'Cu4 Ni12 C30'
_cell_volume   752.98228481
_cell_formula_units_Z   2
loop_
 _symmetry_equiv_pos_site_id
 _symmetry_equiv_pos_as_xyz
  1  'x, y, z'
loop_
 _atom_site_type_symbol
 _atom_site_label
 _atom_site_symmetry_multiplicity
 _atom_site_fract_x
 _atom_site_fract_y
 _atom_site_fract_z
 _atom_site_occupancy
  C  C0  1  0.36134800  0.63865200  0.25000000  1
  C  C1  1  0.63865200  0.36134800  0.75000000  1
  Ni  Ni2  1  0.11802100  0.59169800  0.19103500  1
  Ni  Ni3  1  0.62108200  0.95533400  0.71594600  1
  Ni  Ni4  1  0.10881800  0.73380600  0.21492600  1
  Ni  Ni5  1  0.88197900  0.40830200  0.80896500  1
  Ni  Ni6  1  0.04466600  0.37891800  0.78405400  1
  Ni  Ni7  1  0.40830200  0.88197900  0.30896500  1
  Ni  Ni8  1  0.89118200  0.26619400  0.78507400  1
  Ni  Ni9  1  0.59169800  0.11802100  0.69103500  1
  Ni  Ni10  1  0.37891800  0.04466600  0.28405400  1
  Ni  Ni11  1  0.73380600  0.10881800  0.71492600  1
  Ni  Ni12  1  0.26619400  0.89118200  0.28507400  1
  Ni  Ni13  1  0.95533400  0.62108200  0.21594600  1
  Cu  Cu14  1  0.60324800  0.28241200  0.05362100  1
  Cu  Cu15  1  0.28241200  0.60324800  0.55362100  1
  Cu  Cu16  1  0.71758800  0.39675200  0.44637900  1
  Cu  Cu17  1  0.39675200  0.71758800  0.94637900  1
  C  C18  1  0.15525200  0.94198500  0.41847500  1
  C  C19  1  0.25050000  0.14283000  0.38713700  1
  C  C20  1  0.99184700  0.19918700  0.64874100  1
  C  C21  1  0.49297900  0.98017800  0.68056000  1
  C  C22  1  0.05801500  0.84474800  0.08152500  1
  C  C23  1  0.44638600  0.81159200  0.46560300  1
  C  C24  1  0.19918700  0.99184700  0.14874100  1
  C  C25  1  0.53508100  0.78899800  0.19816400  1
  C  C26  1  0.80081300  0.00815300  0.85125900  1
  C  C27  1  0.00815300  0.80081300  0.35125900  1
  C  C28  1  0.14283000  0.25050000  0.88713700  1
  C  C29  1  0.81159200  0.44638600  0.96560300  1
  C  C30  1  0.85717000  0.74950000  0.11286300  1
  C  C31  1  0.78899800  0.53508100  0.69816400  1
  C  C32  1  0.64482200  0.88559400  0.87367300  1
  C  C33  1  0.35517800  0.11440600  0.12632700  1
  C  C34  1  0.74950000  0.85717000  0.61286300  1
  C  C35  1  0.21100200  0.46491900  0.30183600  1
  C  C36  1  0.01982200  0.50702100  0.81944000  1
  C  C37  1  0.55361400  0.18840800  0.53439700  1
  C  C38  1  0.50702100  0.01982200  0.31944000  1
  C  C39  1  0.18840800  0.55361400  0.03439700  1
  C  C40  1  0.46491900  0.21100200  0.80183600  1
  C  C41  1  0.94198500  0.15525200  0.91847500  1
  C  C42  1  0.88559400  0.64482200  0.37367300  1
  C  C43  1  0.11440600  0.35517800  0.62632700  1
  C  C44  1  0.98017800  0.49297900  0.18056000  1
  C  C45  1  0.84474800  0.05801500  0.58152500  1
