# generated using pymatgen
data_Cu13NiC3
_symmetry_space_group_name_H-M   'P 1'
_cell_length_a   15.04660000
_cell_length_b   7.46993600
_cell_length_c   10.57379950
_cell_angle_alpha   82.54533754
_cell_angle_beta   90.00000000
_cell_angle_gamma   90.00000000
_symmetry_Int_Tables_number   1
_chemical_formula_structural   Cu13NiC3
_chemical_formula_sum   'Cu52 Ni4 C12'
_cell_volume   1178.41971144
_cell_formula_units_Z   4
loop_
 _symmetry_equiv_pos_site_id
 _symmetry_equiv_pos_as_xyz
  1  'x, y, z'
loop_
 _atom_site_type_symbol
 _atom_site_label
 _atom_site_symmetry_multiplicity
 _atom_site_fract_x
 _atom_site_fract_y
 _atom_site_fract_z
 _atom_site_occupancy
  C  C0  1  0.25657000  0.13788700  0.03992800  1
  C  C1  1  0.74343000  0.86211300  0.96007200  1
  C  C2  1  0.56263000  0.21659200  0.78931200  1
  C  C3  1  0.93737000  0.21659200  0.28931200  1
  C  C4  1  0.24343000  0.13788700  0.53992800  1
  C  C5  1  0.75657000  0.86211300  0.46007200  1
  C  C6  1  0.43737000  0.78340800  0.21068800  1
  C  C7  1  0.06263000  0.78340800  0.71068800  1
  C  C8  1  0.87049300  0.23635500  0.83754200  1
  C  C9  1  0.62950700  0.23635500  0.33754200  1
  C  C10  1  0.37049300  0.76364500  0.66245800  1
  C  C11  1  0.12950700  0.76364500  0.16245800  1
  Ni  Ni12  1  0.32051900  0.93537200  0.64099800  1
  Ni  Ni13  1  0.67948100  0.06462800  0.35900200  1
  Ni  Ni14  1  0.17948100  0.93537200  0.14099800  1
  Ni  Ni15  1  0.82051900  0.06462800  0.85900200  1
  Cu  Cu16  1  0.72505400  0.03004000  0.07633600  1
  Cu  Cu17  1  0.99459000  0.58136600  0.78087400  1
  Cu  Cu18  1  0.63462400  0.32335000  0.19974400  1
  Cu  Cu19  1  0.63995700  0.98657900  0.86034000  1
  Cu  Cu20  1  0.41628400  0.86280600  0.37230400  1
  Cu  Cu21  1  0.33902800  0.61936600  0.58322400  1
  Cu  Cu22  1  0.13462400  0.67665000  0.30025600  1
  Cu  Cu23  1  0.03432000  0.05269000  0.31240700  1
  Cu  Cu24  1  0.82606200  0.33908700  0.27459600  1
  Cu  Cu25  1  0.77494600  0.03004000  0.57633600  1
  Cu  Cu26  1  0.83709600  0.68971300  0.53902300  1
  Cu  Cu27  1  0.16290400  0.31028700  0.46097700  1
  Cu  Cu28  1  0.96568000  0.94731000  0.68759300  1
  Cu  Cu29  1  0.91628400  0.13719400  0.12769600  1
  Cu  Cu30  1  0.46568000  0.05269000  0.81240700  1
  Cu  Cu31  1  0.08371600  0.86280600  0.87230400  1
  Cu  Cu32  1  0.83902800  0.38063400  0.91677600  1
  Cu  Cu33  1  0.58371600  0.13719400  0.62769600  1
  Cu  Cu34  1  0.50541000  0.58136600  0.28087400  1
  Cu  Cu35  1  0.74157000  0.74283500  0.31501600  1
  Cu  Cu36  1  0.86004300  0.98657900  0.36034000  1
  Cu  Cu37  1  0.17393800  0.66091300  0.72540400  1
  Cu  Cu38  1  0.96918500  0.21342100  0.86645000  1
  Cu  Cu39  1  0.33709600  0.31028700  0.96097700  1
  Cu  Cu40  1  0.46918500  0.78657900  0.63355000  1
  Cu  Cu41  1  0.66290400  0.68971300  0.03902300  1
  Cu  Cu42  1  0.00541000  0.41863400  0.21912600  1
  Cu  Cu43  1  0.22505400  0.96996000  0.42366400  1
  Cu  Cu44  1  0.05288500  0.73930600  0.53928300  1
  Cu  Cu45  1  0.84761000  0.76227600  0.03948100  1
  Cu  Cu46  1  0.36004300  0.01342100  0.13966000  1
  Cu  Cu47  1  0.55288500  0.26069400  0.96071700  1
  Cu  Cu48  1  0.34761000  0.23772400  0.46051900  1
  Cu  Cu49  1  0.03081500  0.78657900  0.13355000  1
  Cu  Cu50  1  0.36537600  0.67665000  0.80025600  1
  Cu  Cu51  1  0.16097200  0.61936600  0.08322400  1
  Cu  Cu52  1  0.44711500  0.73930600  0.03928300  1
  Cu  Cu53  1  0.65239000  0.76227600  0.53948100  1
  Cu  Cu54  1  0.13995700  0.01342100  0.63966000  1
  Cu  Cu55  1  0.27494600  0.96996000  0.92366400  1
  Cu  Cu56  1  0.67393800  0.33908700  0.77459600  1
  Cu  Cu57  1  0.25843000  0.25716500  0.68498400  1
  Cu  Cu58  1  0.94711500  0.26069400  0.46071700  1
  Cu  Cu59  1  0.86537600  0.32335000  0.69974400  1
  Cu  Cu60  1  0.66097200  0.38063400  0.41677600  1
  Cu  Cu61  1  0.53081500  0.21342100  0.36645000  1
  Cu  Cu62  1  0.75843000  0.74283500  0.81501600  1
  Cu  Cu63  1  0.32606200  0.66091300  0.22540400  1
  Cu  Cu64  1  0.24157000  0.25716500  0.18498400  1
  Cu  Cu65  1  0.49459000  0.41863400  0.71912600  1
  Cu  Cu66  1  0.15239000  0.23772400  0.96051900  1
  Cu  Cu67  1  0.53432000  0.94731000  0.18759300  1
