# generated using pymatgen
data_Cu4Ni9C
_symmetry_space_group_name_H-M   'P 1'
_cell_length_a   7.90718986
_cell_length_b   7.90718986
_cell_length_c   7.90718986
_cell_angle_alpha   121.48396962
_cell_angle_beta   121.48396962
_cell_angle_gamma   87.44834965
_symmetry_Int_Tables_number   1
_chemical_formula_structural   Cu4Ni9C
_chemical_formula_sum   'Cu8 Ni18 C2'
_cell_volume   341.37482374
_cell_formula_units_Z   2
loop_
 _symmetry_equiv_pos_site_id
 _symmetry_equiv_pos_as_xyz
  1  'x, y, z'
loop_
 _atom_site_type_symbol
 _atom_site_label
 _atom_site_symmetry_multiplicity
 _atom_site_fract_x
 _atom_site_fract_y
 _atom_site_fract_z
 _atom_site_occupancy
  C  C0  1  0.25000000  0.25000000  0.00000000  1
  C  C1  1  0.75000000  0.75000000  0.00000000  1
  Ni  Ni2  1  0.05014100  0.55014100  0.23942100  1
  Ni  Ni3  1  0.68928000  0.18928000  0.23942100  1
  Ni  Ni4  1  0.00000000  0.50000000  0.50000000  1
  Ni  Ni5  1  0.92951000  0.19935800  0.12886800  1
  Ni  Ni6  1  0.80064200  0.92951000  0.73015300  1
  Ni  Ni7  1  0.44985900  0.68928000  0.50000000  1
  Ni  Ni8  1  0.07049000  0.80064200  0.87113200  1
  Ni  Ni9  1  0.81072000  0.05014100  0.50000000  1
  Ni  Ni10  1  0.55014100  0.31072000  0.50000000  1
  Ni  Ni11  1  0.94985900  0.44985900  0.76057900  1
  Ni  Ni12  1  0.18928000  0.94985900  0.50000000  1
  Ni  Ni13  1  0.30064200  0.57049000  0.87113200  1
  Ni  Ni14  1  0.57049000  0.69935800  0.26984700  1
  Ni  Ni15  1  0.42951000  0.30064200  0.73015300  1
  Ni  Ni16  1  0.19935800  0.07049000  0.26984700  1
  Ni  Ni17  1  0.69935800  0.42951000  0.12886800  1
  Ni  Ni18  1  0.50000000  0.00000000  0.50000000  1
  Ni  Ni19  1  0.31072000  0.81072000  0.76057900  1
  Cu  Cu20  1  0.04740400  0.20982500  0.50000000  1
  Cu  Cu21  1  0.20982500  0.70982500  0.16242000  1
  Cu  Cu22  1  0.79017500  0.29017500  0.83758000  1
  Cu  Cu23  1  0.45259600  0.95259600  0.16242000  1
  Cu  Cu24  1  0.54740400  0.04740400  0.83758000  1
  Cu  Cu25  1  0.95259600  0.79017500  0.50000000  1
  Cu  Cu26  1  0.29017500  0.45259600  0.50000000  1
  Cu  Cu27  1  0.70982500  0.54740400  0.50000000  1
