# generated using pymatgen
data_CuNiC2
_symmetry_space_group_name_H-M   'P 1'
_cell_length_a   8.65879846
_cell_length_b   8.65879846
_cell_length_c   17.58374710
_cell_angle_alpha   80.00718376
_cell_angle_beta   80.00718376
_cell_angle_gamma   54.44413967
_symmetry_Int_Tables_number   1
_chemical_formula_structural   CuNiC2
_chemical_formula_sum   'Cu12 Ni12 C24'
_cell_volume   1051.91372250
_cell_formula_units_Z   12
loop_
 _symmetry_equiv_pos_site_id
 _symmetry_equiv_pos_as_xyz
  1  'x, y, z'
loop_
 _atom_site_type_symbol
 _atom_site_label
 _atom_site_symmetry_multiplicity
 _atom_site_fract_x
 _atom_site_fract_y
 _atom_site_fract_z
 _atom_site_occupancy
  Ni  Ni0  1  0.12197400  0.87802600  0.25000000  1
  Ni  Ni1  1  0.87802600  0.12197400  0.75000000  1
  Ni  Ni2  1  0.63352800  0.36647200  0.25000000  1
  Ni  Ni3  1  0.36647200  0.63352800  0.75000000  1
  Ni  Ni4  1  0.52586900  0.76211800  0.08776200  1
  Ni  Ni5  1  0.23788200  0.47413100  0.41223800  1
  Ni  Ni6  1  0.47413100  0.23788200  0.91223800  1
  Ni  Ni7  1  0.76211800  0.52586900  0.58776200  1
  Ni  Ni8  1  0.94789200  0.18643000  0.41919700  1
  Ni  Ni9  1  0.81357000  0.05210800  0.08080300  1
  Ni  Ni10  1  0.05210800  0.81357000  0.58080300  1
  Ni  Ni11  1  0.18643000  0.94789200  0.91919700  1
  Cu  Cu12  1  0.37796700  0.11436600  0.26874300  1
  Cu  Cu13  1  0.88563400  0.62203300  0.23125700  1
  Cu  Cu14  1  0.62203300  0.88563400  0.73125700  1
  Cu  Cu15  1  0.11436600  0.37796700  0.76874300  1
  Cu  Cu16  1  0.70760900  0.94693700  0.41862500  1
  Cu  Cu17  1  0.05306300  0.29239100  0.08137500  1
  Cu  Cu18  1  0.29239100  0.05306300  0.58137500  1
  Cu  Cu19  1  0.94693700  0.70760900  0.91862500  1
  Cu  Cu20  1  0.47113600  0.71431100  0.41244000  1
  Cu  Cu21  1  0.28568900  0.52886400  0.08756000  1
  Cu  Cu22  1  0.52886400  0.28568900  0.58756000  1
  Cu  Cu23  1  0.71431100  0.47113600  0.91244000  1
  C  C24  1  0.59228100  0.41222900  0.10317400  1
  C  C25  1  0.58777100  0.40771900  0.39682600  1
  C  C26  1  0.40771900  0.58777100  0.89682600  1
  C  C27  1  0.41222900  0.59228100  0.60317400  1
  C  C28  1  0.15703400  0.98041700  0.09019500  1
  C  C29  1  0.01958300  0.84296600  0.40980500  1
  C  C30  1  0.84296600  0.01958300  0.90980500  1
  C  C31  1  0.98041700  0.15703400  0.59019500  1
  C  C32  1  0.19761200  0.54883900  0.22131500  1
  C  C33  1  0.45116100  0.80238800  0.27868500  1
  C  C34  1  0.80238800  0.45116100  0.77868500  1
  C  C35  1  0.54883900  0.19761200  0.72131500  1
  C  C36  1  0.69192800  0.02114300  0.28517100  1
  C  C37  1  0.97885700  0.30807200  0.21482900  1
  C  C38  1  0.30807200  0.97885700  0.71482900  1
  C  C39  1  0.02114300  0.69192800  0.78517100  1
  C  C40  1  0.24853500  0.18356400  0.39149800  1
  C  C41  1  0.81643600  0.75146500  0.10850200  1
  C  C42  1  0.75146500  0.81643600  0.60850200  1
  C  C43  1  0.18356400  0.24853500  0.89149800  1
  C  C44  1  0.35441400  0.23207100  0.07416300  1
  C  C45  1  0.76792900  0.64558600  0.42583700  1
  C  C46  1  0.64558600  0.76792900  0.92583700  1
  C  C47  1  0.23207100  0.35441400  0.57416300  1
