# generated using pymatgen
data_Cu3NiC10
_symmetry_space_group_name_H-M   'P 1'
_cell_length_a   8.32995200
_cell_length_b   8.32995200
_cell_length_c   8.32995200
_cell_angle_alpha   90.00000000
_cell_angle_beta   90.00000000
_cell_angle_gamma   90.00000000
_symmetry_Int_Tables_number   1
_chemical_formula_structural   Cu3NiC10
_chemical_formula_sum   'Cu12 Ni4 C40'
_cell_volume   577.99954506
_cell_formula_units_Z   4
loop_
 _symmetry_equiv_pos_site_id
 _symmetry_equiv_pos_as_xyz
  1  'x, y, z'
loop_
 _atom_site_type_symbol
 _atom_site_label
 _atom_site_symmetry_multiplicity
 _atom_site_fract_x
 _atom_site_fract_y
 _atom_site_fract_z
 _atom_site_occupancy
  C  C0  1  0.49674200  0.99674200  0.50325800  1
  C  C1  1  0.24674200  0.24674200  0.24674200  1
  C  C2  1  0.25325800  0.75325800  0.74674200  1
  C  C3  1  0.74674200  0.25325800  0.75325800  1
  C  C4  1  0.99674200  0.50325800  0.49674200  1
  C  C5  1  0.75325800  0.74674200  0.25325800  1
  C  C6  1  0.50325800  0.49674200  0.99674200  1
  C  C7  1  0.00325800  0.00325800  0.00325800  1
  Ni  Ni8  1  0.37500000  0.12500000  0.87500000  1
  Ni  Ni9  1  0.12500000  0.87500000  0.37500000  1
  Ni  Ni10  1  0.87500000  0.37500000  0.12500000  1
  Ni  Ni11  1  0.62500000  0.62500000  0.62500000  1
  Cu  Cu12  1  0.12500000  0.38013600  0.86986400  1
  Cu  Cu13  1  0.37500000  0.61986400  0.36986400  1
  Cu  Cu14  1  0.63013600  0.87500000  0.88013600  1
  Cu  Cu15  1  0.61986400  0.36986400  0.37500000  1
  Cu  Cu16  1  0.38013600  0.86986400  0.12500000  1
  Cu  Cu17  1  0.88013600  0.63013600  0.87500000  1
  Cu  Cu18  1  0.87500000  0.88013600  0.63013600  1
  Cu  Cu19  1  0.62500000  0.11986400  0.13013600  1
  Cu  Cu20  1  0.11986400  0.13013600  0.62500000  1
  Cu  Cu21  1  0.13013600  0.62500000  0.11986400  1
  Cu  Cu22  1  0.36986400  0.37500000  0.61986400  1
  Cu  Cu23  1  0.86986400  0.12500000  0.38013600  1
  C  C24  1  0.12496400  0.39266400  0.09921100  1
  C  C25  1  0.60733600  0.59921100  0.37503600  1
  C  C26  1  0.39266400  0.09921100  0.12496400  1
  C  C27  1  0.62496400  0.10733600  0.90078900  1
  C  C28  1  0.09921100  0.12496400  0.39266400  1
  C  C29  1  0.36564600  0.63435400  0.13435400  1
  C  C30  1  0.15078900  0.85733600  0.12503600  1
  C  C31  1  0.87503600  0.89266400  0.40078900  1
  C  C32  1  0.40078900  0.87503600  0.89266400  1
  C  C33  1  0.59921100  0.37503600  0.60733600  1
  C  C34  1  0.38435400  0.38435400  0.38435400  1
  C  C35  1  0.37496400  0.84921100  0.35733600  1
  C  C36  1  0.90078900  0.62496400  0.10733600  1
  C  C37  1  0.85733600  0.12503600  0.15078900  1
  C  C38  1  0.89266400  0.40078900  0.87503600  1
  C  C39  1  0.14266400  0.62503600  0.34921100  1
  C  C40  1  0.65078900  0.64266400  0.87496400  1
  C  C41  1  0.61564600  0.88435400  0.11564600  1
  C  C42  1  0.35733600  0.37496400  0.84921100  1
  C  C43  1  0.87496400  0.65078900  0.64266400  1
  C  C44  1  0.62503600  0.34921100  0.14266400  1
  C  C45  1  0.63435400  0.13435400  0.36564600  1
  C  C46  1  0.84921100  0.35733600  0.37496400  1
  C  C47  1  0.88435400  0.11564600  0.61564600  1
  C  C48  1  0.11564600  0.61564600  0.88435400  1
  C  C49  1  0.37503600  0.60733600  0.59921100  1
  C  C50  1  0.10733600  0.90078900  0.62496400  1
  C  C51  1  0.34921100  0.14266400  0.62503600  1
  C  C52  1  0.13435400  0.36564600  0.63435400  1
  C  C53  1  0.64266400  0.87496400  0.65078900  1
  C  C54  1  0.86564600  0.86564600  0.86564600  1
  C  C55  1  0.12503600  0.15078900  0.85733600  1
