# generated using pymatgen
data_Cu3NiC
_symmetry_space_group_name_H-M   'P 1'
_cell_length_a   5.14774500
_cell_length_b   8.80615500
_cell_length_c   16.46904500
_cell_angle_alpha   90.00000000
_cell_angle_beta   90.00000000
_cell_angle_gamma   90.00000000
_symmetry_Int_Tables_number   1
_chemical_formula_structural   Cu3NiC
_chemical_formula_sum   'Cu12 Ni4 C4'
_cell_volume   746.57211899
_cell_formula_units_Z   4
loop_
 _symmetry_equiv_pos_site_id
 _symmetry_equiv_pos_as_xyz
  1  'x, y, z'
loop_
 _atom_site_type_symbol
 _atom_site_label
 _atom_site_symmetry_multiplicity
 _atom_site_fract_x
 _atom_site_fract_y
 _atom_site_fract_z
 _atom_site_occupancy
  Ni  Ni0  1  0.30063700  0.75000000  0.25000000  1
  Ni  Ni1  1  0.30063700  0.75000000  0.75000000  1
  Ni  Ni2  1  0.69936300  0.25000000  0.25000000  1
  Ni  Ni3  1  0.69936300  0.25000000  0.75000000  1
  Cu  Cu4  1  0.37297900  0.71786900  0.00000000  1
  Cu  Cu5  1  0.63091000  0.85886500  0.12706700  1
  Cu  Cu6  1  0.37297900  0.78213100  0.50000000  1
  Cu  Cu7  1  0.36909000  0.14113500  0.87293300  1
  Cu  Cu8  1  0.62702100  0.21786900  0.50000000  1
  Cu  Cu9  1  0.63091000  0.64113500  0.37293300  1
  Cu  Cu10  1  0.36909000  0.35886500  0.37293300  1
  Cu  Cu11  1  0.62702100  0.28213100  0.00000000  1
  Cu  Cu12  1  0.36909000  0.14113500  0.12706700  1
  Cu  Cu13  1  0.63091000  0.85886500  0.87293300  1
  Cu  Cu14  1  0.36909000  0.35886500  0.62706700  1
  Cu  Cu15  1  0.63091000  0.64113500  0.62706700  1
  C  C16  1  0.00000000  0.00000000  0.67798000  1
  C  C17  1  0.00000000  0.50000000  0.82202000  1
  C  C18  1  0.00000000  0.50000000  0.17798000  1
  C  C19  1  0.00000000  0.00000000  0.32202000  1
