# generated using pymatgen
data_Cu6Ni3C2
_symmetry_space_group_name_H-M   'P 1'
_cell_length_a   10.80662100
_cell_length_b   10.80662100
_cell_length_c   10.80662100
_cell_angle_alpha   90.00000000
_cell_angle_beta   90.00000000
_cell_angle_gamma   90.00000000
_symmetry_Int_Tables_number   1
_chemical_formula_structural   Cu6Ni3C2
_chemical_formula_sum   'Cu48 Ni24 C16'
_cell_volume   1262.03024095
_cell_formula_units_Z   8
loop_
 _symmetry_equiv_pos_site_id
 _symmetry_equiv_pos_as_xyz
  1  'x, y, z'
loop_
 _atom_site_type_symbol
 _atom_site_label
 _atom_site_symmetry_multiplicity
 _atom_site_fract_x
 _atom_site_fract_y
 _atom_site_fract_z
 _atom_site_occupancy
  C  C0  1  0.50000000  0.50000000  0.00000000  1
  C  C1  1  0.50000000  0.00000000  0.50000000  1
  C  C2  1  0.25000000  0.75000000  0.75000000  1
  C  C3  1  0.75000000  0.25000000  0.25000000  1
  C  C4  1  0.75000000  0.25000000  0.75000000  1
  C  C5  1  0.00000000  0.00000000  0.00000000  1
  C  C6  1  0.75000000  0.75000000  0.25000000  1
  C  C7  1  0.25000000  0.75000000  0.25000000  1
  C  C8  1  0.00000000  0.50000000  0.50000000  1
  C  C9  1  0.25000000  0.25000000  0.75000000  1
  C  C10  1  0.25000000  0.25000000  0.25000000  1
  C  C11  1  0.75000000  0.75000000  0.75000000  1
  C  C12  1  0.00000000  0.00000000  0.50000000  1
  C  C13  1  0.50000000  0.00000000  0.00000000  1
  C  C14  1  0.00000000  0.50000000  0.00000000  1
  C  C15  1  0.50000000  0.50000000  0.50000000  1
  Ni  Ni16  1  0.50466400  0.50469100  0.68616500  1
  Ni  Ni17  1  0.81383500  0.99533600  0.50469100  1
  Ni  Ni18  1  0.68616500  0.99533600  0.99530900  1
  Ni  Ni19  1  0.50469100  0.81383500  0.99533600  1
  Ni  Ni20  1  0.99533600  0.99530900  0.68616500  1
  Ni  Ni21  1  0.00469100  0.31383500  0.00466400  1
  Ni  Ni22  1  0.31383500  0.00466400  0.00469100  1
  Ni  Ni23  1  0.81383500  0.50466400  0.99530900  1
  Ni  Ni24  1  0.50469100  0.68616500  0.50466400  1
  Ni  Ni25  1  0.00466400  0.49530900  0.18616500  1
  Ni  Ni26  1  0.99530900  0.81383500  0.50466400  1
  Ni  Ni27  1  0.49533600  0.49530900  0.31383500  1
  Ni  Ni28  1  0.50466400  0.99530900  0.81383500  1
  Ni  Ni29  1  0.00469100  0.18616500  0.49533600  1
  Ni  Ni30  1  0.68616500  0.50466400  0.50469100  1
  Ni  Ni31  1  0.49530900  0.18616500  0.00466400  1
  Ni  Ni32  1  0.49530900  0.31383500  0.49533600  1
  Ni  Ni33  1  0.18616500  0.00466400  0.49530900  1
  Ni  Ni34  1  0.99530900  0.68616500  0.99533600  1
  Ni  Ni35  1  0.99533600  0.50469100  0.81383500  1
  Ni  Ni36  1  0.49533600  0.00469100  0.18616500  1
  Ni  Ni37  1  0.00466400  0.00469100  0.31383500  1
  Ni  Ni38  1  0.18616500  0.49533600  0.00469100  1
  Ni  Ni39  1  0.31383500  0.49533600  0.49530900  1
  Cu  Cu40  1  0.51262200  0.24521100  0.90640000  1
  Cu  Cu41  1  0.01262200  0.74521100  0.09360000  1
  Cu  Cu42  1  0.40640000  0.01262200  0.75478900  1
  Cu  Cu43  1  0.25478900  0.59360000  0.51262200  1
  Cu  Cu44  1  0.90640000  0.51262200  0.24521100  1
  Cu  Cu45  1  0.24717500  0.10094300  0.46513300  1
  Cu  Cu46  1  0.39905700  0.46513300  0.25282500  1
  Cu  Cu47  1  0.96513300  0.75282500  0.60094300  1
  Cu  Cu48  1  0.59360000  0.98737800  0.24521100  1
  Cu  Cu49  1  0.03486700  0.24717500  0.39905700  1
  Cu  Cu50  1  0.09360000  0.01262200  0.74521100  1
  Cu  Cu51  1  0.39905700  0.03486700  0.24717500  1
  Cu  Cu52  1  0.75478900  0.40640000  0.01262200  1
  Cu  Cu53  1  0.89905700  0.96513300  0.74717500  1
  Cu  Cu54  1  0.03486700  0.25282500  0.10094300  1
  Cu  Cu55  1  0.90640000  0.98737800  0.25478900  1
  Cu  Cu56  1  0.89905700  0.53486700  0.75282500  1
  Cu  Cu57  1  0.24521100  0.90640000  0.51262200  1
  Cu  Cu58  1  0.09360000  0.48737800  0.75478900  1
  Cu  Cu59  1  0.10094300  0.03486700  0.25282500  1
  Cu  Cu60  1  0.53486700  0.75282500  0.89905700  1
  Cu  Cu61  1  0.24521100  0.59360000  0.98737800  1
  Cu  Cu62  1  0.24717500  0.39905700  0.03486700  1
  Cu  Cu63  1  0.75478900  0.09360000  0.48737800  1
  Cu  Cu64  1  0.01262200  0.75478900  0.40640000  1
  Cu  Cu65  1  0.25282500  0.39905700  0.46513300  1
  Cu  Cu66  1  0.40640000  0.48737800  0.74521100  1
  Cu  Cu67  1  0.98737800  0.24521100  0.59360000  1
  Cu  Cu68  1  0.59360000  0.51262200  0.25478900  1
  Cu  Cu69  1  0.53486700  0.74717500  0.60094300  1
  Cu  Cu70  1  0.75282500  0.60094300  0.96513300  1
  Cu  Cu71  1  0.60094300  0.96513300  0.75282500  1
  Cu  Cu72  1  0.25478900  0.90640000  0.98737800  1
  Cu  Cu73  1  0.74717500  0.89905700  0.96513300  1
  Cu  Cu74  1  0.74521100  0.09360000  0.01262200  1
  Cu  Cu75  1  0.51262200  0.25478900  0.59360000  1
  Cu  Cu76  1  0.75282500  0.89905700  0.53486700  1
  Cu  Cu77  1  0.74521100  0.40640000  0.48737800  1
  Cu  Cu78  1  0.98737800  0.25478900  0.90640000  1
  Cu  Cu79  1  0.48737800  0.75478900  0.09360000  1
  Cu  Cu80  1  0.10094300  0.46513300  0.24717500  1
  Cu  Cu81  1  0.25282500  0.10094300  0.03486700  1
  Cu  Cu82  1  0.46513300  0.25282500  0.39905700  1
  Cu  Cu83  1  0.60094300  0.53486700  0.74717500  1
  Cu  Cu84  1  0.48737800  0.74521100  0.40640000  1
  Cu  Cu85  1  0.96513300  0.74717500  0.89905700  1
  Cu  Cu86  1  0.74717500  0.60094300  0.53486700  1
  Cu  Cu87  1  0.46513300  0.24717500  0.10094300  1
