# generated using pymatgen
data_Cu5NiC22
_symmetry_space_group_name_H-M   'P 1'
_cell_length_a   14.58153101
_cell_length_b   14.58153101
_cell_length_c   7.64100700
_cell_angle_alpha   90.00000000
_cell_angle_beta   90.00000000
_cell_angle_gamma   119.99999553
_symmetry_Int_Tables_number   1
_chemical_formula_structural   Cu5NiC22
_chemical_formula_sum   'Cu20 Ni4 C88'
_cell_volume   1406.97862829
_cell_formula_units_Z   4
loop_
 _symmetry_equiv_pos_site_id
 _symmetry_equiv_pos_as_xyz
  1  'x, y, z'
loop_
 _atom_site_type_symbol
 _atom_site_label
 _atom_site_symmetry_multiplicity
 _atom_site_fract_x
 _atom_site_fract_y
 _atom_site_fract_z
 _atom_site_occupancy
  C  C0  1  0.65730700  0.97659500  0.28846600  1
  C  C1  1  0.68071200  0.65730700  0.78846600  1
  C  C2  1  0.32548900  0.33720100  0.69164800  1
  C  C3  1  0.02340500  0.68071200  0.28846600  1
  C  C4  1  0.33720100  0.01171200  0.19164800  1
  C  C5  1  0.67451100  0.66279900  0.19164800  1
  C  C6  1  0.97659500  0.31928800  0.78846600  1
  C  C7  1  0.66279900  0.98828800  0.69164800  1
  C  C8  1  0.31928800  0.34269300  0.28846600  1
  C  C9  1  0.98828800  0.32548900  0.19164800  1
  C  C10  1  0.01171200  0.67451100  0.69164800  1
  C  C11  1  0.34269300  0.02340500  0.78846600  1
  Ni  Ni12  1  0.66666700  0.33333300  0.95243200  1
  Ni  Ni13  1  0.66666700  0.33333300  0.53517400  1
  Ni  Ni14  1  0.33333300  0.66666700  0.03517400  1
  Ni  Ni15  1  0.33333300  0.66666700  0.45243200  1
  Cu  Cu16  1  0.57734400  0.09452500  0.99683900  1
  Cu  Cu17  1  0.77892200  0.56800700  0.48489200  1
  Cu  Cu18  1  0.21091500  0.77892200  0.98489200  1
  Cu  Cu19  1  0.09452500  0.51718100  0.49683900  1
  Cu  Cu20  1  0.08567700  0.23200600  0.48962600  1
  Cu  Cu21  1  0.51718100  0.42265600  0.99683900  1
  Cu  Cu22  1  0.85367200  0.08567700  0.98962600  1
  Cu  Cu23  1  0.90547500  0.48281900  0.99683900  1
  Cu  Cu24  1  0.00000000  0.00000000  0.93209800  1
  Cu  Cu25  1  0.22107800  0.43199300  0.98489200  1
  Cu  Cu26  1  0.76799400  0.85367200  0.48962600  1
  Cu  Cu27  1  0.91432300  0.76799400  0.98962600  1
  Cu  Cu28  1  0.42265600  0.90547500  0.49683900  1
  Cu  Cu29  1  0.78908500  0.22107800  0.48489200  1
  Cu  Cu30  1  0.00000000  0.00000000  0.43209800  1
  Cu  Cu31  1  0.43199300  0.21091500  0.48489200  1
  Cu  Cu32  1  0.23200600  0.14632800  0.98962600  1
  Cu  Cu33  1  0.56800700  0.78908500  0.98489200  1
  Cu  Cu34  1  0.14632800  0.91432300  0.48962600  1
  Cu  Cu35  1  0.48281900  0.57734400  0.49683900  1
  C  C36  1  0.45699900  0.38470400  0.82409000  1
  C  C37  1  0.36255100  0.26402700  0.48545900  1
  C  C38  1  0.60130300  0.54230800  0.99051500  1
  C  C39  1  0.42182100  0.64056400  0.52800600  1
  C  C40  1  0.55060800  0.30596100  0.46240600  1
  C  C41  1  0.94976100  0.55109600  0.15896000  1
  C  C42  1  0.78869600  0.03339100  0.15295300  1
  C  C43  1  0.55109600  0.60133400  0.65896000  1
  C  C44  1  0.33333300  0.66666700  0.24390200  1
  C  C45  1  0.14115300  0.72966000  0.82519600  1
  C  C46  1  0.00000000  0.00000000  0.24302300  1
  C  C47  1  0.66666700  0.33333300  0.74390200  1
  C  C48  1  0.54230800  0.94100500  0.49051500  1
  C  C49  1  0.73309400  0.57564800  0.66052100  1
  C  C50  1  0.58850700  0.85884700  0.82519600  1
  C  C51  1  0.69403900  0.24464800  0.46240600  1
  C  C52  1  0.27034000  0.41149300  0.82519600  1
  C  C53  1  0.84255400  0.26690600  0.66052100  1
  C  C54  1  0.03339100  0.24469500  0.65295300  1
  C  C55  1  0.44890400  0.39866600  0.15896000  1
  C  C56  1  0.95666300  0.07381300  0.00050500  1
  C  C57  1  0.24172500  0.20307000  0.81744400  1
  C  C58  1  0.72966000  0.58850700  0.32519600  1
  C  C59  1  0.24469500  0.21130400  0.15295300  1
  C  C60  1  0.45769200  0.05899500  0.99051500  1
  C  C61  1  0.30596100  0.75535200  0.96240600  1
  C  C62  1  0.96660900  0.75530500  0.15295300  1
  C  C63  1  0.09852400  0.36255100  0.98545900  1
  C  C64  1  0.69533200  0.90328200  0.49189700  1
  C  C65  1  0.21874200  0.57817900  0.52800600  1
  C  C66  1  0.79205000  0.69533200  0.99189700  1
  C  C67  1  0.63744900  0.73597300  0.98545900  1
  C  C68  1  0.78125800  0.42182100  0.02800600  1
  C  C69  1  0.26402700  0.90147600  0.98545900  1
  C  C70  1  0.92770600  0.54300100  0.82409000  1
  C  C71  1  0.73597300  0.09852400  0.48545900  1
  C  C72  1  0.61529600  0.07229400  0.82409000  1
  C  C73  1  0.00000000  0.00000000  0.74302300  1
  C  C74  1  0.20795000  0.30466800  0.49189700  1
  C  C75  1  0.75535200  0.44939200  0.46240600  1
  C  C76  1  0.35943600  0.78125800  0.52800600  1
  C  C77  1  0.03865600  0.24172500  0.31744400  1
  C  C78  1  0.42435200  0.15744600  0.66052100  1
  C  C79  1  0.38470400  0.92770600  0.32409000  1
  C  C80  1  0.26690600  0.42435200  0.16052100  1
  C  C81  1  0.54300100  0.61529600  0.32409000  1
  C  C82  1  0.90328200  0.20795000  0.99189700  1
  C  C83  1  0.39866600  0.94976100  0.65896000  1
  C  C84  1  0.07229400  0.45699900  0.32409000  1
  C  C85  1  0.60133400  0.05023900  0.15896000  1
  C  C86  1  0.92618700  0.88284900  0.00050500  1
  C  C87  1  0.90147600  0.63744900  0.48545900  1
  C  C88  1  0.96134400  0.75827500  0.81744400  1
  C  C89  1  0.30466800  0.09671800  0.99189700  1
  C  C90  1  0.64056400  0.21874200  0.02800600  1
  C  C91  1  0.15744600  0.73309400  0.16052100  1
  C  C92  1  0.44939200  0.69403900  0.96240600  1
  C  C93  1  0.20307000  0.96134400  0.31744400  1
  C  C94  1  0.79693000  0.03865600  0.81744400  1
  C  C95  1  0.57817900  0.35943600  0.02800600  1
  C  C96  1  0.39869700  0.45769200  0.49051500  1
  C  C97  1  0.21130400  0.96660900  0.65295300  1
  C  C98  1  0.75827500  0.79693000  0.31744400  1
  C  C99  1  0.09671800  0.79205000  0.49189700  1
  C  C100  1  0.41149300  0.14115300  0.32519600  1
  C  C101  1  0.07381300  0.11715100  0.50050500  1
  C  C102  1  0.75530500  0.78869600  0.65295300  1
  C  C103  1  0.85884700  0.27034000  0.32519600  1
  C  C104  1  0.05023900  0.44890400  0.65896000  1
  C  C105  1  0.57564800  0.84255400  0.16052100  1
  C  C106  1  0.94100500  0.39869700  0.99051500  1
  C  C107  1  0.11715100  0.04333700  0.00050500  1
  C  C108  1  0.88284900  0.95666300  0.50050500  1
  C  C109  1  0.05899500  0.60130300  0.49051500  1
  C  C110  1  0.04333700  0.92618700  0.50050500  1
  C  C111  1  0.24464800  0.55060800  0.96240600  1
