# generated using pymatgen
data_CuNi2C11
_symmetry_space_group_name_H-M   'P 1'
_cell_length_a   6.59731100
_cell_length_b   10.10922100
_cell_length_c   14.95699800
_cell_angle_alpha   90.00000000
_cell_angle_beta   90.00000000
_cell_angle_gamma   90.00000000
_symmetry_Int_Tables_number   1
_chemical_formula_structural   CuNi2C11
_chemical_formula_sum   'Cu4 Ni8 C44'
_cell_volume   997.53716216
_cell_formula_units_Z   4
loop_
 _symmetry_equiv_pos_site_id
 _symmetry_equiv_pos_as_xyz
  1  'x, y, z'
loop_
 _atom_site_type_symbol
 _atom_site_label
 _atom_site_symmetry_multiplicity
 _atom_site_fract_x
 _atom_site_fract_y
 _atom_site_fract_z
 _atom_site_occupancy
  C  C0  1  0.48366900  0.36546500  0.36328500  1
  C  C1  1  0.33507700  0.60949200  0.54841900  1
  C  C2  1  0.16492300  0.89050800  0.54841900  1
  C  C3  1  0.81727200  0.31981200  0.31281600  1
  C  C4  1  0.83507700  0.39050800  0.95158100  1
  C  C5  1  0.51633100  0.63453500  0.63671500  1
  C  C6  1  0.01633100  0.36546500  0.86328500  1
  C  C7  1  0.68272800  0.31981200  0.81281600  1
  C  C8  1  0.83507700  0.10949200  0.45158100  1
  C  C9  1  0.66492300  0.39050800  0.45158100  1
  C  C10  1  0.51400300  0.25750500  0.94967300  1
  C  C11  1  0.48599700  0.74249500  0.05032700  1
  C  C12  1  0.51400300  0.24249500  0.44967300  1
  C  C13  1  0.16492300  0.60949200  0.04841900  1
  C  C14  1  0.01400300  0.75750500  0.05032700  1
  C  C15  1  0.31727200  0.68018800  0.18718400  1
  C  C16  1  0.98366900  0.63453500  0.13671500  1
  C  C17  1  0.18272800  0.81981200  0.18718400  1
  C  C18  1  0.66492300  0.10949200  0.95158100  1
  C  C19  1  0.31727200  0.81981200  0.68718400  1
  C  C20  1  0.81727200  0.18018800  0.81281600  1
  C  C21  1  0.98366900  0.86546500  0.63671500  1
  C  C22  1  0.48366900  0.13453500  0.86328500  1
  C  C23  1  0.18272800  0.68018800  0.68718400  1
  C  C24  1  0.98599700  0.25750500  0.44967300  1
  C  C25  1  0.01633100  0.13453500  0.36328500  1
  C  C26  1  0.68272800  0.18018800  0.31281600  1
  C  C27  1  0.98599700  0.24249500  0.94967300  1
  C  C28  1  0.01400300  0.74249500  0.55032700  1
  C  C29  1  0.48599700  0.75750500  0.55032700  1
  C  C30  1  0.33507700  0.89050800  0.04841900  1
  C  C31  1  0.51633100  0.86546500  0.13671500  1
  Ni  Ni32  1  0.59085600  0.31708500  0.40875800  1
  Ni  Ni33  1  0.09085600  0.68291500  0.09124200  1
  Ni  Ni34  1  0.40914400  0.81708500  0.09124200  1
  Ni  Ni35  1  0.90914400  0.31708500  0.90875800  1
  Ni  Ni36  1  0.40914400  0.68291500  0.59124200  1
  Ni  Ni37  1  0.59085600  0.18291500  0.90875800  1
  Ni  Ni38  1  0.09085600  0.81708500  0.59124200  1
  Ni  Ni39  1  0.90914400  0.18291500  0.40875800  1
  C  C40  1  0.57918200  0.44685900  0.15063800  1
  C  C41  1  0.25000000  0.25000000  0.14672100  1
  C  C42  1  0.07918200  0.94685900  0.84936200  1
  C  C43  1  0.92081800  0.05314100  0.15063800  1
  C  C44  1  0.57918200  0.05314100  0.65063800  1
  C  C45  1  0.75000000  0.75000000  0.85327900  1
  C  C46  1  0.25000000  0.25000000  0.64672100  1
  C  C47  1  0.42081800  0.94685900  0.34936200  1
  C  C48  1  0.92081800  0.44685900  0.65063800  1
  C  C49  1  0.75000000  0.75000000  0.35327900  1
  C  C50  1  0.42081800  0.55314100  0.84936200  1
  C  C51  1  0.07918200  0.55314100  0.34936200  1
  Cu  Cu52  1  0.25000000  0.75000000  0.64587300  1
  Cu  Cu53  1  0.75000000  0.25000000  0.35412700  1
  Cu  Cu54  1  0.25000000  0.75000000  0.14587300  1
  Cu  Cu55  1  0.75000000  0.25000000  0.85412700  1
