# generated using pymatgen
data_CuNiC6
_symmetry_space_group_name_H-M   'P 1'
_cell_length_a   7.06261948
_cell_length_b   10.91877394
_cell_length_c   8.23289100
_cell_angle_alpha   90.00013151
_cell_angle_beta   90.00016388
_cell_angle_gamma   78.62758452
_symmetry_Int_Tables_number   1
_chemical_formula_structural   CuNiC6
_chemical_formula_sum   'Cu4 Ni4 C24'
_cell_volume   622.41548265
_cell_formula_units_Z   4
loop_
 _symmetry_equiv_pos_site_id
 _symmetry_equiv_pos_as_xyz
  1  'x, y, z'
loop_
 _atom_site_type_symbol
 _atom_site_label
 _atom_site_symmetry_multiplicity
 _atom_site_fract_x
 _atom_site_fract_y
 _atom_site_fract_z
 _atom_site_occupancy
  C  C0  1  0.88509500  0.96170100  0.27341100  1
  C  C1  1  0.38510100  0.46169900  0.27340700  1
  C  C2  1  0.11490000  0.03830200  0.77340800  1
  C  C3  1  0.61490300  0.53830000  0.77340800  1
  C  C4  1  0.60839400  0.20277600  0.91702800  1
  C  C5  1  0.10838900  0.70277500  0.91702500  1
  C  C6  1  0.39160400  0.79722700  0.41702600  1
  C  C7  1  0.89161000  0.29722400  0.41702900  1
  Ni  Ni8  1  0.81043400  0.60348700  0.19404900  1
  Ni  Ni9  1  0.68957000  0.89651000  0.69405200  1
  Ni  Ni10  1  0.31043000  0.10348000  0.19405500  1
  Ni  Ni11  1  0.18957000  0.39652200  0.69405800  1
  Cu  Cu12  1  0.45207200  0.15068800  0.47887900  1
  Cu  Cu13  1  0.95207200  0.65068500  0.47888000  1
  Cu  Cu14  1  0.54792800  0.84931500  0.97888200  1
  Cu  Cu15  1  0.04793000  0.34931100  0.97888200  1
  C  C16  1  0.53016800  0.17670200  0.29277700  1
  C  C17  1  0.03016900  0.67669600  0.29277500  1
  C  C18  1  0.46983200  0.82330100  0.79277600  1
  C  C19  1  0.96983300  0.32329800  0.79277800  1
  C  C20  1  0.26086000  0.08696400  0.43757700  1
  C  C21  1  0.76086000  0.58696600  0.43758200  1
  C  C22  1  0.73913800  0.91303600  0.93758300  1
  C  C23  1  0.23914300  0.41303300  0.93758000  1
  C  C24  1  0.62271900  0.05551600  0.57989600  1
  C  C25  1  0.12270900  0.55551200  0.57989800  1
  C  C26  1  0.37729400  0.94448900  0.07989700  1
  C  C27  1  0.87728100  0.44448500  0.07989500  1
  C  C28  1  0.39466200  0.28360900  0.57987300  1
  C  C29  1  0.89466200  0.78360700  0.57987500  1
  C  C30  1  0.60534000  0.71639600  0.07987700  1
  C  C31  1  0.10533400  0.21639100  0.07987600  1
