# generated using pymatgen
data_Cu2Ni4C9
_symmetry_space_group_name_H-M   'P 1'
_cell_length_a   6.91513000
_cell_length_b   9.14062700
_cell_length_c   12.32341800
_cell_angle_alpha   90.00000000
_cell_angle_beta   90.00000000
_cell_angle_gamma   90.00000000
_symmetry_Int_Tables_number   1
_chemical_formula_structural   Cu2Ni4C9
_chemical_formula_sum   'Cu8 Ni16 C36'
_cell_volume   778.94629459
_cell_formula_units_Z   4
loop_
 _symmetry_equiv_pos_site_id
 _symmetry_equiv_pos_as_xyz
  1  'x, y, z'
loop_
 _atom_site_type_symbol
 _atom_site_label
 _atom_site_symmetry_multiplicity
 _atom_site_fract_x
 _atom_site_fract_y
 _atom_site_fract_z
 _atom_site_occupancy
  C  C0  1  0.00000000  0.00000000  0.00000000  1
  C  C1  1  0.50000000  0.50000000  0.00000000  1
  C  C2  1  0.00000000  0.50000000  0.50000000  1
  C  C3  1  0.50000000  0.00000000  0.50000000  1
  Ni  Ni4  1  0.23178400  0.60451900  0.35203400  1
  Ni  Ni5  1  0.73178400  0.89548100  0.64796600  1
  Ni  Ni6  1  0.76821600  0.10451900  0.14796600  1
  Ni  Ni7  1  0.26821600  0.39548100  0.85203400  1
  Ni  Ni8  1  0.76821600  0.39548100  0.64796600  1
  Ni  Ni9  1  0.26821600  0.10451900  0.35203400  1
  Ni  Ni10  1  0.23178400  0.89548100  0.85203400  1
  Ni  Ni11  1  0.73178400  0.60451900  0.14796600  1
  Ni  Ni12  1  0.26383900  0.43211700  0.35258100  1
  Ni  Ni13  1  0.76383900  0.06788300  0.64741900  1
  Ni  Ni14  1  0.73616100  0.93211700  0.14741900  1
  Ni  Ni15  1  0.23616100  0.56788300  0.85258100  1
  Ni  Ni16  1  0.73616100  0.56788300  0.64741900  1
  Ni  Ni17  1  0.23616100  0.93211700  0.35258100  1
  Ni  Ni18  1  0.26383900  0.06788300  0.85258100  1
  Ni  Ni19  1  0.76383900  0.43211700  0.14741900  1
  Cu  Cu20  1  0.22136800  0.27593900  0.13675000  1
  Cu  Cu21  1  0.72136800  0.22406100  0.86325000  1
  Cu  Cu22  1  0.77863200  0.77593900  0.36325000  1
  Cu  Cu23  1  0.27863200  0.72406100  0.63675000  1
  Cu  Cu24  1  0.77863200  0.72406100  0.86325000  1
  Cu  Cu25  1  0.27863200  0.77593900  0.13675000  1
  Cu  Cu26  1  0.22136800  0.22406100  0.63675000  1
  Cu  Cu27  1  0.72136800  0.27593900  0.36325000  1
  C  C28  1  0.44111000  0.29144200  0.05385100  1
  C  C29  1  0.94111000  0.20855800  0.94614900  1
  C  C30  1  0.55889000  0.79144200  0.44614900  1
  C  C31  1  0.05889000  0.70855800  0.55385100  1
  C  C32  1  0.55889000  0.70855800  0.94614900  1
  C  C33  1  0.05889000  0.79144200  0.05385100  1
  C  C34  1  0.44111000  0.20855800  0.55385100  1
  C  C35  1  0.94111000  0.29144200  0.44614900  1
  C  C36  1  0.32493900  0.27664600  0.27353000  1
  C  C37  1  0.82493900  0.22335400  0.72647000  1
  C  C38  1  0.67506100  0.77664600  0.22647000  1
  C  C39  1  0.17506100  0.72335400  0.77353000  1
  C  C40  1  0.67506100  0.72335400  0.72647000  1
  C  C41  1  0.17506100  0.77664600  0.27353000  1
  C  C42  1  0.32493900  0.22335400  0.77353000  1
  C  C43  1  0.82493900  0.27664600  0.22647000  1
  C  C44  1  0.17856700  0.07856900  0.12399300  1
  C  C45  1  0.67856700  0.42143100  0.87600700  1
  C  C46  1  0.82143300  0.57856900  0.37600700  1
  C  C47  1  0.32143300  0.92143100  0.62399300  1
  C  C48  1  0.82143300  0.92143100  0.87600700  1
  C  C49  1  0.32143300  0.57856900  0.12399300  1
  C  C50  1  0.17856700  0.42143100  0.62399300  1
  C  C51  1  0.67856700  0.07856900  0.37600700  1
  C  C52  1  0.24089300  0.51820400  0.40005900  1
  C  C53  1  0.74089300  0.98179600  0.59994100  1
  C  C54  1  0.75910700  0.01820400  0.09994100  1
  C  C55  1  0.25910700  0.48179600  0.90005900  1
  C  C56  1  0.75910700  0.48179600  0.59994100  1
  C  C57  1  0.25910700  0.01820400  0.40005900  1
  C  C58  1  0.24089300  0.98179600  0.90005900  1
  C  C59  1  0.74089300  0.51820400  0.09994100  1
