# generated using pymatgen
data_Cu3Ni3C17
_symmetry_space_group_name_H-M   'P 1'
_cell_length_a   8.11474400
_cell_length_b   8.11474400
_cell_length_c   8.11474400
_cell_angle_alpha   90.00000000
_cell_angle_beta   90.00000000
_cell_angle_gamma   90.00000000
_symmetry_Int_Tables_number   1
_chemical_formula_structural   Cu3Ni3C17
_chemical_formula_sum   'Cu6 Ni6 C34'
_cell_volume   534.34834719
_cell_formula_units_Z   2
loop_
 _symmetry_equiv_pos_site_id
 _symmetry_equiv_pos_as_xyz
  1  'x, y, z'
loop_
 _atom_site_type_symbol
 _atom_site_label
 _atom_site_symmetry_multiplicity
 _atom_site_fract_x
 _atom_site_fract_y
 _atom_site_fract_z
 _atom_site_occupancy
  C  C0  1  0.32479500  0.32479500  0.67520500  1
  C  C1  1  0.67520500  0.32479500  0.32479500  1
  C  C2  1  0.17520500  0.82479500  0.82479500  1
  C  C3  1  0.82479500  0.17520500  0.82479500  1
  C  C4  1  0.17520500  0.17520500  0.17520500  1
  C  C5  1  0.82479500  0.82479500  0.17520500  1
  C  C6  1  0.67520500  0.67520500  0.67520500  1
  C  C7  1  0.32479500  0.67520500  0.32479500  1
  Ni  Ni8  1  0.50000000  0.75000000  0.00000000  1
  Ni  Ni9  1  0.25000000  0.00000000  0.50000000  1
  Ni  Ni10  1  0.00000000  0.50000000  0.25000000  1
  Ni  Ni11  1  0.50000000  0.25000000  0.00000000  1
  Ni  Ni12  1  0.00000000  0.50000000  0.75000000  1
  Ni  Ni13  1  0.75000000  0.00000000  0.50000000  1
  Cu  Cu14  1  0.50000000  0.00000000  0.25000000  1
  Cu  Cu15  1  0.00000000  0.25000000  0.50000000  1
  Cu  Cu16  1  0.25000000  0.50000000  0.00000000  1
  Cu  Cu17  1  0.00000000  0.75000000  0.50000000  1
  Cu  Cu18  1  0.50000000  0.00000000  0.75000000  1
  Cu  Cu19  1  0.75000000  0.50000000  0.00000000  1
  C  C20  1  0.50000000  0.50000000  0.50000000  1
  C  C21  1  0.00000000  0.00000000  0.00000000  1
  C  C22  1  0.36411300  0.08257600  0.64402900  1
  C  C23  1  0.63588700  0.91742400  0.64402900  1
  C  C24  1  0.08257600  0.64402900  0.36411300  1
  C  C25  1  0.36411300  0.91742400  0.35597100  1
  C  C26  1  0.63588700  0.08257600  0.35597100  1
  C  C27  1  0.64402900  0.36411300  0.08257600  1
  C  C28  1  0.41742400  0.86411300  0.85597100  1
  C  C29  1  0.91742400  0.35597100  0.36411300  1
  C  C30  1  0.85597100  0.58257600  0.13588700  1
  C  C31  1  0.64402900  0.63588700  0.91742400  1
  C  C32  1  0.13588700  0.85597100  0.58257600  1
  C  C33  1  0.58257600  0.13588700  0.85597100  1
  C  C34  1  0.91742400  0.64402900  0.63588700  1
  C  C35  1  0.13588700  0.14402900  0.41742400  1
  C  C36  1  0.35597100  0.63588700  0.08257600  1
  C  C37  1  0.14402900  0.58257600  0.86411300  1
  C  C38  1  0.08257600  0.35597100  0.63588700  1
  C  C39  1  0.85597100  0.41742400  0.86411300  1
  C  C40  1  0.86411300  0.14402900  0.58257600  1
  C  C41  1  0.14402900  0.41742400  0.13588700  1
  C  C42  1  0.58257600  0.86411300  0.14402900  1
  C  C43  1  0.35597100  0.36411300  0.91742400  1
  C  C44  1  0.86411300  0.85597100  0.41742400  1
  C  C45  1  0.41742400  0.13588700  0.14402900  1
