# generated using pymatgen
data_Cu(NiC3)2
_symmetry_space_group_name_H-M   'P 1'
_cell_length_a   4.97959500
_cell_length_b   8.12866400
_cell_length_c   11.43298100
_cell_angle_alpha   90.00000000
_cell_angle_beta   90.00000000
_cell_angle_gamma   90.00000000
_symmetry_Int_Tables_number   1
_chemical_formula_structural   Cu(NiC3)2
_chemical_formula_sum   'Cu4 Ni8 C24'
_cell_volume   462.77796950
_cell_formula_units_Z   4
loop_
 _symmetry_equiv_pos_site_id
 _symmetry_equiv_pos_as_xyz
  1  'x, y, z'
loop_
 _atom_site_type_symbol
 _atom_site_label
 _atom_site_symmetry_multiplicity
 _atom_site_fract_x
 _atom_site_fract_y
 _atom_site_fract_z
 _atom_site_occupancy
  C  C0  1  0.51116100  0.04067900  0.16235400  1
  C  C1  1  0.01116100  0.45932100  0.83764600  1
  C  C2  1  0.98883900  0.95932100  0.66235400  1
  C  C3  1  0.48883900  0.54067900  0.33764600  1
  Ni  Ni4  1  0.49961300  0.66371600  0.66128000  1
  Ni  Ni5  1  0.99961300  0.83628400  0.33872000  1
  Ni  Ni6  1  0.98889700  0.52828400  0.54281200  1
  Ni  Ni7  1  0.50038700  0.16371600  0.83872000  1
  Ni  Ni8  1  0.00038700  0.33628400  0.16128000  1
  Ni  Ni9  1  0.48889700  0.97171600  0.45718800  1
  Ni  Ni10  1  0.51110300  0.47171600  0.04281200  1
  Ni  Ni11  1  0.01110300  0.02828400  0.95718800  1
  Cu  Cu12  1  0.99424100  0.70168100  0.07456700  1
  Cu  Cu13  1  0.50575900  0.29831900  0.57456700  1
  Cu  Cu14  1  0.49424100  0.79831900  0.92543300  1
  Cu  Cu15  1  0.00575900  0.20168100  0.42543300  1
  C  C16  1  0.29415500  0.15738700  0.50666000  1
  C  C17  1  0.20584500  0.84261300  0.00666000  1
  C  C18  1  0.33546200  0.48181400  0.59361000  1
  C  C19  1  0.70584500  0.65738700  0.99334000  1
  C  C20  1  0.83546200  0.01818600  0.40639000  1
  C  C21  1  0.16453800  0.51818600  0.09361000  1
  C  C22  1  0.79415500  0.34261300  0.49334000  1
  C  C23  1  0.66453800  0.98181400  0.90639000  1
  C  C24  1  0.64865100  0.36886700  0.16785700  1
  C  C25  1  0.14865100  0.13113300  0.83214300  1
  C  C26  1  0.35134900  0.86886700  0.33214300  1
  C  C27  1  0.12539700  0.29131000  0.30379300  1
  C  C28  1  0.87460300  0.79131000  0.19620700  1
  C  C29  1  0.04385200  0.15215100  0.08333300  1
  C  C30  1  0.54385200  0.34784900  0.91666700  1
  C  C31  1  0.37460300  0.70869000  0.80379300  1
  C  C32  1  0.95614800  0.65215100  0.41666700  1
  C  C33  1  0.85134900  0.63113300  0.66785700  1
  C  C34  1  0.45614800  0.84784900  0.58333300  1
  C  C35  1  0.62539700  0.20869000  0.69620700  1
