# generated using pymatgen
data_Cu2NiC11
_symmetry_space_group_name_H-M   'P 1'
_cell_length_a   6.95283500
_cell_length_b   9.26403000
_cell_length_c   24.37786100
_cell_angle_alpha   90.00000000
_cell_angle_beta   90.00000000
_cell_angle_gamma   90.00000000
_symmetry_Int_Tables_number   1
_chemical_formula_structural   Cu2NiC11
_chemical_formula_sum   'Cu8 Ni4 C44'
_cell_volume   1570.20903626
_cell_formula_units_Z   4
loop_
 _symmetry_equiv_pos_site_id
 _symmetry_equiv_pos_as_xyz
  1  'x, y, z'
loop_
 _atom_site_type_symbol
 _atom_site_label
 _atom_site_symmetry_multiplicity
 _atom_site_fract_x
 _atom_site_fract_y
 _atom_site_fract_z
 _atom_site_occupancy
  C  C0  1  0.99243000  0.75548600  0.92229800  1
  C  C1  1  0.00757000  0.25548600  0.57770200  1
  C  C2  1  0.49276300  0.48044800  0.81280700  1
  C  C3  1  0.50723700  0.98044800  0.68719300  1
  C  C4  1  0.00295000  0.08828500  0.78796800  1
  C  C5  1  0.49705000  0.91171500  0.28796800  1
  C  C6  1  0.49243000  0.74451400  0.07770200  1
  C  C7  1  0.99705000  0.58828500  0.71203200  1
  C  C8  1  0.99276300  0.01955200  0.18719300  1
  C  C9  1  0.50295000  0.41171500  0.21203200  1
  C  C10  1  0.00723700  0.51955200  0.31280700  1
  C  C11  1  0.50757000  0.24451400  0.42229800  1
  Ni  Ni12  1  0.06176500  0.35032400  0.05263800  1
  Ni  Ni13  1  0.43823500  0.64967600  0.55263800  1
  Ni  Ni14  1  0.56176500  0.14967600  0.94736200  1
  Ni  Ni15  1  0.93823500  0.85032400  0.44736200  1
  Cu  Cu16  1  0.50537900  0.38977400  0.65457000  1
  Cu  Cu17  1  0.03546000  0.85426100  0.59213400  1
  Cu  Cu18  1  0.96454000  0.35426100  0.90786600  1
  Cu  Cu19  1  0.00537900  0.11022600  0.34543000  1
  Cu  Cu20  1  0.46454000  0.14573900  0.09213400  1
  Cu  Cu21  1  0.49462100  0.88977400  0.84543000  1
  Cu  Cu22  1  0.99462100  0.61022600  0.15457000  1
  Cu  Cu23  1  0.53546000  0.64573900  0.40786600  1
  C  C24  1  0.26739600  0.94181000  0.55236700  1
  C  C25  1  0.73229500  0.81186400  0.80836800  1
  C  C26  1  0.24525800  0.20744100  0.31729700  1
  C  C27  1  0.73260400  0.44181000  0.94763300  1
  C  C28  1  0.97004600  0.38701200  0.16447700  1
  C  C29  1  0.56495500  0.86990800  0.42008900  1
  C  C30  1  0.52025600  0.59085000  0.32851100  1
  C  C31  1  0.51858000  0.86151800  0.93144400  1
  C  C32  1  0.23260400  0.05819000  0.05236700  1
  C  C33  1  0.23229500  0.68813600  0.19163200  1
  C  C34  1  0.78585700  0.91828900  0.55313400  1
  C  C35  1  0.74525800  0.29255900  0.68270300  1
  C  C36  1  0.06495500  0.63009200  0.57991100  1
  C  C37  1  0.97974400  0.40915000  0.82851100  1
  C  C38  1  0.48142000  0.36151800  0.56855600  1
  C  C39  1  0.02995400  0.88701200  0.33552300  1
  C  C40  1  0.98142000  0.13848200  0.43144400  1
  C  C41  1  0.93504500  0.13009200  0.92008900  1
  C  C42  1  0.21414300  0.41828900  0.94686600  1
  C  C43  1  0.47004600  0.11298800  0.83552300  1
  C  C44  1  0.43504500  0.36990800  0.07991100  1
  C  C45  1  0.25474200  0.79255900  0.81729700  1
  C  C46  1  0.02025600  0.90915000  0.67148900  1
  C  C47  1  0.71414300  0.08171100  0.05313400  1
  C  C48  1  0.26770500  0.31186400  0.69163200  1
  C  C49  1  0.75474200  0.70744100  0.18270300  1
  C  C50  1  0.76770500  0.18813600  0.30836800  1
  C  C51  1  0.52995400  0.61298800  0.66447700  1
  C  C52  1  0.28585700  0.58171100  0.44686600  1
  C  C53  1  0.01858000  0.63848200  0.06855600  1
  C  C54  1  0.47974400  0.09085000  0.17148900  1
  C  C55  1  0.76739600  0.55819000  0.44763300  1
