# generated using pymatgen
data_Cu4NiC2
_symmetry_space_group_name_H-M   'P 1'
_cell_length_a   8.15962070
_cell_length_b   8.15962070
_cell_length_c   8.15962070
_cell_angle_alpha   125.66205655
_cell_angle_beta   125.66205655
_cell_angle_gamma   80.44428618
_symmetry_Int_Tables_number   1
_chemical_formula_structural   Cu4NiC2
_chemical_formula_sum   'Cu8 Ni2 C4'
_cell_volume   345.94578126
_cell_formula_units_Z   2
loop_
 _symmetry_equiv_pos_site_id
 _symmetry_equiv_pos_as_xyz
  1  'x, y, z'
loop_
 _atom_site_type_symbol
 _atom_site_label
 _atom_site_symmetry_multiplicity
 _atom_site_fract_x
 _atom_site_fract_y
 _atom_site_fract_z
 _atom_site_occupancy
  C  C0  1  0.25000000  0.25000000  0.00000000  1
  C  C1  1  0.75000000  0.75000000  0.00000000  1
  Ni  Ni2  1  0.25000000  0.75000000  0.50000000  1
  Ni  Ni3  1  0.75000000  0.25000000  0.50000000  1
  C  C4  1  0.50000000  0.00000000  0.50000000  1
  C  C5  1  0.00000000  0.50000000  0.50000000  1
  Cu  Cu6  1  0.71014000  0.21014000  0.20373900  1
  Cu  Cu7  1  0.99359900  0.49359900  0.20373900  1
  Cu  Cu8  1  0.50640100  0.71014000  0.50000000  1
  Cu  Cu9  1  0.21014000  0.00640100  0.50000000  1
  Cu  Cu10  1  0.28986000  0.78986000  0.79626100  1
  Cu  Cu11  1  0.49359900  0.28986000  0.50000000  1
  Cu  Cu12  1  0.78986000  0.99359900  0.50000000  1
  Cu  Cu13  1  0.00640100  0.50640100  0.79626100  1
