# generated using pymatgen
data_Cu2Ni2C3
_symmetry_space_group_name_H-M   'P 1'
_cell_length_a   19.44566845
_cell_length_b   19.44566845
_cell_length_c   6.89233800
_cell_angle_alpha   90.00000000
_cell_angle_beta   90.00000000
_cell_angle_gamma   120.00000153
_symmetry_Int_Tables_number   1
_chemical_formula_structural   Cu2Ni2C3
_chemical_formula_sum   'Cu24 Ni24 C36'
_cell_volume   2257.05917529
_cell_formula_units_Z   12
loop_
 _symmetry_equiv_pos_site_id
 _symmetry_equiv_pos_as_xyz
  1  'x, y, z'
loop_
 _atom_site_type_symbol
 _atom_site_label
 _atom_site_symmetry_multiplicity
 _atom_site_fract_x
 _atom_site_fract_y
 _atom_site_fract_z
 _atom_site_occupancy
  C  C0  1  0.87178700  0.87178700  0.80961100  1
  C  C1  1  0.87178700  0.00000000  0.30961100  1
  C  C2  1  0.33255500  0.53623100  0.98758900  1
  C  C3  1  0.00000000  0.12821300  0.80961100  1
  C  C4  1  0.46376900  0.79632400  0.98758900  1
  C  C5  1  0.66744500  0.20367600  0.98758900  1
  C  C6  1  0.46376900  0.66744500  0.48758900  1
  C  C7  1  0.53623100  0.20367600  0.48758900  1
  C  C8  1  0.66744500  0.46376900  0.48758900  1
  C  C9  1  0.79632400  0.33255500  0.48758900  1
  C  C10  1  0.33255500  0.79632400  0.48758900  1
  C  C11  1  0.12821300  0.00000000  0.80961100  1
  C  C12  1  0.20367600  0.53623100  0.48758900  1
  C  C13  1  0.79632400  0.46376900  0.98758900  1
  C  C14  1  0.12821300  0.12821300  0.30961100  1
  C  C15  1  0.53623100  0.33255500  0.98758900  1
  C  C16  1  0.00000000  0.87178700  0.30961100  1
  C  C17  1  0.20367600  0.66744500  0.98758900  1
  Ni  Ni18  1  0.42723400  0.33551600  0.06895200  1
  Ni  Ni19  1  0.42723400  0.09171900  0.56895200  1
  Ni  Ni20  1  0.33551600  0.90828100  0.56895200  1
  Ni  Ni21  1  0.39994500  0.00000000  0.81038800  1
  Ni  Ni22  1  0.09171900  0.66448400  0.06895200  1
  Ni  Ni23  1  0.00000000  0.76301300  0.21819900  1
  Ni  Ni24  1  0.33551600  0.42723400  0.06895200  1
  Ni  Ni25  1  0.00000000  0.23698700  0.71819900  1
  Ni  Ni26  1  0.60005500  0.60005500  0.81038800  1
  Ni  Ni27  1  0.76301300  0.00000000  0.21819900  1
  Ni  Ni28  1  0.76301300  0.76301300  0.71819900  1
  Ni  Ni29  1  0.66448400  0.57276600  0.56895200  1
  Ni  Ni30  1  0.90828100  0.33551600  0.56895200  1
  Ni  Ni31  1  0.00000000  0.39994500  0.81038800  1
  Ni  Ni32  1  0.60005500  0.00000000  0.31038800  1
  Ni  Ni33  1  0.09171900  0.42723400  0.56895200  1
  Ni  Ni34  1  0.39994500  0.39994500  0.31038800  1
  Ni  Ni35  1  0.90828100  0.57276600  0.06895200  1
  Ni  Ni36  1  0.00000000  0.60005500  0.31038800  1
  Ni  Ni37  1  0.57276600  0.90828100  0.06895200  1
  Ni  Ni38  1  0.57276600  0.66448400  0.56895200  1
  Ni  Ni39  1  0.66448400  0.09171900  0.06895200  1
  Ni  Ni40  1  0.23698700  0.23698700  0.21819900  1
  Ni  Ni41  1  0.23698700  0.00000000  0.71819900  1
  Cu  Cu42  1  0.30736900  0.30736900  0.45792000  1
  Cu  Cu43  1  0.89770300  0.67635000  0.06671800  1
  Cu  Cu44  1  0.41040900  0.41040900  0.86993600  1
  Cu  Cu45  1  0.41040900  0.00000000  0.36993600  1
  Cu  Cu46  1  0.69263100  0.00000000  0.45792000  1
  Cu  Cu47  1  0.89770300  0.22135200  0.56671800  1
  Cu  Cu48  1  0.00000000  0.41040900  0.36993600  1
  Cu  Cu49  1  0.67635000  0.77864800  0.56671800  1
  Cu  Cu50  1  0.58959100  0.00000000  0.86993600  1
  Cu  Cu51  1  0.00000000  0.69263100  0.45792000  1
  Cu  Cu52  1  0.00000000  0.58959100  0.86993600  1
  Cu  Cu53  1  0.67635000  0.89770300  0.06671800  1
  Cu  Cu54  1  0.10229700  0.77864800  0.06671800  1
  Cu  Cu55  1  0.77864800  0.67635000  0.56671800  1
  Cu  Cu56  1  0.22135200  0.89770300  0.56671800  1
  Cu  Cu57  1  0.10229700  0.32365000  0.56671800  1
  Cu  Cu58  1  0.32365000  0.22135200  0.06671800  1
  Cu  Cu59  1  0.69263100  0.69263100  0.95792000  1
  Cu  Cu60  1  0.30736900  0.00000000  0.95792000  1
  Cu  Cu61  1  0.32365000  0.10229700  0.56671800  1
  Cu  Cu62  1  0.58959100  0.58959100  0.36993600  1
  Cu  Cu63  1  0.00000000  0.30736900  0.95792000  1
  Cu  Cu64  1  0.22135200  0.32365000  0.06671800  1
  Cu  Cu65  1  0.77864800  0.10229700  0.06671800  1
  C  C66  1  0.33415500  0.79713200  0.09943000  1
  C  C67  1  0.20286800  0.66584500  0.59943000  1
  C  C68  1  0.66584500  0.46297700  0.09943000  1
  C  C69  1  0.87089900  0.00000000  0.69398700  1
  C  C70  1  0.33415500  0.53702300  0.59943000  1
  C  C71  1  0.46297700  0.79713200  0.59943000  1
  C  C72  1  0.53702300  0.20286800  0.09943000  1
  C  C73  1  0.53702300  0.33415500  0.59943000  1
  C  C74  1  0.87089900  0.87089900  0.19398700  1
  C  C75  1  0.79713200  0.46297700  0.59943000  1
  C  C76  1  0.00000000  0.87089900  0.69398700  1
  C  C77  1  0.46297700  0.66584500  0.09943000  1
  C  C78  1  0.66584500  0.20286800  0.59943000  1
  C  C79  1  0.12910100  0.12910100  0.69398700  1
  C  C80  1  0.20286800  0.53702300  0.09943000  1
  C  C81  1  0.00000000  0.12910100  0.19398700  1
  C  C82  1  0.12910100  0.00000000  0.19398700  1
  C  C83  1  0.79713200  0.33415500  0.09943000  1
