# generated using pymatgen
data_CuNiC3
_symmetry_space_group_name_H-M   'P 1'
_cell_length_a   10.04867239
_cell_length_b   10.04867239
_cell_length_c   16.39652185
_cell_angle_alpha   89.97774463
_cell_angle_beta   89.97774463
_cell_angle_gamma   70.23121932
_symmetry_Int_Tables_number   1
_chemical_formula_structural   CuNiC3
_chemical_formula_sum   'Cu32 Ni32 C96'
_cell_volume   1558.07648062
_cell_formula_units_Z   32
loop_
 _symmetry_equiv_pos_site_id
 _symmetry_equiv_pos_as_xyz
  1  'x, y, z'
loop_
 _atom_site_type_symbol
 _atom_site_label
 _atom_site_symmetry_multiplicity
 _atom_site_fract_x
 _atom_site_fract_y
 _atom_site_fract_z
 _atom_site_occupancy
  Ni  Ni0  1  0.00076500  0.74841100  0.37709000  1
  Ni  Ni1  1  0.99771200  0.24995700  0.37624600  1
  Ni  Ni2  1  0.24761200  0.75238800  0.50000000  1
  Ni  Ni3  1  0.25158900  0.99923500  0.62291000  1
  Ni  Ni4  1  0.29048000  0.07568400  0.44426300  1
  Ni  Ni5  1  0.16212600  0.44461600  0.43119000  1
  Ni  Ni6  1  0.05998600  0.80115400  0.19197500  1
  Ni  Ni7  1  0.24781400  0.25446100  0.24937700  1
  Ni  Ni8  1  0.50279700  0.74952600  0.87392100  1
  Ni  Ni9  1  0.75552400  0.24447600  0.00000000  1
  Ni  Ni10  1  0.55538400  0.83787400  0.56881000  1
  Ni  Ni11  1  0.80789000  0.55893900  0.93777100  1
  Ni  Ni12  1  0.68615500  0.93372800  0.93844900  1
  Ni  Ni13  1  0.56917600  0.29717400  0.69126700  1
  Ni  Ni14  1  0.43374300  0.67752200  0.18338600  1
  Ni  Ni15  1  0.74553900  0.75218600  0.75062300  1
  Ni  Ni16  1  0.99830300  0.25211600  0.87802400  1
  Ni  Ni17  1  0.74788400  0.00169700  0.12197600  1
  Ni  Ni18  1  0.75004300  0.00228800  0.62375400  1
  Ni  Ni19  1  0.75216100  0.24783900  0.50000000  1
  Ni  Ni20  1  0.06627200  0.31384500  0.06155100  1
  Ni  Ni21  1  0.92431600  0.70952000  0.55573700  1
  Ni  Ni22  1  0.83698800  0.05262100  0.31394300  1
  Ni  Ni23  1  0.70282600  0.43082400  0.30873300  1
  Ni  Ni24  1  0.94737900  0.16301200  0.68605700  1
  Ni  Ni25  1  0.75699700  0.76352400  0.24890900  1
  Ni  Ni26  1  0.25047400  0.49720300  0.12607900  1
  Ni  Ni27  1  0.25447100  0.74552900  0.00000000  1
  Ni  Ni28  1  0.44106100  0.19211000  0.06222900  1
  Ni  Ni29  1  0.32247800  0.56625700  0.81661400  1
  Ni  Ni30  1  0.19884600  0.94001400  0.80802500  1
  Ni  Ni31  1  0.23647600  0.24300300  0.75109100  1
  Cu  Cu32  1  0.93949500  0.18508900  0.18472600  1
  Cu  Cu33  1  0.99837000  0.50054600  0.24547600  1
  Cu  Cu34  1  0.19409000  0.93668300  0.30810200  1
  Cu  Cu35  1  0.43624900  0.67996300  0.68222600  1
  Cu  Cu36  1  0.50018500  0.74770500  0.37275800  1
  Cu  Cu37  1  0.25229500  0.49981500  0.62724200  1
  Cu  Cu38  1  0.49945400  0.00163000  0.75452400  1
  Cu  Cu39  1  0.49582100  0.00135500  0.25230200  1
  Cu  Cu40  1  0.43703400  0.19824200  0.55683600  1
  Cu  Cu41  1  0.69106500  0.43439100  0.81107800  1
  Cu  Cu42  1  0.32003700  0.56375100  0.31777400  1
  Cu  Cu43  1  0.74856500  0.49991700  0.12610200  1
  Cu  Cu44  1  0.49633700  0.25204800  0.37405700  1
  Cu  Cu45  1  0.67627300  0.93788000  0.43111600  1
  Cu  Cu46  1  0.56560900  0.30893500  0.18892200  1
  Cu  Cu47  1  0.50019600  0.49980400  0.50000000  1
  Cu  Cu48  1  0.99864500  0.50417900  0.74769800  1
  Cu  Cu49  1  0.93436600  0.68638300  0.06108100  1
  Cu  Cu50  1  0.81491100  0.06050500  0.81527400  1
  Cu  Cu51  1  0.00324500  0.74852500  0.87577700  1
  Cu  Cu52  1  0.74795200  0.50366300  0.62594300  1
  Cu  Cu53  1  0.18908400  0.43721000  0.93681100  1
  Cu  Cu54  1  0.80175800  0.56296600  0.44316400  1
  Cu  Cu55  1  0.06331700  0.80591000  0.69189800  1
  Cu  Cu56  1  0.00413800  0.99586200  0.00000000  1
  Cu  Cu57  1  0.99945400  0.00054600  0.50000000  1
  Cu  Cu58  1  0.06212000  0.32372700  0.56888400  1
  Cu  Cu59  1  0.50008300  0.25143500  0.87389800  1
  Cu  Cu60  1  0.25147500  0.99675500  0.12422300  1
  Cu  Cu61  1  0.31361700  0.06563400  0.93891900  1
  Cu  Cu62  1  0.50284300  0.49715700  0.00000000  1
  Cu  Cu63  1  0.56279000  0.81091600  0.06318900  1
  C  C64  1  0.90633100  0.03744400  0.18299900  1
  C  C65  1  0.05043700  0.89656700  0.31260800  1
  C  C66  1  0.85170100  0.79537400  0.13186300  1
  C  C67  1  0.16835400  0.98247600  0.50966400  1
  C  C68  1  0.10947000  0.15149500  0.15901100  1
  C  C69  1  0.10972900  0.26947700  0.47587600  1
  C  C70  1  0.97927100  0.66538700  0.26523100  1
  C  C71  1  0.07324800  0.39530300  0.32177300  1
  C  C72  1  0.17850400  0.09916900  0.33204800  1
  C  C73  1  0.39434700  0.53011500  0.68494800  1
  C  C74  1  0.10336500  0.41975500  0.17101000  1
  C  C75  1  0.31567800  0.84414100  0.37455100  1
  C  C76  1  0.37419000  0.79056900  0.60695900  1
  C  C77  1  0.54733500  0.38253100  0.81361100  1
  C  C78  1  0.47782400  0.66011800  0.46530100  1
  C  C79  1  0.37134800  0.06107900  0.18120800  1
  C  C80  1  0.40192400  0.05108900  0.55876400  1
  C  C81  1  0.20943100  0.62581000  0.39304100  1
  C  C82  1  0.35169000  0.31347400  0.62957100  1
  C  C83  1  0.26253100  0.61633700  0.22604800  1
  C  C84  1  0.38406900  0.24922500  0.46091000  1
  C  C85  1  0.43103400  0.12919400  0.32110900  1
  C  C86  1  0.35190000  0.39136000  0.33279400  1
  C  C87  1  0.66891100  0.47242500  0.03088400  1
  C  C88  1  0.60864000  0.64810000  0.66720600  1
  C  C89  1  0.53251200  0.88661000  0.42993200  1
  C  C90  1  0.40105700  0.32246800  0.17220300  1
  C  C91  1  0.33988200  0.52217600  0.53469900  1
  C  C92  1  0.62338600  0.74574800  0.97433000  1
  C  C93  1  0.47752800  0.17344500  0.77688400  1
  C  C94  1  0.23870500  0.89256900  0.21047900  1
  C  C95  1  0.58024500  0.89663500  0.82899000  1
  C  C96  1  0.67753200  0.59894300  0.82779700  1
  C  C97  1  0.60469700  0.92675200  0.67822700  1
  C  C98  1  0.79024100  0.35828200  0.88830100  1
  C  C99  1  0.75077500  0.61593100  0.53909000  1
  C  C100  1  0.86513200  0.31715900  0.11807700  1
  C  C101  1  0.65480000  0.98508300  0.22696500  1
  C  C102  1  0.59928800  0.18457900  0.58036200  1
  C  C103  1  0.46988500  0.60565300  0.31505200  1
  C  C104  1  0.63818700  0.11075700  0.41491500  1
  C  C105  1  0.55881200  0.37437000  0.43032700  1
  C  C106  1  0.60772800  0.26660000  0.28757000  1
  C  C107  1  0.73052300  0.89027100  0.52412400  1
  C  C108  1  0.98886500  0.16166400  0.98716700  1
  C  C109  1  0.87080600  0.56896600  0.67889100  1
  C  C110  1  0.87590500  0.54759400  0.06564300  1
  C  C111  1  0.68284100  0.13486800  0.88192300  1
  C  C112  1  0.79397100  0.87146000  0.36038000  1
  C  C113  1  0.61746900  0.45266500  0.18638900  1
  C  C114  1  0.62563000  0.44118800  0.56967300  1
  C  C115  1  0.51712100  0.83362100  0.27816300  1
  C  C116  1  0.75565500  0.11500000  0.72429100  1
  C  C117  1  0.89856900  0.72659600  0.96181000  1
  C  C118  1  0.93892100  0.62865200  0.81879200  1
  C  C119  1  0.84850500  0.89053000  0.84098900  1
  C  C120  1  0.03717000  0.41116400  0.94007600  1
  C  C121  1  0.90083100  0.82149600  0.66795200  1
  C  C122  1  0.83833600  0.01113500  0.01283300  1
  C  C123  1  0.63159400  0.68370300  0.13431100  1
  C  C124  1  0.73340000  0.39227200  0.71243000  1
  C  C125  1  0.68652600  0.64831000  0.37042900  1
  C  C126  1  0.89512700  0.08427900  0.57538400  1
  C  C127  1  0.81542100  0.40071200  0.41963800  1
  C  C128  1  0.91572100  0.10487300  0.42461600  1
  C  C129  1  0.27340400  0.10143100  0.03819000  1
  C  C130  1  0.01752400  0.83164600  0.49033600  1
  C  C131  1  0.88500000  0.24434500  0.27570900  1
  C  C132  1  0.16637900  0.48287900  0.72183700  1
  C  C133  1  0.09921400  0.66900400  0.07932600  1
  C  C134  1  0.96255600  0.09366900  0.81700100  1
  C  C135  1  0.88924300  0.36181300  0.58508500  1
  C  C136  1  0.82655500  0.52247200  0.22311600  1
  C  C137  1  0.15860000  0.60677200  0.91129300  1
  C  C138  1  0.07097100  0.86809700  0.93021000  1
  C  C139  1  0.10743100  0.76129500  0.78952100  1
  C  C140  1  0.25425200  0.37661400  0.02567000  1
  C  C141  1  0.15585900  0.68432200  0.62544900  1
  C  C142  1  0.31629700  0.36840600  0.86568900  1
  C  C143  1  0.10343300  0.94956300  0.68739200  1
  C  C144  1  0.13190300  0.92902900  0.06979000  1
  C  C145  1  0.01491700  0.34520000  0.77303500  1
  C  C146  1  0.94891100  0.59807600  0.44123600  1
  C  C147  1  0.12854000  0.20602900  0.63962000  1
  C  C148  1  0.20462600  0.14829900  0.86813700  1
  C  C149  1  0.39603600  0.57077900  0.07485200  1
  C  C150  1  0.11339000  0.46748800  0.57006800  1
  C  C151  1  0.33099600  0.90078600  0.92067400  1
  C  C152  1  0.42922100  0.60396400  0.92514800  1
  C  C153  1  0.52757500  0.33108900  0.96911600  1
  C  C154  1  0.38366300  0.73746900  0.77395200  1
  C  C155  1  0.39322800  0.84140000  0.08870700  1
  C  C156  1  0.33461300  0.02072900  0.73476900  1
  C  C157  1  0.64171800  0.20975900  0.11169900  1
  C  C158  1  0.45240600  0.12409500  0.93435700  1
  C  C159  1  0.58883600  0.96283000  0.05992400  1
