# generated using pymatgen
data_CuNiC8
_symmetry_space_group_name_H-M   'P 1'
_cell_length_a   14.66752589
_cell_length_b   14.66752589
_cell_length_c   12.11084800
_cell_angle_alpha   90.00000000
_cell_angle_beta   90.00000000
_cell_angle_gamma   119.99999951
_symmetry_Int_Tables_number   1
_chemical_formula_structural   CuNiC8
_chemical_formula_sum   'Cu8 Ni8 C64'
_cell_volume   2256.41466825
_cell_formula_units_Z   8
loop_
 _symmetry_equiv_pos_site_id
 _symmetry_equiv_pos_as_xyz
  1  'x, y, z'
loop_
 _atom_site_type_symbol
 _atom_site_label
 _atom_site_symmetry_multiplicity
 _atom_site_fract_x
 _atom_site_fract_y
 _atom_site_fract_z
 _atom_site_occupancy
  Ni  Ni0  1  0.50000000  0.00000000  0.00000000  1
  Ni  Ni1  1  0.66666700  0.33333300  0.75000000  1
  Ni  Ni2  1  0.00000000  0.50000000  0.00000000  1
  Ni  Ni3  1  0.50000000  0.00000000  0.50000000  1
  Ni  Ni4  1  0.33333300  0.66666700  0.25000000  1
  Ni  Ni5  1  0.50000000  0.50000000  0.00000000  1
  Ni  Ni6  1  0.00000000  0.50000000  0.50000000  1
  Ni  Ni7  1  0.50000000  0.50000000  0.50000000  1
  Cu  Cu8  1  0.00000000  0.00000000  0.00000000  1
  Cu  Cu9  1  0.16630000  0.33260100  0.75000000  1
  Cu  Cu10  1  0.83370000  0.16630000  0.25000000  1
  Cu  Cu11  1  0.16630000  0.83370000  0.75000000  1
  Cu  Cu12  1  0.66739900  0.83370000  0.75000000  1
  Cu  Cu13  1  0.00000000  0.00000000  0.50000000  1
  Cu  Cu14  1  0.33260100  0.16630000  0.25000000  1
  Cu  Cu15  1  0.83370000  0.66739900  0.25000000  1
  C  C16  1  0.83404600  0.66809200  0.88281600  1
  C  C17  1  0.66809200  0.83404600  0.38281600  1
  C  C18  1  0.83404600  0.66809200  0.61718400  1
  C  C19  1  0.66809200  0.83404600  0.11718400  1
  C  C20  1  0.16595400  0.33190800  0.11718400  1
  C  C21  1  0.16595400  0.33190800  0.38281600  1
  C  C22  1  0.16595400  0.83404600  0.38281600  1
  C  C23  1  0.66666700  0.33333300  0.11729700  1
  C  C24  1  0.33190800  0.16595400  0.61718400  1
  C  C25  1  0.16595400  0.83404600  0.11718400  1
  C  C26  1  0.83404600  0.16595400  0.61718400  1
  C  C27  1  0.83404600  0.16595400  0.88281600  1
  C  C28  1  0.33190800  0.16595400  0.88281600  1
  C  C29  1  0.33333300  0.66666700  0.61729700  1
  C  C30  1  0.66666700  0.33333300  0.38270300  1
  C  C31  1  0.33333300  0.66666700  0.88270300  1
  C  C32  1  0.41117000  0.82234000  0.75000000  1
  C  C33  1  0.00000000  0.75252900  0.00000000  1
  C  C34  1  0.67827600  0.08708900  0.75000000  1
  C  C35  1  0.00000000  0.24747100  0.50000000  1
  C  C36  1  0.24747100  0.00000000  0.50000000  1
  C  C37  1  0.24928500  0.75071500  0.50155200  1
  C  C38  1  0.50143000  0.75071500  0.50155200  1
  C  C39  1  0.17600500  0.08800300  0.75000000  1
  C  C40  1  0.59118700  0.67827600  0.25000000  1
  C  C41  1  0.24928500  0.49857000  0.50155200  1
  C  C42  1  0.59118700  0.91291100  0.25000000  1
  C  C43  1  0.67827600  0.59118700  0.75000000  1
  C  C44  1  0.58883000  0.17766000  0.25000000  1
  C  C45  1  0.00000000  0.24747100  0.00000000  1
  C  C46  1  0.32172400  0.91291100  0.25000000  1
  C  C47  1  0.24747100  0.00000000  0.00000000  1
  C  C48  1  0.82234000  0.41117000  0.25000000  1
  C  C49  1  0.50143000  0.75071500  0.99844800  1
  C  C50  1  0.58883000  0.41117000  0.25000000  1
  C  C51  1  0.40881300  0.08708900  0.75000000  1
  C  C52  1  0.08708900  0.67827600  0.25000000  1
  C  C53  1  0.75071500  0.24928500  0.49844800  1
  C  C54  1  0.91199700  0.08800300  0.75000000  1
  C  C55  1  0.40881300  0.32172400  0.75000000  1
  C  C56  1  0.24747100  0.24747100  0.00000000  1
  C  C57  1  0.75252900  0.00000000  0.00000000  1
  C  C58  1  0.08800300  0.17600500  0.25000000  1
  C  C59  1  0.49857000  0.24928500  0.00155200  1
  C  C60  1  0.75252900  0.00000000  0.50000000  1
  C  C61  1  0.24747100  0.24747100  0.50000000  1
  C  C62  1  0.82399500  0.91199700  0.25000000  1
  C  C63  1  0.32172400  0.40881300  0.25000000  1
  C  C64  1  0.75252900  0.75252900  0.00000000  1
  C  C65  1  0.08800300  0.91199700  0.25000000  1
  C  C66  1  0.75071500  0.50143000  0.00155200  1
  C  C67  1  0.91291100  0.59118700  0.75000000  1
  C  C68  1  0.49857000  0.24928500  0.49844800  1
  C  C69  1  0.24928500  0.75071500  0.99844800  1
  C  C70  1  0.00000000  0.75252900  0.50000000  1
  C  C71  1  0.17766000  0.58883000  0.75000000  1
  C  C72  1  0.91199700  0.82399500  0.75000000  1
  C  C73  1  0.08708900  0.40881300  0.25000000  1
  C  C74  1  0.91291100  0.32172400  0.75000000  1
  C  C75  1  0.75071500  0.24928500  0.00155200  1
  C  C76  1  0.75071500  0.50143000  0.49844800  1
  C  C77  1  0.41117000  0.58883000  0.75000000  1
  C  C78  1  0.75252900  0.75252900  0.50000000  1
  C  C79  1  0.24928500  0.49857000  0.99844800  1
