# generated using pymatgen
data_Cu3NiC14
_symmetry_space_group_name_H-M   'P 1'
_cell_length_a   8.08318290
_cell_length_b   8.08318290
_cell_length_c   16.65663800
_cell_angle_alpha   90.00000000
_cell_angle_beta   90.00000000
_cell_angle_gamma   120.00000740
_symmetry_Int_Tables_number   1
_chemical_formula_structural   Cu3NiC14
_chemical_formula_sum   'Cu12 Ni4 C56'
_cell_volume   942.50303778
_cell_formula_units_Z   4
loop_
 _symmetry_equiv_pos_site_id
 _symmetry_equiv_pos_as_xyz
  1  'x, y, z'
loop_
 _atom_site_type_symbol
 _atom_site_label
 _atom_site_symmetry_multiplicity
 _atom_site_fract_x
 _atom_site_fract_y
 _atom_site_fract_z
 _atom_site_occupancy
  Ni  Ni0  1  0.00000000  0.00000000  0.84673800  1
  Ni  Ni1  1  0.00000000  0.00000000  0.34673800  1
  Ni  Ni2  1  0.00000000  0.00000000  0.15326200  1
  Ni  Ni3  1  0.00000000  0.00000000  0.65326200  1
  C  C4  1  0.33333300  0.66666700  0.47590400  1
  C  C5  1  0.66666700  0.33333300  0.97590400  1
  C  C6  1  0.66666700  0.33333300  0.52409600  1
  C  C7  1  0.33333300  0.66666700  0.02409600  1
  C  C8  1  0.66666700  0.33333300  0.25000000  1
  C  C9  1  0.33333300  0.66666700  0.75000000  1
  Cu  Cu10  1  0.95248900  0.61471900  0.39189000  1
  Cu  Cu11  1  0.38528100  0.04751100  0.10811000  1
  Cu  Cu12  1  0.04751100  0.38528100  0.60811000  1
  Cu  Cu13  1  0.66222900  0.61471900  0.10811000  1
  Cu  Cu14  1  0.04751100  0.66222900  0.89189000  1
  Cu  Cu15  1  0.61471900  0.66222900  0.60811000  1
  Cu  Cu16  1  0.61471900  0.95248900  0.89189000  1
  Cu  Cu17  1  0.95248900  0.33777100  0.10811000  1
  Cu  Cu18  1  0.33777100  0.95248900  0.60811000  1
  Cu  Cu19  1  0.33777100  0.38528100  0.89189000  1
  Cu  Cu20  1  0.38528100  0.33777100  0.39189000  1
  Cu  Cu21  1  0.66222900  0.04751100  0.39189000  1
  C  C22  1  0.83837200  0.79439400  0.61748600  1
  C  C23  1  0.46094400  0.57707900  0.09029800  1
  C  C24  1  0.42292100  0.53905600  0.40970200  1
  C  C25  1  0.47119300  0.33502400  0.31072100  1
  C  C26  1  0.53905600  0.42292100  0.90970200  1
  C  C27  1  0.66497600  0.13616800  0.31072100  1
  C  C28  1  0.16162800  0.20560600  0.38251400  1
  C  C29  1  0.16162800  0.95602200  0.11748600  1
  C  C30  1  0.53905600  0.11613500  0.59029800  1
  C  C31  1  0.88386500  0.42292100  0.59029800  1
  C  C32  1  0.19732300  0.44389600  0.54091000  1
  C  C33  1  0.11613500  0.53905600  0.09029800  1
  C  C34  1  0.66497600  0.52880700  0.18927900  1
  C  C35  1  0.47119300  0.13616800  0.18927900  1
  C  C36  1  0.44389600  0.24657300  0.45909000  1
  C  C37  1  0.55610400  0.75342700  0.54091000  1
  C  C38  1  0.75342700  0.19732300  0.45909000  1
  C  C39  1  0.33502400  0.86383200  0.68927900  1
  C  C40  1  0.80267700  0.55610400  0.45909000  1
  C  C41  1  0.42292100  0.88386500  0.09029800  1
  C  C42  1  0.11613500  0.57707900  0.40970200  1
  C  C43  1  0.33502400  0.47119300  0.81072100  1
  C  C44  1  0.04397800  0.83837200  0.38251400  1
  C  C45  1  0.86383200  0.33502400  0.18927900  1
  C  C46  1  0.20560600  0.04397800  0.61748600  1
  C  C47  1  0.44389600  0.19732300  0.04091000  1
  C  C48  1  0.13616800  0.66497600  0.81072100  1
  C  C49  1  0.52880700  0.66497600  0.68927900  1
  C  C50  1  0.80267700  0.24657300  0.04091000  1
  C  C51  1  0.57707900  0.11613500  0.90970200  1
  C  C52  1  0.00000000  0.00000000  0.25000000  1
  C  C53  1  0.19732300  0.75342700  0.95909000  1
  C  C54  1  0.88386500  0.46094400  0.90970200  1
  C  C55  1  0.24657300  0.80267700  0.54091000  1
  C  C56  1  0.95602200  0.16162800  0.61748600  1
  C  C57  1  0.13616800  0.47119300  0.68927900  1
  C  C58  1  0.20560600  0.16162800  0.88251400  1
  C  C59  1  0.75342700  0.55610400  0.04091000  1
  C  C60  1  0.46094400  0.88386500  0.40970200  1
  C  C61  1  0.83837200  0.04397800  0.88251400  1
  C  C62  1  0.79439400  0.95602200  0.38251400  1
  C  C63  1  0.52880700  0.86383200  0.81072100  1
  C  C64  1  0.04397800  0.20560600  0.11748600  1
  C  C65  1  0.79439400  0.83837200  0.11748600  1
  C  C66  1  0.24657300  0.44389600  0.95909000  1
  C  C67  1  0.86383200  0.52880700  0.31072100  1
  C  C68  1  0.57707900  0.46094400  0.59029800  1
  C  C69  1  0.95602200  0.79439400  0.88251400  1
  C  C70  1  0.00000000  0.00000000  0.75000000  1
  C  C71  1  0.55610400  0.80267700  0.95909000  1
