# generated using pymatgen
data_CuNi2C5
_symmetry_space_group_name_H-M   'P 1'
_cell_length_a   8.06821495
_cell_length_b   8.06821495
_cell_length_c   10.96584273
_cell_angle_alpha   62.68382030
_cell_angle_beta   62.68382030
_cell_angle_gamma   51.33560947
_symmetry_Int_Tables_number   1
_chemical_formula_structural   CuNi2C5
_chemical_formula_sum   'Cu4 Ni8 C20'
_cell_volume   479.72251718
_cell_formula_units_Z   4
loop_
 _symmetry_equiv_pos_site_id
 _symmetry_equiv_pos_as_xyz
  1  'x, y, z'
loop_
 _atom_site_type_symbol
 _atom_site_label
 _atom_site_symmetry_multiplicity
 _atom_site_fract_x
 _atom_site_fract_y
 _atom_site_fract_z
 _atom_site_occupancy
  Ni  Ni0  1  0.79226900  0.31282400  0.00950400  1
  Ni  Ni1  1  0.68717600  0.20773100  0.49049600  1
  Ni  Ni2  1  0.20773100  0.68717600  0.99049600  1
  Ni  Ni3  1  0.31282400  0.79226900  0.50950400  1
  Ni  Ni4  1  0.95130600  0.74150900  0.34852600  1
  Ni  Ni5  1  0.25849100  0.04869400  0.15147400  1
  Ni  Ni6  1  0.04869400  0.25849100  0.65147400  1
  Ni  Ni7  1  0.74150900  0.95130600  0.84852600  1
  Cu  Cu8  1  0.77095900  0.58330700  0.19311500  1
  Cu  Cu9  1  0.41669300  0.22904100  0.30688500  1
  Cu  Cu10  1  0.22904100  0.41669300  0.80688500  1
  Cu  Cu11  1  0.58330700  0.77095900  0.69311500  1
  C  C12  1  0.21819300  0.39467800  0.42205400  1
  C  C13  1  0.60532200  0.78180700  0.07794600  1
  C  C14  1  0.78180700  0.60532200  0.57794600  1
  C  C15  1  0.39467800  0.21819300  0.92205400  1
  C  C16  1  0.05403600  0.35532600  0.81478100  1
  C  C17  1  0.64467400  0.94596400  0.68521900  1
  C  C18  1  0.94596400  0.64467400  0.18521900  1
  C  C19  1  0.35532600  0.05403600  0.31478100  1
  C  C20  1  0.38157400  0.45394200  0.63558500  1
  C  C21  1  0.54605800  0.61842600  0.86441500  1
  C  C22  1  0.61842600  0.54605800  0.36441500  1
  C  C23  1  0.45394200  0.38157400  0.13558500  1
  C  C24  1  0.08171500  0.65719000  0.85744800  1
  C  C25  1  0.34281000  0.91828500  0.64255200  1
  C  C26  1  0.91828500  0.34281000  0.14255200  1
  C  C27  1  0.65719000  0.08171500  0.35744800  1
  C  C28  1  0.92371100  0.09973300  0.61060600  1
  C  C29  1  0.90026700  0.07628900  0.88939400  1
  C  C30  1  0.07628900  0.90026700  0.38939400  1
  C  C31  1  0.09973300  0.92371100  0.11060600  1
