# generated using pymatgen
data_Cu3(Ni2C)4
_symmetry_space_group_name_H-M   'P 1'
_cell_length_a   9.43779100
_cell_length_b   12.84300700
_cell_length_c   13.91783300
_cell_angle_alpha   90.00000000
_cell_angle_beta   90.00000000
_cell_angle_gamma   90.00000000
_symmetry_Int_Tables_number   1
_chemical_formula_structural   Cu3(Ni2C)4
_chemical_formula_sum   'Cu12 Ni32 C16'
_cell_volume   1686.97519178
_cell_formula_units_Z   4
loop_
 _symmetry_equiv_pos_site_id
 _symmetry_equiv_pos_as_xyz
  1  'x, y, z'
loop_
 _atom_site_type_symbol
 _atom_site_label
 _atom_site_symmetry_multiplicity
 _atom_site_fract_x
 _atom_site_fract_y
 _atom_site_fract_z
 _atom_site_occupancy
  C  C0  1  0.00215500  0.87186400  0.25000000  1
  C  C1  1  0.99784500  0.37186400  0.25000000  1
  C  C2  1  0.80718300  0.08217400  0.25000000  1
  C  C3  1  0.99784500  0.12813600  0.75000000  1
  C  C4  1  0.00215500  0.62813600  0.75000000  1
  C  C5  1  0.80718300  0.41782600  0.75000000  1
  C  C6  1  0.19281700  0.91782600  0.75000000  1
  C  C7  1  0.19281700  0.58217400  0.25000000  1
  Ni  Ni8  1  0.23249300  0.83060800  0.61266800  1
  Ni  Ni9  1  0.07682500  0.69583900  0.60873600  1
  Ni  Ni10  1  0.44202500  0.74512900  0.07919700  1
  Ni  Ni11  1  0.07682500  0.80416100  0.10873600  1
  Ni  Ni12  1  0.18254200  0.92434400  0.48030900  1
  Ni  Ni13  1  0.44202500  0.75487100  0.92080300  1
  Ni  Ni14  1  0.07682500  0.69583900  0.89126400  1
  Ni  Ni15  1  0.55797500  0.25487100  0.92080300  1
  Ni  Ni16  1  0.55797500  0.25487100  0.57919700  1
  Ni  Ni17  1  0.76750700  0.16939200  0.38733200  1
  Ni  Ni18  1  0.81745800  0.42434400  0.48030900  1
  Ni  Ni19  1  0.23249300  0.66939200  0.38733200  1
  Ni  Ni20  1  0.23249300  0.66939200  0.11266800  1
  Ni  Ni21  1  0.76750700  0.33060800  0.88733200  1
  Ni  Ni22  1  0.92317500  0.19583900  0.60873600  1
  Ni  Ni23  1  0.18254200  0.57565600  0.98030900  1
  Ni  Ni24  1  0.81745800  0.07565600  0.98030900  1
  Ni  Ni25  1  0.07682500  0.80416100  0.39126400  1
  Ni  Ni26  1  0.55797500  0.24512900  0.07919700  1
  Ni  Ni27  1  0.55797500  0.24512900  0.42080300  1
  Ni  Ni28  1  0.76750700  0.33060800  0.61266800  1
  Ni  Ni29  1  0.92317500  0.30416100  0.39126400  1
  Ni  Ni30  1  0.81745800  0.07565600  0.51969100  1
  Ni  Ni31  1  0.18254200  0.57565600  0.51969100  1
  Ni  Ni32  1  0.18254200  0.92434400  0.01969100  1
  Ni  Ni33  1  0.76750700  0.16939200  0.11266800  1
  Ni  Ni34  1  0.92317500  0.19583900  0.89126400  1
  Ni  Ni35  1  0.44202500  0.75487100  0.57919700  1
  Ni  Ni36  1  0.81745800  0.42434400  0.01969100  1
  Ni  Ni37  1  0.92317500  0.30416100  0.10873600  1
  Ni  Ni38  1  0.44202500  0.74512900  0.42080300  1
  Ni  Ni39  1  0.23249300  0.83060800  0.88733200  1
  Cu  Cu40  1  0.91107800  0.75000000  0.00000000  1
  Cu  Cu41  1  0.39136000  0.58337100  0.89543900  1
  Cu  Cu42  1  0.60864000  0.41662900  0.10456100  1
  Cu  Cu43  1  0.60864000  0.08337100  0.60456100  1
  Cu  Cu44  1  0.60864000  0.08337100  0.89543900  1
  Cu  Cu45  1  0.60864000  0.41662900  0.39543900  1
  Cu  Cu46  1  0.08892200  0.25000000  0.00000000  1
  Cu  Cu47  1  0.39136000  0.58337100  0.60456100  1
  Cu  Cu48  1  0.39136000  0.91662900  0.10456100  1
  Cu  Cu49  1  0.91107800  0.75000000  0.50000000  1
  Cu  Cu50  1  0.39136000  0.91662900  0.39543900  1
  Cu  Cu51  1  0.08892200  0.25000000  0.50000000  1
  C  C52  1  0.27794200  0.38782300  0.25000000  1
  C  C53  1  0.90799000  0.93014800  0.75000000  1
  C  C54  1  0.09201000  0.43014800  0.75000000  1
  C  C55  1  0.90799000  0.56985200  0.25000000  1
  C  C56  1  0.72205800  0.88782300  0.25000000  1
  C  C57  1  0.27794200  0.11217700  0.75000000  1
  C  C58  1  0.09201000  0.06985200  0.25000000  1
  C  C59  1  0.72205800  0.61217700  0.75000000  1
