# generated using pymatgen
data_Cu6(NiC)5
_symmetry_space_group_name_H-M   'P 1'
_cell_length_a   7.52214995
_cell_length_b   7.52214995
_cell_length_c   11.87453369
_cell_angle_alpha   80.72784852
_cell_angle_beta   80.72784852
_cell_angle_gamma   89.08994103
_symmetry_Int_Tables_number   1
_chemical_formula_structural   Cu6(NiC)5
_chemical_formula_sum   'Cu12 Ni10 C10'
_cell_volume   654.41559456
_cell_formula_units_Z   2
loop_
 _symmetry_equiv_pos_site_id
 _symmetry_equiv_pos_as_xyz
  1  'x, y, z'
loop_
 _atom_site_type_symbol
 _atom_site_label
 _atom_site_symmetry_multiplicity
 _atom_site_fract_x
 _atom_site_fract_y
 _atom_site_fract_z
 _atom_site_occupancy
  C  C0  1  0.58352600  0.08103200  0.66898300  1
  C  C1  1  0.00000000  0.50000000  0.00000000  1
  C  C2  1  0.41647400  0.91896800  0.33101700  1
  C  C3  1  0.91896800  0.41647400  0.33101700  1
  C  C4  1  0.50000000  0.00000000  0.00000000  1
  C  C5  1  0.08103200  0.58352600  0.66898300  1
  C  C6  1  0.10951100  0.81920700  0.14302600  1
  C  C7  1  0.18079300  0.89048900  0.85697400  1
  C  C8  1  0.81920700  0.10951100  0.14302600  1
  C  C9  1  0.89048900  0.18079300  0.85697400  1
  Ni  Ni10  1  0.11538600  0.67426900  0.42056200  1
  Ni  Ni11  1  0.62088400  0.62088400  0.35610100  1
  Ni  Ni12  1  0.32573100  0.88461400  0.57943800  1
  Ni  Ni13  1  0.31567000  0.31567000  0.99598500  1
  Ni  Ni14  1  0.37911600  0.37911600  0.64389900  1
  Ni  Ni15  1  0.88461400  0.32573100  0.57943800  1
  Ni  Ni16  1  0.67426900  0.11538600  0.42056200  1
  Ni  Ni17  1  0.22292300  0.22292300  0.33694200  1
  Ni  Ni18  1  0.68433000  0.68433000  0.00401500  1
  Ni  Ni19  1  0.77707700  0.77707700  0.66305800  1
  Cu  Cu20  1  0.95343100  0.95343100  0.19056500  1
  Cu  Cu21  1  0.95748200  0.38999500  0.82798300  1
  Cu  Cu22  1  0.85492900  0.14507100  0.00000000  1
  Cu  Cu23  1  0.38999500  0.95748200  0.82798300  1
  Cu  Cu24  1  0.12958600  0.69539800  0.82785000  1
  Cu  Cu25  1  0.30460200  0.87041400  0.17215000  1
  Cu  Cu26  1  0.87041400  0.30460200  0.17215000  1
  Cu  Cu27  1  0.14507100  0.85492900  0.00000000  1
  Cu  Cu28  1  0.69539800  0.12958600  0.82785000  1
  Cu  Cu29  1  0.04656900  0.04656900  0.80943500  1
  Cu  Cu30  1  0.04251800  0.61000500  0.17201700  1
  Cu  Cu31  1  0.61000500  0.04251800  0.17201700  1
