# generated using pymatgen
data_Cu2Ni4C19
_symmetry_space_group_name_H-M   'P 1'
_cell_length_a   7.31108000
_cell_length_b   9.68854500
_cell_length_c   21.31115900
_cell_angle_alpha   90.00000000
_cell_angle_beta   90.00000000
_cell_angle_gamma   90.00000000
_symmetry_Int_Tables_number   1
_chemical_formula_structural   Cu2Ni4C19
_chemical_formula_sum   'Cu8 Ni16 C76'
_cell_volume   1509.54883099
_cell_formula_units_Z   4
loop_
 _symmetry_equiv_pos_site_id
 _symmetry_equiv_pos_as_xyz
  1  'x, y, z'
loop_
 _atom_site_type_symbol
 _atom_site_label
 _atom_site_symmetry_multiplicity
 _atom_site_fract_x
 _atom_site_fract_y
 _atom_site_fract_z
 _atom_site_occupancy
  C  C0  1  0.25000000  0.31076300  0.67471400  1
  C  C1  1  0.25000000  0.15153000  0.47029200  1
  C  C2  1  0.25000000  0.34847000  0.97029200  1
  C  C3  1  0.75000000  0.68923700  0.32528600  1
  C  C4  1  0.75000000  0.84847000  0.52970800  1
  C  C5  1  0.75000000  0.65153000  0.02970800  1
  C  C6  1  0.25000000  0.18923700  0.17471400  1
  C  C7  1  0.75000000  0.81076300  0.82528600  1
  Ni  Ni8  1  0.00137600  0.67095600  0.65864100  1
  Ni  Ni9  1  0.25000000  0.86801100  0.77658700  1
  Ni  Ni10  1  0.99862400  0.17095600  0.84135900  1
  Ni  Ni11  1  0.25000000  0.63198900  0.27658700  1
  Ni  Ni12  1  0.00000000  0.50000000  0.50000000  1
  Ni  Ni13  1  0.75000000  0.13198900  0.22341300  1
  Ni  Ni14  1  0.50137600  0.17095600  0.84135900  1
  Ni  Ni15  1  0.49862400  0.67095600  0.65864100  1
  Ni  Ni16  1  0.75000000  0.36801100  0.72341300  1
  Ni  Ni17  1  0.00000000  0.00000000  0.00000000  1
  Ni  Ni18  1  0.50000000  0.00000000  0.00000000  1
  Ni  Ni19  1  0.00137600  0.82904400  0.15864100  1
  Ni  Ni20  1  0.99862400  0.32904400  0.34135900  1
  Ni  Ni21  1  0.49862400  0.82904400  0.15864100  1
  Ni  Ni22  1  0.50137600  0.32904400  0.34135900  1
  Ni  Ni23  1  0.50000000  0.50000000  0.50000000  1
  Cu  Cu24  1  0.25000000  0.75322500  0.92642700  1
  Cu  Cu25  1  0.25000000  0.54887000  0.13003200  1
  Cu  Cu26  1  0.75000000  0.25322500  0.57357300  1
  Cu  Cu27  1  0.25000000  0.74677500  0.42642700  1
  Cu  Cu28  1  0.75000000  0.04887000  0.36996800  1
  Cu  Cu29  1  0.75000000  0.45113000  0.86996800  1
  Cu  Cu30  1  0.75000000  0.24677500  0.07357300  1
  Cu  Cu31  1  0.25000000  0.95113000  0.63003200  1
  C  C32  1  0.75000000  0.24021700  0.64687600  1
  C  C33  1  0.94837600  0.02024000  0.18664300  1
  C  C34  1  0.75000000  0.40388800  0.34703800  1
  C  C35  1  0.54618200  0.24861900  0.25623500  1
  C  C36  1  0.92757600  0.16507000  0.05472400  1
  C  C37  1  0.75000000  0.09611200  0.84703800  1
  C  C38  1  0.05162400  0.97976000  0.81335700  1
  C  C39  1  0.07457900  0.86224800  0.61795300  1
  C  C40  1  0.75000000  0.54759600  0.46911900  1
  C  C41  1  0.75000000  0.74980100  0.66585900  1
  C  C42  1  0.25000000  0.61207400  0.95565400  1
  C  C43  1  0.95381800  0.25138100  0.75623500  1
  C  C44  1  0.44837600  0.52024000  0.31335700  1
  C  C45  1  0.75000000  0.91832400  0.40900800  1
  C  C46  1  0.92757600  0.33493000  0.55472400  1
  C  C47  1  0.45212700  0.13098600  0.93125800  1
  C  C48  1  0.04618200  0.75138100  0.74376500  1
  C  C49  1  0.94837600  0.47976000  0.68664300  1
  C  C50  1  0.04787300  0.13098600  0.93125800  1
  C  C51  1  0.04618200  0.74861900  0.24376500  1
  C  C52  1  0.95212700  0.63098600  0.56874200  1
  C  C53  1  0.07457900  0.63775200  0.11795300  1
  C  C54  1  0.25000000  0.41832400  0.09099200  1
  C  C55  1  0.57457900  0.13775200  0.38204700  1
  C  C56  1  0.54618200  0.25138100  0.75623500  1
  C  C57  1  0.25000000  0.88792600  0.45565400  1
  C  C58  1  0.25000000  0.59611200  0.65296200  1
  C  C59  1  0.75000000  0.11207400  0.54434600  1
  C  C60  1  0.25000000  0.90388800  0.15296200  1
  C  C61  1  0.42757600  0.83493000  0.94527600  1
  C  C62  1  0.75000000  0.25978300  0.14687600  1
  C  C63  1  0.75000000  0.75019900  0.16585900  1
  C  C64  1  0.42757600  0.66507000  0.44527600  1
  C  C65  1  0.45381800  0.74861900  0.24376500  1
  C  C66  1  0.25000000  0.75978300  0.35312400  1
  C  C67  1  0.25000000  0.04759600  0.03088100  1
  C  C68  1  0.42542100  0.86224800  0.61795300  1
  C  C69  1  0.92542100  0.13775200  0.38204700  1
  C  C70  1  0.07242400  0.83493000  0.94527600  1
  C  C71  1  0.55162400  0.02024000  0.18664300  1
  C  C72  1  0.25000000  0.50170400  0.20077500  1
  C  C73  1  0.45381800  0.75138100  0.74376500  1
  C  C74  1  0.75000000  0.00170400  0.29922500  1
  C  C75  1  0.54787300  0.86901400  0.06874200  1
  C  C76  1  0.75000000  0.49829600  0.79922500  1
  C  C77  1  0.75000000  0.95240400  0.96911900  1
  C  C78  1  0.95212700  0.86901400  0.06874200  1
  C  C79  1  0.04787300  0.36901400  0.43125800  1
  C  C80  1  0.75000000  0.38792600  0.04434600  1
  C  C81  1  0.54787300  0.63098600  0.56874200  1
  C  C82  1  0.25000000  0.99829600  0.70077500  1
  C  C83  1  0.42542100  0.63775200  0.11795300  1
  C  C84  1  0.44837600  0.97976000  0.81335700  1
  C  C85  1  0.25000000  0.24980100  0.83414100  1
  C  C86  1  0.92542100  0.36224800  0.88204700  1
  C  C87  1  0.25000000  0.25019900  0.33414100  1
  C  C88  1  0.57242400  0.33493000  0.55472400  1
  C  C89  1  0.55162400  0.47976000  0.68664300  1
  C  C90  1  0.95381800  0.24861900  0.25623500  1
  C  C91  1  0.05162400  0.52024000  0.31335700  1
  C  C92  1  0.07242400  0.66507000  0.44527600  1
  C  C93  1  0.25000000  0.08167600  0.59099200  1
  C  C94  1  0.25000000  0.45240400  0.53088100  1
  C  C95  1  0.57242400  0.16507000  0.05472400  1
  C  C96  1  0.45212700  0.36901400  0.43125800  1
  C  C97  1  0.57457900  0.36224800  0.88204700  1
  C  C98  1  0.75000000  0.58167600  0.90900800  1
  C  C99  1  0.25000000  0.74021700  0.85312400  1
