# generated using pymatgen
data_Cu3NiC16
_symmetry_space_group_name_H-M   'P 1'
_cell_length_a   8.59139360
_cell_length_b   8.59139360
_cell_length_c   13.71329100
_cell_angle_alpha   90.00000000
_cell_angle_beta   90.00000000
_cell_angle_gamma   119.99999695
_symmetry_Int_Tables_number   1
_chemical_formula_structural   Cu3NiC16
_chemical_formula_sum   'Cu12 Ni4 C64'
_cell_volume   876.59617092
_cell_formula_units_Z   4
loop_
 _symmetry_equiv_pos_site_id
 _symmetry_equiv_pos_as_xyz
  1  'x, y, z'
loop_
 _atom_site_type_symbol
 _atom_site_label
 _atom_site_symmetry_multiplicity
 _atom_site_fract_x
 _atom_site_fract_y
 _atom_site_fract_z
 _atom_site_occupancy
  C  C0  1  0.00000000  0.00000000  0.25000000  1
  C  C1  1  0.00000000  0.00000000  0.00000000  1
  C  C2  1  0.00000000  0.00000000  0.75000000  1
  C  C3  1  0.00000000  0.00000000  0.50000000  1
  Ni  Ni4  1  0.33333300  0.66666700  0.85155800  1
  Ni  Ni5  1  0.66666700  0.33333300  0.14844200  1
  Ni  Ni6  1  0.33333300  0.66666700  0.64844200  1
  Ni  Ni7  1  0.66666700  0.33333300  0.35155800  1
  C  C8  1  0.69108500  0.54623000  0.54954300  1
  C  C9  1  0.30891500  0.45377000  0.45045700  1
  C  C10  1  0.14485500  0.45377000  0.04954300  1
  C  C11  1  0.63998500  0.90885300  0.10429900  1
  C  C12  1  0.36001500  0.09114700  0.89570100  1
  C  C13  1  0.54623000  0.85514500  0.45045700  1
  C  C14  1  0.14485500  0.69108500  0.45045700  1
  C  C15  1  0.28793800  0.82253400  0.17897900  1
  C  C16  1  0.17746600  0.46540300  0.17897900  1
  C  C17  1  0.73113200  0.63998500  0.89570100  1
  C  C18  1  0.17746600  0.71206200  0.32102100  1
  C  C19  1  0.46540300  0.28793800  0.82102100  1
  C  C20  1  0.09114700  0.73113200  0.10429900  1
  C  C21  1  0.90885300  0.63998500  0.60429900  1
  C  C22  1  0.73113200  0.09114700  0.60429900  1
  C  C23  1  0.26886800  0.36001500  0.10429900  1
  C  C24  1  0.45377000  0.14485500  0.54954300  1
  C  C25  1  0.71206200  0.53459700  0.67897900  1
  C  C26  1  0.36001500  0.26886800  0.60429900  1
  C  C27  1  0.53459700  0.71206200  0.17897900  1
  C  C28  1  0.69108500  0.14485500  0.95045700  1
  C  C29  1  0.76773300  0.10812700  0.36856000  1
  C  C30  1  0.65960600  0.89187300  0.86856000  1
  C  C31  1  0.53459700  0.82253400  0.32102100  1
  C  C32  1  0.34039400  0.10812700  0.13144000  1
  C  C33  1  0.34039400  0.23226700  0.36856000  1
  C  C34  1  0.89187300  0.65960600  0.36856000  1
  C  C35  1  0.26886800  0.90885300  0.39570100  1
  C  C36  1  0.09114700  0.36001500  0.39570100  1
  C  C37  1  0.10812700  0.76773300  0.86856000  1
  C  C38  1  0.23226700  0.89187300  0.63144000  1
  C  C39  1  0.89187300  0.23226700  0.13144000  1
  C  C40  1  0.85514500  0.30891500  0.54954300  1
  C  C41  1  0.46540300  0.17746600  0.67897900  1
  C  C42  1  0.82253400  0.28793800  0.67897900  1
  C  C43  1  0.30891500  0.85514500  0.04954300  1
  C  C44  1  0.76773300  0.65960600  0.13144000  1
  C  C45  1  0.85514500  0.54623000  0.95045700  1
  C  C46  1  0.23226700  0.34039400  0.86856000  1
  C  C47  1  0.65960600  0.76773300  0.63144000  1
  C  C48  1  0.45377000  0.30891500  0.95045700  1
  C  C49  1  0.28793800  0.46540300  0.32102100  1
  C  C50  1  0.10812700  0.34039400  0.63144000  1
  C  C51  1  0.82253400  0.53459700  0.82102100  1
  C  C52  1  0.63998500  0.73113200  0.39570100  1
  C  C53  1  0.54623000  0.69108500  0.04954300  1
  C  C54  1  0.71206200  0.17746600  0.82102100  1
  C  C55  1  0.90885300  0.26886800  0.89570100  1
  Cu  Cu56  1  0.38185100  0.15428800  0.61378200  1
  Cu  Cu57  1  0.77243700  0.61814900  0.61378200  1
  Cu  Cu58  1  0.22756300  0.84571200  0.11378200  1
  Cu  Cu59  1  0.15428800  0.38185100  0.11378200  1
  Cu  Cu60  1  0.61814900  0.84571200  0.38621800  1
  Cu  Cu61  1  0.15428800  0.77243700  0.38621800  1
  Cu  Cu62  1  0.22756300  0.38185100  0.38621800  1
  Cu  Cu63  1  0.38185100  0.22756300  0.88621800  1
  Cu  Cu64  1  0.77243700  0.15428800  0.88621800  1
  Cu  Cu65  1  0.84571200  0.22756300  0.61378200  1
  Cu  Cu66  1  0.84571200  0.61814900  0.88621800  1
  Cu  Cu67  1  0.61814900  0.77243700  0.11378200  1
  C  C68  1  0.20878200  0.99483800  0.62463300  1
  C  C69  1  0.79121800  0.78605600  0.12463300  1
  C  C70  1  0.00516200  0.79121800  0.87536700  1
  C  C71  1  0.99483800  0.20878200  0.12463300  1
  C  C72  1  0.78605600  0.79121800  0.62463300  1
  C  C73  1  0.78605600  0.99483800  0.87536700  1
  C  C74  1  0.21394400  0.20878200  0.37536700  1
  C  C75  1  0.21394400  0.00516200  0.12463300  1
  C  C76  1  0.00516200  0.21394400  0.62463300  1
  C  C77  1  0.20878200  0.21394400  0.87536700  1
  C  C78  1  0.79121800  0.00516200  0.37536700  1
  C  C79  1  0.99483800  0.78605600  0.37536700  1
