# generated using pymatgen
data_Cu2Ni22C15
_symmetry_space_group_name_H-M   'P 1'
_cell_length_a   12.85207772
_cell_length_b   12.85207772
_cell_length_c   12.85207803
_cell_angle_alpha   41.52013625
_cell_angle_beta   41.52013625
_cell_angle_gamma   41.52013828
_symmetry_Int_Tables_number   1
_chemical_formula_structural   Cu2Ni22C15
_chemical_formula_sum   'Cu2 Ni22 C15'
_cell_volume   842.98753624
_cell_formula_units_Z   1
loop_
 _symmetry_equiv_pos_site_id
 _symmetry_equiv_pos_as_xyz
  1  'x, y, z'
loop_
 _atom_site_type_symbol
 _atom_site_label
 _atom_site_symmetry_multiplicity
 _atom_site_fract_x
 _atom_site_fract_y
 _atom_site_fract_z
 _atom_site_occupancy
  C  C0  1  0.48837500  0.91273000  0.26355800  1
  C  C1  1  0.26355800  0.48837500  0.91273000  1
  C  C2  1  0.73644200  0.51162500  0.08727000  1
  C  C3  1  0.51162500  0.08727000  0.73644200  1
  C  C4  1  0.91273000  0.26355800  0.48837500  1
  C  C5  1  0.08727000  0.73644200  0.51162500  1
  C  C6  1  0.85033600  0.71144400  0.43828500  1
  C  C7  1  0.28855600  0.56171500  0.14966400  1
  C  C8  1  0.14966400  0.28855600  0.56171500  1
  C  C9  1  0.43828500  0.85033600  0.71144400  1
  C  C10  1  0.15387200  0.15387200  0.15387200  1
  C  C11  1  0.00000000  0.00000000  0.00000000  1
  C  C12  1  0.71144400  0.43828500  0.85033600  1
  C  C13  1  0.84612800  0.84612800  0.84612800  1
  C  C14  1  0.56171500  0.14966400  0.28855600  1
  Ni  Ni15  1  0.53013000  0.53013000  0.53013000  1
  Ni  Ni16  1  0.80237600  0.23175200  0.08122400  1
  Ni  Ni17  1  0.15187200  0.35312100  0.89929600  1
  Ni  Ni18  1  0.94832700  0.51694400  0.65798200  1
  Ni  Ni19  1  0.08122400  0.80237600  0.23175200  1
  Ni  Ni20  1  0.37585600  0.37585600  0.37585600  1
  Ni  Ni21  1  0.64687900  0.10070400  0.84812800  1
  Ni  Ni22  1  0.48305600  0.34201800  0.05167300  1
  Ni  Ni23  1  0.51694400  0.65798200  0.94832700  1
  Ni  Ni24  1  0.84812800  0.64687900  0.10070400  1
  Ni  Ni25  1  0.89929600  0.15187200  0.35312100  1
  Ni  Ni26  1  0.46987000  0.46987000  0.46987000  1
  Ni  Ni27  1  0.65798200  0.94832700  0.51694400  1
  Ni  Ni28  1  0.19762400  0.76824800  0.91877600  1
  Ni  Ni29  1  0.05167300  0.48305600  0.34201800  1
  Ni  Ni30  1  0.35312100  0.89929600  0.15187200  1
  Ni  Ni31  1  0.23175200  0.08122400  0.80237600  1
  Ni  Ni32  1  0.34201800  0.05167300  0.48305600  1
  Ni  Ni33  1  0.10070400  0.84812800  0.64687900  1
  Ni  Ni34  1  0.62414400  0.62414400  0.62414400  1
  Ni  Ni35  1  0.91877600  0.19762400  0.76824800  1
  Ni  Ni36  1  0.76824800  0.91877600  0.19762400  1
  Cu  Cu37  1  0.20316300  0.20316300  0.20316300  1
  Cu  Cu38  1  0.79683700  0.79683700  0.79683700  1
