# generated using pymatgen
data_CuNi4C3
_symmetry_space_group_name_H-M   'P 1'
_cell_length_a   12.29337400
_cell_length_b   12.29337400
_cell_length_c   11.62368400
_cell_angle_alpha   90.00000000
_cell_angle_beta   90.00000000
_cell_angle_gamma   90.00000000
_symmetry_Int_Tables_number   1
_chemical_formula_structural   CuNi4C3
_chemical_formula_sum   'Cu12 Ni48 C36'
_cell_volume   1756.65300684
_cell_formula_units_Z   12
loop_
 _symmetry_equiv_pos_site_id
 _symmetry_equiv_pos_as_xyz
  1  'x, y, z'
loop_
 _atom_site_type_symbol
 _atom_site_label
 _atom_site_symmetry_multiplicity
 _atom_site_fract_x
 _atom_site_fract_y
 _atom_site_fract_z
 _atom_site_occupancy
  C  C0  1  0.14788500  0.32887600  0.60507300  1
  C  C1  1  0.17112400  0.35211500  0.10507300  1
  C  C2  1  0.35211500  0.82887600  0.89492700  1
  C  C3  1  0.00000000  0.50000000  0.35127200  1
  C  C4  1  0.67112400  0.14788500  0.39492700  1
  C  C5  1  0.17112400  0.64788500  0.60507300  1
  C  C6  1  0.64788500  0.17112400  0.89492700  1
  C  C7  1  0.00000000  0.50000000  0.85127200  1
  C  C8  1  0.50000000  0.00000000  0.64872800  1
  C  C9  1  0.64788500  0.82887600  0.39492700  1
  C  C10  1  0.67112400  0.85211500  0.89492700  1
  C  C11  1  0.35211500  0.17112400  0.39492700  1
  C  C12  1  0.82887600  0.35211500  0.60507300  1
  C  C13  1  0.82887600  0.64788500  0.10507300  1
  C  C14  1  0.32887600  0.14788500  0.89492700  1
  C  C15  1  0.85211500  0.67112400  0.60507300  1
  C  C16  1  0.85211500  0.32887600  0.10507300  1
  C  C17  1  0.14788500  0.67112400  0.10507300  1
  C  C18  1  0.50000000  0.00000000  0.14872800  1
  C  C19  1  0.32887600  0.85211500  0.39492700  1
  C  C20  1  0.79925500  0.98614000  0.12926000  1
  C  C21  1  0.01386000  0.79925500  0.87074000  1
  C  C22  1  0.20074500  0.01386000  0.12926000  1
  C  C23  1  0.98614000  0.79925500  0.37074000  1
  C  C24  1  0.79925500  0.01386000  0.62926000  1
  C  C25  1  0.01386000  0.20074500  0.37074000  1
  C  C26  1  0.20074500  0.98614000  0.62926000  1
  C  C27  1  0.29925500  0.48614000  0.87074000  1
  C  C28  1  0.29925500  0.51386000  0.37074000  1
  C  C29  1  0.51386000  0.29925500  0.12926000  1
  C  C30  1  0.98614000  0.20074500  0.87074000  1
  C  C31  1  0.48614000  0.29925500  0.62926000  1
  C  C32  1  0.48614000  0.70074500  0.12926000  1
  C  C33  1  0.70074500  0.51386000  0.87074000  1
  C  C34  1  0.51386000  0.70074500  0.62926000  1
  C  C35  1  0.70074500  0.48614000  0.37074000  1
  Ni  Ni36  1  0.47356100  0.80872900  0.25707400  1
  Ni  Ni37  1  0.80872900  0.52643900  0.74292600  1
  Ni  Ni38  1  0.47907800  0.17345300  0.02611200  1
  Ni  Ni39  1  0.69127100  0.02643900  0.75707400  1
  Ni  Ni40  1  0.80043200  0.83778400  0.06300800  1
  Ni  Ni41  1  0.19127100  0.47356100  0.74292600  1
  Ni  Ni42  1  0.33778400  0.69956800  0.06300800  1
  Ni  Ni43  1  0.19127100  0.52643900  0.24292600  1
  Ni  Ni44  1  0.30872900  0.97356100  0.75707400  1
  Ni  Ni45  1  0.17345300  0.47907800  0.47388800  1
  Ni  Ni46  1  0.02643900  0.69127100  0.74292600  1
  Ni  Ni47  1  0.32654700  0.02092200  0.52611200  1
  Ni  Ni48  1  0.33778400  0.30043200  0.56300800  1
  Ni  Ni49  1  0.80043200  0.16221600  0.56300800  1
  Ni  Ni50  1  0.66221600  0.30043200  0.06300800  1
  Ni  Ni51  1  0.19956800  0.16221600  0.06300800  1
  Ni  Ni52  1  0.02092200  0.32654700  0.97388800  1
  Ni  Ni53  1  0.19956800  0.83778400  0.56300800  1
  Ni  Ni54  1  0.52092200  0.17345300  0.52611200  1
  Ni  Ni55  1  0.67345300  0.97907800  0.52611200  1
  Ni  Ni56  1  0.97356100  0.69127100  0.24292600  1
  Ni  Ni57  1  0.17345300  0.52092200  0.97388800  1
  Ni  Ni58  1  0.66221600  0.69956800  0.56300800  1
  Ni  Ni59  1  0.30043200  0.33778400  0.93699200  1
  Ni  Ni60  1  0.97356100  0.30872900  0.74292600  1
  Ni  Ni61  1  0.97907800  0.32654700  0.47388800  1
  Ni  Ni62  1  0.30043200  0.66221600  0.43699200  1
  Ni  Ni63  1  0.82654700  0.52092200  0.47388800  1
  Ni  Ni64  1  0.52643900  0.80872900  0.75707400  1
  Ni  Ni65  1  0.47907800  0.82654700  0.52611200  1
  Ni  Ni66  1  0.97907800  0.67345300  0.97388800  1
  Ni  Ni67  1  0.69956800  0.66221600  0.93699200  1
  Ni  Ni68  1  0.02643900  0.30872900  0.24292600  1
  Ni  Ni69  1  0.69127100  0.97356100  0.25707400  1
  Ni  Ni70  1  0.83778400  0.80043200  0.43699200  1
  Ni  Ni71  1  0.47356100  0.19127100  0.75707400  1
  Ni  Ni72  1  0.80872900  0.47356100  0.24292600  1
  Ni  Ni73  1  0.67345300  0.02092200  0.02611200  1
  Ni  Ni74  1  0.82654700  0.47907800  0.97388800  1
  Ni  Ni75  1  0.30872900  0.02643900  0.25707400  1
  Ni  Ni76  1  0.52643900  0.19127100  0.25707400  1
  Ni  Ni77  1  0.16221600  0.19956800  0.43699200  1
  Ni  Ni78  1  0.32654700  0.97907800  0.02611200  1
  Ni  Ni79  1  0.52092200  0.82654700  0.02611200  1
  Ni  Ni80  1  0.16221600  0.80043200  0.93699200  1
  Ni  Ni81  1  0.02092200  0.67345300  0.47388800  1
  Ni  Ni82  1  0.69956800  0.33778400  0.43699200  1
  Ni  Ni83  1  0.83778400  0.19956800  0.93699200  1
  Cu  Cu84  1  0.50000000  0.00000000  0.36950100  1
  Cu  Cu85  1  0.80518600  0.80518600  0.75000000  1
  Cu  Cu86  1  0.30518600  0.69481400  0.75000000  1
  Cu  Cu87  1  0.50000000  0.00000000  0.86950100  1
  Cu  Cu88  1  0.00000000  0.50000000  0.13049900  1
  Cu  Cu89  1  0.30518600  0.30518600  0.25000000  1
  Cu  Cu90  1  0.80518600  0.19481400  0.25000000  1
  Cu  Cu91  1  0.69481400  0.69481400  0.25000000  1
  Cu  Cu92  1  0.69481400  0.30518600  0.75000000  1
  Cu  Cu93  1  0.00000000  0.50000000  0.63049900  1
  Cu  Cu94  1  0.19481400  0.80518600  0.25000000  1
  Cu  Cu95  1  0.19481400  0.19481400  0.75000000  1
