# generated using pymatgen
data_Cu3(NiC10)2
_symmetry_space_group_name_H-M   'P 1'
_cell_length_a   7.01874400
_cell_length_b   8.21041304
_cell_length_c   9.23483414
_cell_angle_alpha   114.00803516
_cell_angle_beta   83.48742916
_cell_angle_gamma   107.45676249
_symmetry_Int_Tables_number   1
_chemical_formula_structural   Cu3(NiC10)2
_chemical_formula_sum   'Cu6 Ni4 C40'
_cell_volume   463.72225377
_cell_formula_units_Z   2
loop_
 _symmetry_equiv_pos_site_id
 _symmetry_equiv_pos_as_xyz
  1  'x, y, z'
loop_
 _atom_site_type_symbol
 _atom_site_label
 _atom_site_symmetry_multiplicity
 _atom_site_fract_x
 _atom_site_fract_y
 _atom_site_fract_z
 _atom_site_occupancy
  C  C0  1  0.31658300  0.49118200  0.63210200  1
  C  C1  1  0.68341700  0.50881800  0.36789800  1
  C  C2  1  0.30352600  0.03549300  0.41763100  1
  C  C3  1  0.75569500  0.98795100  0.85158400  1
  C  C4  1  0.56246500  0.82795100  0.05316200  1
  C  C5  1  0.71133400  0.45617800  0.98782100  1
  C  C6  1  0.43753500  0.17204900  0.94683800  1
  C  C7  1  0.96397800  0.18754300  0.86720000  1
  C  C8  1  0.90286000  0.16957400  0.61635500  1
  C  C9  1  0.26489700  0.31058600  0.33369500  1
  C  C10  1  0.89982800  0.45312300  0.83790000  1
  C  C11  1  0.61317300  0.83835300  0.24372900  1
  C  C12  1  0.43293000  0.96427200  0.77219800  1
  C  C13  1  0.77434600  0.20507900  0.01772300  1
  C  C14  1  0.69647400  0.96450700  0.58236900  1
  C  C15  1  0.24430500  0.01204900  0.14841600  1
  C  C16  1  0.09714000  0.83042600  0.38364500  1
  C  C17  1  0.04208400  0.33579700  0.38535500  1
  C  C18  1  0.38682700  0.16164700  0.75627100  1
  C  C19  1  0.66213200  0.16504300  0.56371700  1
  C  C20  1  0.73510300  0.68941400  0.66630500  1
  C  C21  1  0.03602200  0.81245700  0.13280000  1
  C  C22  1  0.10017200  0.54687700  0.16210000  1
  C  C23  1  0.35043100  0.56190900  0.20352000  1
  C  C24  1  0.64956900  0.43809100  0.79648000  1
  C  C25  1  0.22565400  0.79492100  0.98227700  1
  C  C26  1  0.33786800  0.83495700  0.43628300  1
  C  C27  1  0.28866600  0.54382200  0.01217900  1
  C  C28  1  0.56707000  0.03572800  0.22780200  1
  C  C29  1  0.95791600  0.66420300  0.61464500  1
  C  C30  1  0.74105800  0.40126800  0.86029700  1
  C  C31  1  0.25884100  0.88362100  0.37333000  1
  C  C32  1  0.53067800  0.88385300  0.18032700  1
  C  C33  1  0.74115900  0.11637900  0.62667000  1
  C  C34  1  0.46932200  0.11614700  0.81967300  1
  C  C35  1  0.25894200  0.59873200  0.13970300  1
  C  C36  1  0.19490700  0.86067300  0.10873500  1
  C  C37  1  0.80509300  0.13932700  0.89126500  1
  C  C38  1  0.31101900  0.80689500  0.20064500  1
  C  C39  1  0.68898100  0.19310500  0.79935500  1
  Ni  Ni40  1  0.16222300  0.31598200  0.41850000  1
  Ni  Ni41  1  0.83777700  0.68401800  0.58150000  1
  Ni  Ni42  1  0.78775700  0.63218000  0.26171700  1
  Ni  Ni43  1  0.21224300  0.36782000  0.73828300  1
  Cu  Cu44  1  0.84847100  0.34197900  0.31888700  1
  Cu  Cu45  1  0.52669300  0.36734000  0.52517900  1
  Cu  Cu46  1  0.52761600  0.68726800  0.77754400  1
  Cu  Cu47  1  0.15152900  0.65802100  0.68111300  1
  Cu  Cu48  1  0.47238400  0.31273200  0.22245600  1
  Cu  Cu49  1  0.47330700  0.63266000  0.47482100  1
