# generated using pymatgen
data_Cu4Ni2C5
_symmetry_space_group_name_H-M   'P 1'
_cell_length_a   17.28414793
_cell_length_b   17.28414793
_cell_length_c   17.28414793
_cell_angle_alpha   166.47842091
_cell_angle_beta   166.47842091
_cell_angle_gamma   19.16730846
_symmetry_Int_Tables_number   1
_chemical_formula_structural   Cu4Ni2C5
_chemical_formula_sum   'Cu4 Ni2 C5'
_cell_volume   282.24939358
_cell_formula_units_Z   1
loop_
 _symmetry_equiv_pos_site_id
 _symmetry_equiv_pos_as_xyz
  1  'x, y, z'
loop_
 _atom_site_type_symbol
 _atom_site_label
 _atom_site_symmetry_multiplicity
 _atom_site_fract_x
 _atom_site_fract_y
 _atom_site_fract_z
 _atom_site_occupancy
  C  C0  1  0.50000000  0.50000000  0.00000000  1
  C  C1  1  0.08216400  0.08216400  0.00000000  1
  C  C2  1  0.91783600  0.91783600  0.00000000  1
  C  C3  1  0.77589400  0.77589400  0.00000000  1
  C  C4  1  0.22410600  0.22410600  0.00000000  1
  Ni  Ni5  1  0.33493200  0.33493200  0.00000000  1
  Ni  Ni6  1  0.66506800  0.66506800  0.00000000  1
  Cu  Cu7  1  0.94528900  0.44528900  0.50000000  1
  Cu  Cu8  1  0.44528900  0.94528900  0.50000000  1
  Cu  Cu9  1  0.55471100  0.05471100  0.50000000  1
  Cu  Cu10  1  0.05471100  0.55471100  0.50000000  1
