# generated using pymatgen
data_Cu4NiC4
_symmetry_space_group_name_H-M   'P 1'
_cell_length_a   18.29661354
_cell_length_b   18.29661354
_cell_length_c   13.49375600
_cell_angle_alpha   90.00000000
_cell_angle_beta   90.00000000
_cell_angle_gamma   119.99999835
_symmetry_Int_Tables_number   1
_chemical_formula_structural   Cu4NiC4
_chemical_formula_sum   'Cu48 Ni12 C48'
_cell_volume   3912.05472960
_cell_formula_units_Z   12
loop_
 _symmetry_equiv_pos_site_id
 _symmetry_equiv_pos_as_xyz
  1  'x, y, z'
loop_
 _atom_site_type_symbol
 _atom_site_label
 _atom_site_symmetry_multiplicity
 _atom_site_fract_x
 _atom_site_fract_y
 _atom_site_fract_z
 _atom_site_occupancy
  Ni  Ni0  1  0.66666700  0.33333300  0.73217400  1
  Ni  Ni1  1  0.33333300  0.66666700  0.23217400  1
  Ni  Ni2  1  0.66666700  0.33333300  0.19929900  1
  Ni  Ni3  1  0.63946500  0.69471700  0.00764200  1
  Ni  Ni4  1  0.36053500  0.30528300  0.50764200  1
  Ni  Ni5  1  0.30528300  0.94474800  0.00764200  1
  Ni  Ni6  1  0.00000000  0.00000000  0.29142100  1
  Ni  Ni7  1  0.00000000  0.00000000  0.79142100  1
  Ni  Ni8  1  0.94474800  0.63946500  0.50764200  1
  Ni  Ni9  1  0.33333300  0.66666700  0.69929900  1
  Ni  Ni10  1  0.69471700  0.05525200  0.50764200  1
  Ni  Ni11  1  0.05525200  0.36053500  0.00764200  1
  Cu  Cu12  1  0.62601700  0.76911100  0.64939800  1
  Cu  Cu13  1  0.63217700  0.77737700  0.42078100  1
  Cu  Cu14  1  0.95667800  0.53897600  0.91012400  1
  Cu  Cu15  1  0.85480000  0.63217700  0.92078100  1
  Cu  Cu16  1  0.76911100  0.14309400  0.14939800  1
  Cu  Cu17  1  0.46102400  0.41770200  0.91012400  1
  Cu  Cu18  1  0.36782300  0.22262300  0.92078100  1
  Cu  Cu19  1  0.33606800  0.46103800  0.02603600  1
  Cu  Cu20  1  0.26425500  0.31524300  0.87215400  1
  Cu  Cu21  1  0.23088900  0.85690600  0.64939800  1
  Cu  Cu22  1  0.27275700  0.32705200  0.19218500  1
  Cu  Cu23  1  0.95808700  0.53206500  0.13997900  1
  Cu  Cu24  1  0.22262300  0.85480000  0.42078100  1
  Cu  Cu25  1  0.12497000  0.66393200  0.02603600  1
  Cu  Cu26  1  0.53896200  0.87503000  0.02603600  1
  Cu  Cu27  1  0.01970300  0.20138600  0.53906600  1
  Cu  Cu28  1  0.14309400  0.37398300  0.64939800  1
  Cu  Cu29  1  0.42602100  0.95808700  0.63997900  1
  Cu  Cu30  1  0.53897600  0.58229800  0.41012400  1
  Cu  Cu31  1  0.05429500  0.72724300  0.19218500  1
  Cu  Cu32  1  0.72724300  0.67294800  0.69218500  1
  Cu  Cu33  1  0.68475700  0.94901100  0.87215400  1
  Cu  Cu34  1  0.58229800  0.04332200  0.91012400  1
  Cu  Cu35  1  0.31524300  0.05098900  0.37215400  1
  Cu  Cu36  1  0.94901100  0.26425500  0.37215400  1
  Cu  Cu37  1  0.81831700  0.01970300  0.03906600  1
  Cu  Cu38  1  0.98029700  0.79861400  0.03906600  1
  Cu  Cu39  1  0.67294800  0.94570500  0.19218500  1
  Cu  Cu40  1  0.04191300  0.46793500  0.63997900  1
  Cu  Cu41  1  0.85690600  0.62601700  0.14939800  1
  Cu  Cu42  1  0.14520000  0.36782300  0.42078100  1
  Cu  Cu43  1  0.57397900  0.04191300  0.13997900  1
  Cu  Cu44  1  0.46103800  0.12497000  0.52603600  1
  Cu  Cu45  1  0.05098900  0.73574500  0.87215400  1
  Cu  Cu46  1  0.87503000  0.33606800  0.52603600  1
  Cu  Cu47  1  0.41770200  0.95667800  0.41012400  1
  Cu  Cu48  1  0.77737700  0.14520000  0.92078100  1
  Cu  Cu49  1  0.46793500  0.42602100  0.13997900  1
  Cu  Cu50  1  0.04332200  0.46102400  0.41012400  1
  Cu  Cu51  1  0.20138600  0.18168300  0.03906600  1
  Cu  Cu52  1  0.94570500  0.27275700  0.69218500  1
  Cu  Cu53  1  0.53206500  0.57397900  0.63997900  1
  Cu  Cu54  1  0.37398300  0.23088900  0.14939800  1
  Cu  Cu55  1  0.79861400  0.81831700  0.53906600  1
  Cu  Cu56  1  0.66393200  0.53896200  0.52603600  1
  Cu  Cu57  1  0.73574500  0.68475700  0.37215400  1
  Cu  Cu58  1  0.32705200  0.05429500  0.69218500  1
  Cu  Cu59  1  0.18168300  0.98029700  0.53906600  1
  C  C60  1  0.86843000  0.54371500  0.39623900  1
  C  C61  1  0.07261500  0.65330000  0.51643100  1
  C  C62  1  0.78394400  0.33900100  0.25381100  1
  C  C63  1  0.54371500  0.67528400  0.89623900  1
  C  C64  1  0.66099900  0.44494300  0.25381100  1
  C  C65  1  0.55593800  0.21555300  0.78615300  1
  C  C66  1  0.76310700  0.80063800  0.96565200  1
  C  C67  1  0.78444700  0.34038500  0.78615300  1
  C  C68  1  0.19936200  0.96247000  0.96565200  1
  C  C69  1  0.45628500  0.32471600  0.39623900  1
  C  C70  1  0.11684800  0.40531300  0.15262900  1
  C  C71  1  0.33333300  0.66666700  0.06903800  1
  C  C72  1  0.92738500  0.34670000  0.01643100  1
  C  C73  1  0.65961500  0.44406200  0.78615300  1
  C  C74  1  0.32471600  0.86843000  0.89623900  1
  C  C75  1  0.67528400  0.13157000  0.39623900  1
  C  C76  1  0.03753000  0.23689300  0.96565200  1
  C  C77  1  0.21605600  0.66099900  0.75381100  1
  C  C78  1  0.23689300  0.19936200  0.46565200  1
  C  C79  1  0.41931500  0.07261500  0.01643100  1
  C  C80  1  0.33900100  0.55505700  0.75381100  1
  C  C81  1  0.44406200  0.78444700  0.28615300  1
  C  C82  1  0.12319600  0.10143200  0.73734300  1
  C  C83  1  0.13157000  0.45628500  0.89623900  1
  C  C84  1  0.58068500  0.92738500  0.51643100  1
  C  C85  1  0.55505700  0.21605600  0.25381100  1
  C  C86  1  0.65330000  0.58068500  0.01643100  1
  C  C87  1  0.87680400  0.89856800  0.23734300  1
  C  C88  1  0.97823600  0.87680400  0.73734300  1
  C  C89  1  0.71153500  0.11684800  0.65262900  1
  C  C90  1  0.33333300  0.66666700  0.53793900  1
  C  C91  1  0.80063800  0.03753000  0.46565200  1
  C  C92  1  0.00000000  0.00000000  0.95558100  1
  C  C93  1  0.44494300  0.78394400  0.75381100  1
  C  C94  1  0.00000000  0.00000000  0.45558100  1
  C  C95  1  0.89856800  0.02176400  0.73734300  1
  C  C96  1  0.40531300  0.28846500  0.65262900  1
  C  C97  1  0.34670000  0.41931500  0.51643100  1
  C  C98  1  0.28846500  0.88315200  0.15262900  1
  C  C99  1  0.66666700  0.33333300  0.03793900  1
  C  C100  1  0.02176400  0.12319600  0.23734300  1
  C  C101  1  0.66666700  0.33333300  0.56903800  1
  C  C102  1  0.59468700  0.71153500  0.15262900  1
  C  C103  1  0.96247000  0.76310700  0.46565200  1
  C  C104  1  0.21555300  0.65961500  0.28615300  1
  C  C105  1  0.88315200  0.59468700  0.65262900  1
  C  C106  1  0.34038500  0.55593800  0.28615300  1
  C  C107  1  0.10143200  0.97823600  0.23734300  1
