# generated using pymatgen
data_Cu10Ni5C14
_symmetry_space_group_name_H-M   'P 1'
_cell_length_a   9.91926632
_cell_length_b   9.91926632
_cell_length_c   13.56403919
_cell_angle_alpha   77.82278943
_cell_angle_beta   77.82278943
_cell_angle_gamma   111.74877044
_symmetry_Int_Tables_number   1
_chemical_formula_structural   Cu10Ni5C14
_chemical_formula_sum   'Cu40 Ni20 C56'
_cell_volume   1148.63276676
_cell_formula_units_Z   4
loop_
 _symmetry_equiv_pos_site_id
 _symmetry_equiv_pos_as_xyz
  1  'x, y, z'
loop_
 _atom_site_type_symbol
 _atom_site_label
 _atom_site_symmetry_multiplicity
 _atom_site_fract_x
 _atom_site_fract_y
 _atom_site_fract_z
 _atom_site_occupancy
  C  C0  1  0.84456700  0.15543300  0.75000000  1
  C  C1  1  0.15543300  0.84456700  0.25000000  1
  C  C2  1  0.37606200  0.62393800  0.75000000  1
  C  C3  1  0.62393800  0.37606200  0.25000000  1
  Ni  Ni4  1  0.83062600  0.66285600  0.82202200  1
  Ni  Ni5  1  0.33714400  0.16937400  0.67797800  1
  Ni  Ni6  1  0.16937400  0.33714400  0.17797800  1
  Ni  Ni7  1  0.66285600  0.83062600  0.32202200  1
  Ni  Ni8  1  0.97972700  0.66521000  0.95081100  1
  Ni  Ni9  1  0.33479000  0.02027300  0.54918900  1
  Ni  Ni10  1  0.02027300  0.33479000  0.04918900  1
  Ni  Ni11  1  0.66521000  0.97972700  0.45081100  1
  Ni  Ni12  1  0.70611400  0.56621800  0.01918300  1
  Ni  Ni13  1  0.43378200  0.29388600  0.48081700  1
  Ni  Ni14  1  0.29388600  0.43378200  0.98081700  1
  Ni  Ni15  1  0.56621800  0.70611400  0.51918300  1
  Ni  Ni16  1  0.86545400  0.63774900  0.64027300  1
  Ni  Ni17  1  0.36225100  0.13454600  0.85972700  1
  Ni  Ni18  1  0.13454600  0.36225100  0.35972700  1
  Ni  Ni19  1  0.63774900  0.86545400  0.14027300  1
  Ni  Ni20  1  0.89101800  0.87989900  0.66346400  1
  Ni  Ni21  1  0.12010100  0.10898200  0.83653600  1
  Ni  Ni22  1  0.10898200  0.12010100  0.33653600  1
  Ni  Ni23  1  0.87989900  0.89101800  0.16346400  1
  Cu  Cu24  1  0.20904800  0.74933300  0.90705800  1
  Cu  Cu25  1  0.25066700  0.79095200  0.59294200  1
  Cu  Cu26  1  0.79095200  0.25066700  0.09294200  1
  Cu  Cu27  1  0.74933300  0.20904800  0.40705800  1
  Cu  Cu28  1  0.47824500  0.47423600  0.09608400  1
  Cu  Cu29  1  0.52576400  0.52175500  0.40391600  1
  Cu  Cu30  1  0.52175500  0.52576400  0.90391600  1
  Cu  Cu31  1  0.47423600  0.47824500  0.59608400  1
  Cu  Cu32  1  0.81565800  0.44151800  0.59975800  1
  Cu  Cu33  1  0.55848200  0.18434200  0.90024200  1
  Cu  Cu34  1  0.18434200  0.55848200  0.40024200  1
  Cu  Cu35  1  0.44151800  0.81565800  0.09975800  1
  Cu  Cu36  1  0.95878600  0.07936800  0.54666600  1
  Cu  Cu37  1  0.92063200  0.04121400  0.95333400  1
  Cu  Cu38  1  0.04121400  0.92063200  0.45333400  1
  Cu  Cu39  1  0.07936800  0.95878600  0.04666600  1
  Cu  Cu40  1  0.77624100  0.38423300  0.82226500  1
  Cu  Cu41  1  0.61576700  0.22375900  0.67773500  1
  Cu  Cu42  1  0.22375900  0.61576700  0.17773500  1
  Cu  Cu43  1  0.38423300  0.77624100  0.32226500  1
  Cu  Cu44  1  0.80107400  0.28552400  0.91921200  1
  Cu  Cu45  1  0.71447600  0.19892600  0.58078800  1
  Cu  Cu46  1  0.19892600  0.71447600  0.08078800  1
  Cu  Cu47  1  0.28552400  0.80107400  0.41921200  1
  Cu  Cu48  1  0.10123000  0.39373400  0.56480600  1
  Cu  Cu49  1  0.60626600  0.89877000  0.93519400  1
  Cu  Cu50  1  0.89877000  0.60626600  0.43519400  1
  Cu  Cu51  1  0.39373400  0.10123000  0.06480600  1
  Cu  Cu52  1  0.13926600  0.30998100  0.66125500  1
  Cu  Cu53  1  0.69001900  0.86073400  0.83874500  1
  Cu  Cu54  1  0.86073400  0.69001900  0.33874500  1
  Cu  Cu55  1  0.30998100  0.13926600  0.16125500  1
  Cu  Cu56  1  0.09314500  0.63511100  0.75058100  1
  Cu  Cu57  1  0.36488900  0.90685500  0.74941900  1
  Cu  Cu58  1  0.90685500  0.36488900  0.24941900  1
  Cu  Cu59  1  0.63511100  0.09314500  0.25058100  1
  Cu  Cu60  1  0.12658100  0.53215300  0.67773500  1
  Cu  Cu61  1  0.46784700  0.87341900  0.82226500  1
  Cu  Cu62  1  0.87341900  0.46784700  0.32226500  1
  Cu  Cu63  1  0.53215300  0.12658100  0.17773500  1
  C  C64  1  0.11579200  0.70145300  0.97220600  1
  C  C65  1  0.29854700  0.88420800  0.52779400  1
  C  C66  1  0.88420800  0.29854700  0.02779400  1
  C  C67  1  0.70145300  0.11579200  0.47220600  1
  C  C68  1  0.84679400  0.61015900  0.03687900  1
  C  C69  1  0.38984100  0.15320600  0.46312100  1
  C  C70  1  0.15320600  0.38984100  0.96312100  1
  C  C71  1  0.61015900  0.84679400  0.53687900  1
  C  C72  1  0.58007400  0.50347200  0.10818600  1
  C  C73  1  0.49652800  0.41992600  0.39181400  1
  C  C74  1  0.41992600  0.49652800  0.89181400  1
  C  C75  1  0.50347200  0.58007400  0.60818600  1
  C  C76  1  0.97247200  0.68224900  0.84915700  1
  C  C77  1  0.31775100  0.02752800  0.65084300  1
  C  C78  1  0.02752800  0.31775100  0.15084300  1
  C  C79  1  0.68224900  0.97247200  0.34915700  1
  C  C80  1  0.69446100  0.58239500  0.91875100  1
  C  C81  1  0.41760500  0.30553900  0.58124900  1
  C  C82  1  0.30553900  0.41760500  0.08124900  1
  C  C83  1  0.58239500  0.69446100  0.41875100  1
  C  C84  1  0.81623000  0.57059600  0.74836600  1
  C  C85  1  0.42940400  0.18377000  0.75163400  1
  C  C86  1  0.18377000  0.42940400  0.25163400  1
  C  C87  1  0.57059600  0.81623000  0.24836600  1
  C  C88  1  0.83545200  0.81226800  0.77127100  1
  C  C89  1  0.18773200  0.16454800  0.72872900  1
  C  C90  1  0.16454800  0.18773200  0.22872900  1
  C  C91  1  0.81226800  0.83545200  0.27127100  1
  C  C92  1  0.86537600  0.55672100  0.57031600  1
  C  C93  1  0.44327900  0.13462400  0.92968400  1
  C  C94  1  0.13462400  0.44327900  0.42968400  1
  C  C95  1  0.55672100  0.86537600  0.07031600  1
  C  C96  1  0.91917100  0.79728800  0.59584900  1
  C  C97  1  0.20271200  0.08082900  0.90415100  1
  C  C98  1  0.08082900  0.20271200  0.40415100  1
  C  C99  1  0.79728800  0.91917100  0.09584900  1
  C  C100  1  0.91430100  0.02845900  0.62410500  1
  C  C101  1  0.97154100  0.08569900  0.87589500  1
  C  C102  1  0.08569900  0.97154100  0.37589500  1
  C  C103  1  0.02845900  0.91430100  0.12410500  1
  C  C104  1  0.75027700  0.27756400  0.86372200  1
  C  C105  1  0.72243600  0.24972300  0.63627800  1
  C  C106  1  0.24972300  0.72243600  0.13627800  1
  C  C107  1  0.27756400  0.75027700  0.36372200  1
  C  C108  1  0.08463800  0.37236300  0.64257200  1
  C  C109  1  0.62763700  0.91536200  0.85742800  1
  C  C110  1  0.91536200  0.62763700  0.35742800  1
  C  C111  1  0.37236300  0.08463800  0.14257200  1
  C  C112  1  0.17157100  0.63003000  0.69466200  1
  C  C113  1  0.36997000  0.82842900  0.80533800  1
  C  C114  1  0.82842900  0.36997000  0.30533800  1
  C  C115  1  0.63003000  0.17157100  0.19466200  1
