# generated using pymatgen
data_Cu8Ni2C5
_symmetry_space_group_name_H-M   'P 1'
_cell_length_a   6.91513000
_cell_length_b   9.14062700
_cell_length_c   12.32341800
_cell_angle_alpha   90.00000000
_cell_angle_beta   90.00000000
_cell_angle_gamma   90.00000000
_symmetry_Int_Tables_number   1
_chemical_formula_structural   Cu8Ni2C5
_chemical_formula_sum   'Cu32 Ni8 C20'
_cell_volume   778.94629459
_cell_formula_units_Z   4
loop_
 _symmetry_equiv_pos_site_id
 _symmetry_equiv_pos_as_xyz
  1  'x, y, z'
loop_
 _atom_site_type_symbol
 _atom_site_label
 _atom_site_symmetry_multiplicity
 _atom_site_fract_x
 _atom_site_fract_y
 _atom_site_fract_z
 _atom_site_occupancy
  C  C0  1  0.00000000  0.00000000  0.00000000  1
  C  C1  1  0.50000000  0.50000000  0.00000000  1
  C  C2  1  0.00000000  0.50000000  0.50000000  1
  C  C3  1  0.50000000  0.00000000  0.50000000  1
  C  C4  1  0.23178400  0.60451900  0.35203400  1
  C  C5  1  0.73178400  0.89548100  0.64796600  1
  C  C6  1  0.76821600  0.10451900  0.14796600  1
  C  C7  1  0.26821600  0.39548100  0.85203400  1
  C  C8  1  0.76821600  0.39548100  0.64796600  1
  C  C9  1  0.26821600  0.10451900  0.35203400  1
  C  C10  1  0.23178400  0.89548100  0.85203400  1
  C  C11  1  0.73178400  0.60451900  0.14796600  1
  C  C12  1  0.26383900  0.43211700  0.35258100  1
  C  C13  1  0.76383900  0.06788300  0.64741900  1
  C  C14  1  0.73616100  0.93211700  0.14741900  1
  C  C15  1  0.23616100  0.56788300  0.85258100  1
  C  C16  1  0.73616100  0.56788300  0.64741900  1
  C  C17  1  0.23616100  0.93211700  0.35258100  1
  C  C18  1  0.26383900  0.06788300  0.85258100  1
  C  C19  1  0.76383900  0.43211700  0.14741900  1
  Ni  Ni20  1  0.22136800  0.27593900  0.13675000  1
  Ni  Ni21  1  0.72136800  0.22406100  0.86325000  1
  Ni  Ni22  1  0.77863200  0.77593900  0.36325000  1
  Ni  Ni23  1  0.27863200  0.72406100  0.63675000  1
  Ni  Ni24  1  0.77863200  0.72406100  0.86325000  1
  Ni  Ni25  1  0.27863200  0.77593900  0.13675000  1
  Ni  Ni26  1  0.22136800  0.22406100  0.63675000  1
  Ni  Ni27  1  0.72136800  0.27593900  0.36325000  1
  Cu  Cu28  1  0.44111000  0.29144200  0.05385100  1
  Cu  Cu29  1  0.94111000  0.20855800  0.94614900  1
  Cu  Cu30  1  0.55889000  0.79144200  0.44614900  1
  Cu  Cu31  1  0.05889000  0.70855800  0.55385100  1
  Cu  Cu32  1  0.55889000  0.70855800  0.94614900  1
  Cu  Cu33  1  0.05889000  0.79144200  0.05385100  1
  Cu  Cu34  1  0.44111000  0.20855800  0.55385100  1
  Cu  Cu35  1  0.94111000  0.29144200  0.44614900  1
  Cu  Cu36  1  0.32493900  0.27664600  0.27353000  1
  Cu  Cu37  1  0.82493900  0.22335400  0.72647000  1
  Cu  Cu38  1  0.67506100  0.77664600  0.22647000  1
  Cu  Cu39  1  0.17506100  0.72335400  0.77353000  1
  Cu  Cu40  1  0.67506100  0.72335400  0.72647000  1
  Cu  Cu41  1  0.17506100  0.77664600  0.27353000  1
  Cu  Cu42  1  0.32493900  0.22335400  0.77353000  1
  Cu  Cu43  1  0.82493900  0.27664600  0.22647000  1
  Cu  Cu44  1  0.17856700  0.07856900  0.12399300  1
  Cu  Cu45  1  0.67856700  0.42143100  0.87600700  1
  Cu  Cu46  1  0.82143300  0.57856900  0.37600700  1
  Cu  Cu47  1  0.32143300  0.92143100  0.62399300  1
  Cu  Cu48  1  0.82143300  0.92143100  0.87600700  1
  Cu  Cu49  1  0.32143300  0.57856900  0.12399300  1
  Cu  Cu50  1  0.17856700  0.42143100  0.62399300  1
  Cu  Cu51  1  0.67856700  0.07856900  0.37600700  1
  Cu  Cu52  1  0.24089300  0.51820400  0.40005900  1
  Cu  Cu53  1  0.74089300  0.98179600  0.59994100  1
  Cu  Cu54  1  0.75910700  0.01820400  0.09994100  1
  Cu  Cu55  1  0.25910700  0.48179600  0.90005900  1
  Cu  Cu56  1  0.75910700  0.48179600  0.59994100  1
  Cu  Cu57  1  0.25910700  0.01820400  0.40005900  1
  Cu  Cu58  1  0.24089300  0.98179600  0.90005900  1
  Cu  Cu59  1  0.74089300  0.51820400  0.09994100  1
