# generated using pymatgen
data_Cu3NiC
_symmetry_space_group_name_H-M   'P 1'
_cell_length_a   5.68986300
_cell_length_b   6.28102400
_cell_length_c   15.26468600
_cell_angle_alpha   90.00000000
_cell_angle_beta   90.00000000
_cell_angle_gamma   90.00000000
_symmetry_Int_Tables_number   1
_chemical_formula_structural   Cu3NiC
_chemical_formula_sum   'Cu24 Ni8 C8'
_cell_volume   545.53188312
_cell_formula_units_Z   8
loop_
 _symmetry_equiv_pos_site_id
 _symmetry_equiv_pos_as_xyz
  1  'x, y, z'
loop_
 _atom_site_type_symbol
 _atom_site_label
 _atom_site_symmetry_multiplicity
 _atom_site_fract_x
 _atom_site_fract_y
 _atom_site_fract_z
 _atom_site_occupancy
  C  C0  1  0.14121100  0.34506600  0.00170300  1
  C  C1  1  0.85878900  0.65493400  0.99829700  1
  C  C2  1  0.35878900  0.84506600  0.00170300  1
  C  C3  1  0.85878900  0.84506600  0.49829700  1
  C  C4  1  0.14121100  0.15493400  0.50170300  1
  C  C5  1  0.64121100  0.15493400  0.99829700  1
  C  C6  1  0.35878900  0.65493400  0.50170300  1
  C  C7  1  0.64121100  0.34506600  0.49829700  1
  Ni  Ni8  1  0.00491100  0.15890900  0.65561100  1
  Ni  Ni9  1  0.49508900  0.84109100  0.15561100  1
  Ni  Ni10  1  0.50491100  0.34109100  0.34438900  1
  Ni  Ni11  1  0.99508900  0.84109100  0.34438900  1
  Ni  Ni12  1  0.00491100  0.34109100  0.15561100  1
  Ni  Ni13  1  0.99508900  0.65890900  0.84438900  1
  Ni  Ni14  1  0.50491100  0.15890900  0.84438900  1
  Ni  Ni15  1  0.49508900  0.65890900  0.65561100  1
  Cu  Cu16  1  0.74683000  0.48525800  0.29054600  1
  Cu  Cu17  1  0.24683000  0.48525800  0.20945400  1
  Cu  Cu18  1  0.16391600  0.24458800  0.05268300  1
  Cu  Cu19  1  0.84605400  0.94321600  0.60290300  1
  Cu  Cu20  1  0.75317000  0.98525800  0.29054600  1
  Cu  Cu21  1  0.34605400  0.94321600  0.89709700  1
  Cu  Cu22  1  0.83608400  0.74458800  0.44731700  1
  Cu  Cu23  1  0.15394600  0.05678400  0.39709700  1
  Cu  Cu24  1  0.15394600  0.44321600  0.89709700  1
  Cu  Cu25  1  0.25317000  0.51474200  0.70945400  1
  Cu  Cu26  1  0.65394600  0.44321600  0.60290300  1
  Cu  Cu27  1  0.33608400  0.75541200  0.55268300  1
  Cu  Cu28  1  0.74683000  0.01474200  0.79054600  1
  Cu  Cu29  1  0.83608400  0.75541200  0.94731700  1
  Cu  Cu30  1  0.16391600  0.25541200  0.55268300  1
  Cu  Cu31  1  0.24683000  0.01474200  0.70945400  1
  Cu  Cu32  1  0.33608400  0.74458800  0.05268300  1
  Cu  Cu33  1  0.75317000  0.51474200  0.79054600  1
  Cu  Cu34  1  0.34605400  0.55678400  0.39709700  1
  Cu  Cu35  1  0.66391600  0.24458800  0.44731700  1
  Cu  Cu36  1  0.84605400  0.55678400  0.10290300  1
  Cu  Cu37  1  0.65394600  0.05678400  0.10290300  1
  Cu  Cu38  1  0.66391600  0.25541200  0.94731700  1
  Cu  Cu39  1  0.25317000  0.98525800  0.20945400  1
