# generated using pymatgen
data_Cu13(NiC4)2
_symmetry_space_group_name_H-M   'P 1'
_cell_length_a   5.67546959
_cell_length_b   15.46250885
_cell_length_c   18.24147983
_cell_angle_alpha   103.48701643
_cell_angle_beta   90.00000000
_cell_angle_gamma   90.00000000
_symmetry_Int_Tables_number   1
_chemical_formula_structural   Cu13(NiC4)2
_chemical_formula_sum   'Cu52 Ni8 C32'
_cell_volume   1556.67145149
_cell_formula_units_Z   4
loop_
 _symmetry_equiv_pos_site_id
 _symmetry_equiv_pos_as_xyz
  1  'x, y, z'
loop_
 _atom_site_type_symbol
 _atom_site_label
 _atom_site_symmetry_multiplicity
 _atom_site_fract_x
 _atom_site_fract_y
 _atom_site_fract_z
 _atom_site_occupancy
  C  C0  1  0.23813588  0.44849724  0.72149199  1
  C  C1  1  0.22525938  0.01977452  0.92442631  1
  C  C2  1  0.26186412  0.94849724  0.22149199  1
  C  C3  1  0.27474062  0.51977452  0.42442631  1
  C  C4  1  0.76186412  0.55150276  0.27850801  1
  C  C5  1  0.73813588  0.05150276  0.77850801  1
  C  C6  1  0.77474062  0.98022548  0.07557369  1
  C  C7  1  0.72525938  0.48022548  0.57557369  1
  C  C8  1  0.16986523  0.59341884  0.15021437  1
  C  C9  1  0.83013477  0.40658116  0.84978563  1
  C  C10  1  0.33013477  0.09341884  0.65021437  1
  C  C11  1  0.66986523  0.90658116  0.34978563  1
  C  C12  1  0.67778047  0.85902832  0.88729475  1
  C  C13  1  0.33415726  0.53891070  0.94178868  1
  C  C14  1  0.60619749  0.73168694  0.17710173  1
  C  C15  1  0.18925493  0.89615829  0.71129429  1
  C  C16  1  0.32221953  0.14097168  0.11270525  1
  C  C17  1  0.81074507  0.10384171  0.28870571  1
  C  C18  1  0.30730875  0.80498569  0.04184435  1
  C  C19  1  0.10619749  0.76831306  0.32289827  1
  C  C20  1  0.69269125  0.19501431  0.95815565  1
  C  C21  1  0.39380251  0.26831306  0.82289827  1
  C  C22  1  0.19269125  0.30498569  0.54184435  1
  C  C23  1  0.66584274  0.46108930  0.05821132  1
  C  C24  1  0.17778047  0.64097168  0.61270525  1
  C  C25  1  0.83415726  0.96108930  0.55821132  1
  C  C26  1  0.80730875  0.69501431  0.45815565  1
  C  C27  1  0.31074507  0.39615829  0.21129429  1
  C  C28  1  0.68925493  0.60384171  0.78870571  1
  C  C29  1  0.16584274  0.03891070  0.44178868  1
  C  C30  1  0.82221953  0.35902832  0.38729475  1
  C  C31  1  0.89380251  0.23168694  0.67710173  1
  Ni  Ni32  1  0.76259387  0.20710908  0.46438257  1
  Ni  Ni33  1  0.22668772  0.25092815  0.31787935  1
  Ni  Ni34  1  0.73740613  0.70710908  0.96438257  1
  Ni  Ni35  1  0.72668772  0.24907185  0.18212065  1
  Ni  Ni36  1  0.26259387  0.29289092  0.03561743  1
  Ni  Ni37  1  0.27331228  0.75092815  0.81787935  1
  Ni  Ni38  1  0.23740613  0.79289092  0.53561743  1
  Ni  Ni39  1  0.77331228  0.74907185  0.68212065  1
  Cu  Cu40  1  0.41569836  0.57315995  0.54929688  1
  Cu  Cu41  1  0.94398350  0.04140554  0.19560463  1
  Cu  Cu42  1  0.55601650  0.54140554  0.69560463  1
  Cu  Cu43  1  0.98179142  0.85919303  0.27861483  1
  Cu  Cu44  1  0.03494588  0.32400971  0.75414693  1
  Cu  Cu45  1  0.08430164  0.07315995  0.04929688  1
  Cu  Cu46  1  0.05450393  0.54741526  0.65390670  1
  Cu  Cu47  1  0.14480857  0.01300271  0.55414035  1
  Cu  Cu48  1  0.54115748  0.09978119  0.02690498  1
  Cu  Cu49  1  0.54444414  0.86301240  0.11096601  1
  Cu  Cu50  1  0.56907034  0.45207342  0.16724996  1
  Cu  Cu51  1  0.58430164  0.42684005  0.45070312  1
  Cu  Cu52  1  0.17005056  0.43358470  0.90224165  1
  Cu  Cu53  1  0.58039539  0.61724436  0.39958624  1
  Cu  Cu54  1  0.41170498  0.98519012  0.70295521  1
  Cu  Cu55  1  0.95555586  0.36301240  0.61096601  1
  Cu  Cu56  1  0.45884252  0.90021881  0.97309502  1
  Cu  Cu57  1  0.53494588  0.17599029  0.74585307  1
  Cu  Cu58  1  0.32994944  0.93358470  0.40224165  1
  Cu  Cu59  1  0.93092966  0.95207342  0.66724996  1
  Cu  Cu60  1  0.08039539  0.88275564  0.10041376  1
  Cu  Cu61  1  0.68490148  0.28551183  0.88761000  1
  Cu  Cu62  1  0.05601650  0.95859446  0.80439537  1
  Cu  Cu63  1  0.35519143  0.51300271  0.05414035  1
  Cu  Cu64  1  0.64480857  0.48699729  0.94585965  1
  Cu  Cu65  1  0.04115748  0.40021881  0.47309502  1
  Cu  Cu66  1  0.48179142  0.64080697  0.22138517  1
  Cu  Cu67  1  0.82994944  0.56641530  0.09775835  1
  Cu  Cu68  1  0.51820858  0.35919303  0.77861483  1
  Cu  Cu69  1  0.18490148  0.21448817  0.61239000  1
  Cu  Cu70  1  0.91569836  0.92684005  0.95070312  1
  Cu  Cu71  1  0.43092966  0.54792658  0.83275004  1
  Cu  Cu72  1  0.55450393  0.95258474  0.84609330  1
  Cu  Cu73  1  0.44398350  0.45859446  0.30439537  1
  Cu  Cu74  1  0.81509852  0.78551183  0.38761000  1
  Cu  Cu75  1  0.41960461  0.38275564  0.60041376  1
  Cu  Cu76  1  0.04444414  0.63698760  0.38903399  1
  Cu  Cu77  1  0.91960461  0.11724436  0.89958624  1
  Cu  Cu78  1  0.06907034  0.04792658  0.33275004  1
  Cu  Cu79  1  0.85519143  0.98699729  0.44585965  1
  Cu  Cu80  1  0.67005056  0.06641530  0.59775835  1
  Cu  Cu81  1  0.44549607  0.04741526  0.15390670  1
  Cu  Cu82  1  0.45555586  0.13698760  0.88903399  1
  Cu  Cu83  1  0.96505412  0.67599029  0.24585307  1
  Cu  Cu84  1  0.91170498  0.51480988  0.79704479  1
  Cu  Cu85  1  0.46505412  0.82400971  0.25414693  1
  Cu  Cu86  1  0.31509852  0.71448817  0.11239000  1
  Cu  Cu87  1  0.95884252  0.59978119  0.52690498  1
  Cu  Cu88  1  0.08829502  0.48519012  0.20295521  1
  Cu  Cu89  1  0.01820858  0.14080697  0.72138517  1
  Cu  Cu90  1  0.58829502  0.01480988  0.29704479  1
  Cu  Cu91  1  0.94549607  0.45258474  0.34609330  1
