# generated using pymatgen
data_CuNi4C11
_symmetry_space_group_name_H-M   'P 1'
_cell_length_a   10.17527500
_cell_length_b   10.17527556
_cell_length_c   8.40623200
_cell_angle_alpha   90.00000000
_cell_angle_beta   90.00000000
_cell_angle_gamma   120.00000143
_symmetry_Int_Tables_number   1
_chemical_formula_structural   CuNi4C11
_chemical_formula_sum   'Cu3 Ni12 C33'
_cell_volume   753.74480521
_cell_formula_units_Z   3
loop_
 _symmetry_equiv_pos_site_id
 _symmetry_equiv_pos_as_xyz
  1  'x, y, z'
loop_
 _atom_site_type_symbol
 _atom_site_label
 _atom_site_symmetry_multiplicity
 _atom_site_fract_x
 _atom_site_fract_y
 _atom_site_fract_z
 _atom_site_occupancy
  Ni  Ni0  1  0.00000000  0.35326800  0.50000000  1
  Ni  Ni1  1  0.67352500  0.67352500  0.00000000  1
  Ni  Ni2  1  0.66435700  0.97756700  0.24556800  1
  Ni  Ni3  1  0.00000000  0.32647500  0.00000000  1
  Ni  Ni4  1  0.33564300  0.31321000  0.75443200  1
  Ni  Ni5  1  0.35326800  0.00000000  0.50000000  1
  Ni  Ni6  1  0.97756700  0.66435700  0.75443200  1
  Ni  Ni7  1  0.02243300  0.68679000  0.24556800  1
  Ni  Ni8  1  0.68679000  0.02243300  0.75443200  1
  Ni  Ni9  1  0.31321000  0.33564300  0.24556800  1
  Ni  Ni10  1  0.32647500  0.00000000  0.00000000  1
  Ni  Ni11  1  0.64673200  0.64673200  0.50000000  1
  Cu  Cu12  1  0.66666700  0.33333300  0.25606700  1
  Cu  Cu13  1  0.00000000  0.00000000  0.50000000  1
  Cu  Cu14  1  0.33333300  0.66666700  0.74393300  1
  C  C15  1  0.66666700  0.33333300  0.59561000  1
  C  C16  1  0.00000000  0.00000000  0.84026200  1
  C  C17  1  0.00000000  0.00000000  0.15973800  1
  C  C18  1  0.33333300  0.66666700  0.40439000  1
  C  C19  1  0.33333300  0.66666700  0.08519900  1
  C  C20  1  0.66666700  0.33333300  0.91480100  1
  C  C21  1  0.65564100  0.47590900  0.75567300  1
  C  C22  1  0.85483900  0.00000000  0.00000000  1
  C  C23  1  0.00859800  0.16404300  0.71912700  1
  C  C24  1  0.18202000  0.67866500  0.52768100  1
  C  C25  1  0.50849800  0.32735100  0.03849000  1
  C  C26  1  0.32735100  0.50849800  0.96151000  1
  C  C27  1  0.81885300  0.49150200  0.03849000  1
  C  C28  1  0.52409100  0.17973200  0.75567300  1
  C  C29  1  0.67264900  0.18114700  0.03849000  1
  C  C30  1  0.18114700  0.67264900  0.96151000  1
  C  C31  1  0.50335500  0.32133500  0.47231900  1
  C  C32  1  0.49150200  0.81885300  0.96151000  1
  C  C33  1  0.14516100  0.14516100  0.00000000  1
  C  C34  1  0.34435900  0.82026800  0.24432700  1
  C  C35  1  0.32133500  0.50335500  0.52768100  1
  C  C36  1  0.47590900  0.65564100  0.24432700  1
  C  C37  1  0.81798000  0.49664500  0.47231900  1
  C  C38  1  0.49664500  0.81798000  0.52768100  1
  C  C39  1  0.17973200  0.52409100  0.24432700  1
  C  C40  1  0.99140200  0.15544400  0.28087300  1
  C  C41  1  0.00000000  0.85483900  0.00000000  1
  C  C42  1  0.84455600  0.83595700  0.28087300  1
  C  C43  1  0.16404300  0.00859800  0.28087300  1
  C  C44  1  0.82026800  0.34435900  0.75567300  1
  C  C45  1  0.67866500  0.18202000  0.47231900  1
  C  C46  1  0.15544400  0.99140200  0.71912700  1
  C  C47  1  0.83595700  0.84455600  0.71912700  1
