# generated using pymatgen
data_CuNiC10
_symmetry_space_group_name_H-M   'P 1'
_cell_length_a   10.43894800
_cell_length_b   8.07562300
_cell_length_c   9.17243545
_cell_angle_alpha   81.45480891
_cell_angle_beta   90.00000000
_cell_angle_gamma   90.00000000
_symmetry_Int_Tables_number   1
_chemical_formula_structural   CuNiC10
_chemical_formula_sum   'Cu4 Ni4 C40'
_cell_volume   764.66173990
_cell_formula_units_Z   4
loop_
 _symmetry_equiv_pos_site_id
 _symmetry_equiv_pos_as_xyz
  1  'x, y, z'
loop_
 _atom_site_type_symbol
 _atom_site_label
 _atom_site_symmetry_multiplicity
 _atom_site_fract_x
 _atom_site_fract_y
 _atom_site_fract_z
 _atom_site_occupancy
  Ni  Ni0  1  0.21648300  0.57297600  0.98851400  1
  Ni  Ni1  1  0.28351700  0.07297600  0.98851400  1
  Ni  Ni2  1  0.71648300  0.92702400  0.01148600  1
  Ni  Ni3  1  0.78351700  0.42702400  0.01148600  1
  Cu  Cu4  1  0.72329400  0.02135100  0.43591800  1
  Cu  Cu5  1  0.27670600  0.97864900  0.56408200  1
  Cu  Cu6  1  0.22329400  0.47864900  0.56408200  1
  Cu  Cu7  1  0.77670600  0.52135100  0.43591800  1
  C  C8  1  0.51221000  0.32357700  0.66180600  1
  C  C9  1  0.48611900  0.28594600  0.28180400  1
  C  C10  1  0.98611900  0.21405400  0.71819600  1
  C  C11  1  0.98779000  0.82357700  0.66180600  1
  C  C12  1  0.01388100  0.78594600  0.28180400  1
  C  C13  1  0.51388100  0.71405400  0.71819600  1
  C  C14  1  0.01221000  0.17642300  0.33819400  1
  C  C15  1  0.48779000  0.67642300  0.33819400  1
  C  C16  1  0.89524400  0.74284600  0.50734300  1
  C  C17  1  0.10400000  0.95471000  0.40767300  1
  C  C18  1  0.89600000  0.04529000  0.59232700  1
  C  C19  1  0.10475600  0.25715400  0.49265700  1
  C  C20  1  0.62280800  0.15985700  0.23275800  1
  C  C21  1  0.88016700  0.38123600  0.62918800  1
  C  C22  1  0.41013200  0.76657800  0.17535800  1
  C  C23  1  0.59143000  0.65506000  0.88989400  1
  C  C24  1  0.38016700  0.11876400  0.37081200  1
  C  C25  1  0.37719200  0.84014300  0.76724200  1
  C  C26  1  0.60400000  0.54529000  0.59232700  1
  C  C27  1  0.90857000  0.15506000  0.88989400  1
  C  C28  1  0.08986800  0.26657800  0.17535800  1
  C  C29  1  0.89963400  0.99883300  0.27493200  1
  C  C30  1  0.60036600  0.49883300  0.27493200  1
  C  C31  1  0.61983300  0.88123600  0.62918800  1
  C  C32  1  0.10036600  0.00116700  0.72506800  1
  C  C33  1  0.36096900  0.20423900  0.65404900  1
  C  C34  1  0.12280800  0.34014300  0.76724200  1
  C  C35  1  0.91013200  0.73342200  0.82464200  1
  C  C36  1  0.11983300  0.61876400  0.37081200  1
  C  C37  1  0.63903100  0.79576100  0.34595100  1
  C  C38  1  0.39600000  0.45471000  0.40767300  1
  C  C39  1  0.86096900  0.29576100  0.34595100  1
  C  C40  1  0.60475600  0.24284600  0.50734300  1
  C  C41  1  0.13903100  0.70423900  0.65404900  1
  C  C42  1  0.40857000  0.34494000  0.11010600  1
  C  C43  1  0.39963400  0.50116700  0.72506800  1
  C  C44  1  0.39524400  0.75715400  0.49265700  1
  C  C45  1  0.09143000  0.84494000  0.11010600  1
  C  C46  1  0.87719200  0.65985700  0.23275800  1
  C  C47  1  0.58986800  0.23342200  0.82464200  1
