# generated using pymatgen
data_Cu4(Ni2C5)3
_symmetry_space_group_name_H-M   'P 1'
_cell_length_a   30.59924800
_cell_length_b   5.82795500
_cell_length_c   7.63732722
_cell_angle_alpha   67.39801826
_cell_angle_beta   90.00000000
_cell_angle_gamma   90.00000000
_symmetry_Int_Tables_number   1
_chemical_formula_structural   Cu4(Ni2C5)3
_chemical_formula_sum   'Cu16 Ni24 C60'
_cell_volume   1257.36883126
_cell_formula_units_Z   4
loop_
 _symmetry_equiv_pos_site_id
 _symmetry_equiv_pos_as_xyz
  1  'x, y, z'
loop_
 _atom_site_type_symbol
 _atom_site_label
 _atom_site_symmetry_multiplicity
 _atom_site_fract_x
 _atom_site_fract_y
 _atom_site_fract_z
 _atom_site_occupancy
  C  C0  1  0.71378000  0.17971200  0.01169500  1
  C  C1  1  0.95976400  0.57459200  0.58332000  1
  C  C2  1  0.21378000  0.82028800  0.48830500  1
  C  C3  1  0.45976400  0.42540800  0.91668000  1
  C  C4  1  0.78622000  0.17971200  0.51169500  1
  C  C5  1  0.28622000  0.82028800  0.98830500  1
  C  C6  1  0.54023600  0.57459200  0.08332000  1
  C  C7  1  0.04023600  0.42540800  0.41668000  1
  C  C8  1  0.65429600  0.82323400  0.49597400  1
  C  C9  1  0.13718200  0.41862100  0.78638400  1
  C  C10  1  0.84570400  0.82323400  0.99597400  1
  C  C11  1  0.16954400  0.72421200  0.91064200  1
  C  C12  1  0.40764900  0.77015300  0.30540300  1
  C  C13  1  0.59235100  0.22984700  0.69459700  1
  C  C14  1  0.66954400  0.27578800  0.58935800  1
  C  C15  1  0.94679300  0.46255000  0.06130700  1
  C  C16  1  0.44679300  0.53745000  0.43869300  1
  C  C17  1  0.09767300  0.20034800  0.93035200  1
  C  C18  1  0.15429600  0.17676600  0.00402600  1
  C  C19  1  0.92565000  0.25245600  0.96338900  1
  C  C20  1  0.63718200  0.58137900  0.71361600  1
  C  C21  1  0.57435000  0.25245600  0.46338900  1
  C  C22  1  0.09235100  0.77015300  0.80540300  1
  C  C23  1  0.33045600  0.72421200  0.41064200  1
  C  C24  1  0.86281800  0.58137900  0.21361600  1
  C  C25  1  0.90764900  0.22984700  0.19459700  1
  C  C26  1  0.05320700  0.53745000  0.93869300  1
  C  C27  1  0.39073200  0.35459800  0.67362700  1
  C  C28  1  0.42565000  0.74754400  0.53661100  1
  C  C29  1  0.18440100  0.46529700  0.12218200  1
  C  C30  1  0.31559900  0.46529700  0.62218200  1
  C  C31  1  0.55320700  0.46255000  0.56130700  1
  C  C32  1  0.34570400  0.17676600  0.50402600  1
  C  C33  1  0.81559900  0.53470300  0.87781800  1
  C  C34  1  0.89073200  0.64540200  0.82637300  1
  C  C35  1  0.34847700  0.70938000  0.64004200  1
  C  C36  1  0.36281800  0.41862100  0.28638400  1
  C  C37  1  0.15152300  0.70938000  0.14004200  1
  C  C38  1  0.40232700  0.20034800  0.43035200  1
  C  C39  1  0.83045600  0.27578800  0.08935800  1
  C  C40  1  0.10926800  0.35459800  0.17362700  1
  C  C41  1  0.07435000  0.74754400  0.03661100  1
  C  C42  1  0.90232700  0.79965200  0.06964800  1
  C  C43  1  0.84847700  0.29062000  0.85995800  1
  C  C44  1  0.59767300  0.79965200  0.56964800  1
  C  C45  1  0.60926800  0.64540200  0.32637300  1
  C  C46  1  0.65152300  0.29062000  0.35995800  1
  C  C47  1  0.68440100  0.53470300  0.37781800  1
  Ni  Ni48  1  0.23648300  0.26841700  0.60685400  1
  Ni  Ni49  1  0.98933000  0.98127800  0.71539700  1
  Ni  Ni50  1  0.34102500  0.60236300  0.55337700  1
  Ni  Ni51  1  0.62758500  0.69714600  0.56816400  1
  Ni  Ni52  1  0.73648300  0.73158300  0.89314600  1
  Ni  Ni53  1  0.26351700  0.26841700  0.10685400  1
  Ni  Ni54  1  0.51067000  0.98127800  0.21539700  1
  Ni  Ni55  1  0.38699300  0.77277400  0.93926700  1
  Ni  Ni56  1  0.15897500  0.60236300  0.05337700  1
  Ni  Ni57  1  0.08194100  0.64433300  0.94721300  1
  Ni  Ni58  1  0.41805900  0.64433300  0.44721300  1
  Ni  Ni59  1  0.65897500  0.39763700  0.44662300  1
  Ni  Ni60  1  0.84102500  0.39763700  0.94662300  1
  Ni  Ni61  1  0.48933000  0.01872200  0.78460300  1
  Ni  Ni62  1  0.11300700  0.77277400  0.43926700  1
  Ni  Ni63  1  0.91805900  0.35566700  0.05278700  1
  Ni  Ni64  1  0.37241500  0.30285400  0.43183600  1
  Ni  Ni65  1  0.88699300  0.22722600  0.56073300  1
  Ni  Ni66  1  0.12758500  0.30285400  0.93183600  1
  Ni  Ni67  1  0.87241500  0.69714600  0.06816400  1
  Ni  Ni68  1  0.01067000  0.01872200  0.28460300  1
  Ni  Ni69  1  0.76351700  0.73158300  0.39314600  1
  Ni  Ni70  1  0.61300700  0.22722600  0.06073300  1
  Ni  Ni71  1  0.58194100  0.35566700  0.55278700  1
  C  C72  1  0.75595500  0.01396900  0.83725500  1
  C  C73  1  0.64462500  0.01152700  0.03893100  1
  C  C74  1  0.01257600  0.22417800  0.73553500  1
  C  C75  1  0.48742400  0.22417800  0.23553500  1
  C  C76  1  0.35537500  0.98847300  0.96106900  1
  C  C77  1  0.14462500  0.98847300  0.46106900  1
  C  C78  1  0.85537500  0.01152700  0.53893100  1
  C  C79  1  0.24404500  0.98603100  0.16274500  1
  C  C80  1  0.25595500  0.98603100  0.66274500  1
  C  C81  1  0.74404500  0.01396900  0.33725500  1
  C  C82  1  0.51257600  0.77582200  0.76446500  1
  C  C83  1  0.98742400  0.77582200  0.26446500  1
  Cu  Cu84  1  0.52715600  0.80726400  0.19793800  1
  Cu  Cu85  1  0.38144700  0.46806000  0.53655600  1
  Cu  Cu86  1  0.88144700  0.53194000  0.96344400  1
  Cu  Cu87  1  0.47284400  0.19273600  0.80206200  1
  Cu  Cu88  1  0.41023400  0.61743500  0.92625800  1
  Cu  Cu89  1  0.08976600  0.61743500  0.42625800  1
  Cu  Cu90  1  0.22315900  0.47287200  0.56625100  1
  Cu  Cu91  1  0.91023400  0.38256500  0.57374200  1
  Cu  Cu92  1  0.72315900  0.52712800  0.93374900  1
  Cu  Cu93  1  0.11855300  0.46806000  0.03655600  1
  Cu  Cu94  1  0.77684100  0.52712800  0.43374900  1
  Cu  Cu95  1  0.58976600  0.38256500  0.07374200  1
  Cu  Cu96  1  0.61855300  0.53194000  0.46344400  1
  Cu  Cu97  1  0.97284400  0.80726400  0.69793800  1
  Cu  Cu98  1  0.27684100  0.47287200  0.06625100  1
  Cu  Cu99  1  0.02715600  0.19273600  0.30206200  1
