# generated using pymatgen
data_Cu4(Ni2C7)3
_symmetry_space_group_name_H-M   'P 1'
_cell_length_a   7.05087400
_cell_length_b   7.74309048
_cell_length_c   9.28327834
_cell_angle_alpha   107.14191305
_cell_angle_beta   93.07995112
_cell_angle_gamma   112.22459847
_symmetry_Int_Tables_number   1
_chemical_formula_structural   Cu4(Ni2C7)3
_chemical_formula_sum   'Cu4 Ni6 C21'
_cell_volume   440.44234086
_cell_formula_units_Z   1
loop_
 _symmetry_equiv_pos_site_id
 _symmetry_equiv_pos_as_xyz
  1  'x, y, z'
loop_
 _atom_site_type_symbol
 _atom_site_label
 _atom_site_symmetry_multiplicity
 _atom_site_fract_x
 _atom_site_fract_y
 _atom_site_fract_z
 _atom_site_occupancy
  C  C0  1  0.00000000  0.50000000  0.00000000  1
  Ni  Ni1  1  0.19433700  0.19577900  0.67502900  1
  Ni  Ni2  1  0.56342400  0.70733500  0.91284500  1
  Ni  Ni3  1  0.33159400  0.62658900  0.51090800  1
  Ni  Ni4  1  0.80566300  0.80422100  0.32497100  1
  Ni  Ni5  1  0.43657600  0.29266500  0.08715500  1
  Ni  Ni6  1  0.66840600  0.37341100  0.48909200  1
  Cu  Cu7  1  0.04750500  0.76883800  0.75665800  1
  Cu  Cu8  1  0.65368900  0.10316800  0.74299600  1
  Cu  Cu9  1  0.95249500  0.23116200  0.24334200  1
  Cu  Cu10  1  0.34631100  0.89683200  0.25700400  1
  C  C11  1  0.35338200  0.82306900  0.08400200  1
  C  C12  1  0.44687700  0.47288500  0.63755100  1
  C  C13  1  0.87142300  0.23680500  0.72102000  1
  C  C14  1  0.21338000  0.68043000  0.75902000  1
  C  C15  1  0.62322000  0.88244000  0.68838800  1
  C  C16  1  0.87873500  0.67388700  0.84412500  1
  C  C17  1  0.85264000  0.00080300  0.16888600  1
  C  C18  1  0.32019400  0.40688700  0.90365900  1
  C  C19  1  0.12126500  0.32611300  0.15587500  1
  C  C20  1  0.51662300  0.87474600  0.35533800  1
  C  C21  1  0.37678000  0.11756000  0.31161200  1
  C  C22  1  0.67980600  0.59311300  0.09634100  1
  C  C23  1  0.95260000  0.70943300  0.58375900  1
  C  C24  1  0.14736000  0.99919700  0.83111400  1
  C  C25  1  0.12857700  0.76319500  0.27898000  1
  C  C26  1  0.55312300  0.52711500  0.36244900  1
  C  C27  1  0.64661800  0.17693100  0.91599800  1
  C  C28  1  0.78662000  0.31957000  0.24098000  1
  C  C29  1  0.48337700  0.12525400  0.64466200  1
  C  C30  1  0.04740000  0.29056700  0.41624100  1
