# generated using pymatgen
data_Cu7NiC5
_symmetry_space_group_name_H-M   'P 1'
_cell_length_a   13.09564600
_cell_length_b   13.09564600
_cell_length_c   5.64513100
_cell_angle_alpha   90.00000000
_cell_angle_beta   90.00000000
_cell_angle_gamma   90.00000000
_symmetry_Int_Tables_number   1
_chemical_formula_structural   Cu7NiC5
_chemical_formula_sum   'Cu28 Ni4 C20'
_cell_volume   968.11707074
_cell_formula_units_Z   4
loop_
 _symmetry_equiv_pos_site_id
 _symmetry_equiv_pos_as_xyz
  1  'x, y, z'
loop_
 _atom_site_type_symbol
 _atom_site_label
 _atom_site_symmetry_multiplicity
 _atom_site_fract_x
 _atom_site_fract_y
 _atom_site_fract_z
 _atom_site_occupancy
  C  C0  1  0.73101800  0.73101800  0.00000000  1
  C  C1  1  0.36345100  0.05183600  0.50000000  1
  C  C2  1  0.76898200  0.23101800  0.50000000  1
  C  C3  1  0.23101800  0.76898200  0.50000000  1
  C  C4  1  0.94816400  0.63654900  0.50000000  1
  C  C5  1  0.13654900  0.55183600  0.00000000  1
  C  C6  1  0.26898200  0.26898200  0.00000000  1
  C  C7  1  0.44816400  0.86345100  0.00000000  1
  C  C8  1  0.05183600  0.36345100  0.50000000  1
  C  C9  1  0.63654900  0.94816400  0.50000000  1
  C  C10  1  0.55183600  0.13654900  0.00000000  1
  C  C11  1  0.86345100  0.44816400  0.00000000  1
  C  C12  1  0.98004400  0.20861800  0.00000000  1
  C  C13  1  0.51995600  0.70861800  0.50000000  1
  C  C14  1  0.29138200  0.48004400  0.50000000  1
  C  C15  1  0.79138200  0.01995600  0.00000000  1
  C  C16  1  0.01995600  0.79138200  0.00000000  1
  C  C17  1  0.70861800  0.51995600  0.50000000  1
  C  C18  1  0.20861800  0.98004400  0.00000000  1
  C  C19  1  0.48004400  0.29138200  0.50000000  1
  Ni  Ni20  1  0.16734600  0.16734600  0.50000000  1
  Ni  Ni21  1  0.66734600  0.33265400  0.00000000  1
  Ni  Ni22  1  0.83265400  0.83265400  0.50000000  1
  Ni  Ni23  1  0.33265400  0.66734600  0.00000000  1
  Cu  Cu24  1  0.77655500  0.58505800  0.26172200  1
  Cu  Cu25  1  0.70949000  0.91112700  0.00000000  1
  Cu  Cu26  1  0.22344500  0.41494200  0.73827800  1
  Cu  Cu27  1  0.41112700  0.79051000  0.50000000  1
  Cu  Cu28  1  0.77655500  0.58505800  0.73827800  1
  Cu  Cu29  1  0.29051000  0.08887300  0.00000000  1
  Cu  Cu30  1  0.58505800  0.77655500  0.73827800  1
  Cu  Cu31  1  0.27655500  0.91494200  0.23827800  1
  Cu  Cu32  1  0.72344500  0.08505800  0.76172200  1
  Cu  Cu33  1  0.08505800  0.72344500  0.23827800  1
  Cu  Cu34  1  0.41494200  0.22344500  0.26172200  1
  Cu  Cu35  1  0.58505800  0.77655500  0.26172200  1
  Cu  Cu36  1  0.72344500  0.08505800  0.23827800  1
  Cu  Cu37  1  0.22344500  0.41494200  0.26172200  1
  Cu  Cu38  1  0.91494200  0.27655500  0.23827800  1
  Cu  Cu39  1  0.79051000  0.41112700  0.50000000  1
  Cu  Cu40  1  0.00000000  0.50000000  0.25000000  1
  Cu  Cu41  1  0.58887300  0.20949000  0.50000000  1
  Cu  Cu42  1  0.27655500  0.91494200  0.76172200  1
  Cu  Cu43  1  0.08505800  0.72344500  0.76172200  1
  Cu  Cu44  1  0.41494200  0.22344500  0.73827800  1
  Cu  Cu45  1  0.20949000  0.58887300  0.50000000  1
  Cu  Cu46  1  0.91494200  0.27655500  0.76172200  1
  Cu  Cu47  1  0.91112700  0.70949000  0.00000000  1
  Cu  Cu48  1  0.08887300  0.29051000  0.00000000  1
  Cu  Cu49  1  0.00000000  0.50000000  0.75000000  1
  Cu  Cu50  1  0.50000000  0.00000000  0.75000000  1
  Cu  Cu51  1  0.50000000  0.00000000  0.25000000  1
