# generated using pymatgen
data_Cu2NiC7
_symmetry_space_group_name_H-M   'P 1'
_cell_length_a   6.20107272
_cell_length_b   6.20107272
_cell_length_c   6.20107272
_cell_angle_alpha   129.36286177
_cell_angle_beta   129.36286177
_cell_angle_gamma   74.42741035
_symmetry_Int_Tables_number   1
_chemical_formula_structural   Cu2NiC7
_chemical_formula_sum   'Cu2 Ni1 C7'
_cell_volume   138.91922705
_cell_formula_units_Z   1
loop_
 _symmetry_equiv_pos_site_id
 _symmetry_equiv_pos_as_xyz
  1  'x, y, z'
loop_
 _atom_site_type_symbol
 _atom_site_label
 _atom_site_symmetry_multiplicity
 _atom_site_fract_x
 _atom_site_fract_y
 _atom_site_fract_z
 _atom_site_occupancy
  C  C0  1  0.80056900  0.80056900  0.00000000  1
  Ni  Ni1  1  0.26832200  0.26832200  0.00000000  1
  Cu  Cu2  1  0.99971800  0.49971800  0.50000000  1
  Cu  Cu3  1  0.49971800  0.99971800  0.50000000  1
  C  C4  1  0.07558900  0.07558900  0.00000000  1
  C  C5  1  0.61946100  0.61946100  0.00000000  1
  C  C6  1  0.61280900  0.11099800  0.00000000  1
  C  C7  1  0.61280900  0.61280900  0.50181100  1
  C  C8  1  0.11099800  0.61280900  0.00000000  1
  C  C9  1  0.11099800  0.11099800  0.49818900  1
