# generated using pymatgen
data_Cu3Ni3C
_symmetry_space_group_name_H-M   'P 1'
_cell_length_a   8.40956579
_cell_length_b   8.40956579
_cell_length_c   8.40956579
_cell_angle_alpha   60.00000000
_cell_angle_beta   60.00000000
_cell_angle_gamma   60.00000000
_symmetry_Int_Tables_number   1
_chemical_formula_structural   Cu3Ni3C
_chemical_formula_sum   'Cu12 Ni12 C4'
_cell_volume   420.53846035
_cell_formula_units_Z   4
loop_
 _symmetry_equiv_pos_site_id
 _symmetry_equiv_pos_as_xyz
  1  'x, y, z'
loop_
 _atom_site_type_symbol
 _atom_site_label
 _atom_site_symmetry_multiplicity
 _atom_site_fract_x
 _atom_site_fract_y
 _atom_site_fract_z
 _atom_site_occupancy
  Ni  Ni0  1  0.93203500  0.93203500  0.56796500  1
  Ni  Ni1  1  0.68203500  0.31796500  0.31796500  1
  Ni  Ni2  1  0.31796500  0.68203500  0.68203500  1
  Ni  Ni3  1  0.68203500  0.68203500  0.31796500  1
  Ni  Ni4  1  0.68203500  0.31796500  0.68203500  1
  Ni  Ni5  1  0.31796500  0.68203500  0.31796500  1
  Ni  Ni6  1  0.56796500  0.93203500  0.56796500  1
  Ni  Ni7  1  0.56796500  0.93203500  0.93203500  1
  Ni  Ni8  1  0.93203500  0.56796500  0.56796500  1
  Ni  Ni9  1  0.93203500  0.56796500  0.93203500  1
  Ni  Ni10  1  0.31796500  0.31796500  0.68203500  1
  Ni  Ni11  1  0.56796500  0.56796500  0.93203500  1
  Cu  Cu12  1  0.12500000  0.62500000  0.12500000  1
  Cu  Cu13  1  0.12500000  0.12500000  0.62500000  1
  Cu  Cu14  1  0.62500000  0.12500000  0.12500000  1
  Cu  Cu15  1  0.12500000  0.12500000  0.12500000  1
  Cu  Cu16  1  0.91129000  0.26613000  0.91129000  1
  Cu  Cu17  1  0.33871000  0.33871000  0.98387000  1
  Cu  Cu18  1  0.98387000  0.33871000  0.33871000  1
  Cu  Cu19  1  0.33871000  0.33871000  0.33871000  1
  Cu  Cu20  1  0.26613000  0.91129000  0.91129000  1
  Cu  Cu21  1  0.91129000  0.91129000  0.91129000  1
  Cu  Cu22  1  0.91129000  0.91129000  0.26613000  1
  Cu  Cu23  1  0.33871000  0.98387000  0.33871000  1
  C  C24  1  0.62500000  0.12500000  0.62500000  1
  C  C25  1  0.62500000  0.62500000  0.12500000  1
  C  C26  1  0.12500000  0.62500000  0.62500000  1
  C  C27  1  0.62500000  0.62500000  0.62500000  1
