# generated using pymatgen
data_Cu3Ni3C46
_symmetry_space_group_name_H-M   'P 1'
_cell_length_a   13.78254107
_cell_length_b   13.78254107
_cell_length_c   7.54792900
_cell_angle_alpha   90.00000000
_cell_angle_beta   90.00000000
_cell_angle_gamma   120.00000512
_symmetry_Int_Tables_number   1
_chemical_formula_structural   Cu3Ni3C46
_chemical_formula_sum   'Cu6 Ni6 C92'
_cell_volume   1241.70092870
_cell_formula_units_Z   2
loop_
 _symmetry_equiv_pos_site_id
 _symmetry_equiv_pos_as_xyz
  1  'x, y, z'
loop_
 _atom_site_type_symbol
 _atom_site_label
 _atom_site_symmetry_multiplicity
 _atom_site_fract_x
 _atom_site_fract_y
 _atom_site_fract_z
 _atom_site_occupancy
  C  C0  1  0.33333300  0.66666700  0.25000000  1
  C  C1  1  0.66666700  0.33333300  0.75000000  1
  C  C2  1  0.35684800  0.45078000  0.14456600  1
  C  C3  1  0.90606800  0.35684800  0.64456600  1
  C  C4  1  0.45078000  0.09393200  0.64456600  1
  C  C5  1  0.54922000  0.90606800  0.14456600  1
  C  C6  1  0.09393200  0.64315200  0.14456600  1
  C  C7  1  0.64315200  0.54922000  0.64456600  1
  C  C8  1  0.64315200  0.54922000  0.85543400  1
  C  C9  1  0.09393200  0.64315200  0.35543400  1
  C  C10  1  0.54922000  0.90606800  0.35543400  1
  C  C11  1  0.45078000  0.09393200  0.85543400  1
  C  C12  1  0.90606800  0.35684800  0.85543400  1
  C  C13  1  0.35684800  0.45078000  0.35543400  1
  C  C14  1  0.23320000  0.51085500  0.56586300  1
  C  C15  1  0.72234500  0.23320000  0.06586300  1
  C  C16  1  0.51085500  0.27765500  0.06586300  1
  C  C17  1  0.48914500  0.72234500  0.56586300  1
  C  C18  1  0.27765500  0.76680000  0.56586300  1
  C  C19  1  0.76680000  0.48914500  0.06586300  1
  C  C20  1  0.76680000  0.48914500  0.43413700  1
  C  C21  1  0.27765500  0.76680000  0.93413700  1
  C  C22  1  0.48914500  0.72234500  0.93413700  1
  C  C23  1  0.51085500  0.27765500  0.43413700  1
  C  C24  1  0.72234500  0.23320000  0.43413700  1
  C  C25  1  0.23320000  0.51085500  0.93413700  1
  C  C26  1  0.13039900  0.49054300  0.44580100  1
  C  C27  1  0.63985600  0.13039900  0.94580100  1
  C  C28  1  0.49054300  0.36014400  0.94580100  1
  C  C29  1  0.50945700  0.63985600  0.44580100  1
  C  C30  1  0.36014400  0.86960100  0.44580100  1
  C  C31  1  0.86960100  0.50945700  0.94580100  1
  C  C32  1  0.86960100  0.50945700  0.55419900  1
  C  C33  1  0.36014400  0.86960100  0.05419900  1
  C  C34  1  0.50945700  0.63985600  0.05419900  1
  C  C35  1  0.49054300  0.36014400  0.55419900  1
  C  C36  1  0.63985600  0.13039900  0.55419900  1
  C  C37  1  0.13039900  0.49054300  0.05419900  1
  Ni  Ni38  1  0.20151600  0.23497600  0.75000000  1
  Ni  Ni39  1  0.96654000  0.20151600  0.25000000  1
  Ni  Ni40  1  0.23497600  0.03346000  0.25000000  1
  Ni  Ni41  1  0.76502400  0.96654000  0.75000000  1
  Ni  Ni42  1  0.03346000  0.79848400  0.75000000  1
  Ni  Ni43  1  0.79848400  0.76502400  0.25000000  1
  Cu  Cu44  1  0.31710000  0.38428900  0.75000000  1
  Cu  Cu45  1  0.93281200  0.31710000  0.25000000  1
  Cu  Cu46  1  0.38428900  0.06718800  0.25000000  1
  Cu  Cu47  1  0.61571100  0.93281200  0.75000000  1
  Cu  Cu48  1  0.06718800  0.68290000  0.75000000  1
  Cu  Cu49  1  0.68290000  0.61571100  0.25000000  1
  C  C50  1  0.35129000  0.48932300  0.25000000  1
  C  C51  1  0.86196700  0.35129000  0.75000000  1
  C  C52  1  0.48932300  0.13803300  0.75000000  1
  C  C53  1  0.51067700  0.86196700  0.25000000  1
  C  C54  1  0.13803300  0.64871000  0.25000000  1
  C  C55  1  0.64871000  0.51067700  0.75000000  1
  C  C56  1  0.20973600  0.54420300  0.47113200  1
  C  C57  1  0.66553200  0.20973600  0.97113200  1
  C  C58  1  0.54420300  0.33446800  0.97113200  1
  C  C59  1  0.45579700  0.66553200  0.47113200  1
  C  C60  1  0.33446800  0.79026400  0.47113200  1
  C  C61  1  0.79026400  0.45579700  0.97113200  1
  C  C62  1  0.79026400  0.45579700  0.52886800  1
  C  C63  1  0.33446800  0.79026400  0.02886800  1
  C  C64  1  0.45579700  0.66553200  0.02886800  1
  C  C65  1  0.54420300  0.33446800  0.52886800  1
  C  C66  1  0.66553200  0.20973600  0.52886800  1
  C  C67  1  0.20973600  0.54420300  0.02886800  1
  C  C68  1  0.25761000  0.44785200  0.75000000  1
  C  C69  1  0.80975800  0.25761000  0.25000000  1
  C  C70  1  0.44785200  0.19024200  0.25000000  1
  C  C71  1  0.55214800  0.80975800  0.75000000  1
  C  C72  1  0.19024200  0.74239000  0.75000000  1
  C  C73  1  0.74239000  0.55214800  0.25000000  1
  C  C74  1  0.37876100  0.39574800  0.58611400  1
  C  C75  1  0.98301300  0.37876100  0.08611400  1
  C  C76  1  0.39574800  0.01698700  0.08611400  1
  C  C77  1  0.60425200  0.98301300  0.58611400  1
  C  C78  1  0.01698700  0.62123900  0.58611400  1
  C  C79  1  0.62123900  0.60425200  0.08611400  1
  C  C80  1  0.62123900  0.60425200  0.41388600  1
  C  C81  1  0.01698700  0.62123900  0.91388600  1
  C  C82  1  0.60425200  0.98301300  0.91388600  1
  C  C83  1  0.39574800  0.01698700  0.41388600  1
  C  C84  1  0.98301300  0.37876100  0.41388600  1
  C  C85  1  0.37876100  0.39574800  0.91388600  1
  C  C86  1  0.24503300  0.16617100  0.75000000  1
  C  C87  1  0.07886300  0.24503300  0.25000000  1
  C  C88  1  0.16617100  0.92113700  0.25000000  1
  C  C89  1  0.83382900  0.07886300  0.75000000  1
  C  C90  1  0.92113700  0.75496700  0.75000000  1
  C  C91  1  0.75496700  0.83382900  0.25000000  1
  C  C92  1  0.13688400  0.21398300  0.60450500  1
  C  C93  1  0.92290100  0.13688400  0.10450500  1
  C  C94  1  0.21398300  0.07709900  0.10450500  1
  C  C95  1  0.78601700  0.92290100  0.60450500  1
  C  C96  1  0.07709900  0.86311600  0.60450500  1
  C  C97  1  0.86311600  0.78601700  0.10450500  1
  C  C98  1  0.86311600  0.78601700  0.39549500  1
  C  C99  1  0.07709900  0.86311600  0.89549500  1
  C  C100  1  0.78601700  0.92290100  0.89549500  1
  C  C101  1  0.21398300  0.07709900  0.39549500  1
  C  C102  1  0.92290100  0.13688400  0.39549500  1
  C  C103  1  0.13688400  0.21398300  0.89549500  1
