# generated using pymatgen
data_CuNiC4
_symmetry_space_group_name_H-M   'P 1'
_cell_length_a   9.53818034
_cell_length_b   9.53818034
_cell_length_c   9.53818034
_cell_angle_alpha   60.00000000
_cell_angle_beta   60.00000000
_cell_angle_gamma   60.00000000
_symmetry_Int_Tables_number   1
_chemical_formula_structural   CuNiC4
_chemical_formula_sum   'Cu4 Ni4 C16'
_cell_volume   613.59468745
_cell_formula_units_Z   4
loop_
 _symmetry_equiv_pos_site_id
 _symmetry_equiv_pos_as_xyz
  1  'x, y, z'
loop_
 _atom_site_type_symbol
 _atom_site_label
 _atom_site_symmetry_multiplicity
 _atom_site_fract_x
 _atom_site_fract_y
 _atom_site_fract_z
 _atom_site_occupancy
  C  C0  1  0.43854200  0.43854200  0.06145800  1
  C  C1  1  0.59648900  0.59648900  0.59648900  1
  C  C2  1  0.18830200  0.81169800  0.81169800  1
  C  C3  1  0.06145800  0.06145800  0.43854200  1
  C  C4  1  0.43854200  0.06145800  0.06145800  1
  C  C5  1  0.81169800  0.18830200  0.81169800  1
  C  C6  1  0.43854200  0.06145800  0.43854200  1
  C  C7  1  0.59648900  0.21053300  0.59648900  1
  C  C8  1  0.81169800  0.81169800  0.18830200  1
  C  C9  1  0.21053300  0.59648900  0.59648900  1
  C  C10  1  0.81169800  0.18830200  0.18830200  1
  C  C11  1  0.06145800  0.43854200  0.43854200  1
  C  C12  1  0.18830200  0.81169800  0.18830200  1
  C  C13  1  0.59648900  0.59648900  0.21053300  1
  C  C14  1  0.18830200  0.18830200  0.81169800  1
  C  C15  1  0.06145800  0.43854200  0.06145800  1
  Ni  Ni16  1  0.83032800  0.83032800  0.50901500  1
  Ni  Ni17  1  0.83032800  0.83032800  0.83032800  1
  Ni  Ni18  1  0.50901500  0.83032800  0.83032800  1
  Ni  Ni19  1  0.83032800  0.50901500  0.83032800  1
  Cu  Cu20  1  0.39103500  0.39103500  0.39103500  1
  Cu  Cu21  1  0.82689600  0.39103500  0.39103500  1
  Cu  Cu22  1  0.39103500  0.82689600  0.39103500  1
  Cu  Cu23  1  0.39103500  0.39103500  0.82689600  1
