# generated using pymatgen
data_CuNiC6
_symmetry_space_group_name_H-M   'P 1'
_cell_length_a   17.31186000
_cell_length_b   7.94588200
_cell_length_c   11.70738212
_cell_angle_alpha   74.82324046
_cell_angle_beta   90.00000000
_cell_angle_gamma   90.00000000
_symmetry_Int_Tables_number   1
_chemical_formula_structural   CuNiC6
_chemical_formula_sum   'Cu16 Ni16 C96'
_cell_volume   1554.27619643
_cell_formula_units_Z   16
loop_
 _symmetry_equiv_pos_site_id
 _symmetry_equiv_pos_as_xyz
  1  'x, y, z'
loop_
 _atom_site_type_symbol
 _atom_site_label
 _atom_site_symmetry_multiplicity
 _atom_site_fract_x
 _atom_site_fract_y
 _atom_site_fract_z
 _atom_site_occupancy
  C  C0  1  0.77382700  0.00293400  0.50663700  1
  C  C1  1  0.72617300  0.00293400  0.00663700  1
  C  C2  1  0.27382700  0.99706600  0.99336300  1
  C  C3  1  0.22617300  0.99706600  0.49336300  1
  C  C4  1  0.54088400  0.67940700  0.88741600  1
  C  C5  1  0.54214400  0.68104800  0.57449000  1
  C  C6  1  0.08634700  0.89458800  0.14301600  1
  C  C7  1  0.54287100  0.09009200  0.22102100  1
  C  C8  1  0.57854900  0.55959500  0.17937800  1
  C  C9  1  0.93967000  0.35714600  0.93296100  1
  C  C10  1  0.40327900  0.62536800  0.87874800  1
  C  C11  1  0.90327900  0.37463200  0.62125200  1
  C  C12  1  0.95785600  0.68104800  0.07449000  1
  C  C13  1  0.06033000  0.64285400  0.06703900  1
  C  C14  1  0.99808800  0.47262400  0.14775900  1
  C  C15  1  0.45785600  0.31895200  0.42551000  1
  C  C16  1  0.04214400  0.31895200  0.92551000  1
  C  C17  1  0.58634700  0.10541200  0.35698400  1
  C  C18  1  0.45911600  0.32059300  0.11258400  1
  C  C19  1  0.45712900  0.90990800  0.77897900  1
  C  C20  1  0.90014500  0.70040900  0.25902500  1
  C  C21  1  0.09672100  0.62536800  0.37874800  1
  C  C22  1  0.40014500  0.29959100  0.24097500  1
  C  C23  1  0.91365300  0.10541200  0.85698400  1
  C  C24  1  0.07854900  0.44040500  0.32062200  1
  C  C25  1  0.01632000  0.06789400  0.84936100  1
  C  C26  1  0.42145100  0.44040500  0.82062200  1
  C  C27  1  0.48368000  0.06789400  0.34936100  1
  C  C28  1  0.92145100  0.55959500  0.67937800  1
  C  C29  1  0.43967000  0.64285400  0.56703900  1
  C  C30  1  0.98368000  0.93210600  0.15063900  1
  C  C31  1  0.85936900  0.38602300  0.75761900  1
  C  C32  1  0.64063100  0.38602300  0.25761900  1
  C  C33  1  0.51632000  0.93210600  0.65063900  1
  C  C34  1  0.49808800  0.52737600  0.35224100  1
  C  C35  1  0.59985500  0.70040900  0.75902500  1
  C  C36  1  0.56033000  0.35714600  0.43296100  1
  C  C37  1  0.94039500  0.49172700  0.33258500  1
  C  C38  1  0.00191200  0.52737600  0.85224100  1
  C  C39  1  0.41365300  0.89458800  0.64301600  1
  C  C40  1  0.09985500  0.29959100  0.74097500  1
  C  C41  1  0.35936900  0.61397700  0.74238100  1
  C  C42  1  0.95712900  0.09009200  0.72102100  1
  C  C43  1  0.59672100  0.37463200  0.12125200  1
  C  C44  1  0.50191200  0.47262400  0.64775900  1
  C  C45  1  0.05960500  0.50827300  0.66741500  1
  C  C46  1  0.55960500  0.49172700  0.83258500  1
  C  C47  1  0.04287100  0.90990800  0.27897900  1
  C  C48  1  0.04088400  0.32059300  0.61258400  1
  C  C49  1  0.95911600  0.67940700  0.38741600  1
  C  C50  1  0.14063100  0.61397700  0.24238100  1
  C  C51  1  0.44039500  0.50827300  0.16741500  1
  Ni  Ni52  1  0.41069100  0.58107000  0.79841900  1
  Ni  Ni53  1  0.49170200  0.61353900  0.62172000  1
  Ni  Ni54  1  0.58930900  0.41893000  0.20158100  1
  Ni  Ni55  1  0.08930900  0.58107000  0.29841900  1
  Ni  Ni56  1  0.53448200  0.13295500  0.30172100  1
  Ni  Ni57  1  0.50829800  0.38646100  0.37828000  1
  Ni  Ni58  1  0.03448200  0.86704500  0.19827900  1
  Ni  Ni59  1  0.05024000  0.36718000  0.69157000  1
  Ni  Ni60  1  0.96551800  0.13295500  0.80172100  1
  Ni  Ni61  1  0.44976000  0.36718000  0.19157000  1
  Ni  Ni62  1  0.94976000  0.63282000  0.30843000  1
  Ni  Ni63  1  0.91069100  0.41893000  0.70158100  1
  Ni  Ni64  1  0.00829800  0.61353900  0.12172000  1
  Ni  Ni65  1  0.46551800  0.86704500  0.69827900  1
  Ni  Ni66  1  0.99170200  0.38646100  0.87828000  1
  Ni  Ni67  1  0.55024000  0.63282000  0.80843000  1
  Cu  Cu68  1  0.47946100  0.67358300  0.73175900  1
  Cu  Cu69  1  0.92943600  0.11493600  0.41569500  1
  Cu  Cu70  1  0.79471200  0.69824200  0.94774400  1
  Cu  Cu71  1  0.31795400  0.77957900  0.37653200  1
  Cu  Cu72  1  0.97946100  0.32641700  0.76824100  1
  Cu  Cu73  1  0.70528800  0.69824200  0.44774400  1
  Cu  Cu74  1  0.07056400  0.88506400  0.58430500  1
  Cu  Cu75  1  0.57056400  0.11493600  0.91569500  1
  Cu  Cu76  1  0.52053900  0.32641700  0.26824100  1
  Cu  Cu77  1  0.18204600  0.77957900  0.87653200  1
  Cu  Cu78  1  0.29471200  0.30175800  0.55225600  1
  Cu  Cu79  1  0.68204600  0.22042100  0.62346800  1
  Cu  Cu80  1  0.20528800  0.30175800  0.05225600  1
  Cu  Cu81  1  0.02053900  0.67358300  0.23175900  1
  Cu  Cu82  1  0.81795400  0.22042100  0.12346800  1
  Cu  Cu83  1  0.42943600  0.88506400  0.08430500  1
  C  C84  1  0.72344400  0.74230100  0.92626200  1
  C  C85  1  0.27655600  0.25769900  0.07373800  1
  C  C86  1  0.74751000  0.25581500  0.09078300  1
  C  C87  1  0.83187700  0.79164500  0.00590500  1
  C  C88  1  0.15539900  0.92227300  0.89635200  1
  C  C89  1  0.23463700  0.86976500  0.13175100  1
  C  C90  1  0.75249000  0.25581500  0.59078300  1
  C  C91  1  0.22344400  0.25769900  0.57373800  1
  C  C92  1  0.34460100  0.92227300  0.39635200  1
  C  C93  1  0.61025500  0.19982200  0.97589400  1
  C  C94  1  0.24751000  0.74418500  0.40921700  1
  C  C95  1  0.67468500  0.57981600  0.41589700  1
  C  C96  1  0.00640400  0.83694200  0.62460700  1
  C  C97  1  0.26536300  0.86976500  0.63175100  1
  C  C98  1  0.89674600  0.97654800  0.40122000  1
  C  C99  1  0.25249000  0.74418500  0.90921700  1
  C  C100  1  0.49359600  0.83694200  0.12460700  1
  C  C101  1  0.99359600  0.16305800  0.37539300  1
  C  C102  1  0.35728400  0.68615300  0.33156900  1
  C  C103  1  0.10325400  0.02345200  0.59878000  1
  C  C104  1  0.32531500  0.42018400  0.58410300  1
  C  C105  1  0.64271600  0.31384700  0.66843100  1
  C  C106  1  0.38974500  0.80017800  0.02410600  1
  C  C107  1  0.18755600  0.12370500  0.35465200  1
  C  C108  1  0.85728400  0.31384700  0.16843100  1
  C  C109  1  0.14271600  0.68615300  0.83156900  1
  C  C110  1  0.68755600  0.87629500  0.14534800  1
  C  C111  1  0.39674600  0.02345200  0.09878000  1
  C  C112  1  0.82531500  0.57981600  0.91589700  1
  C  C113  1  0.76536300  0.13023500  0.86824900  1
  C  C114  1  0.66812300  0.79164500  0.50590500  1
  C  C115  1  0.60325400  0.97654800  0.90122000  1
  C  C116  1  0.16812300  0.20835500  0.99409500  1
  C  C117  1  0.65539900  0.07772700  0.60364800  1
  C  C118  1  0.81244400  0.87629500  0.64534800  1
  C  C119  1  0.88974500  0.19982200  0.47589400  1
  C  C120  1  0.77655600  0.74230100  0.42626200  1
  C  C121  1  0.33187700  0.20835500  0.49409500  1
  C  C122  1  0.17468500  0.42018400  0.08410300  1
  C  C123  1  0.73463700  0.13023500  0.36824900  1
  C  C124  1  0.11025500  0.80017800  0.52410600  1
  C  C125  1  0.31244400  0.12370500  0.85465200  1
  C  C126  1  0.84460100  0.07772700  0.10364800  1
  C  C127  1  0.50640400  0.16305800  0.87539300  1
