# generated using pymatgen
data_Cu20(NiC6)3
_symmetry_space_group_name_H-M   'P 1'
_cell_length_a   7.56117518
_cell_length_b   7.56117518
_cell_length_c   18.35007670
_cell_angle_alpha   78.84642497
_cell_angle_beta   78.84642497
_cell_angle_gamma   53.06556569
_symmetry_Int_Tables_number   1
_chemical_formula_structural   Cu20(NiC6)3
_chemical_formula_sum   'Cu40 Ni6 C36'
_cell_volume   818.73470084
_cell_formula_units_Z   2
loop_
 _symmetry_equiv_pos_site_id
 _symmetry_equiv_pos_as_xyz
  1  'x, y, z'
loop_
 _atom_site_type_symbol
 _atom_site_label
 _atom_site_symmetry_multiplicity
 _atom_site_fract_x
 _atom_site_fract_y
 _atom_site_fract_z
 _atom_site_occupancy
  C  C0  1  0.64549000  0.68939500  0.10723900  1
  C  C1  1  0.31060500  0.35451000  0.39276100  1
  C  C2  1  0.35451000  0.31060500  0.89276100  1
  C  C3  1  0.68939500  0.64549000  0.60723900  1
  C  C4  1  0.79886600  0.21296800  0.15891700  1
  C  C5  1  0.78703200  0.20113400  0.34108300  1
  C  C6  1  0.20113400  0.78703200  0.84108300  1
  C  C7  1  0.21296800  0.79886600  0.65891700  1
  C  C8  1  0.54003500  0.35162100  0.14761100  1
  C  C9  1  0.64837900  0.45996500  0.35238900  1
  C  C10  1  0.45996500  0.64837900  0.85238900  1
  C  C11  1  0.35162100  0.54003500  0.64761100  1
  C  C12  1  0.18023300  0.83550300  0.10562500  1
  C  C13  1  0.16449700  0.81976700  0.39437500  1
  C  C14  1  0.81976700  0.16449700  0.89437500  1
  C  C15  1  0.83550300  0.18023300  0.60562500  1
  C  C16  1  0.30978800  0.66638100  0.04399500  1
  C  C17  1  0.33361900  0.69021200  0.45600500  1
  C  C18  1  0.69021200  0.33361900  0.95600500  1
  C  C19  1  0.66638100  0.30978800  0.54399500  1
  C  C20  1  0.70643900  0.74605700  0.25469800  1
  C  C21  1  0.25394300  0.29356100  0.24530200  1
  C  C22  1  0.29356100  0.25394300  0.74530200  1
  C  C23  1  0.74605700  0.70643900  0.75469800  1
  C  C24  1  0.86648700  0.79206400  0.19701500  1
  C  C25  1  0.20793600  0.13351300  0.30298500  1
  C  C26  1  0.13351300  0.20793600  0.80298500  1
  C  C27  1  0.79206400  0.86648700  0.69701500  1
  C  C28  1  0.79095400  0.96099700  0.00809400  1
  C  C29  1  0.03900300  0.20904600  0.49190600  1
  C  C30  1  0.20904600  0.03900300  0.99190600  1
  C  C31  1  0.96099700  0.79095400  0.50809400  1
  C  C32  1  0.00135400  0.70857600  0.01737800  1
  C  C33  1  0.29142400  0.99864600  0.48262200  1
  C  C34  1  0.99864600  0.29142400  0.98262200  1
  C  C35  1  0.70857600  0.00135400  0.51737800  1
  Ni  Ni36  1  0.25282500  0.31067300  0.09054000  1
  Ni  Ni37  1  0.68932700  0.74717500  0.40946000  1
  Ni  Ni38  1  0.74717500  0.68932700  0.90946000  1
  Ni  Ni39  1  0.31067300  0.25282500  0.59054000  1
  Ni  Ni40  1  0.17257200  0.82742800  0.25000000  1
  Ni  Ni41  1  0.82742800  0.17257200  0.75000000  1
  Cu  Cu42  1  0.30414400  0.37043900  0.15158300  1
  Cu  Cu43  1  0.62956100  0.69585600  0.34841700  1
  Cu  Cu44  1  0.69585600  0.62956100  0.84841700  1
  Cu  Cu45  1  0.37043900  0.30414400  0.65158300  1
  Cu  Cu46  1  0.40951300  0.07057400  0.08167500  1
  Cu  Cu47  1  0.92942600  0.59048700  0.41832500  1
  Cu  Cu48  1  0.59048700  0.92942600  0.91832500  1
  Cu  Cu49  1  0.07057400  0.40951300  0.58167500  1
  Cu  Cu50  1  0.02186900  0.37584500  0.10397700  1
  Cu  Cu51  1  0.62415500  0.97813100  0.39602300  1
  Cu  Cu52  1  0.97813100  0.62415500  0.89602300  1
  Cu  Cu53  1  0.37584500  0.02186900  0.60397700  1
  Cu  Cu54  1  0.27619300  0.43433600  0.01774400  1
  Cu  Cu55  1  0.56566400  0.72380700  0.48225600  1
  Cu  Cu56  1  0.72380700  0.56566400  0.98225600  1
  Cu  Cu57  1  0.43433600  0.27619300  0.51774400  1
  Cu  Cu58  1  0.38509700  0.78493500  0.21222600  1
  Cu  Cu59  1  0.21506500  0.61490300  0.28777400  1
  Cu  Cu60  1  0.61490300  0.21506500  0.78777400  1
  Cu  Cu61  1  0.78493500  0.38509700  0.71222600  1
  Cu  Cu62  1  0.01241600  0.91901300  0.19299900  1
  Cu  Cu63  1  0.08098700  0.98758400  0.30700100  1
  Cu  Cu64  1  0.98758400  0.08098700  0.80700100  1
  Cu  Cu65  1  0.91901300  0.01241600  0.69299900  1
  Cu  Cu66  1  0.67027900  0.35814200  0.13973500  1
  Cu  Cu67  1  0.64185800  0.32972100  0.36026500  1
  Cu  Cu68  1  0.32972100  0.64185800  0.86026500  1
  Cu  Cu69  1  0.35814200  0.67027900  0.63973500  1
  Cu  Cu70  1  0.29959300  0.78540100  0.06317000  1
  Cu  Cu71  1  0.21459900  0.70040700  0.43683000  1
  Cu  Cu72  1  0.70040700  0.21459900  0.93683000  1
  Cu  Cu73  1  0.78540100  0.29959300  0.56317000  1
  Cu  Cu74  1  0.76285100  0.75104700  0.20139900  1
  Cu  Cu75  1  0.24895300  0.23714900  0.29860100  1
  Cu  Cu76  1  0.23714900  0.24895300  0.79860100  1
  Cu  Cu77  1  0.75104700  0.76285100  0.70139900  1
  Cu  Cu78  1  0.85854800  0.82374900  0.04276000  1
  Cu  Cu79  1  0.17625100  0.14145200  0.45724000  1
  Cu  Cu80  1  0.14145200  0.17625100  0.95724000  1
  Cu  Cu81  1  0.82374900  0.85854800  0.54276000  1
