# generated using pymatgen
data_CuNiC7
_symmetry_space_group_name_H-M   'P 1'
_cell_length_a   17.68021600
_cell_length_b   7.37243800
_cell_length_c   12.63450621
_cell_angle_alpha   88.72294885
_cell_angle_beta   90.00000000
_cell_angle_gamma   90.00000000
_symmetry_Int_Tables_number   1
_chemical_formula_structural   CuNiC7
_chemical_formula_sum   'Cu12 Ni12 C84'
_cell_volume   1646.45203583
_cell_formula_units_Z   12
loop_
 _symmetry_equiv_pos_site_id
 _symmetry_equiv_pos_as_xyz
  1  'x, y, z'
loop_
 _atom_site_type_symbol
 _atom_site_label
 _atom_site_symmetry_multiplicity
 _atom_site_fract_x
 _atom_site_fract_y
 _atom_site_fract_z
 _atom_site_occupancy
  Ni  Ni0  1  0.93851800  0.61622200  0.88084000  1
  Ni  Ni1  1  0.23122400  0.22887200  0.99102900  1
  Ni  Ni2  1  0.57967500  0.95094300  0.90437500  1
  Ni  Ni3  1  0.92032500  0.45094300  0.40437500  1
  Ni  Ni4  1  0.43851800  0.88377800  0.61916000  1
  Ni  Ni5  1  0.26877600  0.72887200  0.49102900  1
  Ni  Ni6  1  0.06148200  0.38377800  0.11916000  1
  Ni  Ni7  1  0.07967500  0.54905700  0.59562500  1
  Ni  Ni8  1  0.42032500  0.04905700  0.09562500  1
  Ni  Ni9  1  0.56148200  0.11622200  0.38084000  1
  Ni  Ni10  1  0.76877600  0.77112800  0.00897100  1
  Ni  Ni11  1  0.73122400  0.27112800  0.50897100  1
  Cu  Cu12  1  0.24715600  0.70437200  0.07395500  1
  Cu  Cu13  1  0.58947700  0.43306200  0.98638800  1
  Cu  Cu14  1  0.25284400  0.20437200  0.57395500  1
  Cu  Cu15  1  0.91052300  0.93306200  0.48638800  1
  Cu  Cu16  1  0.08426800  0.89202000  0.04064100  1
  Cu  Cu17  1  0.58426800  0.60798000  0.45935900  1
  Cu  Cu18  1  0.91573200  0.10798000  0.95935900  1
  Cu  Cu19  1  0.41052300  0.56693800  0.01361200  1
  Cu  Cu20  1  0.74715600  0.79562800  0.42604500  1
  Cu  Cu21  1  0.41573200  0.39202000  0.54064100  1
  Cu  Cu22  1  0.75284400  0.29562800  0.92604500  1
  Cu  Cu23  1  0.08947700  0.06693800  0.51361200  1
  C  C24  1  0.33052700  0.89373200  0.84963900  1
  C  C25  1  0.82950600  0.04602400  0.25549600  1
  C  C26  1  0.44170800  0.73455600  0.33422900  1
  C  C27  1  0.80522400  0.97786000  0.74404600  1
  C  C28  1  0.66947300  0.10626800  0.15036100  1
  C  C29  1  0.19477600  0.02214000  0.25595400  1
  C  C30  1  0.30522400  0.52214000  0.75595400  1
  C  C31  1  0.57115300  0.74703600  0.16820800  1
  C  C32  1  0.64050400  0.90394800  0.63763500  1
  C  C33  1  0.32950600  0.45397600  0.24450400  1
  C  C34  1  0.05829200  0.23455600  0.83422900  1
  C  C35  1  0.94170800  0.76544400  0.16577100  1
  C  C36  1  0.07115300  0.75296400  0.33179200  1
  C  C37  1  0.85949600  0.40394800  0.13763500  1
  C  C38  1  0.83052700  0.60626800  0.65036100  1
  C  C39  1  0.14050400  0.59605200  0.86236500  1
  C  C40  1  0.16947300  0.39373200  0.34963900  1
  C  C41  1  0.35949600  0.09605200  0.36236500  1
  C  C42  1  0.17049400  0.95397600  0.74450400  1
  C  C43  1  0.55829200  0.26544400  0.66577100  1
  C  C44  1  0.42884700  0.25296400  0.83179200  1
  C  C45  1  0.67049400  0.54602400  0.75549600  1
  C  C46  1  0.69477600  0.47786000  0.24404600  1
  C  C47  1  0.92884700  0.24703600  0.66820800  1
  C  C48  1  0.39572300  0.04471500  0.81245300  1
  C  C49  1  0.75350600  0.01656600  0.17957900  1
  C  C50  1  0.85500900  0.10983400  0.66113700  1
  C  C51  1  0.66097800  0.16584100  0.02934600  1
  C  C52  1  0.62210700  0.35640600  0.74260800  1
  C  C53  1  0.89572300  0.45528500  0.68754700  1
  C  C54  1  0.65624700  0.27210200  0.23514800  1
  C  C55  1  0.97344100  0.20004500  0.78168000  1
  C  C56  1  0.31379100  0.42457800  0.12188600  1
  C  C57  1  0.61851500  0.70992100  0.69901600  1
  C  C58  1  0.02655900  0.79995500  0.21832000  1
  C  C59  1  0.68620900  0.57542200  0.87811400  1
  C  C60  1  0.57329200  0.04217300  0.68289200  1
  C  C61  1  0.84375300  0.77210200  0.73514800  1
  C  C62  1  0.44141100  0.66827600  0.45492100  1
  C  C63  1  0.30522200  0.46249100  0.63626900  1
  C  C64  1  0.47877500  0.27073800  0.93636800  1
  C  C65  1  0.92670800  0.54217300  0.18289200  1
  C  C66  1  0.35500900  0.39016600  0.83886300  1
  C  C67  1  0.83902200  0.66584100  0.52934600  1
  C  C68  1  0.07329200  0.45782700  0.81710800  1
  C  C69  1  0.38148500  0.29007900  0.30098400  1
  C  C70  1  0.05858900  0.16827600  0.95492100  1
  C  C71  1  0.63915000  0.89305000  0.51196500  1
  C  C72  1  0.33902200  0.83415900  0.97065400  1
  C  C73  1  0.27848600  0.02441800  0.31457200  1
  C  C74  1  0.22151400  0.52441800  0.81457200  1
  C  C75  1  0.60427700  0.95528500  0.18754700  1
  C  C76  1  0.13915000  0.60695000  0.98803500  1
  C  C77  1  0.10427700  0.54471500  0.31245300  1
  C  C78  1  0.42670800  0.95782700  0.31710800  1
  C  C79  1  0.80522200  0.03750900  0.86373100  1
  C  C80  1  0.25350600  0.48343400  0.32042100  1
  C  C81  1  0.18620900  0.92457800  0.62188600  1
  C  C82  1  0.36085000  0.10695000  0.48803500  1
  C  C83  1  0.77848600  0.47558200  0.18542800  1
  C  C84  1  0.86085000  0.39305000  0.01196500  1
  C  C85  1  0.94141100  0.83172400  0.04507900  1
  C  C86  1  0.55858900  0.33172400  0.54507900  1
  C  C87  1  0.97877500  0.22926200  0.56363200  1
  C  C88  1  0.02122500  0.77073800  0.43636800  1
  C  C89  1  0.16097800  0.33415900  0.47065400  1
  C  C90  1  0.37789300  0.64359400  0.25739200  1
  C  C91  1  0.52122500  0.72926200  0.06363200  1
  C  C92  1  0.88148500  0.20992100  0.19901600  1
  C  C93  1  0.12210700  0.14359400  0.75739200  1
  C  C94  1  0.19477800  0.96249100  0.13626900  1
  C  C95  1  0.72151400  0.97558200  0.68542800  1
  C  C96  1  0.74649400  0.51656600  0.67957900  1
  C  C97  1  0.64499100  0.60983400  0.16113700  1
  C  C98  1  0.11851500  0.79007900  0.80098400  1
  C  C99  1  0.52655900  0.70004500  0.28168000  1
  C  C100  1  0.34375300  0.72789800  0.76485200  1
  C  C101  1  0.81379100  0.07542200  0.37811400  1
  C  C102  1  0.87789300  0.85640600  0.24260800  1
  C  C103  1  0.24649400  0.98343400  0.82042100  1
  C  C104  1  0.15624700  0.22789800  0.26485200  1
  C  C105  1  0.14499100  0.89016600  0.33886300  1
  C  C106  1  0.69477800  0.53750900  0.36373100  1
  C  C107  1  0.47344100  0.29995500  0.71832000  1
