# generated using pymatgen
data_Cu2(NiC)3
_symmetry_space_group_name_H-M   'P 1'
_cell_length_a   4.97893900
_cell_length_b   8.61408100
_cell_length_c   9.77748800
_cell_angle_alpha   90.00000000
_cell_angle_beta   90.00000000
_cell_angle_gamma   90.00000000
_symmetry_Int_Tables_number   1
_chemical_formula_structural   Cu2(NiC)3
_chemical_formula_sum   'Cu8 Ni12 C12'
_cell_volume   419.34652483
_cell_formula_units_Z   4
loop_
 _symmetry_equiv_pos_site_id
 _symmetry_equiv_pos_as_xyz
  1  'x, y, z'
loop_
 _atom_site_type_symbol
 _atom_site_label
 _atom_site_symmetry_multiplicity
 _atom_site_fract_x
 _atom_site_fract_y
 _atom_site_fract_z
 _atom_site_occupancy
  C  C0  1  0.72654000  0.75000000  0.50000000  1
  C  C1  1  0.27346000  0.25000000  0.00000000  1
  C  C2  1  0.27346000  0.25000000  0.50000000  1
  C  C3  1  0.72654000  0.75000000  0.00000000  1
  C  C4  1  0.24451900  0.91305900  0.25000000  1
  C  C5  1  0.75548100  0.41305900  0.25000000  1
  C  C6  1  0.24451900  0.58694100  0.75000000  1
  C  C7  1  0.75548100  0.08694100  0.75000000  1
  C  C8  1  0.20762100  0.91650200  0.75000000  1
  C  C9  1  0.20762100  0.58349800  0.25000000  1
  C  C10  1  0.79237900  0.41650200  0.75000000  1
  C  C11  1  0.79237900  0.08349800  0.25000000  1
  Ni  Ni12  1  0.37962400  0.80317100  0.75000000  1
  Ni  Ni13  1  0.28783600  0.05730600  0.75000000  1
  Ni  Ni14  1  0.95026600  0.88440300  0.75000000  1
  Ni  Ni15  1  0.37962400  0.69682900  0.25000000  1
  Ni  Ni16  1  0.04973400  0.11559700  0.25000000  1
  Ni  Ni17  1  0.62037600  0.30317100  0.75000000  1
  Ni  Ni18  1  0.04973400  0.38440300  0.75000000  1
  Ni  Ni19  1  0.71216400  0.55730600  0.75000000  1
  Ni  Ni20  1  0.95026600  0.61559700  0.25000000  1
  Ni  Ni21  1  0.28783600  0.44269400  0.25000000  1
  Ni  Ni22  1  0.62037600  0.19682900  0.25000000  1
  Ni  Ni23  1  0.71216400  0.94269400  0.25000000  1
  Cu  Cu24  1  0.24111600  0.91473300  0.44959200  1
  Cu  Cu25  1  0.75888400  0.08526700  0.94959200  1
  Cu  Cu26  1  0.24111600  0.58526700  0.94959200  1
  Cu  Cu27  1  0.24111600  0.58526700  0.55040800  1
  Cu  Cu28  1  0.24111600  0.91473300  0.05040800  1
  Cu  Cu29  1  0.75888400  0.08526700  0.55040800  1
  Cu  Cu30  1  0.75888400  0.41473300  0.05040800  1
  Cu  Cu31  1  0.75888400  0.41473300  0.44959200  1
