# generated using pymatgen
data_CuNi3C10
_symmetry_space_group_name_H-M   'P 1'
_cell_length_a   11.64596300
_cell_length_b   6.79399400
_cell_length_c   11.36165593
_cell_angle_alpha   60.96686478
_cell_angle_beta   90.00000000
_cell_angle_gamma   90.00000000
_symmetry_Int_Tables_number   1
_chemical_formula_structural   CuNi3C10
_chemical_formula_sum   'Cu4 Ni12 C40'
_cell_volume   785.99926745
_cell_formula_units_Z   4
loop_
 _symmetry_equiv_pos_site_id
 _symmetry_equiv_pos_as_xyz
  1  'x, y, z'
loop_
 _atom_site_type_symbol
 _atom_site_label
 _atom_site_symmetry_multiplicity
 _atom_site_fract_x
 _atom_site_fract_y
 _atom_site_fract_z
 _atom_site_occupancy
  C  C0  1  0.59564300  0.22421300  0.32745200  1
  C  C1  1  0.88804700  0.01618200  0.35728500  1
  C  C2  1  0.74363000  0.97993400  0.92197900  1
  C  C3  1  0.09564300  0.77578700  0.17254800  1
  C  C4  1  0.61195300  0.01618200  0.85728500  1
  C  C5  1  0.38804700  0.98381800  0.14271500  1
  C  C6  1  0.54044000  0.36737000  0.17259300  1
  C  C7  1  0.14141900  0.51858000  0.27714500  1
  C  C8  1  0.90435700  0.22421300  0.82745200  1
  C  C9  1  0.64141900  0.48142000  0.22285500  1
  C  C10  1  0.04044000  0.63263000  0.32740700  1
  C  C11  1  0.19414500  0.18714700  0.63758800  1
  C  C12  1  0.95956000  0.36737000  0.67259300  1
  C  C13  1  0.30585500  0.18714700  0.13758800  1
  C  C14  1  0.85858100  0.48142000  0.72285500  1
  C  C15  1  0.40435700  0.77578700  0.67254800  1
  C  C16  1  0.75637000  0.97993400  0.42197900  1
  C  C17  1  0.35858100  0.51858000  0.77714500  1
  C  C18  1  0.11195300  0.98381800  0.64271500  1
  C  C19  1  0.69414500  0.81285300  0.86241200  1
  C  C20  1  0.45956000  0.63263000  0.82740700  1
  C  C21  1  0.80585500  0.81285300  0.36241200  1
  C  C22  1  0.25637000  0.02006600  0.07802100  1
  C  C23  1  0.24363000  0.02006600  0.57802100  1
  C  C24  1  0.24012100  0.80425100  0.34915900  1
  C  C25  1  0.74012100  0.19574900  0.15084100  1
  C  C26  1  0.75987900  0.19574900  0.65084100  1
  C  C27  1  0.25987900  0.80425100  0.84915900  1
  Ni  Ni28  1  0.15511100  0.60164400  0.87991500  1
  Ni  Ni29  1  0.69500400  0.97534300  0.84718500  1
  Ni  Ni30  1  0.84488900  0.39835600  0.12008500  1
  Ni  Ni31  1  0.61466500  0.33347600  0.22802700  1
  Ni  Ni32  1  0.88533500  0.33347600  0.72802700  1
  Ni  Ni33  1  0.19500400  0.02465700  0.65281500  1
  Ni  Ni34  1  0.65511100  0.39835600  0.62008500  1
  Ni  Ni35  1  0.38533500  0.66652400  0.77197300  1
  Ni  Ni36  1  0.30499600  0.02465700  0.15281500  1
  Ni  Ni37  1  0.11466500  0.66652400  0.27197300  1
  Ni  Ni38  1  0.34488900  0.60164400  0.37991500  1
  Ni  Ni39  1  0.80499600  0.97534300  0.34718500  1
  C  C40  1  0.15462500  0.58040200  0.56952400  1
  C  C41  1  0.65462500  0.41959800  0.93047600  1
  C  C42  1  0.84537500  0.41959800  0.43047600  1
  C  C43  1  0.60365400  0.90965900  0.19586200  1
  C  C44  1  0.86680300  0.00887500  0.06979100  1
  C  C45  1  0.36680300  0.99112500  0.43020900  1
  C  C46  1  0.63319700  0.00887500  0.56979100  1
  C  C47  1  0.13319700  0.99112500  0.93020900  1
  C  C48  1  0.34537500  0.58040200  0.06952400  1
  C  C49  1  0.10365400  0.09034100  0.30413800  1
  C  C50  1  0.89634600  0.90965900  0.69586200  1
  C  C51  1  0.39634600  0.09034100  0.80413800  1
  Cu  Cu52  1  0.58115600  0.52797600  0.59660100  1
  Cu  Cu53  1  0.08115600  0.47202400  0.90339900  1
  Cu  Cu54  1  0.41884400  0.47202400  0.40339900  1
  Cu  Cu55  1  0.91884400  0.52797600  0.09660100  1
