# generated using pymatgen
data_CuNi
_symmetry_space_group_name_H-M   'P 1'
_cell_length_a   3.09416346
_cell_length_b   3.09416346
_cell_length_c   98.70974100
_cell_angle_alpha   90.00000000
_cell_angle_beta   90.00000000
_cell_angle_gamma   119.99998838
_symmetry_Int_Tables_number   1
_chemical_formula_structural   CuNi
_chemical_formula_sum   'Cu39 Ni39'
_cell_volume   818.42182103
_cell_formula_units_Z   39
loop_
 _symmetry_equiv_pos_site_id
 _symmetry_equiv_pos_as_xyz
  1  'x, y, z'
loop_
 _atom_site_type_symbol
 _atom_site_label
 _atom_site_symmetry_multiplicity
 _atom_site_fract_x
 _atom_site_fract_y
 _atom_site_fract_z
 _atom_site_occupancy
  Ni  Ni0  1  0.33333300  0.66666700  0.17949300  1
  Ni  Ni1  1  0.00000000  0.00000000  0.79484400  1
  Ni  Ni2  1  0.33333300  0.66666700  0.61538700  1
  Ni  Ni3  1  0.66666700  0.33333300  0.46154100  1
  Ni  Ni4  1  0.33333300  0.66666700  0.97435100  1
  Ni  Ni5  1  0.33333300  0.66666700  0.76922700  1
  Ni  Ni6  1  0.00000000  0.00000000  0.53846500  1
  Ni  Ni7  1  0.33333300  0.66666700  0.56409100  1
  Ni  Ni8  1  0.33333300  0.66666700  0.92306900  1
  Ni  Ni9  1  0.00000000  0.00000000  0.15384100  1
  Ni  Ni10  1  0.66666700  0.33333300  0.05125900  1
  Ni  Ni11  1  0.00000000  0.00000000  0.89744300  1
  Ni  Ni12  1  0.66666700  0.33333300  0.41024700  1
  Ni  Ni13  1  0.33333300  0.66666700  0.33333200  1
  Ni  Ni14  1  0.33333300  0.66666700  0.43588500  1
  Ni  Ni15  1  0.00000000  0.00000000  0.84613600  1
  Ni  Ni16  1  0.33333300  0.66666700  0.51279600  1
  Ni  Ni17  1  0.66666700  0.33333300  0.82050300  1
  Ni  Ni18  1  0.00000000  0.00000000  0.48715500  1
  Ni  Ni19  1  0.66666700  0.33333300  0.58973200  1
  Ni  Ni20  1  0.00000000  0.00000000  0.69231300  1
  Ni  Ni21  1  0.66666700  0.33333300  0.25640800  1
  Ni  Ni22  1  0.66666700  0.33333300  0.74358100  1
  Ni  Ni23  1  0.66666700  0.33333300  0.20510600  1
  Ni  Ni24  1  0.33333300  0.66666700  0.71793000  1
  Ni  Ni25  1  0.33333300  0.66666700  0.02564300  1
  Ni  Ni26  1  0.00000000  0.00000000  0.23076300  1
  Ni  Ni27  1  0.00000000  0.00000000  0.64100600  1
  Ni  Ni28  1  0.33333300  0.66666700  0.12818300  1
  Ni  Ni29  1  0.33333300  0.66666700  0.87176900  1
  Ni  Ni30  1  0.00000000  0.00000000  0.07691000  1
  Ni  Ni31  1  0.66666700  0.33333300  0.35894800  1
  Ni  Ni32  1  0.00000000  0.00000000  0.30768000  1
  Ni  Ni33  1  0.66666700  0.33333300  0.10256000  1
  Ni  Ni34  1  0.00000000  0.00000000  0.99999100  1
  Ni  Ni35  1  0.66666700  0.33333300  0.66666100  1
  Ni  Ni36  1  0.66666700  0.33333300  0.94871200  1
  Ni  Ni37  1  0.00000000  0.00000000  0.38461200  1
  Ni  Ni38  1  0.33333300  0.66666700  0.28201800  1
  Cu  Cu39  1  0.00000000  0.00000000  0.40389700  1
  Cu  Cu40  1  0.00000000  0.00000000  0.66023600  1
  Cu  Cu41  1  0.00000000  0.00000000  0.32696100  1
  Cu  Cu42  1  0.66666700  0.33333300  0.42946100  1
  Cu  Cu43  1  0.66666700  0.33333300  0.60902300  1
  Cu  Cu44  1  0.33333300  0.66666700  0.19872400  1
  Cu  Cu45  1  0.00000000  0.00000000  0.91671300  1
  Cu  Cu46  1  0.00000000  0.00000000  0.86535100  1
  Cu  Cu47  1  0.00000000  0.00000000  0.01927400  1
  Cu  Cu48  1  0.33333300  0.66666700  0.45518200  1
  Cu  Cu49  1  0.33333300  0.66666700  0.73716300  1
  Cu  Cu50  1  0.33333300  0.66666700  0.78847200  1
  Cu  Cu51  1  0.33333300  0.66666700  0.14741700  1
  Cu  Cu52  1  0.33333300  0.66666700  0.04486900  1
  Cu  Cu53  1  0.66666700  0.33333300  0.83978600  1
  Cu  Cu54  1  0.66666700  0.33333300  0.12180200  1
  Cu  Cu55  1  0.33333300  0.66666700  0.35256700  1
  Cu  Cu56  1  0.66666700  0.33333300  0.76286500  1
  Cu  Cu57  1  0.66666700  0.33333300  0.27564300  1
  Cu  Cu58  1  0.66666700  0.33333300  0.96799500  1
  Cu  Cu59  1  0.00000000  0.00000000  0.81407900  1
  Cu  Cu60  1  0.00000000  0.00000000  0.71154000  1
  Cu  Cu61  1  0.00000000  0.00000000  0.55773300  1
  Cu  Cu62  1  0.33333300  0.66666700  0.94228400  1
  Cu  Cu63  1  0.66666700  0.33333300  0.37818500  1
  Cu  Cu64  1  0.00000000  0.00000000  0.50638900  1
  Cu  Cu65  1  0.33333300  0.66666700  0.89104300  1
  Cu  Cu66  1  0.33333300  0.66666700  0.30125900  1
  Cu  Cu67  1  0.66666700  0.33333300  0.22433900  1
  Cu  Cu68  1  0.66666700  0.33333300  0.68594400  1
  Cu  Cu69  1  0.00000000  0.00000000  0.17312800  1
  Cu  Cu70  1  0.33333300  0.66666700  0.99356100  1
  Cu  Cu71  1  0.66666700  0.33333300  0.48077600  1
  Cu  Cu72  1  0.33333300  0.66666700  0.53206300  1
  Cu  Cu73  1  0.33333300  0.66666700  0.58330400  1
  Cu  Cu74  1  0.66666700  0.33333300  0.07049300  1
  Cu  Cu75  1  0.00000000  0.00000000  0.09619500  1
  Cu  Cu76  1  0.33333300  0.66666700  0.63462200  1
  Cu  Cu77  1  0.00000000  0.00000000  0.25004700  1
