# generated using pymatgen
data_Cu4NiC
_symmetry_space_group_name_H-M   'P 1'
_cell_length_a   7.85665097
_cell_length_b   7.85665097
_cell_length_c   7.85665091
_cell_angle_alpha   33.52023086
_cell_angle_beta   33.52023086
_cell_angle_gamma   33.52023579
_symmetry_Int_Tables_number   1
_chemical_formula_structural   Cu4NiC
_chemical_formula_sum   'Cu8 Ni2 C2'
_cell_volume   131.72586558
_cell_formula_units_Z   2
loop_
 _symmetry_equiv_pos_site_id
 _symmetry_equiv_pos_as_xyz
  1  'x, y, z'
loop_
 _atom_site_type_symbol
 _atom_site_label
 _atom_site_symmetry_multiplicity
 _atom_site_fract_x
 _atom_site_fract_y
 _atom_site_fract_z
 _atom_site_occupancy
  C  C0  1  0.50000000  0.50000000  0.50000000  1
  C  C1  1  0.00000000  0.00000000  0.00000000  1
  Ni  Ni2  1  0.25578800  0.25578800  0.25578800  1
  Ni  Ni3  1  0.74421200  0.74421200  0.74421200  1
  Cu  Cu4  1  0.79971700  0.79971700  0.79971700  1
  Cu  Cu5  1  0.01478000  0.52836000  0.63501100  1
  Cu  Cu6  1  0.98522000  0.47164000  0.36498900  1
  Cu  Cu7  1  0.47164000  0.36498900  0.98522000  1
  Cu  Cu8  1  0.52836000  0.63501100  0.01478000  1
  Cu  Cu9  1  0.20028300  0.20028300  0.20028300  1
  Cu  Cu10  1  0.63501100  0.01478000  0.52836000  1
  Cu  Cu11  1  0.36498900  0.98522000  0.47164000  1
