# generated using pymatgen
data_CuNiC5
_symmetry_space_group_name_H-M   'P 1'
_cell_length_a   9.22598355
_cell_length_b   9.22598355
_cell_length_c   8.86855500
_cell_angle_alpha   90.00000000
_cell_angle_beta   90.00000000
_cell_angle_gamma   119.99999678
_symmetry_Int_Tables_number   1
_chemical_formula_structural   CuNiC5
_chemical_formula_sum   'Cu6 Ni6 C30'
_cell_volume   653.74572425
_cell_formula_units_Z   6
loop_
 _symmetry_equiv_pos_site_id
 _symmetry_equiv_pos_as_xyz
  1  'x, y, z'
loop_
 _atom_site_type_symbol
 _atom_site_label
 _atom_site_symmetry_multiplicity
 _atom_site_fract_x
 _atom_site_fract_y
 _atom_site_fract_z
 _atom_site_occupancy
  C  C0  1  0.66666700  0.33333300  0.22755700  1
  C  C1  1  0.66666700  0.33333300  0.73060100  1
  C  C2  1  0.33333300  0.66666700  0.23060100  1
  C  C3  1  0.00000000  0.00000000  0.24743300  1
  C  C4  1  0.33333300  0.66666700  0.72755700  1
  C  C5  1  0.00000000  0.00000000  0.74743300  1
  Ni  Ni6  1  0.67689000  0.66719800  0.53569900  1
  Ni  Ni7  1  0.32311000  0.33280200  0.03569900  1
  Ni  Ni8  1  0.66719800  0.99030900  0.03569900  1
  Ni  Ni9  1  0.33280200  0.00969100  0.53569900  1
  Ni  Ni10  1  0.99030900  0.32311000  0.53569900  1
  Ni  Ni11  1  0.00969100  0.67689000  0.03569900  1
  Cu  Cu12  1  0.66129600  0.98835800  0.43502700  1
  Cu  Cu13  1  0.01164200  0.67293800  0.43502700  1
  Cu  Cu14  1  0.98835800  0.32706200  0.93502700  1
  Cu  Cu15  1  0.33870400  0.01164200  0.93502700  1
  Cu  Cu16  1  0.32706200  0.33870400  0.43502700  1
  Cu  Cu17  1  0.67293800  0.66129600  0.93502700  1
  C  C18  1  0.28864300  0.34940900  0.25535700  1
  C  C19  1  0.53284400  0.09815700  0.99813900  1
  C  C20  1  0.23937800  0.80636600  0.95651900  1
  C  C21  1  0.09012600  0.85692900  0.51839600  1
  C  C22  1  0.76680300  0.90987400  0.51839600  1
  C  C23  1  0.85692900  0.76680300  0.01839600  1
  C  C24  1  0.80636600  0.56698900  0.45651900  1
  C  C25  1  0.56531300  0.46715600  0.99813900  1
  C  C26  1  0.14307100  0.23319700  0.51839600  1
  C  C27  1  0.09815700  0.56531300  0.49813900  1
  C  C28  1  0.90987400  0.14307100  0.01839600  1
  C  C29  1  0.06076600  0.71135700  0.25535700  1
  C  C30  1  0.19363400  0.43301100  0.95651900  1
  C  C31  1  0.71135700  0.65059100  0.75535700  1
  C  C32  1  0.76062200  0.19363400  0.45651900  1
  C  C33  1  0.43468700  0.53284400  0.49813900  1
  C  C34  1  0.34940900  0.06076600  0.75535700  1
  C  C35  1  0.43301100  0.23937800  0.45651900  1
  C  C36  1  0.23319700  0.09012600  0.01839600  1
  C  C37  1  0.46715600  0.90184300  0.49813900  1
  C  C38  1  0.93923400  0.28864300  0.75535700  1
  C  C39  1  0.56698900  0.76062200  0.95651900  1
  C  C40  1  0.65059100  0.93923400  0.25535700  1
  C  C41  1  0.90184300  0.43468700  0.99813900  1
