# generated using pymatgen
data_CuNiC4
_symmetry_space_group_name_H-M   'P 1'
_cell_length_a   5.39426430
_cell_length_b   5.39426430
_cell_length_c   10.87933500
_cell_angle_alpha   90.00000000
_cell_angle_beta   90.00000000
_cell_angle_gamma   120.00000362
_symmetry_Int_Tables_number   1
_chemical_formula_structural   CuNiC4
_chemical_formula_sum   'Cu3 Ni3 C12'
_cell_volume   274.15578101
_cell_formula_units_Z   3
loop_
 _symmetry_equiv_pos_site_id
 _symmetry_equiv_pos_as_xyz
  1  'x, y, z'
loop_
 _atom_site_type_symbol
 _atom_site_label
 _atom_site_symmetry_multiplicity
 _atom_site_fract_x
 _atom_site_fract_y
 _atom_site_fract_z
 _atom_site_occupancy
  Ni  Ni0  1  0.00000000  0.50000000  0.83333300  1
  Ni  Ni1  1  0.50000000  0.00000000  0.50000000  1
  Ni  Ni2  1  0.50000000  0.50000000  0.16666700  1
  Cu  Cu3  1  0.50000000  0.50000000  0.66666700  1
  Cu  Cu4  1  0.00000000  0.50000000  0.33333300  1
  Cu  Cu5  1  0.50000000  0.00000000  0.00000000  1
  C  C6  1  0.56274100  0.26524500  0.26686000  1
  C  C7  1  0.73475500  0.29749600  0.60019400  1
  C  C8  1  0.26524500  0.70250400  0.60019400  1
  C  C9  1  0.26524500  0.56274100  0.06647300  1
  C  C10  1  0.56274100  0.29749600  0.39980600  1
  C  C11  1  0.29749600  0.56274100  0.93352700  1
  C  C12  1  0.43725900  0.73475500  0.26686000  1
  C  C13  1  0.73475500  0.43725900  0.06647300  1
  C  C14  1  0.43725900  0.70250400  0.39980600  1
  C  C15  1  0.70250400  0.43725900  0.93352700  1
  C  C16  1  0.70250400  0.26524500  0.73314000  1
  C  C17  1  0.29749600  0.73475500  0.73314000  1
