# generated using pymatgen
data_Cu15NiC6
_symmetry_space_group_name_H-M   'P 1'
_cell_length_a   18.71649426
_cell_length_b   18.71649426
_cell_length_c   18.71649426
_cell_angle_alpha   109.47122063
_cell_angle_beta   109.47122063
_cell_angle_gamma   109.47122063
_symmetry_Int_Tables_number   1
_chemical_formula_structural   Cu15NiC6
_chemical_formula_sum   'Cu120 Ni8 C48'
_cell_volume   5047.21291320
_cell_formula_units_Z   8
loop_
 _symmetry_equiv_pos_site_id
 _symmetry_equiv_pos_as_xyz
  1  'x, y, z'
loop_
 _atom_site_type_symbol
 _atom_site_label
 _atom_site_symmetry_multiplicity
 _atom_site_fract_x
 _atom_site_fract_y
 _atom_site_fract_z
 _atom_site_occupancy
  C  C0  1  0.59529900  0.98097200  0.95463500  1
  C  C1  1  0.59529900  0.11432700  0.64066400  1
  C  C2  1  0.51902800  0.90470100  0.54536500  1
  C  C3  1  0.09529900  0.45463500  0.48097200  1
  C  C4  1  0.09529900  0.14066400  0.61432700  1
  C  C5  1  0.01902800  0.04536500  0.40470100  1
  C  C6  1  0.64066400  0.54536500  0.52633700  1
  C  C7  1  0.95463500  0.85933600  0.97366300  1
  C  C8  1  0.97366300  0.95463500  0.85933600  1
  C  C9  1  0.85933600  0.38567300  0.90470100  1
  C  C10  1  0.95463500  0.59529900  0.98097200  1
  C  C11  1  0.97366300  0.51902800  0.11432700  1
  C  C12  1  0.14066400  0.02633700  0.04536500  1
  C  C13  1  0.45463500  0.47366300  0.35933600  1
  C  C14  1  0.47366300  0.35933600  0.45463500  1
  C  C15  1  0.35933600  0.40470100  0.88567300  1
  C  C16  1  0.45463500  0.48097200  0.09529900  1
  C  C17  1  0.47366300  0.61432700  0.01902800  1
  C  C18  1  0.11432700  0.97366300  0.51902800  1
  C  C19  1  0.98097200  0.52633700  0.38567300  1
  C  C20  1  0.11432700  0.64066400  0.59529900  1
  C  C21  1  0.61432700  0.01902800  0.47366300  1
  C  C22  1  0.48097200  0.88567300  0.02633700  1
  C  C23  1  0.61432700  0.09529900  0.14066400  1
  C  C24  1  0.38567300  0.90470100  0.85933600  1
  C  C25  1  0.51902800  0.11432700  0.97366300  1
  C  C26  1  0.38567300  0.98097200  0.52633700  1
  C  C27  1  0.88567300  0.35933600  0.40470100  1
  C  C28  1  0.01902800  0.47366300  0.61432700  1
  C  C29  1  0.88567300  0.02633700  0.48097200  1
  C  C30  1  0.52633700  0.38567300  0.98097200  1
  C  C31  1  0.54536500  0.51902800  0.90470100  1
  C  C32  1  0.64066400  0.59529900  0.11432700  1
  C  C33  1  0.52633700  0.64066400  0.54536500  1
  C  C34  1  0.54536500  0.52633700  0.64066400  1
  C  C35  1  0.85933600  0.97366300  0.95463500  1
  C  C36  1  0.02633700  0.48097200  0.88567300  1
  C  C37  1  0.04536500  0.40470100  0.01902800  1
  C  C38  1  0.14066400  0.61432700  0.09529900  1
  C  C39  1  0.02633700  0.04536500  0.14066400  1
  C  C40  1  0.04536500  0.14066400  0.02633700  1
  C  C41  1  0.35933600  0.45463500  0.47366300  1
  C  C42  1  0.98097200  0.95463500  0.59529900  1
  C  C43  1  0.90470100  0.85933600  0.38567300  1
  C  C44  1  0.90470100  0.54536500  0.51902800  1
  C  C45  1  0.48097200  0.09529900  0.45463500  1
  C  C46  1  0.40470100  0.88567300  0.35933600  1
  C  C47  1  0.40470100  0.01902800  0.04536500  1
  Ni  Ni48  1  0.00000000  0.50000000  0.50000000  1
  Ni  Ni49  1  0.00000000  0.00000000  0.50000000  1
  Ni  Ni50  1  0.00000000  0.50000000  0.00000000  1
  Ni  Ni51  1  0.00000000  0.00000000  0.00000000  1
  Ni  Ni52  1  0.50000000  0.50000000  0.50000000  1
  Ni  Ni53  1  0.50000000  0.00000000  0.50000000  1
  Ni  Ni54  1  0.50000000  0.50000000  0.00000000  1
  Ni  Ni55  1  0.50000000  0.00000000  0.00000000  1
  Cu  Cu56  1  0.05210600  0.44789400  0.75000000  1
  Cu  Cu57  1  0.73111100  0.08877600  0.10359500  1
  Cu  Cu58  1  0.41122400  0.76888900  0.39640500  1
  Cu  Cu59  1  0.73111100  0.14233400  0.62751600  1
  Cu  Cu60  1  0.55210600  0.25000000  0.94789400  1
  Cu  Cu61  1  0.23111100  0.60359500  0.58877600  1
  Cu  Cu62  1  0.91122400  0.89640500  0.26888900  1
  Cu  Cu63  1  0.23111100  0.12751600  0.64233400  1
  Cu  Cu64  1  0.30210600  0.75000000  0.19789400  1
  Cu  Cu65  1  0.62751600  0.39640500  0.48518100  1
  Cu  Cu66  1  0.01481900  0.10359500  0.87248400  1
  Cu  Cu67  1  0.39486400  0.02123600  0.81615900  1
  Cu  Cu68  1  0.10359500  0.87248400  0.01481900  1
  Cu  Cu69  1  0.80210600  0.69789400  0.25000000  1
  Cu  Cu70  1  0.87248400  0.35766600  0.76888900  1
  Cu  Cu71  1  0.10359500  0.73111100  0.08877600  1
  Cu  Cu72  1  0.01481900  0.41122400  0.14233400  1
  Cu  Cu73  1  0.12751600  0.98518100  0.89640500  1
  Cu  Cu74  1  0.51481900  0.37248400  0.60359500  1
  Cu  Cu75  1  0.47876400  0.10513600  0.68384100  1
  Cu  Cu76  1  0.39486400  0.87362800  0.57870500  1
  Cu  Cu77  1  0.05210600  0.10421300  0.30210600  1
  Cu  Cu78  1  0.47876400  0.87362800  0.79492300  1
  Cu  Cu79  1  0.89486400  0.31615900  0.52123600  1
  Cu  Cu80  1  0.62637200  0.10513600  0.92129500  1
  Cu  Cu81  1  0.60359500  0.51481900  0.37248400  1
  Cu  Cu82  1  0.10421300  0.30210600  0.05210600  1
  Cu  Cu83  1  0.37248400  0.26888900  0.85766600  1
  Cu  Cu84  1  0.51481900  0.64233400  0.91122400  1
  Cu  Cu85  1  0.60359500  0.58877600  0.23111100  1
  Cu  Cu86  1  0.14233400  0.01481900  0.41122400  1
  Cu  Cu87  1  0.14233400  0.62751600  0.73111100  1
  Cu  Cu88  1  0.97876400  0.18384100  0.60513600  1
  Cu  Cu89  1  0.62637200  0.02123600  0.70507700  1
  Cu  Cu90  1  0.89486400  0.07870500  0.37362800  1
  Cu  Cu91  1  0.55210600  0.80210600  0.60421300  1
  Cu  Cu92  1  0.97876400  0.29492300  0.37362800  1
  Cu  Cu93  1  0.57870500  0.68384100  0.70507700  1
  Cu  Cu94  1  0.12637200  0.42129500  0.60513600  1
  Cu  Cu95  1  0.08877600  0.48518100  0.35766600  1
  Cu  Cu96  1  0.60421300  0.55210600  0.80210600  1
  Cu  Cu97  1  0.57870500  0.39486400  0.87362800  1
  Cu  Cu98  1  0.70507700  0.62637200  0.02123600  1
  Cu  Cu99  1  0.68384100  0.47876400  0.10513600  1
  Cu  Cu100  1  0.64233400  0.91122400  0.51481900  1
  Cu  Cu101  1  0.64233400  0.23111100  0.12751600  1
  Cu  Cu102  1  0.79492300  0.81615900  0.92129500  1
  Cu  Cu103  1  0.12637200  0.20507700  0.52123600  1
  Cu  Cu104  1  0.81615900  0.92129500  0.79492300  1
  Cu  Cu105  1  0.19789400  0.39578700  0.44789400  1
  Cu  Cu106  1  0.75000000  0.05210600  0.44789400  1
  Cu  Cu107  1  0.75000000  0.19789400  0.30210600  1
  Cu  Cu108  1  0.30210600  0.05210600  0.10421300  1
  Cu  Cu109  1  0.68384100  0.70507700  0.57870500  1
  Cu  Cu110  1  0.07870500  0.20507700  0.18384100  1
  Cu  Cu111  1  0.70507700  0.57870500  0.68384100  1
  Cu  Cu112  1  0.58877600  0.85766600  0.98518100  1
  Cu  Cu113  1  0.07870500  0.37362800  0.89486400  1
  Cu  Cu114  1  0.18384100  0.60513600  0.97876400  1
  Cu  Cu115  1  0.20507700  0.52123600  0.12637200  1
  Cu  Cu116  1  0.79492300  0.47876400  0.87362800  1
  Cu  Cu117  1  0.81615900  0.39486400  0.02123600  1
  Cu  Cu118  1  0.92129500  0.62637200  0.10513600  1
  Cu  Cu119  1  0.41122400  0.14233400  0.01481900  1
  Cu  Cu120  1  0.29492300  0.42129500  0.31615900  1
  Cu  Cu121  1  0.92129500  0.79492300  0.81615900  1
  Cu  Cu122  1  0.31615900  0.29492300  0.42129500  1
  Cu  Cu123  1  0.69789400  0.94789400  0.89578700  1
  Cu  Cu124  1  0.25000000  0.80210600  0.69789400  1
  Cu  Cu125  1  0.25000000  0.94789400  0.55210600  1
  Cu  Cu126  1  0.80210600  0.60421300  0.55210600  1
  Cu  Cu127  1  0.18384100  0.07870500  0.20507700  1
  Cu  Cu128  1  0.87362800  0.79492300  0.47876400  1
  Cu  Cu129  1  0.20507700  0.18384100  0.07870500  1
  Cu  Cu130  1  0.35766600  0.76888900  0.87248400  1
  Cu  Cu131  1  0.35766600  0.08877600  0.48518100  1
  Cu  Cu132  1  0.31615900  0.52123600  0.89486400  1
  Cu  Cu133  1  0.29492300  0.37362800  0.97876400  1
  Cu  Cu134  1  0.42129500  0.60513600  0.12637200  1
  Cu  Cu135  1  0.39578700  0.44789400  0.19789400  1
  Cu  Cu136  1  0.91122400  0.51481900  0.64233400  1
  Cu  Cu137  1  0.87362800  0.57870500  0.39486400  1
  Cu  Cu138  1  0.42129500  0.31615900  0.29492300  1
  Cu  Cu139  1  0.02123600  0.70507700  0.62637200  1
  Cu  Cu140  1  0.44789400  0.19789400  0.39578700  1
  Cu  Cu141  1  0.10513600  0.92129500  0.62637200  1
  Cu  Cu142  1  0.37362800  0.97876400  0.29492300  1
  Cu  Cu143  1  0.02123600  0.81615900  0.39486400  1
  Cu  Cu144  1  0.85766600  0.37248400  0.26888900  1
  Cu  Cu145  1  0.85766600  0.98518100  0.58877600  1
  Cu  Cu146  1  0.39640500  0.41122400  0.76888900  1
  Cu  Cu147  1  0.48518100  0.35766600  0.08877600  1
  Cu  Cu148  1  0.62751600  0.73111100  0.14233400  1
  Cu  Cu149  1  0.89578700  0.69789400  0.94789400  1
  Cu  Cu150  1  0.39640500  0.48518100  0.62751600  1
  Cu  Cu151  1  0.37362800  0.89486400  0.07870500  1
  Cu  Cu152  1  0.10513600  0.68384100  0.47876400  1
  Cu  Cu153  1  0.52123600  0.12637200  0.20507700  1
  Cu  Cu154  1  0.94789400  0.89578700  0.69789400  1
  Cu  Cu155  1  0.60513600  0.12637200  0.42129500  1
  Cu  Cu156  1  0.52123600  0.89486400  0.31615900  1
  Cu  Cu157  1  0.48518100  0.62751600  0.39640500  1
  Cu  Cu158  1  0.87248400  0.01481900  0.10359500  1
  Cu  Cu159  1  0.98518100  0.58877600  0.85766600  1
  Cu  Cu160  1  0.89640500  0.26888900  0.91122400  1
  Cu  Cu161  1  0.12751600  0.64233400  0.23111100  1
  Cu  Cu162  1  0.19789400  0.30210600  0.75000000  1
  Cu  Cu163  1  0.89640500  0.12751600  0.98518100  1
  Cu  Cu164  1  0.60513600  0.97876400  0.18384100  1
  Cu  Cu165  1  0.98518100  0.89640500  0.12751600  1
  Cu  Cu166  1  0.37248400  0.60359500  0.51481900  1
  Cu  Cu167  1  0.69789400  0.25000000  0.80210600  1
  Cu  Cu168  1  0.76888900  0.87248400  0.35766600  1
  Cu  Cu169  1  0.08877600  0.10359500  0.73111100  1
  Cu  Cu170  1  0.76888900  0.39640500  0.41122400  1
  Cu  Cu171  1  0.44789400  0.75000000  0.05210600  1
  Cu  Cu172  1  0.26888900  0.85766600  0.37248400  1
  Cu  Cu173  1  0.58877600  0.23111100  0.60359500  1
  Cu  Cu174  1  0.26888900  0.91122400  0.89640500  1
  Cu  Cu175  1  0.94789400  0.55210600  0.25000000  1
