# generated using pymatgen
data_Cu2NiC3
_symmetry_space_group_name_H-M   'P 1'
_cell_length_a   7.15420144
_cell_length_b   7.15420144
_cell_length_c   10.21724927
_cell_angle_alpha   75.68281732
_cell_angle_beta   75.68281732
_cell_angle_gamma   89.06096235
_symmetry_Int_Tables_number   1
_chemical_formula_structural   Cu2NiC3
_chemical_formula_sum   'Cu4 Ni2 C6'
_cell_volume   490.40775499
_cell_formula_units_Z   2
loop_
 _symmetry_equiv_pos_site_id
 _symmetry_equiv_pos_as_xyz
  1  'x, y, z'
loop_
 _atom_site_type_symbol
 _atom_site_label
 _atom_site_symmetry_multiplicity
 _atom_site_fract_x
 _atom_site_fract_y
 _atom_site_fract_z
 _atom_site_occupancy
  C  C0  1  0.74219700  0.84819900  0.98037100  1
  C  C1  1  0.65512600  0.34487400  0.25000000  1
  C  C2  1  0.25780300  0.15180100  0.01962900  1
  C  C3  1  0.34487400  0.65512600  0.75000000  1
  C  C4  1  0.84819900  0.74219700  0.48037100  1
  C  C5  1  0.15180100  0.25780300  0.51962900  1
  Ni  Ni6  1  0.28642400  0.71357600  0.25000000  1
  Ni  Ni7  1  0.71357600  0.28642400  0.75000000  1
  Cu  Cu8  1  0.59511100  0.16270600  0.64552600  1
  Cu  Cu9  1  0.16270600  0.59511100  0.14552600  1
  Cu  Cu10  1  0.83729400  0.40488900  0.85447400  1
  Cu  Cu11  1  0.40488900  0.83729400  0.35447400  1
