# generated using pymatgen
data_CuNiC16
_symmetry_space_group_name_H-M   'P 1'
_cell_length_a   9.07438442
_cell_length_b   9.07438442
_cell_length_c   9.88871565
_cell_angle_alpha   57.05020857
_cell_angle_beta   57.05020857
_cell_angle_gamma   46.67068170
_symmetry_Int_Tables_number   1
_chemical_formula_structural   CuNiC16
_chemical_formula_sum   'Cu2 Ni2 C32'
_cell_volume   477.22211142
_cell_formula_units_Z   2
loop_
 _symmetry_equiv_pos_site_id
 _symmetry_equiv_pos_as_xyz
  1  'x, y, z'
loop_
 _atom_site_type_symbol
 _atom_site_label
 _atom_site_symmetry_multiplicity
 _atom_site_fract_x
 _atom_site_fract_y
 _atom_site_fract_z
 _atom_site_occupancy
  Ni  Ni0  1  0.79764700  0.20235300  0.25000000  1
  Ni  Ni1  1  0.20235300  0.79764700  0.75000000  1
  Cu  Cu2  1  0.69955200  0.30044800  0.75000000  1
  Cu  Cu3  1  0.30044800  0.69955200  0.25000000  1
  C  C4  1  0.91681600  0.80613100  0.66224900  1
  C  C5  1  0.08318400  0.19386900  0.33775100  1
  C  C6  1  0.80466700  0.49055500  0.90243100  1
  C  C7  1  0.19533300  0.50944500  0.09756900  1
  C  C8  1  0.19386900  0.08318400  0.83775100  1
  C  C9  1  0.50944500  0.19533300  0.59756900  1
  C  C10  1  0.49055500  0.80466700  0.40243100  1
  C  C11  1  0.80613100  0.91681600  0.16224900  1
  C  C12  1  0.71936000  0.96155700  0.58747500  1
  C  C13  1  0.03844300  0.28064000  0.91252500  1
  C  C14  1  0.74365600  0.51218700  0.77576200  1
  C  C15  1  0.32911100  0.89937400  0.95398900  1
  C  C16  1  0.05948900  0.07473200  0.29639300  1
  C  C17  1  0.10062600  0.67088900  0.54601100  1
  C  C18  1  0.89937400  0.32911100  0.45398900  1
  C  C19  1  0.32983000  0.15987700  0.65842900  1
  C  C20  1  0.84012300  0.67017000  0.84157100  1
  C  C21  1  0.25634400  0.48781300  0.22423800  1
  C  C22  1  0.96155700  0.71936000  0.08747500  1
  C  C23  1  0.48781300  0.25634400  0.72423800  1
  C  C24  1  0.66957200  0.47838000  0.08142300  1
  C  C25  1  0.67017000  0.84012300  0.34157100  1
  C  C26  1  0.52162000  0.33042800  0.41857700  1
  C  C27  1  0.07473200  0.05948900  0.79639300  1
  C  C28  1  0.47838000  0.66957200  0.58142300  1
  C  C29  1  0.33042800  0.52162000  0.91857700  1
  C  C30  1  0.51218700  0.74365600  0.27576200  1
  C  C31  1  0.94051100  0.92526800  0.70360700  1
  C  C32  1  0.15987700  0.32983000  0.15842900  1
  C  C33  1  0.28064000  0.03844300  0.41252500  1
  C  C34  1  0.67088900  0.10062600  0.04601100  1
  C  C35  1  0.92526800  0.94051100  0.20360700  1
