# generated using pymatgen
data_CuNiC3
_symmetry_space_group_name_H-M   'P 1'
_cell_length_a   3.86639400
_cell_length_b   9.18479300
_cell_length_c   14.80879200
_cell_angle_alpha   90.00000000
_cell_angle_beta   90.00000000
_cell_angle_gamma   90.00000000
_symmetry_Int_Tables_number   1
_chemical_formula_structural   CuNiC3
_chemical_formula_sum   'Cu4 Ni4 C12'
_cell_volume   525.89024424
_cell_formula_units_Z   4
loop_
 _symmetry_equiv_pos_site_id
 _symmetry_equiv_pos_as_xyz
  1  'x, y, z'
loop_
 _atom_site_type_symbol
 _atom_site_label
 _atom_site_symmetry_multiplicity
 _atom_site_fract_x
 _atom_site_fract_y
 _atom_site_fract_z
 _atom_site_occupancy
  Ni  Ni0  1  0.75000000  0.33767600  0.44621600  1
  Ni  Ni1  1  0.25000000  0.66232400  0.55378400  1
  Ni  Ni2  1  0.25000000  0.16232400  0.94621600  1
  Ni  Ni3  1  0.75000000  0.83767600  0.05378400  1
  Cu  Cu4  1  0.75000000  0.05860400  0.67680600  1
  Cu  Cu5  1  0.25000000  0.94139600  0.32319400  1
  Cu  Cu6  1  0.25000000  0.44139600  0.17680600  1
  Cu  Cu7  1  0.75000000  0.55860400  0.82319400  1
  C  C8  1  0.25000000  0.77492000  0.70279200  1
  C  C9  1  0.75000000  0.31758100  0.00539000  1
  C  C10  1  0.75000000  0.98302100  0.90259200  1
  C  C11  1  0.75000000  0.48302100  0.59740800  1
  C  C12  1  0.75000000  0.81758100  0.49461000  1
  C  C13  1  0.25000000  0.51697900  0.40259200  1
  C  C14  1  0.75000000  0.72508000  0.20279200  1
  C  C15  1  0.25000000  0.01697900  0.09740800  1
  C  C16  1  0.25000000  0.68241900  0.99461000  1
  C  C17  1  0.25000000  0.27492000  0.79720800  1
  C  C18  1  0.25000000  0.18241900  0.50539000  1
  C  C19  1  0.75000000  0.22508000  0.29720800  1
