# generated using pymatgen
data_Cu3Ni5C14
_symmetry_space_group_name_H-M   'P 1'
_cell_length_a   11.36757762
_cell_length_b   11.36757762
_cell_length_c   11.36757762
_cell_angle_alpha   109.47122063
_cell_angle_beta   109.47122063
_cell_angle_gamma   109.47122063
_symmetry_Int_Tables_number   1
_chemical_formula_structural   Cu3Ni5C14
_chemical_formula_sum   'Cu12 Ni20 C56'
_cell_volume   1130.78983142
_cell_formula_units_Z   4
loop_
 _symmetry_equiv_pos_site_id
 _symmetry_equiv_pos_as_xyz
  1  'x, y, z'
loop_
 _atom_site_type_symbol
 _atom_site_label
 _atom_site_symmetry_multiplicity
 _atom_site_fract_x
 _atom_site_fract_y
 _atom_site_fract_z
 _atom_site_occupancy
  Ni  Ni0  1  0.75000000  0.87500000  0.12500000  1
  Ni  Ni1  1  0.62500000  0.75000000  0.37500000  1
  Ni  Ni2  1  0.37500000  0.62500000  0.75000000  1
  Ni  Ni3  1  0.25000000  0.25000000  0.25000000  1
  Ni  Ni4  1  0.87500000  0.12500000  0.75000000  1
  Ni  Ni5  1  0.00000000  0.75000000  0.50000000  1
  Ni  Ni6  1  0.12500000  0.75000000  0.87500000  1
  Ni  Ni7  1  0.25000000  0.50000000  0.00000000  1
  Ni  Ni8  1  0.87500000  0.25000000  0.12500000  1
  Ni  Ni9  1  0.50000000  0.00000000  0.75000000  1
  Ni  Ni10  1  0.37500000  0.25000000  0.62500000  1
  Ni  Ni11  1  0.50000000  0.00000000  0.25000000  1
  Ni  Ni12  1  0.25000000  0.62500000  0.37500000  1
  Ni  Ni13  1  0.75000000  0.75000000  0.75000000  1
  Ni  Ni14  1  0.75000000  0.37500000  0.62500000  1
  Ni  Ni15  1  0.00000000  0.25000000  0.50000000  1
  Ni  Ni16  1  0.25000000  0.12500000  0.87500000  1
  Ni  Ni17  1  0.75000000  0.50000000  0.00000000  1
  Ni  Ni18  1  0.62500000  0.37500000  0.25000000  1
  Ni  Ni19  1  0.12500000  0.87500000  0.25000000  1
  Cu  Cu20  1  0.12500000  0.37500000  0.75000000  1
  Cu  Cu21  1  0.25000000  0.87500000  0.62500000  1
  Cu  Cu22  1  0.12500000  0.25000000  0.37500000  1
  Cu  Cu23  1  0.62500000  0.87500000  0.75000000  1
  Cu  Cu24  1  0.25000000  0.37500000  0.12500000  1
  Cu  Cu25  1  0.37500000  0.12500000  0.25000000  1
  Cu  Cu26  1  0.62500000  0.25000000  0.87500000  1
  Cu  Cu27  1  0.87500000  0.62500000  0.25000000  1
  Cu  Cu28  1  0.87500000  0.75000000  0.62500000  1
  Cu  Cu29  1  0.75000000  0.62500000  0.87500000  1
  Cu  Cu30  1  0.37500000  0.75000000  0.12500000  1
  Cu  Cu31  1  0.75000000  0.12500000  0.37500000  1
  C  C32  1  0.00000000  0.50000000  0.50000000  1
  C  C33  1  0.00000000  0.00000000  0.50000000  1
  C  C34  1  0.50000000  0.50000000  0.50000000  1
  C  C35  1  0.00000000  0.50000000  0.00000000  1
  C  C36  1  0.50000000  0.00000000  0.00000000  1
  C  C37  1  0.50000000  0.00000000  0.50000000  1
  C  C38  1  0.00000000  0.00000000  0.00000000  1
  C  C39  1  0.50000000  0.50000000  0.00000000  1
  C  C40  1  0.57567500  0.16587600  0.19962700  1
  C  C41  1  0.87604700  0.96624900  0.80037300  1
  C  C42  1  0.57567500  0.90979900  0.37604700  1
  C  C43  1  0.07567500  0.69962700  0.66587600  1
  C  C44  1  0.33412400  0.90979900  0.03375100  1
  C  C45  1  0.42432500  0.83412400  0.80037300  1
  C  C46  1  0.30037300  0.33412400  0.92432500  1
  C  C47  1  0.90979900  0.03375100  0.33412400  1
  C  C48  1  0.53375100  0.62395200  0.69962700  1
  C  C49  1  0.37604700  0.30037300  0.46624900  1
  C  C50  1  0.80037300  0.87604700  0.96624900  1
  C  C51  1  0.03375100  0.19962700  0.12395300  1
  C  C52  1  0.59020100  0.16587600  0.46624900  1
  C  C53  1  0.59020100  0.92432500  0.12395300  1
  C  C54  1  0.96624900  0.66587600  0.09020100  1
  C  C55  1  0.37604700  0.57567500  0.90979900  1
  C  C56  1  0.12395300  0.03375100  0.19962700  1
  C  C57  1  0.16587600  0.19962700  0.57567500  1
  C  C58  1  0.96624900  0.80037300  0.87604700  1
  C  C59  1  0.42432500  0.09020100  0.62395300  1
  C  C60  1  0.69962700  0.53375100  0.62395300  1
  C  C61  1  0.92432500  0.30037300  0.33412400  1
  C  C62  1  0.46624900  0.37604700  0.30037300  1
  C  C63  1  0.40979900  0.07567500  0.87604700  1
  C  C64  1  0.66587600  0.07567500  0.69962700  1
  C  C65  1  0.30037300  0.46624900  0.37604700  1
  C  C66  1  0.09020100  0.96624900  0.66587600  1
  C  C67  1  0.12395300  0.59020100  0.92432500  1
  C  C68  1  0.90979900  0.37604700  0.57567500  1
  C  C69  1  0.69962700  0.66587600  0.07567500  1
  C  C70  1  0.62395200  0.42432500  0.09020100  1
  C  C71  1  0.33412400  0.92432500  0.30037300  1
  C  C72  1  0.66587600  0.09020100  0.96624900  1
  C  C73  1  0.80037300  0.42432500  0.83412400  1
  C  C74  1  0.83412400  0.80037300  0.42432500  1
  C  C75  1  0.03375100  0.33412400  0.90979900  1
  C  C76  1  0.19962700  0.57567500  0.16587600  1
  C  C77  1  0.16587600  0.46624900  0.59020100  1
  C  C78  1  0.09020100  0.62395200  0.42432500  1
  C  C79  1  0.62395300  0.69962700  0.53375100  1
  C  C80  1  0.46624900  0.59020100  0.16587600  1
  C  C81  1  0.87604700  0.40979900  0.07567500  1
  C  C82  1  0.40979900  0.83412400  0.53375100  1
  C  C83  1  0.53375100  0.40979900  0.83412400  1
  C  C84  1  0.83412400  0.53375100  0.40979900  1
  C  C85  1  0.07567500  0.87604700  0.40979900  1
  C  C86  1  0.19962700  0.12395200  0.03375100  1
  C  C87  1  0.92432500  0.12395300  0.59020100  1
