# generated using pymatgen
data_Cu(NiC2)2
_symmetry_space_group_name_H-M   'P 1'
_cell_length_a   12.28614016
_cell_length_b   12.28614016
_cell_length_c   12.28614005
_cell_angle_alpha   33.26808531
_cell_angle_beta   33.26808531
_cell_angle_gamma   33.26808188
_symmetry_Int_Tables_number   1
_chemical_formula_structural   Cu(NiC2)2
_chemical_formula_sum   'Cu4 Ni8 C16'
_cell_volume   496.85234910
_cell_formula_units_Z   4
loop_
 _symmetry_equiv_pos_site_id
 _symmetry_equiv_pos_as_xyz
  1  'x, y, z'
loop_
 _atom_site_type_symbol
 _atom_site_label
 _atom_site_symmetry_multiplicity
 _atom_site_fract_x
 _atom_site_fract_y
 _atom_site_fract_z
 _atom_site_occupancy
  Ni  Ni0  1  0.41839100  0.91741600  0.91741600  1
  Ni  Ni1  1  0.08258400  0.08258400  0.58160900  1
  Ni  Ni2  1  0.50000000  0.50000000  0.50000000  1
  Ni  Ni3  1  0.91741600  0.91741600  0.41839100  1
  Ni  Ni4  1  0.08258400  0.58160900  0.08258400  1
  Ni  Ni5  1  0.58160900  0.08258400  0.08258400  1
  Ni  Ni6  1  0.91741600  0.41839100  0.91741600  1
  Ni  Ni7  1  0.00000000  0.00000000  0.00000000  1
  Cu  Cu8  1  0.18787100  0.18787100  0.18787100  1
  Cu  Cu9  1  0.35360500  0.35360500  0.35360500  1
  Cu  Cu10  1  0.64639500  0.64639500  0.64639500  1
  Cu  Cu11  1  0.81212900  0.81212900  0.81212900  1
  C  C12  1  0.38482800  0.38482800  0.86200700  1
  C  C13  1  0.20151600  0.20151600  0.72396500  1
  C  C14  1  0.79848400  0.79848400  0.27603500  1
  C  C15  1  0.87649200  0.87649200  0.87649200  1
  C  C16  1  0.61517200  0.13799300  0.61517200  1
  C  C17  1  0.13799300  0.61517200  0.61517200  1
  C  C18  1  0.27603500  0.79848400  0.79848400  1
  C  C19  1  0.79848400  0.27603500  0.79848400  1
  C  C20  1  0.86200700  0.38482800  0.38482800  1
  C  C21  1  0.20151600  0.72396500  0.20151600  1
  C  C22  1  0.72396500  0.20151600  0.20151600  1
  C  C23  1  0.61517200  0.61517200  0.13799300  1
  C  C24  1  0.28854800  0.28854800  0.28854800  1
  C  C25  1  0.71145200  0.71145200  0.71145200  1
  C  C26  1  0.38482800  0.86200700  0.38482800  1
  C  C27  1  0.12350800  0.12350800  0.12350800  1
