# generated using pymatgen
data_Cu2NiC7
_symmetry_space_group_name_H-M   'P 1'
_cell_length_a   8.35675571
_cell_length_b   8.35675571
_cell_length_c   12.21933900
_cell_angle_alpha   90.00000000
_cell_angle_beta   90.00000000
_cell_angle_gamma   105.18580239
_symmetry_Int_Tables_number   1
_chemical_formula_structural   Cu2NiC7
_chemical_formula_sum   'Cu12 Ni6 C42'
_cell_volume   823.54453204
_cell_formula_units_Z   6
loop_
 _symmetry_equiv_pos_site_id
 _symmetry_equiv_pos_as_xyz
  1  'x, y, z'
loop_
 _atom_site_type_symbol
 _atom_site_label
 _atom_site_symmetry_multiplicity
 _atom_site_fract_x
 _atom_site_fract_y
 _atom_site_fract_z
 _atom_site_occupancy
  C  C0  1  0.47362300  0.47362300  0.00000000  1
  C  C1  1  0.52637700  0.52637700  0.50000000  1
  Ni  Ni2  1  0.70628100  0.29372000  0.75000000  1
  Ni  Ni3  1  0.86452500  0.86452500  0.00000000  1
  Ni  Ni4  1  0.29371900  0.70628000  0.25000000  1
  Ni  Ni5  1  0.24369500  0.75630500  0.75000000  1
  Ni  Ni6  1  0.75630500  0.24369500  0.25000000  1
  Ni  Ni7  1  0.13547500  0.13547500  0.50000000  1
  Cu  Cu8  1  0.14984700  0.74112700  0.48786700  1
  Cu  Cu9  1  0.69703000  0.82564300  0.22328800  1
  Cu  Cu10  1  0.09387500  0.36737900  0.81703000  1
  Cu  Cu11  1  0.90612500  0.63262100  0.31703000  1
  Cu  Cu12  1  0.17435700  0.30297000  0.27671200  1
  Cu  Cu13  1  0.63262100  0.90612500  0.68297000  1
  Cu  Cu14  1  0.85015300  0.25887300  0.98786700  1
  Cu  Cu15  1  0.30297000  0.17435700  0.72328800  1
  Cu  Cu16  1  0.25887300  0.85015300  0.01213300  1
  Cu  Cu17  1  0.82564300  0.69703000  0.77671200  1
  Cu  Cu18  1  0.36737900  0.09387500  0.18297000  1
  Cu  Cu19  1  0.74112700  0.14984700  0.51213300  1
  C  C20  1  0.94959400  0.33406600  0.73969100  1
  C  C21  1  0.74942800  0.73761600  0.88648600  1
  C  C22  1  0.01034500  0.73099200  0.79055900  1
  C  C23  1  0.21036500  0.17223800  0.18625400  1
  C  C24  1  0.76800100  0.47606900  0.30148000  1
  C  C25  1  0.17223800  0.21036500  0.81374600  1
  C  C26  1  0.03478700  0.36235700  0.94259200  1
  C  C27  1  0.63764300  0.96521300  0.55740800  1
  C  C28  1  0.67865200  0.16136700  0.39735200  1
  C  C29  1  0.72872600  0.53107700  0.73283300  1
  C  C30  1  0.72382000  0.30433200  0.91202200  1
  C  C31  1  0.92283800  0.14630000  0.52181000  1
  C  C32  1  0.36235700  0.03478700  0.05740800  1
  C  C33  1  0.52393100  0.23199900  0.19852000  1
  C  C34  1  0.14630000  0.92283800  0.47819000  1
  C  C35  1  0.53107700  0.72872600  0.26716700  1
  C  C36  1  0.85370000  0.07716200  0.97819000  1
  C  C37  1  0.26900800  0.98965500  0.70944100  1
  C  C38  1  0.32134800  0.83863300  0.89735200  1
  C  C39  1  0.07716200  0.85370000  0.02181000  1
  C  C40  1  0.25057200  0.26238400  0.38648600  1
  C  C41  1  0.69566800  0.27618000  0.58797800  1
  C  C42  1  0.83863300  0.32134800  0.10264800  1
  C  C43  1  0.82776200  0.78963500  0.31374600  1
  C  C44  1  0.05040600  0.66593400  0.23969100  1
  C  C45  1  0.73099200  0.01034500  0.20944100  1
  C  C46  1  0.23199900  0.52393100  0.80148000  1
  C  C47  1  0.26238400  0.25057200  0.61351400  1
  C  C48  1  0.30433200  0.72382000  0.08797800  1
  C  C49  1  0.33406600  0.94959400  0.26030900  1
  C  C50  1  0.47606900  0.76800100  0.69852000  1
  C  C51  1  0.78963500  0.82776200  0.68625400  1
  C  C52  1  0.27127400  0.46892300  0.23283300  1
  C  C53  1  0.16136700  0.67865200  0.60264800  1
  C  C54  1  0.27618000  0.69566800  0.41202200  1
  C  C55  1  0.66593400  0.05040600  0.76030900  1
  C  C56  1  0.98965500  0.26900800  0.29055900  1
  C  C57  1  0.96521300  0.63764300  0.44259200  1
  C  C58  1  0.46892300  0.27127400  0.76716700  1
  C  C59  1  0.73761600  0.74942800  0.11351400  1
