# generated using pymatgen
data_Cu2NiC35
_symmetry_space_group_name_H-M   'P 1'
_cell_length_a   9.49945924
_cell_length_b   9.49945924
_cell_length_c   7.85972103
_cell_angle_alpha   79.84608774
_cell_angle_beta   79.84608774
_cell_angle_gamma   121.07491970
_symmetry_Int_Tables_number   1
_chemical_formula_structural   Cu2NiC35
_chemical_formula_sum   'Cu2 Ni1 C35'
_cell_volume   567.11389267
_cell_formula_units_Z   1
loop_
 _symmetry_equiv_pos_site_id
 _symmetry_equiv_pos_as_xyz
  1  'x, y, z'
loop_
 _atom_site_type_symbol
 _atom_site_label
 _atom_site_symmetry_multiplicity
 _atom_site_fract_x
 _atom_site_fract_y
 _atom_site_fract_z
 _atom_site_occupancy
  C  C0  1  0.93134700  0.62103100  0.12009400  1
  C  C1  1  0.06865300  0.37896900  0.87990600  1
  C  C2  1  0.37896900  0.06865300  0.87990600  1
  C  C3  1  0.50000000  0.50000000  0.50000000  1
  C  C4  1  0.62103100  0.93134700  0.12009400  1
  Ni  Ni5  1  0.50000000  0.50000000  0.00000000  1
  Cu  Cu6  1  0.14337700  0.85662300  0.50000000  1
  Cu  Cu7  1  0.85662300  0.14337700  0.50000000  1
  C  C8  1  0.09535300  0.09535300  0.19659100  1
  C  C9  1  0.79213000  0.46117600  0.68222000  1
  C  C10  1  0.90464700  0.90464700  0.80340900  1
  C  C11  1  0.53882400  0.20787000  0.31778000  1
  C  C12  1  0.20787000  0.53882400  0.31778000  1
  C  C13  1  0.46117600  0.79213000  0.68222000  1
  C  C14  1  0.58285700  0.38064600  0.22221200  1
  C  C15  1  0.07476300  0.92553400  0.21089100  1
  C  C16  1  0.22131200  0.70410200  0.31190500  1
  C  C17  1  0.41714300  0.61935400  0.77778800  1
  C  C18  1  0.43815000  0.07553600  0.23047800  1
  C  C19  1  0.77868800  0.29589800  0.68809500  1
  C  C20  1  0.14303300  0.42469900  0.50985800  1
  C  C21  1  0.77197700  0.77197700  0.97520600  1
  C  C22  1  0.92446400  0.56185000  0.76952200  1
  C  C23  1  0.70410200  0.22131200  0.31190500  1
  C  C24  1  0.29589800  0.77868800  0.68809500  1
  C  C25  1  0.85778200  0.85778200  0.63906000  1
  C  C26  1  0.07553600  0.43815000  0.23047800  1
  C  C27  1  0.14221800  0.14221800  0.36094000  1
  C  C28  1  0.92553400  0.07476300  0.21089100  1
  C  C29  1  0.57530100  0.85696700  0.49014200  1
  C  C30  1  0.61935400  0.41714300  0.77778800  1
  C  C31  1  0.22802300  0.22802300  0.02479400  1
  C  C32  1  0.42469900  0.14303300  0.50985800  1
  C  C33  1  0.38064600  0.58285700  0.22221200  1
  C  C34  1  0.85696700  0.57530100  0.49014200  1
  C  C35  1  0.56185000  0.92446400  0.76952200  1
  C  C36  1  0.07446600  0.92523700  0.78910900  1
  C  C37  1  0.92523700  0.07446600  0.78910900  1
