# generated using pymatgen
data_Cu2NiC13
_symmetry_space_group_name_H-M   'P 1'
_cell_length_a   7.82522500
_cell_length_b   7.83452300
_cell_length_c   31.03140600
_cell_angle_alpha   90.00000000
_cell_angle_beta   90.00000000
_cell_angle_gamma   90.00000000
_symmetry_Int_Tables_number   1
_chemical_formula_structural   Cu2NiC13
_chemical_formula_sum   'Cu16 Ni8 C104'
_cell_volume   1902.43946719
_cell_formula_units_Z   8
loop_
 _symmetry_equiv_pos_site_id
 _symmetry_equiv_pos_as_xyz
  1  'x, y, z'
loop_
 _atom_site_type_symbol
 _atom_site_label
 _atom_site_symmetry_multiplicity
 _atom_site_fract_x
 _atom_site_fract_y
 _atom_site_fract_z
 _atom_site_occupancy
  Ni  Ni0  1  0.73738200  0.75000000  0.74575400  1
  Ni  Ni1  1  0.25336500  0.75000000  0.25484500  1
  Ni  Ni2  1  0.23738200  0.25000000  0.75424600  1
  Ni  Ni3  1  0.24663500  0.75000000  0.75484500  1
  Ni  Ni4  1  0.26261800  0.25000000  0.25424600  1
  Ni  Ni5  1  0.76261800  0.75000000  0.24575400  1
  Ni  Ni6  1  0.75336500  0.25000000  0.24515500  1
  Ni  Ni7  1  0.74663500  0.25000000  0.74515500  1
  Cu  Cu8  1  0.26199100  0.75000000  0.42423500  1
  Cu  Cu9  1  0.76199100  0.25000000  0.07576500  1
  Cu  Cu10  1  0.27612100  0.75000000  0.56945100  1
  Cu  Cu11  1  0.25736800  0.25000000  0.93184700  1
  Cu  Cu12  1  0.71597400  0.75000000  0.92666600  1
  Cu  Cu13  1  0.74263200  0.75000000  0.06815300  1
  Cu  Cu14  1  0.28402600  0.25000000  0.07333400  1
  Cu  Cu15  1  0.23800900  0.75000000  0.92423500  1
  Cu  Cu16  1  0.78402600  0.75000000  0.42666600  1
  Cu  Cu17  1  0.75736800  0.75000000  0.56815300  1
  Cu  Cu18  1  0.72387900  0.25000000  0.43054900  1
  Cu  Cu19  1  0.21597400  0.25000000  0.57333400  1
  Cu  Cu20  1  0.24263200  0.25000000  0.43184700  1
  Cu  Cu21  1  0.77612100  0.25000000  0.93054900  1
  Cu  Cu22  1  0.22387900  0.75000000  0.06945100  1
  Cu  Cu23  1  0.73800900  0.25000000  0.57576500  1
  C  C24  1  0.50000000  0.50000000  0.50000000  1
  C  C25  1  0.48889400  0.49709100  0.63939800  1
  C  C26  1  0.49671900  0.00412200  0.86048600  1
  C  C27  1  0.51110600  0.50290900  0.36060200  1
  C  C28  1  0.50000000  0.50000000  0.00000000  1
  C  C29  1  0.98889400  0.50290900  0.86060200  1
  C  C30  1  0.01110600  0.49709100  0.13939800  1
  C  C31  1  0.50328100  0.99587800  0.13951400  1
  C  C32  1  0.01110600  0.00290900  0.13939800  1
  C  C33  1  0.00000000  0.00000000  0.50000000  1
  C  C34  1  0.51110600  0.99709100  0.36060200  1
  C  C35  1  0.00000000  0.50000000  0.50000000  1
  C  C36  1  0.00000000  0.50000000  0.00000000  1
  C  C37  1  0.99671900  0.99587800  0.63951400  1
  C  C38  1  0.00328100  0.49587800  0.36048600  1
  C  C39  1  0.48889400  0.00290900  0.63939800  1
  C  C40  1  0.98889400  0.99709100  0.86060200  1
  C  C41  1  0.50328100  0.50412200  0.13951400  1
  C  C42  1  0.50000000  0.00000000  0.00000000  1
  C  C43  1  0.00000000  0.00000000  0.00000000  1
  C  C44  1  0.49671900  0.49587800  0.86048600  1
  C  C45  1  0.99671900  0.50412200  0.63951400  1
  C  C46  1  0.00328100  0.00412200  0.36048600  1
  C  C47  1  0.50000000  0.00000000  0.50000000  1
  C  C48  1  0.98268400  0.02678200  0.30317500  1
  C  C49  1  0.25741800  0.98890400  0.11710700  1
  C  C50  1  0.74258200  0.48890400  0.88289300  1
  C  C51  1  0.25704200  0.98300500  0.36692800  1
  C  C52  1  0.74979800  0.56018100  0.48894400  1
  C  C53  1  0.45247000  0.54748700  0.93893500  1
  C  C54  1  0.07125600  0.75000000  0.99090800  1
  C  C55  1  0.96879700  0.54792000  0.06171400  1
  C  C56  1  0.02193900  0.25000000  0.11716900  1
  C  C57  1  0.04753000  0.95251300  0.43893500  1
  C  C58  1  0.25020200  0.43981900  0.51105600  1
  C  C59  1  0.04753000  0.54748700  0.43893500  1
  C  C60  1  0.51731600  0.02678200  0.80317500  1
  C  C61  1  0.46549400  0.02664300  0.69665200  1
  C  C62  1  0.99674400  0.25000000  0.86547600  1
  C  C63  1  0.25741800  0.51109600  0.11710700  1
  C  C64  1  0.95247000  0.45251300  0.56106500  1
  C  C65  1  0.74295800  0.48300500  0.63307200  1
  C  C66  1  0.01781700  0.25000000  0.38140700  1
  C  C67  1  0.48464500  0.25000000  0.13357600  1
  C  C68  1  0.24979800  0.43981900  0.01105600  1
  C  C69  1  0.01731600  0.97321800  0.69682500  1
  C  C70  1  0.92874400  0.25000000  0.00909200  1
  C  C71  1  0.03450600  0.47335700  0.19665200  1
  C  C72  1  0.54753000  0.04748700  0.06106500  1
  C  C73  1  0.53120300  0.95208000  0.56171400  1
  C  C74  1  0.47806100  0.25000000  0.61716900  1
  C  C75  1  0.96549400  0.97335700  0.80334800  1
  C  C76  1  0.95247000  0.04748700  0.56106500  1
  C  C77  1  0.75704200  0.01699500  0.13307200  1
  C  C78  1  0.03450600  0.02664300  0.19665200  1
  C  C79  1  0.75020200  0.93981900  0.98894400  1
  C  C80  1  0.50325600  0.25000000  0.36547600  1
  C  C81  1  0.49674400  0.75000000  0.63452400  1
  C  C82  1  0.48218300  0.25000000  0.88140700  1
  C  C83  1  0.74258200  0.01109600  0.88289300  1
  C  C84  1  0.75704200  0.48300500  0.13307200  1
  C  C85  1  0.54753000  0.45251300  0.06106500  1
  C  C86  1  0.45767400  0.75000000  0.01669300  1
  C  C87  1  0.46549400  0.47335700  0.69665200  1
  C  C88  1  0.54232600  0.25000000  0.98330700  1
  C  C89  1  0.00325600  0.75000000  0.13452400  1
  C  C90  1  0.98464500  0.75000000  0.36642400  1
  C  C91  1  0.24295800  0.98300500  0.86692800  1
  C  C92  1  0.01731600  0.52678200  0.69682500  1
  C  C93  1  0.75741800  0.48890400  0.38289300  1
  C  C94  1  0.01535500  0.25000000  0.63357600  1
  C  C95  1  0.97806100  0.75000000  0.88283100  1
  C  C96  1  0.53450600  0.52664300  0.30334800  1
  C  C97  1  0.98218300  0.75000000  0.61859300  1
  C  C98  1  0.24258200  0.51109600  0.61710700  1
  C  C99  1  0.48268400  0.52678200  0.19682500  1
  C  C100  1  0.03120300  0.04792000  0.93828600  1
  C  C101  1  0.74979800  0.93981900  0.48894400  1
  C  C102  1  0.46879700  0.04792000  0.43828600  1
  C  C103  1  0.24979800  0.06018100  0.01105600  1
  C  C104  1  0.51535500  0.75000000  0.86642400  1
  C  C105  1  0.74295800  0.01699500  0.63307200  1
  C  C106  1  0.25704200  0.51699500  0.36692800  1
  C  C107  1  0.46879700  0.45208000  0.43828600  1
  C  C108  1  0.04232600  0.75000000  0.51669300  1
  C  C109  1  0.48268400  0.97321800  0.19682500  1
  C  C110  1  0.24295800  0.51699500  0.86692800  1
  C  C111  1  0.52193900  0.75000000  0.38283100  1
  C  C112  1  0.75741800  0.01109600  0.38289300  1
  C  C113  1  0.95767400  0.25000000  0.48330700  1
  C  C114  1  0.98268400  0.47321800  0.30317500  1
  C  C115  1  0.25020200  0.06018100  0.51105600  1
  C  C116  1  0.57125600  0.25000000  0.50909200  1
  C  C117  1  0.51731600  0.47321800  0.80317500  1
  C  C118  1  0.96879700  0.95208000  0.06171400  1
  C  C119  1  0.53120300  0.54792000  0.56171400  1
  C  C120  1  0.51781700  0.75000000  0.11859300  1
  C  C121  1  0.75020200  0.56018100  0.98894400  1
  C  C122  1  0.53450600  0.97335700  0.30334800  1
  C  C123  1  0.45247000  0.95251300  0.93893500  1
  C  C124  1  0.24258200  0.98890400  0.61710700  1
  C  C125  1  0.96549400  0.52664300  0.80334800  1
  C  C126  1  0.42874400  0.75000000  0.49090800  1
  C  C127  1  0.03120300  0.45208000  0.93828600  1
