# generated using pymatgen
data_Cu15NiC8
_symmetry_space_group_name_H-M   'P 1'
_cell_length_a   11.12461371
_cell_length_b   11.12461371
_cell_length_c   7.93773300
_cell_angle_alpha   90.00000000
_cell_angle_beta   90.00000000
_cell_angle_gamma   119.99999829
_symmetry_Int_Tables_number   1
_chemical_formula_structural   Cu15NiC8
_chemical_formula_sum   'Cu30 Ni2 C16'
_cell_volume   850.74029790
_cell_formula_units_Z   2
loop_
 _symmetry_equiv_pos_site_id
 _symmetry_equiv_pos_as_xyz
  1  'x, y, z'
loop_
 _atom_site_type_symbol
 _atom_site_label
 _atom_site_symmetry_multiplicity
 _atom_site_fract_x
 _atom_site_fract_y
 _atom_site_fract_z
 _atom_site_occupancy
  C  C0  1  0.26423000  0.26423000  0.22676400  1
  C  C1  1  0.00000000  0.26423000  0.72676400  1
  C  C2  1  0.73577000  0.00000000  0.22676400  1
  C  C3  1  0.00000000  0.73577000  0.22676400  1
  C  C4  1  0.33333300  0.66666700  0.48601800  1
  C  C5  1  0.66666700  0.33333300  0.48601800  1
  C  C6  1  0.73577000  0.73577000  0.72676400  1
  C  C7  1  0.26423000  0.00000000  0.72676400  1
  C  C8  1  0.33333300  0.66666700  0.98601800  1
  C  C9  1  0.66666700  0.33333300  0.98601800  1
  C  C10  1  0.39121400  0.39121400  0.78116600  1
  C  C11  1  0.00000000  0.39121400  0.28116600  1
  C  C12  1  0.00000000  0.60878600  0.78116600  1
  C  C13  1  0.39121400  0.00000000  0.28116600  1
  C  C14  1  0.60878600  0.60878600  0.28116600  1
  C  C15  1  0.60878600  0.00000000  0.78116600  1
  Ni  Ni16  1  0.00000000  0.00000000  0.94233200  1
  Ni  Ni17  1  0.00000000  0.00000000  0.44233200  1
  Cu  Cu18  1  0.13053200  0.55326200  0.74158600  1
  Cu  Cu19  1  0.38935300  0.25769100  0.92185600  1
  Cu  Cu20  1  0.86833800  0.61064700  0.92185600  1
  Cu  Cu21  1  0.13166200  0.38935300  0.42185600  1
  Cu  Cu22  1  0.70379000  0.70379000  0.10316200  1
  Cu  Cu23  1  0.42273000  0.86946800  0.74158600  1
  Cu  Cu24  1  0.13053200  0.57727000  0.24158600  1
  Cu  Cu25  1  0.44673800  0.57727000  0.74158600  1
  Cu  Cu26  1  0.86946800  0.44673800  0.24158600  1
  Cu  Cu27  1  0.38935300  0.13166200  0.42185600  1
  Cu  Cu28  1  0.00000000  0.70379000  0.60316200  1
  Cu  Cu29  1  0.61064700  0.74230900  0.42185600  1
  Cu  Cu30  1  0.74230900  0.61064700  0.42185600  1
  Cu  Cu31  1  0.74230900  0.13166200  0.92185600  1
  Cu  Cu32  1  0.70379000  0.00000000  0.60316200  1
  Cu  Cu33  1  0.29621000  0.00000000  0.10316200  1
  Cu  Cu34  1  0.55326200  0.13053200  0.74158600  1
  Cu  Cu35  1  0.42273000  0.55326200  0.24158600  1
  Cu  Cu36  1  0.86946800  0.42273000  0.74158600  1
  Cu  Cu37  1  0.44673800  0.86946800  0.24158600  1
  Cu  Cu38  1  0.29621000  0.29621000  0.60316200  1
  Cu  Cu39  1  0.57727000  0.44673800  0.74158600  1
  Cu  Cu40  1  0.00000000  0.29621000  0.10316200  1
  Cu  Cu41  1  0.55326200  0.42273000  0.24158600  1
  Cu  Cu42  1  0.57727000  0.13053200  0.24158600  1
  Cu  Cu43  1  0.86833800  0.25769100  0.42185600  1
  Cu  Cu44  1  0.13166200  0.74230900  0.92185600  1
  Cu  Cu45  1  0.61064700  0.86833800  0.92185600  1
  Cu  Cu46  1  0.25769100  0.86833800  0.42185600  1
  Cu  Cu47  1  0.25769100  0.38935300  0.92185600  1
