# generated using pymatgen
data_CuNiC10
_symmetry_space_group_name_H-M   'P 1'
_cell_length_a   10.01613221
_cell_length_b   10.01613221
_cell_length_c   6.16163400
_cell_angle_alpha   90.00000000
_cell_angle_beta   90.00000000
_cell_angle_gamma   120.00000137
_symmetry_Int_Tables_number   1
_chemical_formula_structural   CuNiC10
_chemical_formula_sum   'Cu2 Ni2 C20'
_cell_volume   535.33621029
_cell_formula_units_Z   2
loop_
 _symmetry_equiv_pos_site_id
 _symmetry_equiv_pos_as_xyz
  1  'x, y, z'
loop_
 _atom_site_type_symbol
 _atom_site_label
 _atom_site_symmetry_multiplicity
 _atom_site_fract_x
 _atom_site_fract_y
 _atom_site_fract_z
 _atom_site_occupancy
  C  C0  1  0.14162300  0.78362700  0.76452600  1
  C  C1  1  0.21637300  0.35799600  0.76452600  1
  C  C2  1  0.85837700  0.21637300  0.26452600  1
  C  C3  1  0.35799600  0.14162300  0.26452600  1
  C  C4  1  0.64200400  0.85837700  0.76452600  1
  C  C5  1  0.78362700  0.64200400  0.26452600  1
  Ni  Ni6  1  0.00000000  0.00000000  0.19357100  1
  Ni  Ni7  1  0.00000000  0.00000000  0.69357100  1
  Cu  Cu8  1  0.66666700  0.33333300  0.83409400  1
  Cu  Cu9  1  0.33333300  0.66666700  0.33409400  1
  C  C10  1  0.91444700  0.48336300  0.01022000  1
  C  C11  1  0.10546500  0.84808000  0.20916000  1
  C  C12  1  0.43108400  0.91444700  0.51022000  1
  C  C13  1  0.84808000  0.74261500  0.70916000  1
  C  C14  1  0.15192000  0.25738500  0.20916000  1
  C  C15  1  0.56891600  0.08555300  0.01022000  1
  C  C16  1  0.51663700  0.43108400  0.01022000  1
  C  C17  1  0.48336300  0.56891600  0.51022000  1
  C  C18  1  0.66666700  0.33333300  0.44691600  1
  C  C19  1  0.89453500  0.15192000  0.70916000  1
  C  C20  1  0.33333300  0.66666700  0.94691600  1
  C  C21  1  0.74261500  0.89453500  0.20916000  1
  C  C22  1  0.25738500  0.10546500  0.70916000  1
  C  C23  1  0.08555300  0.51663700  0.51022000  1
