# generated using pymatgen
data_Cu3Ni7C26
_symmetry_space_group_name_H-M   'P 1'
_cell_length_a   5.41023800
_cell_length_b   16.34719300
_cell_length_c   24.07851000
_cell_angle_alpha   90.00000000
_cell_angle_beta   90.00000000
_cell_angle_gamma   90.00000000
_symmetry_Int_Tables_number   1
_chemical_formula_structural   Cu3Ni7C26
_chemical_formula_sum   'Cu12 Ni28 C104'
_cell_volume   2129.55651178
_cell_formula_units_Z   4
loop_
 _symmetry_equiv_pos_site_id
 _symmetry_equiv_pos_as_xyz
  1  'x, y, z'
loop_
 _atom_site_type_symbol
 _atom_site_label
 _atom_site_symmetry_multiplicity
 _atom_site_fract_x
 _atom_site_fract_y
 _atom_site_fract_z
 _atom_site_occupancy
  Ni  Ni0  1  0.19753700  0.32453400  0.81126900  1
  Ni  Ni1  1  0.69551900  0.66135400  0.94043600  1
  Ni  Ni2  1  0.76070500  0.17697900  0.05598100  1
  Ni  Ni3  1  0.73929500  0.67697900  0.55598100  1
  Ni  Ni4  1  0.69753700  0.32453400  0.18873100  1
  Ni  Ni5  1  0.30448100  0.33864600  0.05956400  1
  Ni  Ni6  1  0.25000000  0.50000000  0.31870700  1
  Ni  Ni7  1  0.75000000  0.00000000  0.18129300  1
  Ni  Ni8  1  0.19552000  0.83864600  0.55956400  1
  Ni  Ni9  1  0.23929500  0.82302100  0.94401900  1
  Ni  Ni10  1  0.23929500  0.67697900  0.44401900  1
  Ni  Ni11  1  0.19552000  0.66135400  0.05956400  1
  Ni  Ni12  1  0.73929500  0.82302100  0.05598100  1
  Ni  Ni13  1  0.26070500  0.17697900  0.94401900  1
  Ni  Ni14  1  0.30448100  0.16135400  0.55956400  1
  Ni  Ni15  1  0.80246300  0.82453400  0.68873100  1
  Ni  Ni16  1  0.25000000  0.00000000  0.81870700  1
  Ni  Ni17  1  0.30246300  0.67546600  0.81126900  1
  Ni  Ni18  1  0.69551900  0.83864600  0.44043600  1
  Ni  Ni19  1  0.26070500  0.32302100  0.44401900  1
  Ni  Ni20  1  0.30246300  0.82453400  0.31126900  1
  Ni  Ni21  1  0.76070500  0.32302100  0.55598100  1
  Ni  Ni22  1  0.19753700  0.17546600  0.31126900  1
  Ni  Ni23  1  0.80246300  0.67546600  0.18873100  1
  Ni  Ni24  1  0.75000000  0.50000000  0.68129300  1
  Ni  Ni25  1  0.69753700  0.17546600  0.68873100  1
  Ni  Ni26  1  0.80448100  0.33864600  0.94043600  1
  Ni  Ni27  1  0.80448100  0.16135400  0.44043600  1
  C  C28  1  0.75000000  0.50000000  0.42419200  1
  C  C29  1  0.25000000  0.50000000  0.17763500  1
  C  C30  1  0.25000000  0.00000000  0.67763500  1
  C  C31  1  0.75000000  0.50000000  0.82236500  1
  C  C32  1  0.75000000  0.00000000  0.92419200  1
  C  C33  1  0.75000000  0.00000000  0.32236500  1
  C  C34  1  0.25000000  0.50000000  0.57580800  1
  C  C35  1  0.25000000  0.00000000  0.07580800  1
  Cu  Cu36  1  0.75000000  0.00000000  0.57110700  1
  Cu  Cu37  1  0.25000000  0.00000000  0.42889300  1
  Cu  Cu38  1  0.25000000  0.50000000  0.92889300  1
  Cu  Cu39  1  0.25133600  0.66853100  0.67233400  1
  Cu  Cu40  1  0.24866400  0.33146900  0.67233400  1
  Cu  Cu41  1  0.75133600  0.83146900  0.82766600  1
  Cu  Cu42  1  0.24866400  0.16853100  0.17233400  1
  Cu  Cu43  1  0.75133600  0.66853100  0.32766600  1
  Cu  Cu44  1  0.75000000  0.50000000  0.07110700  1
  Cu  Cu45  1  0.25133600  0.83146900  0.17233400  1
  Cu  Cu46  1  0.74866400  0.16853100  0.82766600  1
  Cu  Cu47  1  0.74866400  0.33146900  0.32766600  1
  C  C48  1  0.09045300  0.22661500  0.12386800  1
  C  C49  1  0.53796500  0.45915500  0.77297400  1
  C  C50  1  0.47408000  0.44993900  0.39223400  1
  C  C51  1  0.40346900  0.09880700  0.65389100  1
  C  C52  1  0.61898700  0.07497800  0.52954400  1
  C  C53  1  0.45087700  0.40172100  0.64312800  1
  C  C54  1  0.39328800  0.72508400  0.89432000  1
  C  C55  1  0.90954700  0.77338500  0.87613200  1
  C  C56  1  0.36032800  0.07748900  0.03001500  1
  C  C57  1  0.45594500  0.62294900  0.71786500  1
  C  C58  1  0.39328800  0.77491600  0.39432000  1
  C  C59  1  0.40346900  0.40119300  0.15389100  1
  C  C60  1  0.89328800  0.77491600  0.60568000  1
  C  C61  1  0.58240700  0.76731100  0.78354700  1
  C  C62  1  0.99305500  0.75219300  0.49716200  1
  C  C63  1  0.95087700  0.40172100  0.35687200  1
  C  C64  1  0.09653100  0.90119300  0.65389100  1
  C  C65  1  0.95594500  0.62294900  0.28213500  1
  C  C66  1  0.97396700  0.45004900  0.11039400  1
  C  C67  1  0.45087700  0.09827900  0.14312800  1
  C  C68  1  0.52592000  0.94993900  0.10776600  1
  C  C69  1  0.88101300  0.92502200  0.52954400  1
  C  C70  1  0.58240700  0.73268900  0.28354700  1
  C  C71  1  0.47396700  0.04995100  0.38960600  1
  C  C72  1  0.47408000  0.05006100  0.89223400  1
  C  C73  1  0.95087700  0.09827900  0.85687200  1
  C  C74  1  0.99305500  0.74780700  0.99716200  1
  C  C75  1  0.00694500  0.25219300  0.00283800  1
  C  C76  1  0.63967200  0.57748900  0.46998500  1
  C  C77  1  0.59045300  0.22661500  0.87613200  1
  C  C78  1  0.13967200  0.57748900  0.53001500  1
  C  C79  1  0.38101300  0.92502200  0.47045600  1
  C  C80  1  0.00694500  0.24780700  0.50283800  1
  C  C81  1  0.97408000  0.44993900  0.60776600  1
  C  C82  1  0.41759300  0.23268900  0.21645300  1
  C  C83  1  0.53796500  0.04084500  0.27297400  1
  C  C84  1  0.50694500  0.25219300  0.99716200  1
  C  C85  1  0.52592000  0.55006100  0.60776600  1
  C  C86  1  0.97408000  0.05006100  0.10776600  1
  C  C87  1  0.54912300  0.59827900  0.35687200  1
  C  C88  1  0.54912300  0.90172100  0.85687200  1
  C  C89  1  0.90954700  0.72661500  0.37613200  1
  C  C90  1  0.10671200  0.22508400  0.39432000  1
  C  C91  1  0.97396700  0.04995100  0.61039400  1
  C  C92  1  0.54405500  0.12294900  0.78213500  1
  C  C93  1  0.11898700  0.07497800  0.47045600  1
  C  C94  1  0.04405500  0.12294900  0.21786500  1
  C  C95  1  0.95594500  0.87705100  0.78213500  1
  C  C96  1  0.09653100  0.59880700  0.15389100  1
  C  C97  1  0.04912300  0.59827900  0.64312800  1
  C  C98  1  0.02603300  0.95004900  0.38960600  1
  C  C99  1  0.04405500  0.37705100  0.71786500  1
  C  C100  1  0.52603300  0.54995100  0.11039400  1
  C  C101  1  0.13967200  0.92251100  0.03001500  1
  C  C102  1  0.96203500  0.54084500  0.77297400  1
  C  C103  1  0.40954700  0.72661500  0.62386800  1
  C  C104  1  0.59653100  0.59880700  0.84610900  1
  C  C105  1  0.47396700  0.45004900  0.88960600  1
  C  C106  1  0.90346900  0.09880700  0.34610900  1
  C  C107  1  0.08240700  0.76731100  0.21645300  1
  C  C108  1  0.60671200  0.22508400  0.60568000  1
  C  C109  1  0.90346900  0.40119300  0.84610900  1
  C  C110  1  0.09045300  0.27338500  0.62386800  1
  C  C111  1  0.59045300  0.27338500  0.37613200  1
  C  C112  1  0.63967200  0.92251100  0.96998500  1
  C  C113  1  0.52603300  0.95004900  0.61039400  1
  C  C114  1  0.91759300  0.23268900  0.78354700  1
  C  C115  1  0.40954700  0.77338500  0.12386800  1
  C  C116  1  0.88101300  0.57497800  0.02954400  1
  C  C117  1  0.10671200  0.27491600  0.89432000  1
  C  C118  1  0.61898700  0.42502200  0.02954400  1
  C  C119  1  0.41759300  0.26731100  0.71645300  1
  C  C120  1  0.02592000  0.94993900  0.89223400  1
  C  C121  1  0.89328800  0.72508400  0.10568000  1
  C  C122  1  0.46203500  0.95915500  0.72702600  1
  C  C123  1  0.36032800  0.42251100  0.53001500  1
  C  C124  1  0.08240700  0.73268900  0.71645300  1
  C  C125  1  0.60671200  0.27491600  0.10568000  1
  C  C126  1  0.46203500  0.54084500  0.22702600  1
  C  C127  1  0.50694500  0.24780700  0.49716200  1
  C  C128  1  0.86032800  0.07748900  0.96998500  1
  C  C129  1  0.03796500  0.04084500  0.72702600  1
  C  C130  1  0.96203500  0.95915500  0.27297400  1
  C  C131  1  0.91759300  0.26731100  0.28354700  1
  C  C132  1  0.49305500  0.75219300  0.50283800  1
  C  C133  1  0.49305500  0.74780700  0.00283800  1
  C  C134  1  0.38101300  0.57497800  0.97045600  1
  C  C135  1  0.02592000  0.55006100  0.39223400  1
  C  C136  1  0.03796500  0.45915500  0.22702600  1
  C  C137  1  0.86032800  0.42251100  0.46998500  1
  C  C138  1  0.54405500  0.37705100  0.28213500  1
  C  C139  1  0.04912300  0.90172100  0.14312800  1
  C  C140  1  0.02603300  0.54995100  0.88960600  1
  C  C141  1  0.11898700  0.42502200  0.97045600  1
  C  C142  1  0.59653100  0.90119300  0.34610900  1
  C  C143  1  0.45594500  0.87705100  0.21786500  1
