# generated using pymatgen
data_CuNi6C17
_symmetry_space_group_name_H-M   'P 1'
_cell_length_a   14.32841355
_cell_length_b   14.32841355
_cell_length_c   9.13561600
_cell_angle_alpha   90.00000000
_cell_angle_beta   90.00000000
_cell_angle_gamma   119.99999792
_symmetry_Int_Tables_number   1
_chemical_formula_structural   CuNi6C17
_chemical_formula_sum   'Cu2 Ni12 C34'
_cell_volume   1624.29419684
_cell_formula_units_Z   2
loop_
 _symmetry_equiv_pos_site_id
 _symmetry_equiv_pos_as_xyz
  1  'x, y, z'
loop_
 _atom_site_type_symbol
 _atom_site_label
 _atom_site_symmetry_multiplicity
 _atom_site_fract_x
 _atom_site_fract_y
 _atom_site_fract_z
 _atom_site_occupancy
  Ni  Ni0  1  0.24352800  0.79227800  0.25000000  1
  Ni  Ni1  1  0.45124900  0.24352800  0.75000000  1
  Ni  Ni2  1  0.54875100  0.79227800  0.75000000  1
  Ni  Ni3  1  0.79227800  0.54875100  0.75000000  1
  Ni  Ni4  1  0.75647200  0.54875100  0.25000000  1
  Ni  Ni5  1  0.24352800  0.45124900  0.75000000  1
  Ni  Ni6  1  0.79227800  0.24352800  0.25000000  1
  Ni  Ni7  1  0.75647200  0.20772200  0.75000000  1
  Ni  Ni8  1  0.20772200  0.45124900  0.25000000  1
  Ni  Ni9  1  0.20772200  0.75647200  0.75000000  1
  Ni  Ni10  1  0.54875100  0.75647200  0.25000000  1
  Ni  Ni11  1  0.45124900  0.20772200  0.25000000  1
  Cu  Cu12  1  0.00000000  0.00000000  0.50000000  1
  Cu  Cu13  1  0.00000000  0.00000000  0.00000000  1
  C  C14  1  0.80766900  0.00000000  0.25000000  1
  C  C15  1  0.80766900  0.80766900  0.75000000  1
  C  C16  1  0.00000000  0.80766900  0.25000000  1
  C  C17  1  0.19233100  0.00000000  0.75000000  1
  C  C18  1  0.19233100  0.19233100  0.25000000  1
  C  C19  1  0.00000000  0.19233100  0.75000000  1
  C  C20  1  0.17194100  0.00000000  0.25000000  1
  C  C21  1  0.33333300  0.66666700  0.00000000  1
  C  C22  1  0.00000000  0.31813300  0.52607300  1
  C  C23  1  0.82805900  0.00000000  0.75000000  1
  C  C24  1  0.68186700  0.68186700  0.97392700  1
  C  C25  1  0.31813300  0.00000000  0.97392700  1
  C  C26  1  0.00000000  0.17194100  0.25000000  1
  C  C27  1  0.00000000  0.68186700  0.47392700  1
  C  C28  1  0.00000000  0.68186700  0.02607300  1
  C  C29  1  0.00000000  0.46762300  0.75000000  1
  C  C30  1  0.31813300  0.31813300  0.02607300  1
  C  C31  1  0.82805900  0.82805900  0.25000000  1
  C  C32  1  0.46762300  0.00000000  0.75000000  1
  C  C33  1  0.68186700  0.00000000  0.02607300  1
  C  C34  1  0.66666700  0.33333300  0.50000000  1
  C  C35  1  0.66666700  0.33333300  0.00000000  1
  C  C36  1  0.68186700  0.00000000  0.47392700  1
  C  C37  1  0.53237700  0.53237700  0.75000000  1
  C  C38  1  0.46762300  0.46762300  0.25000000  1
  C  C39  1  0.31813300  0.00000000  0.52607300  1
  C  C40  1  0.68186700  0.68186700  0.52607300  1
  C  C41  1  0.00000000  0.31813300  0.97392700  1
  C  C42  1  0.33333300  0.66666700  0.50000000  1
  C  C43  1  0.31813300  0.31813300  0.47392700  1
  C  C44  1  0.00000000  0.53237700  0.25000000  1
  C  C45  1  0.53237700  0.00000000  0.25000000  1
  C  C46  1  0.00000000  0.82805900  0.75000000  1
  C  C47  1  0.17194100  0.17194100  0.75000000  1
