# generated using pymatgen
data_CuNiC5
_symmetry_space_group_name_H-M   'P 1'
_cell_length_a   5.39248500
_cell_length_b   6.89319300
_cell_length_c   11.90555200
_cell_angle_alpha   90.00000000
_cell_angle_beta   90.00000000
_cell_angle_gamma   90.00000000
_symmetry_Int_Tables_number   1
_chemical_formula_structural   CuNiC5
_chemical_formula_sum   'Cu4 Ni4 C20'
_cell_volume   442.54651010
_cell_formula_units_Z   4
loop_
 _symmetry_equiv_pos_site_id
 _symmetry_equiv_pos_as_xyz
  1  'x, y, z'
loop_
 _atom_site_type_symbol
 _atom_site_label
 _atom_site_symmetry_multiplicity
 _atom_site_fract_x
 _atom_site_fract_y
 _atom_site_fract_z
 _atom_site_occupancy
  Ni  Ni0  1  0.00000000  0.00000000  0.00000000  1
  Ni  Ni1  1  0.50000000  0.00000000  0.50000000  1
  Ni  Ni2  1  0.00000000  0.50000000  0.00000000  1
  Ni  Ni3  1  0.50000000  0.50000000  0.50000000  1
  Cu  Cu4  1  0.50711100  0.75000000  0.77941900  1
  Cu  Cu5  1  0.99288900  0.75000000  0.27941900  1
  Cu  Cu6  1  0.00711100  0.25000000  0.72058100  1
  Cu  Cu7  1  0.49288900  0.25000000  0.22058100  1
  C  C8  1  0.43313300  0.75000000  0.09000700  1
  C  C9  1  0.56686700  0.25000000  0.90999300  1
  C  C10  1  0.93313300  0.25000000  0.40999300  1
  C  C11  1  0.06686700  0.75000000  0.59000700  1
  C  C12  1  0.27065200  0.95916200  0.16262200  1
  C  C13  1  0.27065200  0.54083800  0.16262200  1
  C  C14  1  0.72324500  0.25000000  0.05055900  1
  C  C15  1  0.72538200  0.75000000  0.59199000  1
  C  C16  1  0.22934800  0.54083800  0.66262200  1
  C  C17  1  0.22324500  0.75000000  0.44944100  1
  C  C18  1  0.77065200  0.04083800  0.33737800  1
  C  C19  1  0.27461800  0.25000000  0.40801000  1
  C  C20  1  0.22934800  0.95916200  0.66262200  1
  C  C21  1  0.77461800  0.75000000  0.09199000  1
  C  C22  1  0.22538200  0.25000000  0.90801000  1
  C  C23  1  0.72934800  0.04083800  0.83737800  1
  C  C24  1  0.77065200  0.45916200  0.33737800  1
  C  C25  1  0.72934800  0.45916200  0.83737800  1
  C  C26  1  0.27675500  0.75000000  0.94944100  1
  C  C27  1  0.77675500  0.25000000  0.55055900  1
