# generated using pymatgen
data_Cu3NiC2
_symmetry_space_group_name_H-M   'P 1'
_cell_length_a   14.51381705
_cell_length_b   14.51381705
_cell_length_c   3.36094200
_cell_angle_alpha   90.00000000
_cell_angle_beta   90.00000000
_cell_angle_gamma   119.99999568
_symmetry_Int_Tables_number   1
_chemical_formula_structural   Cu3NiC2
_chemical_formula_sum   'Cu27 Ni9 C18'
_cell_volume   613.13337569
_cell_formula_units_Z   9
loop_
 _symmetry_equiv_pos_site_id
 _symmetry_equiv_pos_as_xyz
  1  'x, y, z'
loop_
 _atom_site_type_symbol
 _atom_site_label
 _atom_site_symmetry_multiplicity
 _atom_site_fract_x
 _atom_site_fract_y
 _atom_site_fract_z
 _atom_site_occupancy
  C  C0  1  0.77559100  0.90732300  0.50000000  1
  C  C1  1  0.12005000  0.57538500  0.50000000  1
  C  C2  1  0.74476000  0.19341500  0.50000000  1
  C  C3  1  0.13173100  0.22440900  0.50000000  1
  C  C4  1  0.09267700  0.86826900  0.50000000  1
  C  C5  1  0.42461500  0.54466500  0.50000000  1
  C  C6  1  0.80658500  0.55134400  0.50000000  1
  C  C7  1  0.44865600  0.25524000  0.50000000  1
  C  C8  1  0.45533500  0.87995000  0.50000000  1
  C  C9  1  0.56786400  0.74695600  0.00000000  1
  C  C10  1  0.58015300  0.47416600  0.00000000  1
  C  C11  1  0.22626300  0.10011500  0.00000000  1
  C  C12  1  0.52583400  0.10598700  0.00000000  1
  C  C13  1  0.87385300  0.77373700  0.00000000  1
  C  C14  1  0.17909200  0.43213600  0.00000000  1
  C  C15  1  0.89988500  0.12614700  0.00000000  1
  C  C16  1  0.25304400  0.82090800  0.00000000  1
  C  C17  1  0.89401300  0.41984700  0.00000000  1
  Ni  Ni18  1  0.68026900  0.66774700  0.50000000  1
  Ni  Ni19  1  0.65554100  0.99138700  0.00000000  1
  Ni  Ni20  1  0.33225300  0.01252200  0.50000000  1
  Ni  Ni21  1  0.00000000  0.00000000  0.00000000  1
  Ni  Ni22  1  0.98747800  0.31973100  0.50000000  1
  Ni  Ni23  1  0.33584600  0.34445900  0.00000000  1
  Ni  Ni24  1  0.00861300  0.66415400  0.00000000  1
  Ni  Ni25  1  0.66666700  0.33333300  0.00000000  1
  Ni  Ni26  1  0.33333300  0.66666700  0.00000000  1
  Cu  Cu27  1  0.64888600  0.89854300  0.00000000  1
  Cu  Cu28  1  0.75940200  0.41944000  0.00000000  1
  Cu  Cu29  1  0.41653700  0.65530200  0.00000000  1
  Cu  Cu30  1  0.56923700  0.99780800  0.00000000  1
  Cu  Cu31  1  0.74816400  0.07720800  0.00000000  1
  Cu  Cu32  1  0.78122500  0.73899600  0.50000000  1
  Cu  Cu33  1  0.95777100  0.21877500  0.50000000  1
  Cu  Cu34  1  0.43332400  0.08305400  0.50000000  1
  Cu  Cu35  1  0.60978200  0.69830000  0.50000000  1
  Cu  Cu36  1  0.08851800  0.39021800  0.50000000  1
  Cu  Cu37  1  0.24965700  0.35111400  0.00000000  1
  Cu  Cu38  1  0.58056000  0.33996200  0.00000000  1
  Cu  Cu39  1  0.34469800  0.76123500  0.00000000  1
  Cu  Cu40  1  0.92279200  0.67095600  0.00000000  1
  Cu  Cu41  1  0.90793700  0.99506000  0.00000000  1
  Cu  Cu42  1  0.66003800  0.24059800  0.00000000  1
  Cu  Cu43  1  0.26100400  0.04222900  0.50000000  1
  Cu  Cu44  1  0.08712400  0.09206300  0.00000000  1
  Cu  Cu45  1  0.32904400  0.25183600  0.00000000  1
  Cu  Cu46  1  0.10145700  0.75034300  0.00000000  1
  Cu  Cu47  1  0.91694600  0.35027000  0.50000000  1
  Cu  Cu48  1  0.23876500  0.58346300  0.00000000  1
  Cu  Cu49  1  0.64973000  0.56667600  0.50000000  1
  Cu  Cu50  1  0.30170000  0.91148200  0.50000000  1
  Cu  Cu51  1  0.00494000  0.91287600  0.00000000  1
  Cu  Cu52  1  0.42857100  0.43076300  0.00000000  1
  Cu  Cu53  1  0.00219200  0.57142900  0.00000000  1
