# generated using pymatgen
data_CuNiC
_symmetry_space_group_name_H-M   'P 1'
_cell_length_a   6.91258238
_cell_length_b   6.91258238
_cell_length_c   6.91258190
_cell_angle_alpha   99.14583671
_cell_angle_beta   99.14583671
_cell_angle_gamma   99.14583465
_symmetry_Int_Tables_number   1
_chemical_formula_structural   CuNiC
_chemical_formula_sum   'Cu6 Ni6 C6'
_cell_volume   316.16238204
_cell_formula_units_Z   6
loop_
 _symmetry_equiv_pos_site_id
 _symmetry_equiv_pos_as_xyz
  1  'x, y, z'
loop_
 _atom_site_type_symbol
 _atom_site_label
 _atom_site_symmetry_multiplicity
 _atom_site_fract_x
 _atom_site_fract_y
 _atom_site_fract_z
 _atom_site_occupancy
  Ni  Ni0  1  0.72103100  0.52231300  0.82922300  1
  Ni  Ni1  1  0.52231300  0.82922300  0.72103100  1
  Ni  Ni2  1  0.82922300  0.72103100  0.52231300  1
  Ni  Ni3  1  0.17077700  0.27896900  0.47768700  1
  Ni  Ni4  1  0.47768700  0.17077700  0.27896900  1
  Ni  Ni5  1  0.27896900  0.47768700  0.17077700  1
  Cu  Cu6  1  0.82815300  0.53847000  0.64121200  1
  Cu  Cu7  1  0.35878800  0.17184700  0.46153000  1
  Cu  Cu8  1  0.53847000  0.64121200  0.82815300  1
  Cu  Cu9  1  0.17184700  0.46153000  0.35878800  1
  Cu  Cu10  1  0.64121200  0.82815300  0.53847000  1
  Cu  Cu11  1  0.46153000  0.35878800  0.17184700  1
  C  C12  1  0.66918700  0.01652200  0.88989100  1
  C  C13  1  0.01652200  0.88989100  0.66918700  1
  C  C14  1  0.88989100  0.66918700  0.01652200  1
  C  C15  1  0.98347800  0.11010900  0.33081300  1
  C  C16  1  0.33081300  0.98347800  0.11010900  1
  C  C17  1  0.11010900  0.33081300  0.98347800  1
