# generated using pymatgen
data_CuNiC3
_symmetry_space_group_name_H-M   'P 1'
_cell_length_a   7.89432793
_cell_length_b   7.89432793
_cell_length_c   5.92634600
_cell_angle_alpha   90.00000000
_cell_angle_beta   90.00000000
_cell_angle_gamma   133.97804292
_symmetry_Int_Tables_number   1
_chemical_formula_structural   CuNiC3
_chemical_formula_sum   'Cu2 Ni2 C6'
_cell_volume   265.77374667
_cell_formula_units_Z   2
loop_
 _symmetry_equiv_pos_site_id
 _symmetry_equiv_pos_as_xyz
  1  'x, y, z'
loop_
 _atom_site_type_symbol
 _atom_site_label
 _atom_site_symmetry_multiplicity
 _atom_site_fract_x
 _atom_site_fract_y
 _atom_site_fract_z
 _atom_site_occupancy
  C  C0  1  0.60132200  0.39867800  0.75000000  1
  C  C1  1  0.39867800  0.60132200  0.25000000  1
  Ni  Ni2  1  0.06725700  0.93274300  0.25000000  1
  Ni  Ni3  1  0.93274300  0.06725700  0.75000000  1
  Cu  Cu4  1  0.25199000  0.74801000  0.75000000  1
  Cu  Cu5  1  0.74801000  0.25199000  0.25000000  1
  C  C6  1  0.77643200  0.77643200  0.50000000  1
  C  C7  1  0.22356800  0.22356800  0.50000000  1
  C  C8  1  0.22356800  0.22356800  0.00000000  1
  C  C9  1  0.77643200  0.77643200  0.00000000  1
