# generated using pymatgen
data_Cu2Ni2C9
_symmetry_space_group_name_H-M   'P 1'
_cell_length_a   5.19992600
_cell_length_b   8.43910100
_cell_length_c   9.01388700
_cell_angle_alpha   90.00000000
_cell_angle_beta   90.00000000
_cell_angle_gamma   90.00000000
_symmetry_Int_Tables_number   1
_chemical_formula_structural   Cu2Ni2C9
_chemical_formula_sum   'Cu4 Ni4 C18'
_cell_volume   395.55370542
_cell_formula_units_Z   2
loop_
 _symmetry_equiv_pos_site_id
 _symmetry_equiv_pos_as_xyz
  1  'x, y, z'
loop_
 _atom_site_type_symbol
 _atom_site_label
 _atom_site_symmetry_multiplicity
 _atom_site_fract_x
 _atom_site_fract_y
 _atom_site_fract_z
 _atom_site_occupancy
  C  C0  1  0.50000000  0.00000000  0.44097200  1
  C  C1  1  0.00000000  0.00000000  0.00173900  1
  C  C2  1  0.00000000  0.50000000  0.94097200  1
  C  C3  1  0.50000000  0.50000000  0.50173900  1
  Ni  Ni4  1  0.50451600  0.24079300  0.81197600  1
  Ni  Ni5  1  0.99548400  0.74079300  0.31197600  1
  Ni  Ni6  1  0.00451600  0.25920700  0.31197600  1
  Ni  Ni7  1  0.49548400  0.75920700  0.81197600  1
  Cu  Cu8  1  0.99629600  0.80374800  0.64191800  1
  Cu  Cu9  1  0.00370400  0.19625200  0.64191800  1
  Cu  Cu10  1  0.50370400  0.30374800  0.14191800  1
  Cu  Cu11  1  0.49629600  0.69625200  0.14191800  1
  C  C12  1  0.28099200  0.74704800  0.69506300  1
  C  C13  1  0.07368000  0.26453100  0.47780100  1
  C  C14  1  0.27875400  0.74658500  0.26315200  1
  C  C15  1  0.72124600  0.25341500  0.26315200  1
  C  C16  1  0.71900800  0.25295200  0.69506300  1
  C  C17  1  0.00000000  0.00000000  0.62827000  1
  C  C18  1  0.77875400  0.75341500  0.76315200  1
  C  C19  1  0.92632000  0.73546900  0.47780100  1
  C  C20  1  0.50000000  0.50000000  0.12827000  1
  C  C21  1  0.57368000  0.23546900  0.97780100  1
  C  C22  1  0.21900800  0.24704800  0.19506300  1
  C  C23  1  0.22124600  0.24658500  0.76315200  1
  C  C24  1  0.42632000  0.76453100  0.97780100  1
  C  C25  1  0.78099200  0.75295200  0.19506300  1
