# generated using pymatgen
data_CuNiC4
_symmetry_space_group_name_H-M   'P 1'
_cell_length_a   9.22214538
_cell_length_b   9.22214538
_cell_length_c   13.24999700
_cell_angle_alpha   90.00000000
_cell_angle_beta   90.00000000
_cell_angle_gamma   119.99999557
_symmetry_Int_Tables_number   1
_chemical_formula_structural   CuNiC4
_chemical_formula_sum   'Cu12 Ni12 C48'
_cell_volume   975.91132934
_cell_formula_units_Z   12
loop_
 _symmetry_equiv_pos_site_id
 _symmetry_equiv_pos_as_xyz
  1  'x, y, z'
loop_
 _atom_site_type_symbol
 _atom_site_label
 _atom_site_symmetry_multiplicity
 _atom_site_fract_x
 _atom_site_fract_y
 _atom_site_fract_z
 _atom_site_occupancy
  C  C0  1  0.36176200  0.04589200  0.75000000  1
  C  C1  1  0.31587000  0.36176200  0.25000000  1
  C  C2  1  0.68413000  0.63823800  0.75000000  1
  C  C3  1  0.95410800  0.31587000  0.75000000  1
  C  C4  1  0.63823800  0.95410800  0.25000000  1
  C  C5  1  0.04589200  0.68413000  0.25000000  1
  Ni  Ni6  1  0.03115400  0.67412000  0.90845400  1
  Ni  Ni7  1  0.35703400  0.03115400  0.09154600  1
  Ni  Ni8  1  0.03115400  0.67412000  0.59154600  1
  Ni  Ni9  1  0.32588000  0.35703400  0.59154600  1
  Ni  Ni10  1  0.64296600  0.96884600  0.90845400  1
  Ni  Ni11  1  0.67412000  0.64296600  0.40845400  1
  Ni  Ni12  1  0.67412000  0.64296600  0.09154600  1
  Ni  Ni13  1  0.96884600  0.32588000  0.40845400  1
  Ni  Ni14  1  0.35703400  0.03115400  0.40845400  1
  Ni  Ni15  1  0.32588000  0.35703400  0.90845400  1
  Ni  Ni16  1  0.96884600  0.32588000  0.09154600  1
  Ni  Ni17  1  0.64296600  0.96884600  0.59154600  1
  Cu  Cu18  1  0.66666700  0.33333300  0.36587900  1
  Cu  Cu19  1  0.66666700  0.33333300  0.58496100  1
  Cu  Cu20  1  0.33333300  0.66666700  0.41503900  1
  Cu  Cu21  1  0.00000000  0.00000000  0.88348100  1
  Cu  Cu22  1  0.33333300  0.66666700  0.08496100  1
  Cu  Cu23  1  0.00000000  0.00000000  0.38348100  1
  Cu  Cu24  1  0.00000000  0.00000000  0.61651900  1
  Cu  Cu25  1  0.66666700  0.33333300  0.13412100  1
  Cu  Cu26  1  0.00000000  0.00000000  0.11651900  1
  Cu  Cu27  1  0.33333300  0.66666700  0.86587900  1
  Cu  Cu28  1  0.33333300  0.66666700  0.63412100  1
  Cu  Cu29  1  0.66666700  0.33333300  0.91503900  1
  C  C30  1  0.16920200  0.11679000  0.38275100  1
  C  C31  1  0.94758900  0.83079800  0.11724900  1
  C  C32  1  0.49530100  0.80467100  0.41448900  1
  C  C33  1  0.94758900  0.83079800  0.38275100  1
  C  C34  1  0.19469500  0.50854800  0.63182100  1
  C  C35  1  0.31385300  0.80530500  0.86817900  1
  C  C36  1  0.31385300  0.80530500  0.63182100  1
  C  C37  1  0.11679000  0.94758900  0.61724900  1
  C  C38  1  0.50854800  0.31385300  0.36817900  1
  C  C39  1  0.61587100  0.65375200  0.25000000  1
  C  C40  1  0.96211900  0.61587100  0.75000000  1
  C  C41  1  0.69063000  0.49530100  0.91448900  1
  C  C42  1  0.19532900  0.69063000  0.41448900  1
  C  C43  1  0.88321000  0.05241100  0.11724900  1
  C  C44  1  0.03788100  0.38412900  0.25000000  1
  C  C45  1  0.30937000  0.50469900  0.08551100  1
  C  C46  1  0.83079800  0.88321000  0.61724900  1
  C  C47  1  0.19469500  0.50854800  0.86817900  1
  C  C48  1  0.83079800  0.88321000  0.88275100  1
  C  C49  1  0.50854800  0.31385300  0.13182100  1
  C  C50  1  0.30937000  0.50469900  0.41448900  1
  C  C51  1  0.49145200  0.68614700  0.63182100  1
  C  C52  1  0.50469900  0.19532900  0.58551100  1
  C  C53  1  0.50469900  0.19532900  0.91448900  1
  C  C54  1  0.68614700  0.19469500  0.36817900  1
  C  C55  1  0.11679000  0.94758900  0.88275100  1
  C  C56  1  0.69063000  0.49530100  0.58551100  1
  C  C57  1  0.34624800  0.96211900  0.25000000  1
  C  C58  1  0.38412900  0.34624800  0.75000000  1
  C  C59  1  0.05241100  0.16920200  0.61724900  1
  C  C60  1  0.49145200  0.68614700  0.86817900  1
  C  C61  1  0.68614700  0.19469500  0.13182100  1
  C  C62  1  0.05241100  0.16920200  0.88275100  1
  C  C63  1  0.88321000  0.05241100  0.38275100  1
  C  C64  1  0.80467100  0.30937000  0.91448900  1
  C  C65  1  0.16920200  0.11679000  0.11724900  1
  C  C66  1  0.80530500  0.49145200  0.13182100  1
  C  C67  1  0.65375200  0.03788100  0.75000000  1
  C  C68  1  0.19532900  0.69063000  0.08551100  1
  C  C69  1  0.80467100  0.30937000  0.58551100  1
  C  C70  1  0.80530500  0.49145200  0.36817900  1
  C  C71  1  0.49530100  0.80467100  0.08551100  1
