# generated using pymatgen
data_Cu6Ni3C5
_symmetry_space_group_name_H-M   'P 1'
_cell_length_a   6.52397100
_cell_length_b   14.18020000
_cell_length_c   14.82947100
_cell_angle_alpha   90.00000000
_cell_angle_beta   90.00000000
_cell_angle_gamma   90.00000000
_symmetry_Int_Tables_number   1
_chemical_formula_structural   Cu6Ni3C5
_chemical_formula_sum   'Cu48 Ni24 C40'
_cell_volume   1371.89235887
_cell_formula_units_Z   8
loop_
 _symmetry_equiv_pos_site_id
 _symmetry_equiv_pos_as_xyz
  1  'x, y, z'
loop_
 _atom_site_type_symbol
 _atom_site_label
 _atom_site_symmetry_multiplicity
 _atom_site_fract_x
 _atom_site_fract_y
 _atom_site_fract_z
 _atom_site_occupancy
  C  C0  1  0.22704400  0.72064200  0.99956200  1
  C  C1  1  0.22704400  0.22064200  0.50043800  1
  C  C2  1  0.27295600  0.22064200  0.99956200  1
  C  C3  1  0.77295600  0.27935800  0.00043800  1
  C  C4  1  0.75000000  0.42337800  0.25000000  1
  C  C5  1  0.27295600  0.72064200  0.50043800  1
  C  C6  1  0.72704400  0.27935800  0.49956200  1
  C  C7  1  0.25000000  0.57662200  0.75000000  1
  C  C8  1  0.75000000  0.92337800  0.25000000  1
  C  C9  1  0.77295600  0.77935800  0.49956200  1
  C  C10  1  0.25000000  0.07662200  0.75000000  1
  C  C11  1  0.72704400  0.77935800  0.00043800  1
  C  C12  1  0.25000000  0.56358400  0.25000000  1
  C  C13  1  0.25000000  0.06358400  0.25000000  1
  C  C14  1  0.75000000  0.93641600  0.75000000  1
  C  C15  1  0.75000000  0.43641600  0.75000000  1
  C  C16  1  0.32415500  0.42596400  0.08687400  1
  C  C17  1  0.27038200  0.42972500  0.59116700  1
  C  C18  1  0.32415500  0.92596400  0.41312600  1
  C  C19  1  0.99863500  0.24525500  0.22599500  1
  C  C20  1  0.17584500  0.42596400  0.41312600  1
  C  C21  1  0.77038200  0.57027500  0.09116700  1
  C  C22  1  0.50136500  0.24525500  0.27400500  1
  C  C23  1  0.49863500  0.75474500  0.72599500  1
  C  C24  1  0.72961800  0.57027500  0.40883300  1
  C  C25  1  0.22961800  0.92972500  0.59116700  1
  C  C26  1  0.00136500  0.75474500  0.77400500  1
  C  C27  1  0.72961800  0.07027500  0.09116700  1
  C  C28  1  0.67584500  0.07403600  0.58687400  1
  C  C29  1  0.82415500  0.57403600  0.58687400  1
  C  C30  1  0.77038200  0.07027500  0.40883300  1
  C  C31  1  0.67584500  0.57403600  0.91312600  1
  C  C32  1  0.49863500  0.25474500  0.77400500  1
  C  C33  1  0.00136500  0.25474500  0.72599500  1
  C  C34  1  0.17584500  0.92596400  0.08687400  1
  C  C35  1  0.27038200  0.92972500  0.90883300  1
  C  C36  1  0.50136500  0.74525500  0.22599500  1
  C  C37  1  0.82415500  0.07403600  0.91312600  1
  C  C38  1  0.22961800  0.42972500  0.90883300  1
  C  C39  1  0.99863500  0.74525500  0.27400500  1
  Ni  Ni40  1  0.50150600  0.73849900  0.30064900  1
  Ni  Ni41  1  0.60878800  0.08919400  0.39413800  1
  Ni  Ni42  1  0.10878800  0.91080600  0.89413800  1
  Ni  Ni43  1  0.00150600  0.76150100  0.69935100  1
  Ni  Ni44  1  0.99849400  0.23849900  0.30064900  1
  Ni  Ni45  1  0.33842300  0.41211200  0.39615700  1
  Ni  Ni46  1  0.16157700  0.91211200  0.39615700  1
  Ni  Ni47  1  0.33842300  0.91211200  0.10384300  1
  Ni  Ni48  1  0.83842300  0.08788800  0.60384300  1
  Ni  Ni49  1  0.00150600  0.26150100  0.80064900  1
  Ni  Ni50  1  0.66157700  0.08788800  0.89615700  1
  Ni  Ni51  1  0.39121200  0.41080600  0.89413800  1
  Ni  Ni52  1  0.60878800  0.58919400  0.10586200  1
  Ni  Ni53  1  0.83842300  0.58788800  0.89615700  1
  Ni  Ni54  1  0.66157700  0.58788800  0.60384300  1
  Ni  Ni55  1  0.89121200  0.08919400  0.10586200  1
  Ni  Ni56  1  0.49849400  0.76150100  0.80064900  1
  Ni  Ni57  1  0.49849400  0.26150100  0.69935100  1
  Ni  Ni58  1  0.89121200  0.58919400  0.39413800  1
  Ni  Ni59  1  0.39121200  0.91080600  0.60586200  1
  Ni  Ni60  1  0.16157700  0.41211200  0.10384300  1
  Ni  Ni61  1  0.10878800  0.41080600  0.60586200  1
  Ni  Ni62  1  0.50150600  0.23849900  0.19935100  1
  Ni  Ni63  1  0.99849400  0.73849900  0.19935100  1
  Cu  Cu64  1  0.89507900  0.79519300  0.15346400  1
  Cu  Cu65  1  0.06282900  0.85414300  0.44208200  1
  Cu  Cu66  1  0.56282900  0.14585700  0.94208200  1
  Cu  Cu67  1  0.60923000  0.82874100  0.83410300  1
  Cu  Cu68  1  0.39507900  0.70480700  0.84653600  1
  Cu  Cu69  1  0.41234500  0.45760800  0.32780400  1
  Cu  Cu70  1  0.41234500  0.95760800  0.17219600  1
  Cu  Cu71  1  0.06282900  0.35414300  0.05791800  1
  Cu  Cu72  1  0.10492100  0.20480700  0.84653600  1
  Cu  Cu73  1  0.98359100  0.14484100  0.05522900  1
  Cu  Cu74  1  0.03661300  0.45096900  0.67751200  1
  Cu  Cu75  1  0.58765500  0.54239200  0.67219600  1
  Cu  Cu76  1  0.48359100  0.35515900  0.94477100  1
  Cu  Cu77  1  0.96338700  0.54903100  0.32248800  1
  Cu  Cu78  1  0.51640900  0.64484100  0.05522900  1
  Cu  Cu79  1  0.39077000  0.17125900  0.16589700  1
  Cu  Cu80  1  0.91234500  0.54239200  0.82780400  1
  Cu  Cu81  1  0.08765500  0.45760800  0.17219600  1
  Cu  Cu82  1  0.39077000  0.67125900  0.33410300  1
  Cu  Cu83  1  0.96338700  0.04903100  0.17751200  1
  Cu  Cu84  1  0.08765500  0.95760800  0.32780400  1
  Cu  Cu85  1  0.10923000  0.17125900  0.33410300  1
  Cu  Cu86  1  0.10923000  0.67125900  0.16589700  1
  Cu  Cu87  1  0.01640900  0.85515900  0.94477100  1
  Cu  Cu88  1  0.51640900  0.14484100  0.44477100  1
  Cu  Cu89  1  0.58765500  0.04239200  0.82780400  1
  Cu  Cu90  1  0.53661300  0.04903100  0.32248800  1
  Cu  Cu91  1  0.98359100  0.64484100  0.44477100  1
  Cu  Cu92  1  0.93717100  0.14585700  0.55791800  1
  Cu  Cu93  1  0.46338700  0.45096900  0.82248800  1
  Cu  Cu94  1  0.43717100  0.85414300  0.05791800  1
  Cu  Cu95  1  0.93717100  0.64585700  0.94208200  1
  Cu  Cu96  1  0.91234500  0.04239200  0.67219600  1
  Cu  Cu97  1  0.89507900  0.29519300  0.34653600  1
  Cu  Cu98  1  0.60492100  0.29519300  0.15346400  1
  Cu  Cu99  1  0.89077000  0.32874100  0.83410300  1
  Cu  Cu100  1  0.46338700  0.95096900  0.67751200  1
  Cu  Cu101  1  0.89077000  0.82874100  0.66589700  1
  Cu  Cu102  1  0.53661300  0.54903100  0.17751200  1
  Cu  Cu103  1  0.10492100  0.70480700  0.65346400  1
  Cu  Cu104  1  0.01640900  0.35515900  0.55522900  1
  Cu  Cu105  1  0.39507900  0.20480700  0.65346400  1
  Cu  Cu106  1  0.60492100  0.79519300  0.34653600  1
  Cu  Cu107  1  0.43717100  0.35414300  0.44208200  1
  Cu  Cu108  1  0.48359100  0.85515900  0.55522900  1
  Cu  Cu109  1  0.60923000  0.32874100  0.66589700  1
  Cu  Cu110  1  0.56282900  0.64585700  0.55791800  1
  Cu  Cu111  1  0.03661300  0.95096900  0.82248800  1
