# generated using pymatgen
data_Cu2NiC3
_symmetry_space_group_name_H-M   'P 1'
_cell_length_a   8.02034400
_cell_length_b   11.25778400
_cell_length_c   19.48784300
_cell_angle_alpha   90.00000000
_cell_angle_beta   90.00000000
_cell_angle_gamma   90.00000000
_symmetry_Int_Tables_number   1
_chemical_formula_structural   Cu2NiC3
_chemical_formula_sum   'Cu16 Ni8 C24'
_cell_volume   1759.58268564
_cell_formula_units_Z   8
loop_
 _symmetry_equiv_pos_site_id
 _symmetry_equiv_pos_as_xyz
  1  'x, y, z'
loop_
 _atom_site_type_symbol
 _atom_site_label
 _atom_site_symmetry_multiplicity
 _atom_site_fract_x
 _atom_site_fract_y
 _atom_site_fract_z
 _atom_site_occupancy
  C  C0  1  0.89327500  0.75000000  0.47785300  1
  C  C1  1  0.69279600  0.02464400  0.57808400  1
  C  C2  1  0.48010900  0.94509100  0.74850500  1
  C  C3  1  0.98010900  0.05490900  0.75149500  1
  C  C4  1  0.01989100  0.94509100  0.24850500  1
  C  C5  1  0.98010900  0.44509100  0.75149500  1
  C  C6  1  0.10672500  0.25000000  0.52214700  1
  C  C7  1  0.80720400  0.47535600  0.07808400  1
  C  C8  1  0.51989100  0.05490900  0.25149500  1
  C  C9  1  0.69279600  0.47535600  0.57808400  1
  C  C10  1  0.30720400  0.52464400  0.42191600  1
  C  C11  1  0.39327500  0.25000000  0.02214700  1
  C  C12  1  0.30720400  0.97535600  0.42191600  1
  C  C13  1  0.51989100  0.44509100  0.25149500  1
  C  C14  1  0.60672500  0.75000000  0.97785300  1
  C  C15  1  0.19279600  0.52464400  0.92191600  1
  C  C16  1  0.80720400  0.02464400  0.07808400  1
  C  C17  1  0.48010900  0.55490900  0.74850500  1
  C  C18  1  0.19279600  0.97535600  0.92191600  1
  C  C19  1  0.01989100  0.55490900  0.24850500  1
  C  C20  1  0.41731600  0.75000000  0.16311900  1
  C  C21  1  0.58268400  0.25000000  0.83688100  1
  C  C22  1  0.91731600  0.25000000  0.33688100  1
  C  C23  1  0.08268400  0.75000000  0.66311900  1
  Ni  Ni24  1  0.67393100  0.75000000  0.31260200  1
  Ni  Ni25  1  0.41756000  0.75000000  0.55447300  1
  Ni  Ni26  1  0.91756000  0.25000000  0.94552700  1
  Ni  Ni27  1  0.58244000  0.25000000  0.44552700  1
  Ni  Ni28  1  0.32606900  0.25000000  0.68739800  1
  Ni  Ni29  1  0.82606900  0.75000000  0.81260200  1
  Ni  Ni30  1  0.08244000  0.75000000  0.05447300  1
  Ni  Ni31  1  0.17393100  0.25000000  0.18739800  1
  Cu  Cu32  1  0.19555200  0.93042400  0.60260800  1
  Cu  Cu33  1  0.16783100  0.75000000  0.78874800  1
  Cu  Cu34  1  0.33216900  0.75000000  0.28874800  1
  Cu  Cu35  1  0.30444800  0.93042400  0.10260800  1
  Cu  Cu36  1  0.77124400  0.75000000  0.66387600  1
  Cu  Cu37  1  0.30444800  0.56957600  0.10260800  1
  Cu  Cu38  1  0.80444800  0.06957600  0.39739200  1
  Cu  Cu39  1  0.22875600  0.25000000  0.33612400  1
  Cu  Cu40  1  0.80444800  0.43042400  0.39739200  1
  Cu  Cu41  1  0.83216900  0.25000000  0.21125200  1
  Cu  Cu42  1  0.69555200  0.06957600  0.89739200  1
  Cu  Cu43  1  0.72875600  0.75000000  0.16387600  1
  Cu  Cu44  1  0.66783100  0.25000000  0.71125200  1
  Cu  Cu45  1  0.27124400  0.25000000  0.83612400  1
  Cu  Cu46  1  0.19555200  0.56957600  0.60260800  1
  Cu  Cu47  1  0.69555200  0.43042400  0.89739200  1
