# generated using pymatgen
data_Cu(NiC4)2
_symmetry_space_group_name_H-M   'P 1'
_cell_length_a   7.12605700
_cell_length_b   9.40420244
_cell_length_c   12.11076037
_cell_angle_alpha   97.90363741
_cell_angle_beta   106.95993409
_cell_angle_gamma   109.60788080
_symmetry_Int_Tables_number   1
_chemical_formula_structural   Cu(NiC4)2
_chemical_formula_sum   'Cu4 Ni8 C32'
_cell_volume   705.89020161
_cell_formula_units_Z   4
loop_
 _symmetry_equiv_pos_site_id
 _symmetry_equiv_pos_as_xyz
  1  'x, y, z'
loop_
 _atom_site_type_symbol
 _atom_site_label
 _atom_site_symmetry_multiplicity
 _atom_site_fract_x
 _atom_site_fract_y
 _atom_site_fract_z
 _atom_site_occupancy
  C  C0  1  0.66314000  0.38856500  0.42979600  1
  C  C1  1  0.33686000  0.61143500  0.57020400  1
  C  C2  1  0.66427300  0.91329400  0.91446700  1
  C  C3  1  0.33572700  0.08670600  0.08553300  1
  C  C4  1  0.58019700  0.62135800  0.15843900  1
  C  C5  1  0.42469500  0.85518300  0.34840700  1
  C  C6  1  0.41980300  0.37864200  0.84156100  1
  C  C7  1  0.57530500  0.14481700  0.65159300  1
  Ni  Ni8  1  0.21675200  0.92784600  0.74715800  1
  Ni  Ni9  1  0.98393200  0.25913800  0.90163200  1
  Ni  Ni10  1  0.96499300  0.73316900  0.40538600  1
  Ni  Ni11  1  0.03500700  0.26683100  0.59461400  1
  Ni  Ni12  1  0.21936700  0.40613900  0.25083900  1
  Ni  Ni13  1  0.78324800  0.07215400  0.25284200  1
  Ni  Ni14  1  0.78063300  0.59386100  0.74916100  1
  Ni  Ni15  1  0.01606800  0.74086200  0.09836800  1
  Cu  Cu16  1  0.40769800  0.64737900  0.97051700  1
  Cu  Cu17  1  0.36001000  0.12624300  0.46238400  1
  Cu  Cu18  1  0.59230200  0.35262100  0.02948300  1
  Cu  Cu19  1  0.63999000  0.87375700  0.53761600  1
  C  C20  1  0.01544500  0.14448600  0.00144200  1
  C  C21  1  0.64085000  0.18465400  0.27559300  1
  C  C22  1  0.18320800  0.70677500  0.38064200  1
  C  C23  1  0.65312800  0.71995200  0.76449700  1
  C  C24  1  0.01992100  0.35798000  0.47843400  1
  C  C25  1  0.68394100  0.92070100  0.31222100  1
  C  C26  1  0.98455500  0.85551400  0.99855800  1
  C  C27  1  0.73634700  0.11457500  0.80483900  1
  C  C28  1  0.26365300  0.88542500  0.19516100  1
  C  C29  1  0.85841200  0.77375300  0.17444800  1
  C  C30  1  0.81679200  0.29322500  0.61935800  1
  C  C31  1  0.14158800  0.22624700  0.82555200  1
  C  C32  1  0.25863700  0.42894200  0.69573400  1
  C  C33  1  0.70030200  0.46462700  0.83004700  1
  C  C34  1  0.29969800  0.53537300  0.16995300  1
  C  C35  1  0.38870700  0.49766700  0.39830600  1
  C  C36  1  0.98007900  0.64202000  0.52156600  1
  C  C37  1  0.35986800  0.99162400  0.90110100  1
  C  C38  1  0.64013200  0.00837600  0.09889900  1
  C  C39  1  0.34687200  0.28004800  0.23550300  1
  C  C40  1  0.35915000  0.81534600  0.72440700  1
  C  C41  1  0.31605900  0.07929900  0.68777900  1
  C  C42  1  0.74136300  0.57105800  0.30426600  1
  C  C43  1  0.61129300  0.50233300  0.60169400  1
