# generated using pymatgen
data_CuNi7C16
_symmetry_space_group_name_H-M   'P 1'
_cell_length_a   8.79928487
_cell_length_b   8.79928487
_cell_length_c   8.79928487
_cell_angle_alpha   60.00000000
_cell_angle_beta   60.00000000
_cell_angle_gamma   60.00000000
_symmetry_Int_Tables_number   1
_chemical_formula_structural   CuNi7C16
_chemical_formula_sum   'Cu2 Ni14 C32'
_cell_volume   481.75600365
_cell_formula_units_Z   2
loop_
 _symmetry_equiv_pos_site_id
 _symmetry_equiv_pos_as_xyz
  1  'x, y, z'
loop_
 _atom_site_type_symbol
 _atom_site_label
 _atom_site_symmetry_multiplicity
 _atom_site_fract_x
 _atom_site_fract_y
 _atom_site_fract_z
 _atom_site_occupancy
  C  C0  1  0.50000000  0.00000000  0.00000000  1
  C  C1  1  0.50000000  0.50000000  0.00000000  1
  C  C2  1  0.00000000  0.50000000  0.00000000  1
  C  C3  1  0.00000000  0.50000000  0.50000000  1
  C  C4  1  0.00000000  0.00000000  0.50000000  1
  C  C5  1  0.50000000  0.00000000  0.50000000  1
  Ni  Ni6  1  0.07960300  0.07960300  0.76119100  1
  Ni  Ni7  1  0.76119100  0.07960300  0.07960300  1
  Ni  Ni8  1  0.26119100  0.57960300  0.57960300  1
  Ni  Ni9  1  0.57960300  0.57960300  0.26119100  1
  Ni  Ni10  1  0.25000000  0.25000000  0.75000000  1
  Ni  Ni11  1  0.25000000  0.75000000  0.25000000  1
  Ni  Ni12  1  0.75000000  0.25000000  0.75000000  1
  Ni  Ni13  1  0.57960300  0.57960300  0.57960300  1
  Ni  Ni14  1  0.75000000  0.25000000  0.25000000  1
  Ni  Ni15  1  0.75000000  0.75000000  0.25000000  1
  Ni  Ni16  1  0.57960300  0.26119100  0.57960300  1
  Ni  Ni17  1  0.07960300  0.76119100  0.07960300  1
  Ni  Ni18  1  0.07960300  0.07960300  0.07960300  1
  Ni  Ni19  1  0.25000000  0.75000000  0.75000000  1
  Cu  Cu20  1  0.25000000  0.25000000  0.25000000  1
  Cu  Cu21  1  0.75000000  0.75000000  0.75000000  1
  C  C22  1  0.70375900  0.25057500  0.93627400  1
  C  C23  1  0.50000000  0.50000000  0.50000000  1
  C  C24  1  0.93627400  0.10939100  0.70375900  1
  C  C25  1  0.43627400  0.75057500  0.20375900  1
  C  C26  1  0.93627400  0.25057500  0.10939100  1
  C  C27  1  0.00000000  0.00000000  0.00000000  1
  C  C28  1  0.60939100  0.43627400  0.20375900  1
  C  C29  1  0.20375900  0.75057500  0.60939100  1
  C  C30  1  0.20375900  0.43627400  0.75057500  1
  C  C31  1  0.25057500  0.70375900  0.10939100  1
  C  C32  1  0.60939100  0.20375900  0.75057500  1
  C  C33  1  0.43627400  0.20375900  0.60939100  1
  C  C34  1  0.93627400  0.70375900  0.25057500  1
  C  C35  1  0.10939100  0.25057500  0.70375900  1
  C  C36  1  0.75057500  0.43627400  0.60939100  1
  C  C37  1  0.20375900  0.60939100  0.43627400  1
  C  C38  1  0.75057500  0.20375900  0.43627400  1
  C  C39  1  0.70375900  0.93627400  0.10939100  1
  C  C40  1  0.43627400  0.60939100  0.75057500  1
  C  C41  1  0.75057500  0.60939100  0.20375900  1
  C  C42  1  0.70375900  0.10939100  0.25057500  1
  C  C43  1  0.25057500  0.10939100  0.93627400  1
  C  C44  1  0.60939100  0.75057500  0.43627400  1
  C  C45  1  0.10939100  0.70375900  0.93627400  1
  C  C46  1  0.25057500  0.93627400  0.70375900  1
  C  C47  1  0.10939100  0.93627400  0.25057500  1
