# generated using pymatgen
data_Cu(NiC3)2
_symmetry_space_group_name_H-M   'P 1'
_cell_length_a   7.57343700
_cell_length_b   7.60506900
_cell_length_c   15.19424300
_cell_angle_alpha   90.00000000
_cell_angle_beta   90.00000000
_cell_angle_gamma   90.00000000
_symmetry_Int_Tables_number   1
_chemical_formula_structural   Cu(NiC3)2
_chemical_formula_sum   'Cu8 Ni16 C48'
_cell_volume   875.13538336
_cell_formula_units_Z   8
loop_
 _symmetry_equiv_pos_site_id
 _symmetry_equiv_pos_as_xyz
  1  'x, y, z'
loop_
 _atom_site_type_symbol
 _atom_site_label
 _atom_site_symmetry_multiplicity
 _atom_site_fract_x
 _atom_site_fract_y
 _atom_site_fract_z
 _atom_site_occupancy
  Ni  Ni0  1  0.25107700  0.25582200  0.37447400  1
  Ni  Ni1  1  0.25107700  0.25582200  0.62552600  1
  Ni  Ni2  1  0.25547900  0.24884600  0.87631400  1
  Ni  Ni3  1  0.74892300  0.25582200  0.62552600  1
  Ni  Ni4  1  0.74452100  0.24884600  0.12368600  1
  Ni  Ni5  1  0.25547900  0.24884600  0.12368600  1
  Ni  Ni6  1  0.74892300  0.25582200  0.37447400  1
  Ni  Ni7  1  0.74452100  0.24884600  0.87631400  1
  Ni  Ni8  1  0.25107700  0.74417800  0.62552600  1
  Ni  Ni9  1  0.25547900  0.75115400  0.12368600  1
  Ni  Ni10  1  0.74892300  0.74417800  0.37447400  1
  Ni  Ni11  1  0.74892300  0.74417800  0.62552600  1
  Ni  Ni12  1  0.25107700  0.74417800  0.37447400  1
  Ni  Ni13  1  0.74452100  0.75115400  0.87631400  1
  Ni  Ni14  1  0.74452100  0.75115400  0.12368600  1
  Ni  Ni15  1  0.25547900  0.75115400  0.87631400  1
  Cu  Cu16  1  0.00000000  0.00000000  0.50000000  1
  Cu  Cu17  1  0.50000000  0.00000000  0.25202600  1
  Cu  Cu18  1  0.50000000  0.00000000  0.50000000  1
  Cu  Cu19  1  0.50000000  0.00000000  0.74797400  1
  Cu  Cu20  1  0.00000000  0.00000000  0.00000000  1
  Cu  Cu21  1  0.00000000  0.50000000  0.24878500  1
  Cu  Cu22  1  0.00000000  0.50000000  0.75121500  1
  Cu  Cu23  1  0.00000000  0.50000000  0.00000000  1
  C  C24  1  0.69496900  0.00000000  0.33868900  1
  C  C25  1  0.69496900  0.00000000  0.66131100  1
  C  C26  1  0.69093100  0.00000000  0.84013200  1
  C  C27  1  0.30906900  0.00000000  0.84013200  1
  C  C28  1  0.69093100  0.00000000  0.15986800  1
  C  C29  1  0.00000000  0.18135500  0.59396400  1
  C  C30  1  0.00000000  0.18135500  0.40603600  1
  C  C31  1  0.00000000  0.17802900  0.09628200  1
  C  C32  1  0.00000000  0.17802900  0.90371800  1
  C  C33  1  0.68649400  0.18505500  0.50000000  1
  C  C34  1  0.31350600  0.18505500  0.50000000  1
  C  C35  1  0.70053600  0.20488300  0.00000000  1
  C  C36  1  0.29946400  0.20488300  0.00000000  1
  C  C37  1  0.81931200  0.31016200  0.24939700  1
  C  C38  1  0.81931200  0.31016200  0.75060300  1
  C  C39  1  0.18068800  0.31016200  0.24939700  1
  C  C40  1  0.18068800  0.31016200  0.75060300  1
  C  C41  1  0.50000000  0.29682400  0.35239300  1
  C  C42  1  0.50000000  0.30696400  0.85304200  1
  C  C43  1  0.50000000  0.29682400  0.64760700  1
  C  C44  1  0.50000000  0.30696400  0.14695800  1
  C  C45  1  0.79376300  0.50000000  0.40310600  1
  C  C46  1  0.81531400  0.50000000  0.90677700  1
  C  C47  1  0.79376300  0.50000000  0.59689400  1
  C  C48  1  0.20623700  0.50000000  0.40310600  1
  C  C49  1  0.20623700  0.50000000  0.59689400  1
  C  C50  1  0.81531400  0.50000000  0.09322300  1
  C  C51  1  0.18468600  0.50000000  0.90677700  1
  C  C52  1  0.18468600  0.50000000  0.09322300  1
  C  C53  1  0.50000000  0.70317600  0.35239300  1
  C  C54  1  0.50000000  0.70317600  0.64760700  1
  C  C55  1  0.50000000  0.69303600  0.85304200  1
  C  C56  1  0.50000000  0.69303600  0.14695800  1
  C  C57  1  0.81931200  0.68983800  0.24939700  1
  C  C58  1  0.18068800  0.68983800  0.24939700  1
  C  C59  1  0.81931200  0.68983800  0.75060300  1
  C  C60  1  0.18068800  0.68983800  0.75060300  1
  C  C61  1  0.68649400  0.81494500  0.50000000  1
  C  C62  1  0.31350600  0.81494500  0.50000000  1
  C  C63  1  0.70053600  0.79511700  0.00000000  1
  C  C64  1  0.29946400  0.79511700  0.00000000  1
  C  C65  1  0.00000000  0.81864500  0.40603600  1
  C  C66  1  0.00000000  0.81864500  0.59396400  1
  C  C67  1  0.00000000  0.82197100  0.09628200  1
  C  C68  1  0.00000000  0.82197100  0.90371800  1
  C  C69  1  0.30503100  0.00000000  0.33868900  1
  C  C70  1  0.30503100  0.00000000  0.66131100  1
  C  C71  1  0.30906900  0.00000000  0.15986800  1
