# generated using pymatgen
data_Cu23Ni6
_symmetry_space_group_name_H-M   'P 1'
_cell_length_a   8.27067729
_cell_length_b   8.27067729
_cell_length_c   8.27067729
_cell_angle_alpha   60.00000000
_cell_angle_beta   60.00000000
_cell_angle_gamma   60.00000000
_symmetry_Int_Tables_number   1
_chemical_formula_structural   Cu23Ni6
_chemical_formula_sum   'Cu23 Ni6'
_cell_volume   400.04443166
_cell_formula_units_Z   1
loop_
 _symmetry_equiv_pos_site_id
 _symmetry_equiv_pos_as_xyz
  1  'x, y, z'
loop_
 _atom_site_type_symbol
 _atom_site_label
 _atom_site_symmetry_multiplicity
 _atom_site_fract_x
 _atom_site_fract_y
 _atom_site_fract_z
 _atom_site_occupancy
  Ni  Ni0  1  0.20589500  0.20589500  0.79410500  1
  Ni  Ni1  1  0.20589500  0.79410500  0.79410500  1
  Ni  Ni2  1  0.20589500  0.79410500  0.20589500  1
  Ni  Ni3  1  0.79410500  0.20589500  0.20589500  1
  Ni  Ni4  1  0.79410500  0.20589500  0.79410500  1
  Ni  Ni5  1  0.79410500  0.79410500  0.20589500  1
  Cu  Cu6  1  0.17255900  0.17255900  0.17255900  1
  Cu  Cu7  1  0.82744100  0.82744100  0.82744100  1
  Cu  Cu8  1  0.00000000  0.50000000  0.00000000  1
  Cu  Cu9  1  0.62164900  0.13505300  0.62164900  1
  Cu  Cu10  1  0.82744100  0.82744100  0.51767600  1
  Cu  Cu11  1  0.86494700  0.37835100  0.37835100  1
  Cu  Cu12  1  0.50000000  0.50000000  0.00000000  1
  Cu  Cu13  1  0.17255900  0.48232400  0.17255900  1
  Cu  Cu14  1  0.48232400  0.17255900  0.17255900  1
  Cu  Cu15  1  0.37835100  0.37835100  0.37835100  1
  Cu  Cu16  1  0.50000000  0.50000000  0.50000000  1
  Cu  Cu17  1  0.51767600  0.82744100  0.82744100  1
  Cu  Cu18  1  0.13505300  0.62164900  0.62164900  1
  Cu  Cu19  1  0.82744100  0.51767600  0.82744100  1
  Cu  Cu20  1  0.50000000  0.00000000  0.50000000  1
  Cu  Cu21  1  0.00000000  0.50000000  0.50000000  1
  Cu  Cu22  1  0.37835100  0.37835100  0.86494700  1
  Cu  Cu23  1  0.17255900  0.17255900  0.48232400  1
  Cu  Cu24  1  0.37835100  0.86494700  0.37835100  1
  Cu  Cu25  1  0.62164900  0.62164900  0.62164900  1
  Cu  Cu26  1  0.50000000  0.00000000  0.00000000  1
  Cu  Cu27  1  0.62164900  0.62164900  0.13505300  1
  Cu  Cu28  1  0.00000000  0.00000000  0.50000000  1
