# generated using pymatgen
data_Cu4Ni2C19
_symmetry_space_group_name_H-M   'P 1'
_cell_length_a   5.49335207
_cell_length_b   15.31604345
_cell_length_c   11.85518785
_cell_angle_alpha   107.32262203
_cell_angle_beta   80.84192867
_cell_angle_gamma   87.01109047
_symmetry_Int_Tables_number   1
_chemical_formula_structural   Cu4Ni2C19
_chemical_formula_sum   'Cu16 Ni8 C76'
_cell_volume   934.81703710
_cell_formula_units_Z   4
loop_
 _symmetry_equiv_pos_site_id
 _symmetry_equiv_pos_as_xyz
  1  'x, y, z'
loop_
 _atom_site_type_symbol
 _atom_site_label
 _atom_site_symmetry_multiplicity
 _atom_site_fract_x
 _atom_site_fract_y
 _atom_site_fract_z
 _atom_site_occupancy
  C  C0  1  0.99946300  0.00002100  0.49998700  1
  C  C1  1  0.49962200  0.49992700  0.74988400  1
  C  C2  1  0.00081500  0.99999400  0.99986200  1
  C  C3  1  0.49973800  0.50001800  0.25022700  1
  C  C4  1  0.36608800  0.40693700  0.47823700  1
  C  C5  1  0.36612500  0.40694500  0.97824600  1
  C  C6  1  0.86575900  0.90673600  0.72823600  1
  C  C7  1  0.86574000  0.90673000  0.22822000  1
  C  C8  1  0.13425400  0.09327100  0.27180000  1
  C  C9  1  0.13429400  0.09329700  0.77181800  1
  C  C10  1  0.63395100  0.59307400  0.52176500  1
  C  C11  1  0.63388900  0.59307500  0.02179700  1
  C  C12  1  0.21162900  0.35376200  0.57083600  1
  C  C13  1  0.21161000  0.35377400  0.07081800  1
  C  C14  1  0.71129600  0.85364800  0.82096500  1
  C  C15  1  0.71131200  0.85365400  0.32096400  1
  C  C16  1  0.28871100  0.14634200  0.17907600  1
  C  C17  1  0.28873100  0.14636300  0.67907600  1
  C  C18  1  0.78838300  0.64625200  0.42915800  1
  C  C19  1  0.78833300  0.64623300  0.92917500  1
  C  C20  1  0.76519000  0.13854700  0.21901100  1
  C  C21  1  0.76519600  0.13857100  0.71906400  1
  C  C22  1  0.26484100  0.63862800  0.46892600  1
  C  C23  1  0.26487300  0.63862000  0.96893300  1
  C  C24  1  0.73513200  0.36138300  0.53108000  1
  C  C25  1  0.73512100  0.36138700  0.03110100  1
  C  C26  1  0.23486200  0.86145900  0.78099000  1
  C  C27  1  0.23482800  0.86148400  0.28101500  1
  C  C28  1  0.57457200  0.30949800  0.61630800  1
  C  C29  1  0.57460000  0.30947300  0.11627400  1
  C  C30  1  0.07487500  0.80968600  0.86652800  1
  C  C31  1  0.07487400  0.80969100  0.36651700  1
  C  C32  1  0.92517700  0.19033900  0.13352700  1
  C  C33  1  0.92516700  0.19034800  0.63354100  1
  C  C34  1  0.42543300  0.69045800  0.38363600  1
  C  C35  1  0.42541900  0.69050600  0.88372000  1
  C  C36  1  0.42021600  0.29009800  0.44618700  1
  C  C37  1  0.42018700  0.29011600  0.94619900  1
  C  C38  1  0.92002100  0.78993500  0.69648500  1
  C  C39  1  0.92004500  0.78991900  0.19650600  1
  C  C40  1  0.07999300  0.21008300  0.30353200  1
  C  C41  1  0.08003200  0.21010400  0.80354100  1
  C  C42  1  0.57978000  0.70990200  0.55379600  1
  C  C43  1  0.57976500  0.70989800  0.05381500  1
  Ni  Ni44  1  0.97633800  0.38807900  0.31573500  1
  Ni  Ni45  1  0.97646400  0.38813300  0.81581800  1
  Ni  Ni46  1  0.47508600  0.88802000  0.56634300  1
  Ni  Ni47  1  0.47529000  0.88800600  0.06633500  1
  Ni  Ni48  1  0.52478100  0.11201100  0.43367200  1
  Ni  Ni49  1  0.52502000  0.11199100  0.93367700  1
  Ni  Ni50  1  0.02342900  0.61182200  0.68410100  1
  Ni  Ni51  1  0.02355000  0.61190900  0.18425100  1
  Cu  Cu52  1  0.93179000  0.13259400  0.16078800  1
  Cu  Cu53  1  0.93177500  0.13261700  0.66082700  1
  Cu  Cu54  1  0.43153300  0.63269800  0.41087500  1
  Cu  Cu55  1  0.43153500  0.63269800  0.91086200  1
  Cu  Cu56  1  0.56844700  0.36728500  0.58912400  1
  Cu  Cu57  1  0.56844500  0.36728900  0.08915200  1
  Cu  Cu58  1  0.06828000  0.86739900  0.83920800  1
  Cu  Cu59  1  0.06824000  0.86742400  0.33923400  1
  Cu  Cu60  1  0.12065100  0.14619900  0.23526900  1
  Cu  Cu61  1  0.12066800  0.14621900  0.73527700  1
  Cu  Cu62  1  0.62025400  0.64611400  0.48542000  1
  Cu  Cu63  1  0.62022500  0.64610500  0.98543700  1
  Cu  Cu64  1  0.37974200  0.35388800  0.51456500  1
  Cu  Cu65  1  0.37975500  0.35390100  0.01458300  1
  Cu  Cu66  1  0.87937300  0.85379700  0.76476000  1
  Cu  Cu67  1  0.87935700  0.85380600  0.26476500  1
  C  C68  1  0.77205600  0.05520600  0.39414800  1
  C  C69  1  0.77224600  0.05515200  0.89423100  1
  C  C70  1  0.26942900  0.55422500  0.64425600  1
  C  C71  1  0.26938000  0.55419400  0.14429000  1
  C  C72  1  0.73053600  0.44580500  0.35574700  1
  C  C73  1  0.73053200  0.44576500  0.85572700  1
  C  C74  1  0.22783700  0.94480400  0.60571500  1
  C  C75  1  0.22802800  0.94486300  0.10586000  1
  C  C76  1  0.32251800  0.05110300  0.41154600  1
  C  C77  1  0.32266600  0.05109500  0.91137800  1
  C  C78  1  0.82026100  0.55129700  0.66152600  1
  C  C79  1  0.81998500  0.55155100  0.16170400  1
  C  C80  1  0.17984400  0.44847700  0.33832600  1
  C  C81  1  0.17987300  0.44855800  0.83836500  1
  C  C82  1  0.67731100  0.94896200  0.58859600  1
  C  C83  1  0.67774500  0.94884100  0.08841700  1
  C  C84  1  0.49291000  0.16618700  0.56336900  1
  C  C85  1  0.49291000  0.16618300  0.06339000  1
  C  C86  1  0.99205900  0.66588900  0.81389900  1
  C  C87  1  0.99256600  0.66590900  0.31408000  1
  C  C88  1  0.00730600  0.33411200  0.18589900  1
  C  C89  1  0.00782500  0.33413100  0.68600600  1
  C  C90  1  0.50721000  0.83381800  0.43664300  1
  C  C91  1  0.50707600  0.83381700  0.93663400  1
  C  C92  1  0.51812200  0.17605900  0.36013600  1
  C  C93  1  0.51831000  0.17600900  0.86008100  1
  C  C94  1  0.01814200  0.67629100  0.61102500  1
  C  C95  1  0.01832800  0.67649700  0.11132600  1
  C  C96  1  0.98158100  0.32350100  0.38866600  1
  C  C97  1  0.98189200  0.32358700  0.88877800  1
  C  C98  1  0.48180500  0.82399300  0.63992100  1
  C  C99  1  0.48173700  0.82393200  0.13986200  1
