# generated using pymatgen
data_Cu7Ni5C3
_symmetry_space_group_name_H-M   'P 1'
_cell_length_a   12.79333000
_cell_length_b   8.23083800
_cell_length_c   8.59084226
_cell_angle_alpha   70.70472046
_cell_angle_beta   90.00000000
_cell_angle_gamma   90.00000000
_symmetry_Int_Tables_number   1
_chemical_formula_structural   Cu7Ni5C3
_chemical_formula_sum   'Cu14 Ni10 C6'
_cell_volume   853.80037362
_cell_formula_units_Z   2
loop_
 _symmetry_equiv_pos_site_id
 _symmetry_equiv_pos_as_xyz
  1  'x, y, z'
loop_
 _atom_site_type_symbol
 _atom_site_label
 _atom_site_symmetry_multiplicity
 _atom_site_fract_x
 _atom_site_fract_y
 _atom_site_fract_z
 _atom_site_occupancy
  C  C0  1  0.61022500  0.02597600  0.94093200  1
  C  C1  1  0.11022500  0.97402400  0.05906800  1
  C  C2  1  0.38977500  0.97402400  0.05906800  1
  C  C3  1  0.88977500  0.02597600  0.94093200  1
  C  C4  1  0.75000000  0.39813900  0.52594700  1
  C  C5  1  0.25000000  0.60186100  0.47405300  1
  Ni  Ni6  1  0.52584000  0.16924600  0.14687200  1
  Ni  Ni7  1  0.02584000  0.83075400  0.85312800  1
  Ni  Ni8  1  0.47416000  0.83075400  0.85312800  1
  Ni  Ni9  1  0.97416000  0.16924600  0.14687200  1
  Ni  Ni10  1  0.46822200  0.27395100  0.87630200  1
  Ni  Ni11  1  0.96822200  0.72604900  0.12369800  1
  Ni  Ni12  1  0.53177800  0.72604900  0.12369800  1
  Ni  Ni13  1  0.03177800  0.27395100  0.87630200  1
  Ni  Ni14  1  0.75000000  0.41975000  0.25256000  1
  Ni  Ni15  1  0.25000000  0.58025000  0.74744000  1
  Cu  Cu16  1  0.75000000  0.94436900  0.17444200  1
  Cu  Cu17  1  0.25000000  0.05563100  0.82555800  1
  Cu  Cu18  1  0.75000000  0.84304800  0.85899400  1
  Cu  Cu19  1  0.25000000  0.15695200  0.14100600  1
  Cu  Cu20  1  0.75000000  0.27841600  0.87476400  1
  Cu  Cu21  1  0.25000000  0.72158400  0.12523600  1
  Cu  Cu22  1  0.61693500  0.15508000  0.61401000  1
  Cu  Cu23  1  0.11693500  0.84492000  0.38599000  1
  Cu  Cu24  1  0.38306500  0.84492000  0.38599000  1
  Cu  Cu25  1  0.88306500  0.15508000  0.61401000  1
  Cu  Cu26  1  0.61869200  0.58955200  0.54114500  1
  Cu  Cu27  1  0.11869200  0.41044800  0.45885500  1
  Cu  Cu28  1  0.38130800  0.41044800  0.45885500  1
  Cu  Cu29  1  0.88130800  0.58955200  0.54114500  1
