# generated using pymatgen
data_Cu2Ni7C25
_symmetry_space_group_name_H-M   'P 1'
_cell_length_a   17.69235391
_cell_length_b   17.69235400
_cell_length_c   17.69235444
_cell_angle_alpha   19.18979886
_cell_angle_beta   19.18979991
_cell_angle_gamma   19.18979895
_symmetry_Int_Tables_number   1
_chemical_formula_structural   Cu2Ni7C25
_chemical_formula_sum   'Cu2 Ni7 C25'
_cell_volume   523.02555791
_cell_formula_units_Z   1
loop_
 _symmetry_equiv_pos_site_id
 _symmetry_equiv_pos_as_xyz
  1  'x, y, z'
loop_
 _atom_site_type_symbol
 _atom_site_label
 _atom_site_symmetry_multiplicity
 _atom_site_fract_x
 _atom_site_fract_y
 _atom_site_fract_z
 _atom_site_occupancy
  Ni  Ni0  1  0.61186700  0.61186700  0.61186700  1
  Ni  Ni1  1  0.14593900  0.14593900  0.14593900  1
  Ni  Ni2  1  0.38813300  0.38813300  0.38813300  1
  Ni  Ni3  1  0.22634900  0.22634900  0.22634900  1
  Ni  Ni4  1  0.77365100  0.77365100  0.77365100  1
  Ni  Ni5  1  0.85406100  0.85406100  0.85406100  1
  Ni  Ni6  1  0.00000000  0.00000000  0.00000000  1
  Cu  Cu7  1  0.92535200  0.92535200  0.92535200  1
  Cu  Cu8  1  0.07464800  0.07464800  0.07464800  1
  C  C9  1  0.54945100  0.54945100  0.54945100  1
  C  C10  1  0.45054900  0.45054900  0.45054900  1
  C  C11  1  0.50000000  0.50000000  0.50000000  1
  C  C12  1  0.69730700  0.69730700  0.69730700  1
  C  C13  1  0.30269300  0.30269300  0.30269300  1
  C  C14  1  0.27813900  0.27813900  0.73637700  1
  C  C15  1  0.81541500  0.37727900  0.37727900  1
  C  C16  1  0.86758200  0.39184900  0.86758200  1
  C  C17  1  0.66496200  0.66496200  0.66496200  1
  C  C18  1  0.33503800  0.33503800  0.33503800  1
  C  C19  1  0.37727900  0.81541500  0.37727900  1
  C  C20  1  0.13241800  0.13241800  0.60815100  1
  C  C21  1  0.86758200  0.86758200  0.39184900  1
  C  C22  1  0.72186100  0.26362300  0.72186100  1
  C  C23  1  0.26362300  0.72186100  0.72186100  1
  C  C24  1  0.27813900  0.73637700  0.27813900  1
  C  C25  1  0.39184900  0.86758200  0.86758200  1
  C  C26  1  0.72186100  0.72186100  0.26362300  1
  C  C27  1  0.62272100  0.18458500  0.62272100  1
  C  C28  1  0.18458500  0.62272100  0.62272100  1
  C  C29  1  0.13241800  0.60815100  0.13241800  1
  C  C30  1  0.60815100  0.13241800  0.13241800  1
  C  C31  1  0.62272100  0.62272100  0.18458500  1
  C  C32  1  0.37727900  0.37727900  0.81541500  1
  C  C33  1  0.73637700  0.27813900  0.27813900  1
