# generated using pymatgen
data_CuNiC6
_symmetry_space_group_name_H-M   'P 1'
_cell_length_a   4.94081200
_cell_length_b   8.81469400
_cell_length_c   16.99514649
_cell_angle_alpha   84.81496587
_cell_angle_beta   90.00000000
_cell_angle_gamma   90.00000000
_symmetry_Int_Tables_number   1
_chemical_formula_structural   CuNiC6
_chemical_formula_sum   'Cu8 Ni8 C48'
_cell_volume   737.13956092
_cell_formula_units_Z   8
loop_
 _symmetry_equiv_pos_site_id
 _symmetry_equiv_pos_as_xyz
  1  'x, y, z'
loop_
 _atom_site_type_symbol
 _atom_site_label
 _atom_site_symmetry_multiplicity
 _atom_site_fract_x
 _atom_site_fract_y
 _atom_site_fract_z
 _atom_site_occupancy
  C  C0  1  0.99035900  0.91993500  0.18049700  1
  C  C1  1  0.70430700  0.56612000  0.15357300  1
  C  C2  1  0.29827900  0.32997500  0.05539000  1
  C  C3  1  0.49035900  0.08006500  0.31950300  1
  C  C4  1  0.20172100  0.32997500  0.55539000  1
  C  C5  1  0.70172100  0.67002500  0.94461000  1
  C  C6  1  0.29569300  0.43388000  0.84642700  1
  C  C7  1  0.50964100  0.91993500  0.68049700  1
  C  C8  1  0.00964100  0.08006500  0.81950300  1
  C  C9  1  0.20430700  0.43388000  0.34642700  1
  C  C10  1  0.79569300  0.56612000  0.65357300  1
  C  C11  1  0.79827900  0.67002500  0.44461000  1
  Ni  Ni12  1  0.79077000  0.31480000  0.94419100  1
  Ni  Ni13  1  0.00889600  0.23821200  0.21679600  1
  Ni  Ni14  1  0.99110400  0.76178800  0.78320400  1
  Ni  Ni15  1  0.29077000  0.68520000  0.55580900  1
  Ni  Ni16  1  0.20923000  0.68520000  0.05580900  1
  Ni  Ni17  1  0.70923000  0.31480000  0.44419000  1
  Ni  Ni18  1  0.50889600  0.76178800  0.28320400  1
  Ni  Ni19  1  0.49110400  0.23821200  0.71679600  1
  Cu  Cu20  1  0.04571900  0.06755500  0.40698800  1
  Cu  Cu21  1  0.21474700  0.91696700  0.43452600  1
  Cu  Cu22  1  0.28525300  0.91696700  0.93452600  1
  Cu  Cu23  1  0.78525300  0.08303300  0.56547400  1
  Cu  Cu24  1  0.45428100  0.06755500  0.90698800  1
  Cu  Cu25  1  0.95428100  0.93244500  0.59301200  1
  Cu  Cu26  1  0.71474700  0.08303300  0.06547400  1
  Cu  Cu27  1  0.54571900  0.93244500  0.09301200  1
  C  C28  1  0.73071400  0.97323900  0.08311600  1
  C  C29  1  0.73254400  0.74109900  0.21815600  1
  C  C30  1  0.34502700  0.19762700  0.64058600  1
  C  C31  1  0.23254400  0.25890100  0.28184400  1
  C  C32  1  0.65814800  0.38465700  0.70936300  1
  C  C33  1  0.15497300  0.19762700  0.14058600  1
  C  C34  1  0.74476400  0.18303900  0.39305000  1
  C  C35  1  0.16802500  0.90479800  0.75845400  1
  C  C36  1  0.84502700  0.80237300  0.85941400  1
  C  C37  1  0.90312000  0.63872200  0.04838500  1
  C  C38  1  0.25523600  0.81696100  0.60695000  1
  C  C39  1  0.85470400  0.46172100  0.40352500  1
  C  C40  1  0.76928600  0.97323900  0.58311600  1
  C  C41  1  0.64529600  0.46172100  0.90352500  1
  C  C42  1  0.67218700  0.27742900  0.02782500  1
  C  C43  1  0.84185200  0.38465700  0.20936300  1
  C  C44  1  0.59688000  0.63872200  0.54838500  1
  C  C45  1  0.65497300  0.80237300  0.35941400  1
  C  C46  1  0.24476400  0.81696100  0.10695000  1
  C  C47  1  0.09688000  0.36127800  0.95161500  1
  C  C48  1  0.33197500  0.90479800  0.25845400  1
  C  C49  1  0.75523600  0.18303900  0.89305000  1
  C  C50  1  0.82781300  0.27742900  0.52782500  1
  C  C51  1  0.26745600  0.25890100  0.78184400  1
  C  C52  1  0.76745600  0.74109900  0.71815600  1
  C  C53  1  0.66802500  0.09520200  0.74154600  1
  C  C54  1  0.83197500  0.09520200  0.24154600  1
  C  C55  1  0.26928600  0.02676100  0.91688400  1
  C  C56  1  0.34185200  0.61534300  0.29063700  1
  C  C57  1  0.35470400  0.53827900  0.09647500  1
  C  C58  1  0.15814800  0.61534300  0.79063700  1
  C  C59  1  0.23071400  0.02676100  0.41688400  1
  C  C60  1  0.17218700  0.72257100  0.47217500  1
  C  C61  1  0.14529600  0.53827900  0.59647500  1
  C  C62  1  0.32781300  0.72257100  0.97217500  1
  C  C63  1  0.40312000  0.36127800  0.45161500  1
