# generated using pymatgen
data_Cu2NiC12
_symmetry_space_group_name_H-M   'P 1'
_cell_length_a   11.14276668
_cell_length_b   11.14276668
_cell_length_c   14.39770686
_cell_angle_alpha   67.41620941
_cell_angle_beta   67.41620941
_cell_angle_gamma   60.07560579
_symmetry_Int_Tables_number   1
_chemical_formula_structural   Cu2NiC12
_chemical_formula_sum   'Cu12 Ni6 C72'
_cell_volume   1388.52645743
_cell_formula_units_Z   6
loop_
 _symmetry_equiv_pos_site_id
 _symmetry_equiv_pos_as_xyz
  1  'x, y, z'
loop_
 _atom_site_type_symbol
 _atom_site_label
 _atom_site_symmetry_multiplicity
 _atom_site_fract_x
 _atom_site_fract_y
 _atom_site_fract_z
 _atom_site_occupancy
  Ni  Ni0  1  0.55417000  0.46896500  0.02083100  1
  Ni  Ni1  1  0.95532200  0.05554500  0.01987000  1
  Ni  Ni2  1  0.97032900  0.45280900  0.01653900  1
  Ni  Ni3  1  0.05554500  0.95532200  0.51987000  1
  Ni  Ni4  1  0.45280900  0.97032900  0.51653900  1
  Ni  Ni5  1  0.46896500  0.55417000  0.52083100  1
  Cu  Cu6  1  0.50171800  0.00510300  0.99846300  1
  Cu  Cu7  1  0.56620300  0.07599400  0.20176800  1
  Cu  Cu8  1  0.56818000  0.66188700  0.20025600  1
  Cu  Cu9  1  0.15828200  0.06437200  0.20088300  1
  Cu  Cu10  1  0.66188700  0.56818000  0.70025600  1
  Cu  Cu11  1  0.06437200  0.15828200  0.70088300  1
  Cu  Cu12  1  0.07599400  0.56620300  0.70176800  1
  Cu  Cu13  1  0.00510300  0.50171800  0.49846300  1
  Cu  Cu14  1  0.94523600  0.84868200  0.29652000  1
  Cu  Cu15  1  0.34920800  0.41476900  0.29671700  1
  Cu  Cu16  1  0.84868200  0.94523600  0.79652000  1
  Cu  Cu17  1  0.41476900  0.34920800  0.79671700  1
  C  C18  1  0.76958400  0.26793200  0.19466000  1
  C  C19  1  0.69208900  0.22076000  0.89687300  1
  C  C20  1  0.71977100  0.69300700  0.89657500  1
  C  C21  1  0.19248000  0.19029200  0.89649600  1
  C  C22  1  0.77938500  0.30741900  0.59580000  1
  C  C23  1  0.80869100  0.81473100  0.59844900  1
  C  C24  1  0.69300700  0.71977100  0.39657500  1
  C  C25  1  0.31563500  0.27844300  0.59798300  1
  C  C26  1  0.19029200  0.19248000  0.39649600  1
  C  C27  1  0.22076000  0.69208900  0.39687300  1
  C  C28  1  0.81473100  0.80869100  0.09844900  1
  C  C29  1  0.27844300  0.31563500  0.09798300  1
  C  C30  1  0.30741900  0.77938500  0.09580000  1
  C  C31  1  0.26793200  0.76958400  0.69466000  1
  C  C32  1  0.90846800  0.44363000  0.29279700  1
  C  C33  1  0.44363000  0.90846800  0.79279700  1
  C  C34  1  0.60188000  0.26976500  0.23022200  1
  C  C35  1  0.77279700  0.40281800  0.22985700  1
  C  C36  1  0.90046700  0.10100000  0.22957000  1
  C  C37  1  0.66582200  0.18318300  0.02932500  1
  C  C38  1  0.68407000  0.62013300  0.02812400  1
  C  C39  1  0.81299800  0.31338700  0.06076000  1
  C  C40  1  0.61898600  0.14077700  0.86508100  1
  C  C41  1  0.64018000  0.87826500  0.86710200  1
  C  C42  1  0.64450300  0.64356200  0.83990300  1
  C  C43  1  0.60507900  0.40327800  0.85506500  1
  C  C44  1  0.12129600  0.16649600  0.02838000  1
  C  C45  1  0.87319700  0.15120500  0.84379800  1
  C  C46  1  0.90140000  0.63826600  0.85399800  1
  C  C47  1  0.60432100  0.39723200  0.66012800  1
  C  C48  1  0.13099100  0.37069000  0.84300400  1
  C  C49  1  0.62132100  0.88585000  0.64161100  1
  C  C50  1  0.14496900  0.09746500  0.85438800  1
  C  C51  1  0.37785900  0.11937700  0.86563300  1
  C  C52  1  0.85412000  0.12514500  0.63954000  1
  C  C53  1  0.89824600  0.84022000  0.65966500  1
  C  C54  1  0.62013300  0.68407000  0.52812400  1
  C  C55  1  0.87520200  0.37195500  0.62074400  1
  C  C56  1  0.87006200  0.63018400  0.62676300  1
  C  C57  1  0.13078300  0.37166600  0.62758500  1
  C  C58  1  0.78315200  0.35960100  0.46603300  1
  C  C59  1  0.85960000  0.87876200  0.46908000  1
  C  C60  1  0.64356200  0.64450300  0.33990300  1
  C  C61  1  0.34178400  0.09771900  0.65996500  1
  C  C62  1  0.63826600  0.90140000  0.35399800  1
  C  C63  1  0.38331800  0.35196600  0.63985200  1
  C  C64  1  0.16649600  0.12129600  0.52838000  1
  C  C65  1  0.18318300  0.66582200  0.52932500  1
  C  C66  1  0.87826500  0.64018000  0.36710200  1
  C  C67  1  0.11937700  0.37785900  0.36563300  1
  C  C68  1  0.14077700  0.61898600  0.36508100  1
  C  C69  1  0.37733100  0.29180900  0.46844100  1
  C  C70  1  0.15120500  0.87319700  0.34379800  1
  C  C71  1  0.09746500  0.14496900  0.35438800  1
  C  C72  1  0.63018400  0.87006200  0.12676300  1
  C  C73  1  0.84022000  0.89824600  0.15966500  1
  C  C74  1  0.37069000  0.13099100  0.34300400  1
  C  C75  1  0.88585000  0.62132100  0.14161100  1
  C  C76  1  0.40327800  0.60507900  0.35506500  1
  C  C77  1  0.09771900  0.34178400  0.15996500  1
  C  C78  1  0.12514500  0.85412000  0.13954000  1
  C  C79  1  0.87876200  0.85960000  0.96908000  1
  C  C80  1  0.35196600  0.38331800  0.13985200  1
  C  C81  1  0.39723200  0.60432100  0.16012800  1
  C  C82  1  0.37166600  0.13078300  0.12758500  1
  C  C83  1  0.37195500  0.87520200  0.12074400  1
  C  C84  1  0.29180900  0.37733100  0.96844100  1
  C  C85  1  0.35960100  0.78315200  0.96603300  1
  C  C86  1  0.10100000  0.90046700  0.72957000  1
  C  C87  1  0.26976500  0.60188000  0.73022200  1
  C  C88  1  0.40281800  0.77279700  0.72985700  1
  C  C89  1  0.31338700  0.81299800  0.56076000  1
