# generated using pymatgen
data_CuNiC5
_symmetry_space_group_name_H-M   'P 1'
_cell_length_a   18.15629900
_cell_length_b   6.35531200
_cell_length_c   7.56179049
_cell_angle_alpha   59.64486516
_cell_angle_beta   90.00000000
_cell_angle_gamma   90.00000000
_symmetry_Int_Tables_number   1
_chemical_formula_structural   CuNiC5
_chemical_formula_sum   'Cu4 Ni4 C20'
_cell_volume   752.92925077
_cell_formula_units_Z   4
loop_
 _symmetry_equiv_pos_site_id
 _symmetry_equiv_pos_as_xyz
  1  'x, y, z'
loop_
 _atom_site_type_symbol
 _atom_site_label
 _atom_site_symmetry_multiplicity
 _atom_site_fract_x
 _atom_site_fract_y
 _atom_site_fract_z
 _atom_site_occupancy
  C  C0  1  0.88104800  0.08326600  0.35456900  1
  C  C1  1  0.61895200  0.08326600  0.85456900  1
  C  C2  1  0.45779200  0.64433100  0.71039800  1
  C  C3  1  0.04220800  0.64433100  0.21039800  1
  C  C4  1  0.95779200  0.35566900  0.78960200  1
  C  C5  1  0.38104800  0.91673400  0.14543100  1
  C  C6  1  0.11895200  0.91673400  0.64543100  1
  C  C7  1  0.54220800  0.35566900  0.28960200  1
  Ni  Ni8  1  0.22089100  0.61716600  0.43113000  1
  Ni  Ni9  1  0.77910900  0.38283400  0.56887000  1
  Ni  Ni10  1  0.72089100  0.38283400  0.06887000  1
  Ni  Ni11  1  0.27910900  0.61716600  0.93113000  1
  Cu  Cu12  1  0.17657000  0.23666700  0.99548600  1
  Cu  Cu13  1  0.67657000  0.76333300  0.50451400  1
  Cu  Cu14  1  0.82343000  0.76333300  0.00451400  1
  Cu  Cu15  1  0.32343000  0.23666700  0.49548600  1
  C  C16  1  0.56266900  0.84033900  0.31438300  1
  C  C17  1  0.37385600  0.40939100  0.14573500  1
  C  C18  1  0.93733100  0.84033900  0.81438300  1
  C  C19  1  0.43733100  0.15966100  0.68561700  1
  C  C20  1  0.20981000  0.80048900  0.08354600  1
  C  C21  1  0.87385600  0.59060900  0.35426500  1
  C  C22  1  0.12614400  0.40939100  0.64573500  1
  C  C23  1  0.29019000  0.80048900  0.58354600  1
  C  C24  1  0.06266900  0.15966100  0.18561700  1
  C  C25  1  0.79019000  0.19951100  0.91645400  1
  C  C26  1  0.62614400  0.59060900  0.85426500  1
  C  C27  1  0.70981000  0.19951100  0.41645400  1
