# generated using pymatgen
data_CuNi2C27
_symmetry_space_group_name_H-M   'P 1'
_cell_length_a   8.50379100
_cell_length_b   13.37119900
_cell_length_c   16.09796700
_cell_angle_alpha   90.00000000
_cell_angle_beta   90.00000000
_cell_angle_gamma   90.00000000
_symmetry_Int_Tables_number   1
_chemical_formula_structural   CuNi2C27
_chemical_formula_sum   'Cu4 Ni8 C108'
_cell_volume   1830.43353156
_cell_formula_units_Z   4
loop_
 _symmetry_equiv_pos_site_id
 _symmetry_equiv_pos_as_xyz
  1  'x, y, z'
loop_
 _atom_site_type_symbol
 _atom_site_label
 _atom_site_symmetry_multiplicity
 _atom_site_fract_x
 _atom_site_fract_y
 _atom_site_fract_z
 _atom_site_occupancy
  Ni  Ni0  1  0.33826300  0.63412400  0.91462600  1
  Ni  Ni1  1  0.66173700  0.36587600  0.41462600  1
  Ni  Ni2  1  0.66173700  0.36587600  0.08537400  1
  Ni  Ni3  1  0.16173700  0.13412400  0.58537400  1
  Ni  Ni4  1  0.33826300  0.63412400  0.58537400  1
  Ni  Ni5  1  0.83826300  0.86587600  0.41462600  1
  Ni  Ni6  1  0.16173700  0.13412400  0.91462600  1
  Ni  Ni7  1  0.83826300  0.86587600  0.08537400  1
  Cu  Cu8  1  0.67622600  0.35233100  0.75000000  1
  Cu  Cu9  1  0.82377400  0.85233100  0.75000000  1
  Cu  Cu10  1  0.32377400  0.64766900  0.25000000  1
  Cu  Cu11  1  0.17622600  0.14766900  0.25000000  1
  C  C12  1  0.29475400  0.47184700  0.41817300  1
  C  C13  1  0.20524600  0.97184700  0.08182700  1
  C  C14  1  0.94125200  0.69560900  0.92928500  1
  C  C15  1  0.29475400  0.47184700  0.08182700  1
  C  C16  1  0.71332700  0.53134700  0.25000000  1
  C  C17  1  0.94125200  0.69560900  0.57071500  1
  C  C18  1  0.91952200  0.71248300  0.25000000  1
  C  C19  1  0.05874800  0.30439100  0.07071500  1
  C  C20  1  0.41952200  0.78751700  0.75000000  1
  C  C21  1  0.55874800  0.19560900  0.57071500  1
  C  C22  1  0.78667300  0.03134700  0.25000000  1
  C  C23  1  0.70524600  0.52815300  0.58182700  1
  C  C24  1  0.44125200  0.80439100  0.42928500  1
  C  C25  1  0.20524600  0.97184700  0.41817300  1
  C  C26  1  0.79475400  0.02815300  0.91817300  1
  C  C27  1  0.21332700  0.96865300  0.75000000  1
  C  C28  1  0.55874800  0.19560900  0.92928500  1
  C  C29  1  0.79475400  0.02815300  0.58182700  1
  C  C30  1  0.44125200  0.80439100  0.07071500  1
  C  C31  1  0.28667300  0.46865300  0.75000000  1
  C  C32  1  0.58047800  0.21248300  0.25000000  1
  C  C33  1  0.05874800  0.30439100  0.42928500  1
  C  C34  1  0.70524600  0.52815300  0.91817300  1
  C  C35  1  0.08047800  0.28751700  0.75000000  1
  C  C36  1  0.11557200  0.66267800  0.56111400  1
  C  C37  1  0.42529400  0.40178900  0.75000000  1
  C  C38  1  0.77230200  0.96336300  0.32787500  1
  C  C39  1  0.65856500  0.25999000  0.17191500  1
  C  C40  1  0.10084900  0.26497500  0.34666600  1
  C  C41  1  0.09238800  0.72288600  0.25000000  1
  C  C42  1  0.16322700  0.03066400  0.00145700  1
  C  C43  1  0.34143500  0.74001000  0.67191500  1
  C  C44  1  0.22769800  0.03663700  0.67212500  1
  C  C45  1  0.60084900  0.23502500  0.65333400  1
  C  C46  1  0.89915100  0.73502500  0.65333400  1
  C  C47  1  0.34436100  0.90292400  0.45375500  1
  C  C48  1  0.93615600  0.09788200  0.60253100  1
  C  C49  1  0.33677300  0.53066400  0.00145700  1
  C  C50  1  0.38442800  0.16267800  0.93888600  1
  C  C51  1  0.73985700  0.96535000  0.65186600  1
  C  C52  1  0.90644400  0.76611100  0.49636500  1
  C  C53  1  0.66322700  0.46933600  0.50145700  1
  C  C54  1  0.12653900  0.40427400  0.75000000  1
  C  C55  1  0.09355600  0.23388900  0.50363500  1
  C  C56  1  0.90644400  0.76611100  0.00363500  1
  C  C57  1  0.06384400  0.90211800  0.39746900  1
  C  C58  1  0.40761200  0.22288600  0.25000000  1
  C  C59  1  0.26014300  0.03465000  0.34813400  1
  C  C60  1  0.60084900  0.23502500  0.84666600  1
  C  C61  1  0.06384400  0.90211800  0.10253100  1
  C  C62  1  0.59238800  0.77711400  0.75000000  1
  C  C63  1  0.27230200  0.53663700  0.67212500  1
  C  C64  1  0.09355600  0.23388900  0.99636500  1
  C  C65  1  0.27230200  0.53663700  0.82787500  1
  C  C66  1  0.66322700  0.46933600  0.99854300  1
  C  C67  1  0.15563900  0.40292400  0.45375500  1
  C  C68  1  0.73985700  0.96535000  0.84813400  1
  C  C69  1  0.65856500  0.25999000  0.32808500  1
  C  C70  1  0.93615600  0.09788200  0.89746900  1
  C  C71  1  0.89915100  0.73502500  0.84666600  1
  C  C72  1  0.22769800  0.03663700  0.82787500  1
  C  C73  1  0.92529400  0.09821100  0.25000000  1
  C  C74  1  0.77230200  0.96336300  0.17212500  1
  C  C75  1  0.43615600  0.40211800  0.10253100  1
  C  C76  1  0.34143500  0.74001000  0.82808500  1
  C  C77  1  0.37346100  0.90427400  0.75000000  1
  C  C78  1  0.11557200  0.66267800  0.93888600  1
  C  C79  1  0.56384400  0.59788200  0.60253100  1
  C  C80  1  0.15856500  0.24001000  0.82808500  1
  C  C81  1  0.76014300  0.46535000  0.65186600  1
  C  C82  1  0.59355600  0.26611100  0.49636500  1
  C  C83  1  0.39915100  0.76497500  0.15333400  1
  C  C84  1  0.15563900  0.40292400  0.04624500  1
  C  C85  1  0.40644400  0.73388900  0.99636500  1
  C  C86  1  0.65563900  0.09707600  0.95375500  1
  C  C87  1  0.56384400  0.59788200  0.89746900  1
  C  C88  1  0.88442800  0.33732200  0.43888600  1
  C  C89  1  0.61557200  0.83732200  0.43888600  1
  C  C90  1  0.84143500  0.75999000  0.17191500  1
  C  C91  1  0.72769800  0.46336300  0.17212500  1
  C  C92  1  0.39915100  0.76497500  0.34666600  1
  C  C93  1  0.83677300  0.96933600  0.50145700  1
  C  C94  1  0.84436100  0.59707600  0.95375500  1
  C  C95  1  0.07470600  0.90178900  0.75000000  1
  C  C96  1  0.61557200  0.83732200  0.06111400  1
  C  C97  1  0.87346100  0.59572600  0.25000000  1
  C  C98  1  0.23985700  0.53465000  0.34813400  1
  C  C99  1  0.16322700  0.03066400  0.49854300  1
  C  C100  1  0.62653900  0.09572600  0.25000000  1
  C  C101  1  0.72769800  0.46336300  0.32787500  1
  C  C102  1  0.84436100  0.59707600  0.54624500  1
  C  C103  1  0.83677300  0.96933600  0.99854300  1
  C  C104  1  0.57470600  0.59821100  0.25000000  1
  C  C105  1  0.23985700  0.53465000  0.15186600  1
  C  C106  1  0.90761200  0.27711400  0.75000000  1
  C  C107  1  0.59355600  0.26611100  0.00363500  1
  C  C108  1  0.43615600  0.40211800  0.39746900  1
  C  C109  1  0.10084900  0.26497500  0.15333400  1
  C  C110  1  0.65563900  0.09707600  0.54624500  1
  C  C111  1  0.40644400  0.73388900  0.50363500  1
  C  C112  1  0.33677300  0.53066400  0.49854300  1
  C  C113  1  0.84143500  0.75999000  0.32808500  1
  C  C114  1  0.76014300  0.46535000  0.84813400  1
  C  C115  1  0.38442800  0.16267800  0.56111400  1
  C  C116  1  0.15856500  0.24001000  0.67191500  1
  C  C117  1  0.88442800  0.33732200  0.06111400  1
  C  C118  1  0.26014300  0.03465000  0.15186600  1
  C  C119  1  0.34436100  0.90292400  0.04624500  1
