# generated using pymatgen
data_Cu(NiC3)4
_symmetry_space_group_name_H-M   'P 1'
_cell_length_a   11.86889200
_cell_length_b   9.62541600
_cell_length_c   20.69857422
_cell_angle_alpha   76.77492839
_cell_angle_beta   90.00000000
_cell_angle_gamma   90.00000000
_symmetry_Int_Tables_number   1
_chemical_formula_structural   Cu(NiC3)4
_chemical_formula_sum   'Cu8 Ni32 C96'
_cell_volume   2301.95407149
_cell_formula_units_Z   8
loop_
 _symmetry_equiv_pos_site_id
 _symmetry_equiv_pos_as_xyz
  1  'x, y, z'
loop_
 _atom_site_type_symbol
 _atom_site_label
 _atom_site_symmetry_multiplicity
 _atom_site_fract_x
 _atom_site_fract_y
 _atom_site_fract_z
 _atom_site_occupancy
  Ni  Ni0  1  0.03106500  0.39406500  0.14162500  1
  Ni  Ni1  1  0.70343800  0.80017700  0.36043300  1
  Ni  Ni2  1  0.79656200  0.80017700  0.86043300  1
  Ni  Ni3  1  0.21045000  0.28528100  0.36671900  1
  Ni  Ni4  1  0.87137700  0.32873700  0.34996400  1
  Ni  Ni5  1  0.36147600  0.81048800  0.36855400  1
  Ni  Ni6  1  0.54408700  0.47944800  0.12830200  1
  Ni  Ni7  1  0.12862300  0.67126300  0.65003600  1
  Ni  Ni8  1  0.02414700  0.10969400  0.34997900  1
  Ni  Ni9  1  0.96893500  0.60593500  0.85837500  1
  Ni  Ni10  1  0.86147600  0.18951200  0.13144600  1
  Ni  Ni11  1  0.54902100  0.02116400  0.37391600  1
  Ni  Ni12  1  0.29656200  0.19982300  0.63956700  1
  Ni  Ni13  1  0.04902100  0.97883600  0.12608400  1
  Ni  Ni14  1  0.52414700  0.89030600  0.15002100  1
  Ni  Ni15  1  0.78955000  0.71471900  0.63328100  1
  Ni  Ni16  1  0.53106500  0.60593500  0.35837500  1
  Ni  Ni17  1  0.47585300  0.10969400  0.84997900  1
  Ni  Ni18  1  0.37137700  0.67126300  0.15003600  1
  Ni  Ni19  1  0.04408700  0.52055200  0.37169800  1
  Ni  Ni20  1  0.71045000  0.71471900  0.13328100  1
  Ni  Ni21  1  0.62862300  0.32873700  0.84996400  1
  Ni  Ni22  1  0.97585300  0.89030600  0.65002100  1
  Ni  Ni23  1  0.28955000  0.28528100  0.86671900  1
  Ni  Ni24  1  0.45097900  0.97883600  0.62608400  1
  Ni  Ni25  1  0.20343800  0.19982300  0.13956700  1
  Ni  Ni26  1  0.95591300  0.47944800  0.62830200  1
  Ni  Ni27  1  0.45591300  0.52055200  0.87169800  1
  Ni  Ni28  1  0.95097900  0.02116400  0.87391600  1
  Ni  Ni29  1  0.13852400  0.81048800  0.86855400  1
  Ni  Ni30  1  0.46893500  0.39406500  0.64162500  1
  Ni  Ni31  1  0.63852400  0.18951200  0.63144600  1
  Cu  Cu32  1  0.85758300  0.07494000  0.45013900  1
  Cu  Cu33  1  0.69092000  0.54912600  0.46230200  1
  Cu  Cu34  1  0.30908000  0.45087400  0.53769800  1
  Cu  Cu35  1  0.64241700  0.07494000  0.95013900  1
  Cu  Cu36  1  0.14241700  0.92506000  0.54986100  1
  Cu  Cu37  1  0.35758300  0.92506000  0.04986100  1
  Cu  Cu38  1  0.19092000  0.45087400  0.03769800  1
  Cu  Cu39  1  0.80908000  0.54912600  0.96230200  1
  C  C40  1  0.58460400  0.50452000  0.42850100  1
  C  C41  1  0.31550800  0.77192200  0.08061500  1
  C  C42  1  0.88052500  0.72076500  0.82146200  1
  C  C43  1  0.18449200  0.77192200  0.58061500  1
  C  C44  1  0.14753600  0.41933100  0.37797400  1
  C  C45  1  0.94772500  0.23796700  0.31210200  1
  C  C46  1  0.33170300  0.05041100  0.62584900  1
  C  C47  1  0.38052500  0.27923500  0.67853800  1
  C  C48  1  0.24813200  0.30616900  0.06850100  1
  C  C49  1  0.74813200  0.69383100  0.43149900  1
  C  C50  1  0.08049200  0.52943000  0.63451100  1
  C  C51  1  0.40899600  0.65635000  0.37307300  1
  C  C52  1  0.03968800  0.98397500  0.58151000  1
  C  C53  1  0.93638700  0.05982000  0.12702600  1
  C  C54  1  0.91950800  0.47057000  0.36548900  1
  C  C55  1  0.66829700  0.94958900  0.37415100  1
  C  C56  1  0.41950800  0.52943000  0.13451100  1
  C  C57  1  0.55227500  0.23796700  0.81210200  1
  C  C58  1  0.15012400  0.13998000  0.36726700  1
  C  C59  1  0.85246400  0.58066900  0.62202600  1
  C  C60  1  0.09100400  0.65635000  0.87307300  1
  C  C61  1  0.35246400  0.41933100  0.87797400  1
  C  C62  1  0.56361300  0.05982000  0.62702600  1
  C  C63  1  0.75186800  0.69383100  0.93149900  1
  C  C64  1  0.64753600  0.58066900  0.12202600  1
  C  C65  1  0.61947500  0.72076500  0.32146200  1
  C  C66  1  0.43638700  0.94018000  0.37297400  1
  C  C67  1  0.83170300  0.94958900  0.87415100  1
  C  C68  1  0.84987600  0.86002000  0.63273300  1
  C  C69  1  0.90899600  0.34365000  0.12692700  1
  C  C70  1  0.59100400  0.34365000  0.62692700  1
  C  C71  1  0.68449200  0.22807800  0.91938500  1
  C  C72  1  0.34987600  0.13998000  0.86726700  1
  C  C73  1  0.91539600  0.50452000  0.92850100  1
  C  C74  1  0.08460400  0.49548000  0.07149900  1
  C  C75  1  0.81550800  0.22807800  0.41938500  1
  C  C76  1  0.11947500  0.27923500  0.17853800  1
  C  C77  1  0.53968800  0.01602500  0.91849000  1
  C  C78  1  0.41539600  0.49548000  0.57149900  1
  C  C79  1  0.05227500  0.76203300  0.68789800  1
  C  C80  1  0.65012400  0.86002000  0.13273300  1
  C  C81  1  0.58049200  0.47057000  0.86548900  1
  C  C82  1  0.96031200  0.01602500  0.41849000  1
  C  C83  1  0.44772500  0.76203300  0.18789800  1
  C  C84  1  0.16829700  0.05041100  0.12584900  1
  C  C85  1  0.25186800  0.30616900  0.56850100  1
  C  C86  1  0.46031200  0.98397500  0.08151000  1
  C  C87  1  0.06361300  0.94018000  0.87297400  1
  C  C88  1  0.71382100  0.67151000  0.69639200  1
  C  C89  1  0.03074700  0.99814200  0.30590200  1
  C  C90  1  0.78442800  0.14588600  0.19390500  1
  C  C91  1  0.43339200  0.65582600  0.81534100  1
  C  C92  1  0.06660800  0.65582600  0.31534100  1
  C  C93  1  0.04755400  0.59142700  0.43250900  1
  C  C94  1  0.54755400  0.40857300  0.06749100  1
  C  C95  1  0.69452300  0.74992800  0.57963000  1
  C  C96  1  0.54652700  0.15909800  0.31715700  1
  C  C97  1  0.53074700  0.00185800  0.19409800  1
  C  C98  1  0.45275100  0.90812600  0.56523000  1
  C  C99  1  0.45244600  0.59142700  0.93250900  1
  C  C100  1  0.68548000  0.82960500  0.81917800  1
  C  C101  1  0.73584800  0.37545000  0.80659400  1
  C  C102  1  0.31452000  0.17039500  0.18082200  1
  C  C103  1  0.04652700  0.84090200  0.18284300  1
  C  C104  1  0.73095100  0.20557900  0.57636700  1
  C  C105  1  0.04724900  0.90812600  0.06523000  1
  C  C106  1  0.21382100  0.32849000  0.80360800  1
  C  C107  1  0.18548000  0.17039500  0.68082200  1
  C  C108  1  0.81452000  0.82960500  0.31917800  1
  C  C109  1  0.96925300  0.00185800  0.69409800  1
  C  C110  1  0.51466200  0.49390100  0.31520500  1
  C  C111  1  0.01466200  0.50609900  0.18479500  1
  C  C112  1  0.71557200  0.14588600  0.69390500  1
  C  C113  1  0.93339200  0.34417400  0.68465900  1
  C  C114  1  0.21557200  0.85411400  0.80609500  1
  C  C115  1  0.95347300  0.15909800  0.81715700  1
  C  C116  1  0.54724900  0.09187400  0.43477000  1
  C  C117  1  0.98533800  0.49390100  0.81520500  1
  C  C118  1  0.46925300  0.99814200  0.80590200  1
  C  C119  1  0.19452300  0.25007200  0.92037000  1
  C  C120  1  0.95244600  0.40857300  0.56749100  1
  C  C121  1  0.45347300  0.84090200  0.68284300  1
  C  C122  1  0.28442800  0.85411400  0.30609500  1
  C  C123  1  0.76415200  0.37545000  0.30659400  1
  C  C124  1  0.80547700  0.74992800  0.07963000  1
  C  C125  1  0.23584800  0.62455000  0.69340600  1
  C  C126  1  0.95275100  0.09187400  0.93477000  1
  C  C127  1  0.48533800  0.50609900  0.68479500  1
  C  C128  1  0.26904900  0.79442100  0.42363300  1
  C  C129  1  0.78617900  0.67151000  0.19639200  1
  C  C130  1  0.30547700  0.25007200  0.42037000  1
  C  C131  1  0.28617900  0.32849000  0.30360800  1
  C  C132  1  0.76904900  0.20557900  0.07636700  1
  C  C133  1  0.23095100  0.79442100  0.92363300  1
  C  C134  1  0.26415200  0.62455000  0.19340600  1
  C  C135  1  0.56660800  0.34417400  0.18465900  1
