# generated using pymatgen
data_CuNiC3
_symmetry_space_group_name_H-M   'P 1'
_cell_length_a   5.64313000
_cell_length_b   5.85553600
_cell_length_c   8.11186500
_cell_angle_alpha   90.00000000
_cell_angle_beta   90.00000000
_cell_angle_gamma   90.00000000
_symmetry_Int_Tables_number   1
_chemical_formula_structural   CuNiC3
_chemical_formula_sum   'Cu4 Ni4 C12'
_cell_volume   268.04482376
_cell_formula_units_Z   4
loop_
 _symmetry_equiv_pos_site_id
 _symmetry_equiv_pos_as_xyz
  1  'x, y, z'
loop_
 _atom_site_type_symbol
 _atom_site_label
 _atom_site_symmetry_multiplicity
 _atom_site_fract_x
 _atom_site_fract_y
 _atom_site_fract_z
 _atom_site_occupancy
  Ni  Ni0  1  0.98522900  0.05455000  0.75000000  1
  Ni  Ni1  1  0.51477100  0.55455000  0.75000000  1
  Ni  Ni2  1  0.48522900  0.44545000  0.25000000  1
  Ni  Ni3  1  0.01477100  0.94545000  0.25000000  1
  Cu  Cu4  1  0.00000000  0.50000000  0.50000000  1
  Cu  Cu5  1  0.50000000  0.00000000  0.00000000  1
  Cu  Cu6  1  0.50000000  0.00000000  0.50000000  1
  Cu  Cu7  1  0.00000000  0.50000000  0.00000000  1
  C  C8  1  0.69991400  0.29943800  0.55643300  1
  C  C9  1  0.89342900  0.53945400  0.25000000  1
  C  C10  1  0.80008600  0.79943800  0.94356700  1
  C  C11  1  0.10657100  0.46054600  0.75000000  1
  C  C12  1  0.30008600  0.70056200  0.05643300  1
  C  C13  1  0.19991400  0.20056200  0.44356700  1
  C  C14  1  0.80008600  0.79943800  0.55643300  1
  C  C15  1  0.39342900  0.96054600  0.75000000  1
  C  C16  1  0.30008600  0.70056200  0.44356700  1
  C  C17  1  0.19991400  0.20056200  0.05643300  1
  C  C18  1  0.69991400  0.29943800  0.94356700  1
  C  C19  1  0.60657100  0.03945400  0.25000000  1
