# generated using pymatgen
data_Cu2NiC5
_symmetry_space_group_name_H-M   'P 1'
_cell_length_a   10.17065027
_cell_length_b   10.17065027
_cell_length_c   10.17065027
_cell_angle_alpha   137.21437785
_cell_angle_beta   137.21437785
_cell_angle_gamma   62.10837151
_symmetry_Int_Tables_number   1
_chemical_formula_structural   Cu2NiC5
_chemical_formula_sum   'Cu4 Ni2 C10'
_cell_volume   479.66609388
_cell_formula_units_Z   2
loop_
 _symmetry_equiv_pos_site_id
 _symmetry_equiv_pos_as_xyz
  1  'x, y, z'
loop_
 _atom_site_type_symbol
 _atom_site_label
 _atom_site_symmetry_multiplicity
 _atom_site_fract_x
 _atom_site_fract_y
 _atom_site_fract_z
 _atom_site_occupancy
  C  C0  1  0.99855300  0.49855300  0.82950800  1
  C  C1  1  0.00144700  0.50144700  0.17049200  1
  C  C2  1  0.83095500  0.00144700  0.50000000  1
  C  C3  1  0.50144700  0.33095500  0.50000000  1
  C  C4  1  0.16904500  0.99855300  0.50000000  1
  C  C5  1  0.66904500  0.16904500  0.17049200  1
  C  C6  1  0.49855300  0.66904500  0.50000000  1
  C  C7  1  0.50000000  0.50000000  0.00000000  1
  C  C8  1  0.00000000  0.00000000  0.00000000  1
  C  C9  1  0.33095500  0.83095500  0.82950800  1
  Ni  Ni10  1  0.25000000  0.25000000  0.00000000  1
  Ni  Ni11  1  0.75000000  0.75000000  0.00000000  1
  Cu  Cu12  1  0.12710000  0.62710000  0.75420000  1
  Cu  Cu13  1  0.62710000  0.87290000  0.50000000  1
  Cu  Cu14  1  0.37290000  0.12710000  0.50000000  1
  Cu  Cu15  1  0.87290000  0.37290000  0.24580000  1
