# generated using pymatgen
data_Cu3NiC2
_symmetry_space_group_name_H-M   'P 1'
_cell_length_a   4.02482000
_cell_length_b   10.44842000
_cell_length_c   13.60998700
_cell_angle_alpha   90.00000000
_cell_angle_beta   90.00000000
_cell_angle_gamma   90.00000000
_symmetry_Int_Tables_number   1
_chemical_formula_structural   Cu3NiC2
_chemical_formula_sum   'Cu12 Ni4 C8'
_cell_volume   572.34091648
_cell_formula_units_Z   4
loop_
 _symmetry_equiv_pos_site_id
 _symmetry_equiv_pos_as_xyz
  1  'x, y, z'
loop_
 _atom_site_type_symbol
 _atom_site_label
 _atom_site_symmetry_multiplicity
 _atom_site_fract_x
 _atom_site_fract_y
 _atom_site_fract_z
 _atom_site_occupancy
  C  C0  1  0.75000000  0.49335700  0.25234300  1
  C  C1  1  0.25000000  0.00664300  0.75234300  1
  C  C2  1  0.75000000  0.99335700  0.24765700  1
  C  C3  1  0.25000000  0.50664300  0.74765700  1
  C  C4  1  0.25000000  0.74525900  0.21799200  1
  C  C5  1  0.75000000  0.25474100  0.78200800  1
  C  C6  1  0.25000000  0.24525900  0.28200800  1
  C  C7  1  0.75000000  0.75474100  0.71799200  1
  Ni  Ni8  1  0.75000000  0.74072500  0.00753000  1
  Ni  Ni9  1  0.75000000  0.24072500  0.49247000  1
  Ni  Ni10  1  0.25000000  0.75927500  0.50753000  1
  Ni  Ni11  1  0.25000000  0.25927500  0.99247000  1
  Cu  Cu12  1  0.25000000  0.75546600  0.82814000  1
  Cu  Cu13  1  0.75000000  0.44645200  0.88714400  1
  Cu  Cu14  1  0.75000000  0.56754600  0.60985900  1
  Cu  Cu15  1  0.25000000  0.43245400  0.39014100  1
  Cu  Cu16  1  0.25000000  0.25546600  0.67186000  1
  Cu  Cu17  1  0.75000000  0.94645200  0.61285600  1
  Cu  Cu18  1  0.75000000  0.74453400  0.32814000  1
  Cu  Cu19  1  0.25000000  0.55354800  0.11285600  1
  Cu  Cu20  1  0.25000000  0.93245400  0.10985900  1
  Cu  Cu21  1  0.25000000  0.05354800  0.38714400  1
  Cu  Cu22  1  0.75000000  0.24453400  0.17186000  1
  Cu  Cu23  1  0.75000000  0.06754600  0.89014100  1
