# generated using pymatgen
data_Cu5Ni4C5
_symmetry_space_group_name_H-M   'P 1'
_cell_length_a   13.08195900
_cell_length_b   7.36302400
_cell_length_c   15.97159792
_cell_angle_alpha   72.66395959
_cell_angle_beta   90.00000000
_cell_angle_gamma   90.00000000
_symmetry_Int_Tables_number   1
_chemical_formula_structural   Cu5Ni4C5
_chemical_formula_sum   'Cu20 Ni16 C20'
_cell_volume   1468.54333565
_cell_formula_units_Z   4
loop_
 _symmetry_equiv_pos_site_id
 _symmetry_equiv_pos_as_xyz
  1  'x, y, z'
loop_
 _atom_site_type_symbol
 _atom_site_label
 _atom_site_symmetry_multiplicity
 _atom_site_fract_x
 _atom_site_fract_y
 _atom_site_fract_z
 _atom_site_occupancy
  C  C0  1  0.78584500  0.83014400  0.09814300  1
  C  C1  1  0.21415500  0.16985600  0.90185700  1
  C  C2  1  0.28584500  0.16985600  0.40185700  1
  C  C3  1  0.71415500  0.83014400  0.59814300  1
  C  C4  1  0.00674600  0.46858900  0.85846100  1
  C  C5  1  0.51173700  0.15286200  0.29632400  1
  C  C6  1  0.99325400  0.53141100  0.14153900  1
  C  C7  1  0.01173700  0.84713800  0.20367600  1
  C  C8  1  0.48826300  0.84713800  0.70367600  1
  C  C9  1  0.08748600  0.70847900  0.68724900  1
  C  C10  1  0.49325400  0.46858900  0.35846100  1
  C  C11  1  0.41251400  0.70847900  0.18724900  1
  C  C12  1  0.98826300  0.15286200  0.79632400  1
  C  C13  1  0.43096800  0.37048100  0.12119500  1
  C  C14  1  0.06903200  0.37048100  0.62119500  1
  C  C15  1  0.93096800  0.62951900  0.37880500  1
  C  C16  1  0.58748600  0.29152100  0.81275100  1
  C  C17  1  0.91251400  0.29152100  0.31275100  1
  C  C18  1  0.56903200  0.62951900  0.87880500  1
  C  C19  1  0.50674600  0.53141100  0.64153900  1
  Ni  Ni20  1  0.00769900  0.21912800  0.69308600  1
  Ni  Ni21  1  0.06111400  0.27338400  0.84670600  1
  Ni  Ni22  1  0.43888600  0.27338400  0.34670600  1
  Ni  Ni23  1  0.96775300  0.34902300  0.22195700  1
  Ni  Ni24  1  0.93888600  0.72661600  0.15329400  1
  Ni  Ni25  1  0.99230100  0.78087200  0.30691400  1
  Ni  Ni26  1  0.56111400  0.72661600  0.65329400  1
  Ni  Ni27  1  0.88268600  0.45025500  0.35753700  1
  Ni  Ni28  1  0.49230100  0.21912800  0.19308600  1
  Ni  Ni29  1  0.50769900  0.78087200  0.80691400  1
  Ni  Ni30  1  0.61731400  0.45025500  0.85753700  1
  Ni  Ni31  1  0.53224700  0.34902300  0.72195700  1
  Ni  Ni32  1  0.11731400  0.54974500  0.64246300  1
  Ni  Ni33  1  0.46775300  0.65097700  0.27804300  1
  Ni  Ni34  1  0.03224700  0.65097700  0.77804300  1
  Ni  Ni35  1  0.38268600  0.54974500  0.14246300  1
  Cu  Cu36  1  0.37686000  0.05660700  0.96408200  1
  Cu  Cu37  1  0.36297300  0.86142700  0.46027400  1
  Cu  Cu38  1  0.75216200  0.90436200  0.73236500  1
  Cu  Cu39  1  0.25216200  0.09563800  0.76763500  1
  Cu  Cu40  1  0.72005000  0.51138100  0.16110900  1
  Cu  Cu41  1  0.12314000  0.05660700  0.46408200  1
  Cu  Cu42  1  0.74783800  0.90436200  0.23236500  1
  Cu  Cu43  1  0.86297300  0.13857300  0.03972600  1
  Cu  Cu44  1  0.16372900  0.25616800  0.03032000  1
  Cu  Cu45  1  0.87686000  0.94339300  0.53591800  1
  Cu  Cu46  1  0.13702700  0.86142700  0.96027400  1
  Cu  Cu47  1  0.62314000  0.94339300  0.03591800  1
  Cu  Cu48  1  0.66372900  0.74383200  0.46968000  1
  Cu  Cu49  1  0.63702700  0.13857300  0.53972600  1
  Cu  Cu50  1  0.27995000  0.48861900  0.83889100  1
  Cu  Cu51  1  0.22005000  0.48861900  0.33889100  1
  Cu  Cu52  1  0.33627100  0.25616800  0.53032000  1
  Cu  Cu53  1  0.83627100  0.74383200  0.96968000  1
  Cu  Cu54  1  0.77995000  0.51138100  0.66110900  1
  Cu  Cu55  1  0.24783800  0.09563800  0.26763500  1
