# generated using pymatgen
data_CuNiC
_symmetry_space_group_name_H-M   'P 1'
_cell_length_a   7.65954678
_cell_length_b   7.65954678
_cell_length_c   8.27558368
_cell_angle_alpha   65.75907212
_cell_angle_beta   65.75907212
_cell_angle_gamma   60.06696258
_symmetry_Int_Tables_number   1
_chemical_formula_structural   CuNiC
_chemical_formula_sum   'Cu6 Ni6 C6'
_cell_volume   370.42739337
_cell_formula_units_Z   6
loop_
 _symmetry_equiv_pos_site_id
 _symmetry_equiv_pos_as_xyz
  1  'x, y, z'
loop_
 _atom_site_type_symbol
 _atom_site_label
 _atom_site_symmetry_multiplicity
 _atom_site_fract_x
 _atom_site_fract_y
 _atom_site_fract_z
 _atom_site_occupancy
  Ni  Ni0  1  0.15672300  0.84327700  0.75000000  1
  Ni  Ni1  1  0.49567000  0.67792100  0.74089600  1
  Ni  Ni2  1  0.50433000  0.32207900  0.25910400  1
  Ni  Ni3  1  0.32207900  0.50433000  0.75910400  1
  Ni  Ni4  1  0.84327700  0.15672300  0.25000000  1
  Ni  Ni5  1  0.67792100  0.49567000  0.24089600  1
  Cu  Cu6  1  0.49533100  0.50466900  0.25000000  1
  Cu  Cu7  1  0.50466900  0.49533100  0.75000000  1
  Cu  Cu8  1  0.85770100  0.32767100  0.24070800  1
  Cu  Cu9  1  0.14229900  0.67232900  0.75929200  1
  Cu  Cu10  1  0.32767100  0.85770100  0.74070800  1
  Cu  Cu11  1  0.67232900  0.14229900  0.25929200  1
  C  C12  1  0.93347000  0.06653000  0.75000000  1
  C  C13  1  0.06653000  0.93347000  0.25000000  1
  C  C14  1  0.68072200  0.72271500  0.22953200  1
  C  C15  1  0.27728500  0.31927800  0.27046800  1
  C  C16  1  0.31927800  0.27728500  0.77046800  1
  C  C17  1  0.72271500  0.68072200  0.72953200  1
