# generated using pymatgen
data_Cu5Ni2C3
_symmetry_space_group_name_H-M   'P 1'
_cell_length_a   14.05919800
_cell_length_b   6.91207600
_cell_length_c   27.97961395
_cell_angle_alpha   79.67745644
_cell_angle_beta   90.00000000
_cell_angle_gamma   90.00000000
_symmetry_Int_Tables_number   1
_chemical_formula_structural   Cu5Ni2C3
_chemical_formula_sum   'Cu40 Ni16 C24'
_cell_volume   2675.00154915
_cell_formula_units_Z   8
loop_
 _symmetry_equiv_pos_site_id
 _symmetry_equiv_pos_as_xyz
  1  'x, y, z'
loop_
 _atom_site_type_symbol
 _atom_site_label
 _atom_site_symmetry_multiplicity
 _atom_site_fract_x
 _atom_site_fract_y
 _atom_site_fract_z
 _atom_site_occupancy
  C  C0  1  0.20980800  0.74331100  0.97156500  1
  C  C1  1  0.29019200  0.74331100  0.47156500  1
  C  C2  1  0.61047600  0.03264600  0.29911700  1
  C  C3  1  0.38952400  0.96735400  0.70088300  1
  C  C4  1  0.11047600  0.96735400  0.20088300  1
  C  C5  1  0.70980800  0.25668900  0.52843500  1
  C  C6  1  0.88952400  0.03264600  0.79911700  1
  C  C7  1  0.79019200  0.25668900  0.02843500  1
  C  C8  1  0.33873800  0.66622700  0.90077700  1
  C  C9  1  0.57607300  0.52861100  0.88193400  1
  C  C10  1  0.66126200  0.33377300  0.09922300  1
  C  C11  1  0.40931000  0.75234400  0.79479400  1
  C  C12  1  0.92176300  0.08234000  0.64273900  1
  C  C13  1  0.09069000  0.75234400  0.29479400  1
  C  C14  1  0.83873800  0.33377300  0.59922300  1
  C  C15  1  0.57823700  0.08234000  0.14273900  1
  C  C16  1  0.07823700  0.91766000  0.35726100  1
  C  C17  1  0.42392700  0.47138900  0.11806600  1
  C  C18  1  0.16126200  0.66622700  0.40077700  1
  C  C19  1  0.42176300  0.91766000  0.85726100  1
  C  C20  1  0.92392700  0.52861100  0.38193400  1
  C  C21  1  0.59069000  0.24765600  0.20520600  1
  C  C22  1  0.07607300  0.47138900  0.61806600  1
  C  C23  1  0.90931000  0.24765600  0.70520600  1
  Ni  Ni24  1  0.44681100  0.42949100  0.92981600  1
  Ni  Ni25  1  0.07063500  0.13816100  0.61707700  1
  Ni  Ni26  1  0.57063500  0.86183900  0.88292300  1
  Ni  Ni27  1  0.22816200  0.61437100  0.32945600  1
  Ni  Ni28  1  0.46935100  0.46742700  0.19683600  1
  Ni  Ni29  1  0.94681100  0.57050900  0.57018400  1
  Ni  Ni30  1  0.96935100  0.53257300  0.30316400  1
  Ni  Ni31  1  0.05318900  0.42949100  0.42981600  1
  Ni  Ni32  1  0.53064900  0.53257300  0.80316400  1
  Ni  Ni33  1  0.03064900  0.46742700  0.69683600  1
  Ni  Ni34  1  0.72816200  0.38562900  0.17054400  1
  Ni  Ni35  1  0.55318900  0.57050900  0.07018400  1
  Ni  Ni36  1  0.27183800  0.61437100  0.82945600  1
  Ni  Ni37  1  0.42936500  0.13816100  0.11707700  1
  Ni  Ni38  1  0.92936500  0.86183900  0.38292300  1
  Ni  Ni39  1  0.77183800  0.38562900  0.67054400  1
  Cu  Cu40  1  0.48227500  0.71828400  0.67813500  1
  Cu  Cu41  1  0.86910600  0.84172800  0.87385600  1
  Cu  Cu42  1  0.30973700  0.03205500  0.41481300  1
  Cu  Cu43  1  0.19026300  0.03205500  0.91481300  1
  Cu  Cu44  1  0.75978300  0.56752100  0.48796100  1
  Cu  Cu45  1  0.85136300  0.12462700  0.50265100  1
  Cu  Cu46  1  0.10501800  0.58486500  0.92658100  1
  Cu  Cu47  1  0.75708800  0.24160000  0.79816800  1
  Cu  Cu48  1  0.74021700  0.56752100  0.98796100  1
  Cu  Cu49  1  0.89498200  0.41513500  0.07341900  1
  Cu  Cu50  1  0.13089400  0.15827200  0.12614400  1
  Cu  Cu51  1  0.36910600  0.15827200  0.62614400  1
  Cu  Cu52  1  0.70061600  0.83899900  0.25529800  1
  Cu  Cu53  1  0.51772500  0.28171600  0.32186500  1
  Cu  Cu54  1  0.74291200  0.24160000  0.29816800  1
  Cu  Cu55  1  0.63089400  0.84172800  0.37385600  1
  Cu  Cu56  1  0.25978300  0.43247900  0.01203900  1
  Cu  Cu57  1  0.52812000  0.10665700  0.72586300  1
  Cu  Cu58  1  0.47188000  0.89334300  0.27413700  1
  Cu  Cu59  1  0.98227500  0.28171600  0.82186500  1
  Cu  Cu60  1  0.89131000  0.18621800  0.97031000  1
  Cu  Cu61  1  0.80973700  0.96794500  0.08518700  1
  Cu  Cu62  1  0.69026300  0.96794500  0.58518700  1
  Cu  Cu63  1  0.01772500  0.71828400  0.17813500  1
  Cu  Cu64  1  0.79938400  0.83899900  0.75529800  1
  Cu  Cu65  1  0.97188000  0.10665700  0.22586300  1
  Cu  Cu66  1  0.39131000  0.81378200  0.52969000  1
  Cu  Cu67  1  0.20061600  0.16100100  0.24470200  1
  Cu  Cu68  1  0.60501800  0.41513500  0.57341900  1
  Cu  Cu69  1  0.29938400  0.16100100  0.74470200  1
  Cu  Cu70  1  0.64863700  0.12462700  0.00265100  1
  Cu  Cu71  1  0.39498200  0.58486500  0.42658100  1
  Cu  Cu72  1  0.14863700  0.87537300  0.49734900  1
  Cu  Cu73  1  0.24291200  0.75840000  0.20183200  1
  Cu  Cu74  1  0.24021700  0.43247900  0.51203900  1
  Cu  Cu75  1  0.02812000  0.89334300  0.77413700  1
  Cu  Cu76  1  0.25708800  0.75840000  0.70183200  1
  Cu  Cu77  1  0.60869000  0.18621800  0.47031000  1
  Cu  Cu78  1  0.35136300  0.87537300  0.99734900  1
  Cu  Cu79  1  0.10869000  0.81378200  0.02969000  1
