# generated using pymatgen
data_Cu4NiC8
_symmetry_space_group_name_H-M   'P 1'
_cell_length_a   16.50110000
_cell_length_b   8.57520500
_cell_length_c   9.19468269
_cell_angle_alpha   87.86969644
_cell_angle_beta   90.00000000
_cell_angle_gamma   90.00000000
_symmetry_Int_Tables_number   1
_chemical_formula_structural   Cu4NiC8
_chemical_formula_sum   'Cu16 Ni4 C32'
_cell_volume   1300.15130840
_cell_formula_units_Z   4
loop_
 _symmetry_equiv_pos_site_id
 _symmetry_equiv_pos_as_xyz
  1  'x, y, z'
loop_
 _atom_site_type_symbol
 _atom_site_label
 _atom_site_symmetry_multiplicity
 _atom_site_fract_x
 _atom_site_fract_y
 _atom_site_fract_z
 _atom_site_occupancy
  Ni  Ni0  1  0.14943500  0.14232300  0.36914800  1
  Ni  Ni1  1  0.35056500  0.64232300  0.36914800  1
  Ni  Ni2  1  0.64943500  0.35767700  0.63085200  1
  Ni  Ni3  1  0.85056500  0.85767700  0.63085200  1
  Cu  Cu4  1  0.25641600  0.42117400  0.11955500  1
  Cu  Cu5  1  0.74358400  0.57882600  0.88044500  1
  Cu  Cu6  1  0.29670700  0.98579600  0.55970900  1
  Cu  Cu7  1  0.20329300  0.48579600  0.55970900  1
  Cu  Cu8  1  0.70329300  0.01420400  0.44029100  1
  Cu  Cu9  1  0.24358400  0.92117400  0.11955500  1
  Cu  Cu10  1  0.51705700  0.19733200  0.83231600  1
  Cu  Cu11  1  0.03473100  0.14271600  0.65048900  1
  Cu  Cu12  1  0.53473100  0.35728400  0.34951100  1
  Cu  Cu13  1  0.96526900  0.85728400  0.34951100  1
  Cu  Cu14  1  0.01705700  0.30266800  0.16768400  1
  Cu  Cu15  1  0.79670700  0.51420400  0.44029100  1
  Cu  Cu16  1  0.46526900  0.64271600  0.65048900  1
  Cu  Cu17  1  0.75641600  0.07882600  0.88044500  1
  Cu  Cu18  1  0.98294300  0.69733200  0.83231600  1
  Cu  Cu19  1  0.48294300  0.80266800  0.16768400  1
  C  C20  1  0.15222800  0.86644800  0.72468500  1
  C  C21  1  0.88828900  0.61599900  0.12855700  1
  C  C22  1  0.61171100  0.11599900  0.12855700  1
  C  C23  1  0.65222800  0.63355200  0.27531500  1
  C  C24  1  0.37772200  0.16109000  0.17892000  1
  C  C25  1  0.11171100  0.38400100  0.87144300  1
  C  C26  1  0.87772200  0.33891000  0.82108000  1
  C  C27  1  0.84777200  0.13355200  0.27531500  1
  C  C28  1  0.62227800  0.83891000  0.82108000  1
  C  C29  1  0.12227800  0.66109000  0.17892000  1
  C  C30  1  0.38828900  0.88400100  0.87144300  1
  C  C31  1  0.00000000  0.00000000  0.00000000  1
  C  C32  1  0.34777200  0.36644800  0.72468500  1
  C  C33  1  0.50000000  0.50000000  0.00000000  1
  C  C34  1  0.00000000  0.50000000  0.50000000  1
  C  C35  1  0.50000000  0.00000000  0.50000000  1
  C  C36  1  0.84222900  0.74161400  0.77816700  1
  C  C37  1  0.29140800  0.48903900  0.35420300  1
  C  C38  1  0.65777100  0.24161400  0.77816700  1
  C  C39  1  0.70859200  0.51096100  0.64579700  1
  C  C40  1  0.17249000  0.22394200  0.52318500  1
  C  C41  1  0.32751000  0.72394200  0.52318500  1
  C  C42  1  0.94903500  0.89889800  0.62175200  1
  C  C43  1  0.44903500  0.60110200  0.37824800  1
  C  C44  1  0.79140800  0.01096100  0.64579700  1
  C  C45  1  0.20859200  0.98903900  0.35420300  1
  C  C46  1  0.55096500  0.39889800  0.62175200  1
  C  C47  1  0.67249000  0.27605800  0.47681500  1
  C  C48  1  0.15777100  0.25838600  0.22183300  1
  C  C49  1  0.82751000  0.77605800  0.47681500  1
  C  C50  1  0.05096500  0.10110200  0.37824800  1
  C  C51  1  0.34222900  0.75838600  0.22183300  1
