# generated using pymatgen
data_CuNi3C32
_symmetry_space_group_name_H-M   'P 1'
_cell_length_a   14.94168487
_cell_length_b   14.94168487
_cell_length_c   14.94168477
_cell_angle_alpha   33.49189684
_cell_angle_beta   33.49189684
_cell_angle_gamma   33.49189635
_symmetry_Int_Tables_number   1
_chemical_formula_structural   CuNi3C32
_chemical_formula_sum   'Cu2 Ni6 C64'
_cell_volume   904.66614638
_cell_formula_units_Z   2
loop_
 _symmetry_equiv_pos_site_id
 _symmetry_equiv_pos_as_xyz
  1  'x, y, z'
loop_
 _atom_site_type_symbol
 _atom_site_label
 _atom_site_symmetry_multiplicity
 _atom_site_fract_x
 _atom_site_fract_y
 _atom_site_fract_z
 _atom_site_occupancy
  C  C0  1  0.37457800  0.37457800  0.37457800  1
  C  C1  1  0.62542200  0.62542200  0.62542200  1
  Ni  Ni2  1  0.44560300  0.44560300  0.44560300  1
  Ni  Ni3  1  0.55439700  0.55439700  0.55439700  1
  Ni  Ni4  1  0.94730300  0.94730300  0.94730300  1
  Ni  Ni5  1  0.69696200  0.69696200  0.69696200  1
  Ni  Ni6  1  0.05269700  0.05269700  0.05269700  1
  Ni  Ni7  1  0.30303800  0.30303800  0.30303800  1
  C  C8  1  0.87484700  0.87484700  0.87484700  1
  C  C9  1  0.12515300  0.12515300  0.12515300  1
  Cu  Cu10  1  0.80434300  0.80434300  0.80434300  1
  Cu  Cu11  1  0.19565700  0.19565700  0.19565700  1
  C  C12  1  0.46144700  0.75200700  0.03972200  1
  C  C13  1  0.20906300  0.79093700  0.50000000  1
  C  C14  1  0.24799300  0.53855300  0.96027800  1
  C  C15  1  0.96027800  0.24799300  0.53855300  1
  C  C16  1  0.00000000  0.70637500  0.29362500  1
  C  C17  1  0.70637500  0.29362500  0.00000000  1
  C  C18  1  0.03972200  0.46144700  0.75200700  1
  C  C19  1  0.75200700  0.03972200  0.46144700  1
  C  C20  1  0.79093700  0.50000000  0.20906300  1
  C  C21  1  0.50000000  0.20906300  0.79093700  1
  C  C22  1  0.53855300  0.96027800  0.24799300  1
  C  C23  1  0.29362500  0.00000000  0.70637500  1
  C  C24  1  0.96762600  0.78380900  0.15958700  1
  C  C25  1  0.03237400  0.84041300  0.21619100  1
  C  C26  1  0.43783800  0.58167800  0.22666100  1
  C  C27  1  0.28057200  0.65623300  0.47365100  1
  C  C28  1  0.02420100  0.81185400  0.67304400  1
  C  C29  1  0.65623300  0.47365100  0.28057200  1
  C  C30  1  0.47365100  0.28057200  0.65623300  1
  C  C31  1  0.34376700  0.71942800  0.52634900  1
  C  C32  1  0.71942800  0.52634900  0.34376700  1
  C  C33  1  0.52634900  0.34376700  0.71942800  1
  C  C34  1  0.56216200  0.77333900  0.41832200  1
  C  C35  1  0.07881900  0.73069000  0.93576900  1
  C  C36  1  0.41832200  0.56216200  0.77333900  1
  C  C37  1  0.77333900  0.41832200  0.56216200  1
  C  C38  1  0.93576900  0.07881900  0.73069000  1
  C  C39  1  0.47841000  0.82929200  0.68843900  1
  C  C40  1  0.82929200  0.68843900  0.47841000  1
  C  C41  1  0.17070800  0.52159000  0.31156100  1
  C  C42  1  0.68843900  0.47841000  0.82929200  1
  C  C43  1  0.78380900  0.15958700  0.96762600  1
  C  C44  1  0.52159000  0.31156100  0.17070800  1
  C  C45  1  0.15958700  0.96762600  0.78380900  1
  C  C46  1  0.53316800  0.72198900  0.90729400  1
  C  C47  1  0.90729400  0.53316800  0.72198900  1
  C  C48  1  0.84041300  0.21619100  0.03237400  1
  C  C49  1  0.21619100  0.03237400  0.84041300  1
  C  C50  1  0.58335200  0.79107600  0.96866900  1
  C  C51  1  0.22666100  0.43783800  0.58167800  1
  C  C52  1  0.96866900  0.58335200  0.79107600  1
  C  C53  1  0.06423100  0.26931000  0.92118100  1
  C  C54  1  0.58167800  0.22666100  0.43783800  1
  C  C55  1  0.92118100  0.06423100  0.26931000  1
  C  C56  1  0.26931000  0.92118100  0.06423100  1
  C  C57  1  0.81185400  0.67304400  0.02420100  1
  C  C58  1  0.97579900  0.32695600  0.18814600  1
  C  C59  1  0.32695600  0.18814600  0.97579900  1
  C  C60  1  0.67304400  0.02420100  0.81185400  1
  C  C61  1  0.18814600  0.97579900  0.32695600  1
  C  C62  1  0.20892400  0.41664800  0.03133100  1
  C  C63  1  0.03133100  0.20892400  0.41664800  1
  C  C64  1  0.41664800  0.03133100  0.20892400  1
  C  C65  1  0.27801100  0.46683200  0.09270600  1
  C  C66  1  0.09270600  0.27801100  0.46683200  1
  C  C67  1  0.73069000  0.93576900  0.07881900  1
  C  C68  1  0.46683200  0.09270600  0.27801100  1
  C  C69  1  0.31156100  0.17070800  0.52159000  1
  C  C70  1  0.72198900  0.90729400  0.53316800  1
  C  C71  1  0.79107600  0.96866900  0.58335200  1
