# generated using pymatgen
data_Cu2NiC6
_symmetry_space_group_name_H-M   'P 1'
_cell_length_a   5.84281100
_cell_length_b   7.30411500
_cell_length_c   12.68675500
_cell_angle_alpha   90.00000000
_cell_angle_beta   90.00000000
_cell_angle_gamma   90.00000000
_symmetry_Int_Tables_number   1
_chemical_formula_structural   Cu2NiC6
_chemical_formula_sum   'Cu8 Ni4 C24'
_cell_volume   541.42710495
_cell_formula_units_Z   4
loop_
 _symmetry_equiv_pos_site_id
 _symmetry_equiv_pos_as_xyz
  1  'x, y, z'
loop_
 _atom_site_type_symbol
 _atom_site_label
 _atom_site_symmetry_multiplicity
 _atom_site_fract_x
 _atom_site_fract_y
 _atom_site_fract_z
 _atom_site_occupancy
  Ni  Ni0  1  0.25000000  0.92370400  0.90063000  1
  Ni  Ni1  1  0.75000000  0.07629600  0.09937000  1
  Ni  Ni2  1  0.75000000  0.42370400  0.59937000  1
  Ni  Ni3  1  0.25000000  0.57629600  0.40063000  1
  Cu  Cu4  1  0.25000000  0.11771400  0.28986400  1
  Cu  Cu5  1  0.75000000  0.88228600  0.71013600  1
  Cu  Cu6  1  0.75000000  0.61771400  0.21013600  1
  Cu  Cu7  1  0.25000000  0.38228600  0.78986400  1
  Cu  Cu8  1  0.25000000  0.39453300  0.07228200  1
  Cu  Cu9  1  0.75000000  0.60546700  0.92771800  1
  Cu  Cu10  1  0.75000000  0.89453300  0.42771800  1
  Cu  Cu11  1  0.25000000  0.10546700  0.57228200  1
  C  C12  1  0.25000000  0.69437000  0.65004600  1
  C  C13  1  0.75000000  0.30563000  0.34995400  1
  C  C14  1  0.75000000  0.19437000  0.84995400  1
  C  C15  1  0.25000000  0.80563000  0.15004600  1
  C  C16  1  0.99230700  0.17168500  0.43596500  1
  C  C17  1  0.49230700  0.82831500  0.56403500  1
  C  C18  1  0.00769300  0.67168500  0.06403500  1
  C  C19  1  0.50769300  0.32831500  0.93596500  1
  C  C20  1  0.00769300  0.82831500  0.56403500  1
  C  C21  1  0.50769300  0.17168500  0.43596500  1
  C  C22  1  0.99230700  0.32831500  0.93596500  1
  C  C23  1  0.49230700  0.67168500  0.06403500  1
  C  C24  1  0.50522900  0.35320400  0.22615200  1
  C  C25  1  0.00522900  0.64679600  0.77384800  1
  C  C26  1  0.49477100  0.85320400  0.27384800  1
  C  C27  1  0.99477100  0.14679600  0.72615200  1
  C  C28  1  0.49477100  0.64679600  0.77384800  1
  C  C29  1  0.99477100  0.35320400  0.22615200  1
  C  C30  1  0.50522900  0.14679600  0.72615200  1
  C  C31  1  0.00522900  0.85320400  0.27384800  1
  C  C32  1  0.25000000  0.06637800  0.09852600  1
  C  C33  1  0.75000000  0.93362200  0.90147400  1
  C  C34  1  0.75000000  0.56637800  0.40147400  1
  C  C35  1  0.25000000  0.43362200  0.59852600  1
