# generated using pymatgen
data_CuNi3C5
_symmetry_space_group_name_H-M   'P 1'
_cell_length_a   9.52925036
_cell_length_b   9.52925036
_cell_length_c   11.75329300
_cell_angle_alpha   90.00000000
_cell_angle_beta   90.00000000
_cell_angle_gamma   120.00000253
_symmetry_Int_Tables_number   1
_chemical_formula_structural   CuNi3C5
_chemical_formula_sum   'Cu6 Ni18 C30'
_cell_volume   924.28873157
_cell_formula_units_Z   6
loop_
 _symmetry_equiv_pos_site_id
 _symmetry_equiv_pos_as_xyz
  1  'x, y, z'
loop_
 _atom_site_type_symbol
 _atom_site_label
 _atom_site_symmetry_multiplicity
 _atom_site_fract_x
 _atom_site_fract_y
 _atom_site_fract_z
 _atom_site_occupancy
  Ni  Ni0  1  0.54976400  0.89774500  0.25000000  1
  Ni  Ni1  1  0.45023600  0.34798100  0.75000000  1
  Ni  Ni2  1  0.65201900  0.10225500  0.75000000  1
  Ni  Ni3  1  0.77999800  0.00000000  0.00000000  1
  Ni  Ni4  1  0.89774500  0.54976400  0.75000000  1
  Ni  Ni5  1  0.00000000  0.77999800  0.00000000  1
  Ni  Ni6  1  0.37470100  0.10748700  0.25000000  1
  Ni  Ni7  1  0.34798100  0.45023600  0.25000000  1
  Ni  Ni8  1  0.77999800  0.00000000  0.50000000  1
  Ni  Ni9  1  0.73278600  0.62529900  0.25000000  1
  Ni  Ni10  1  0.89251300  0.26721400  0.25000000  1
  Ni  Ni11  1  0.10225500  0.65201900  0.25000000  1
  Ni  Ni12  1  0.62529900  0.73278600  0.75000000  1
  Ni  Ni13  1  0.00000000  0.77999800  0.50000000  1
  Ni  Ni14  1  0.26721400  0.89251300  0.75000000  1
  Ni  Ni15  1  0.10748700  0.37470100  0.75000000  1
  Ni  Ni16  1  0.22000200  0.22000200  0.50000000  1
  Ni  Ni17  1  0.22000200  0.22000200  0.00000000  1
  Cu  Cu18  1  0.54030900  0.54030900  0.00000000  1
  Cu  Cu19  1  0.45969100  0.00000000  0.00000000  1
  Cu  Cu20  1  0.54030900  0.54030900  0.50000000  1
  Cu  Cu21  1  0.00000000  0.45969100  0.50000000  1
  Cu  Cu22  1  0.45969100  0.00000000  0.50000000  1
  Cu  Cu23  1  0.00000000  0.45969100  0.00000000  1
  C  C24  1  0.33333300  0.66666700  0.99040700  1
  C  C25  1  0.66666700  0.33333300  0.00959300  1
  C  C26  1  0.66666700  0.33333300  0.49040700  1
  C  C27  1  0.33333300  0.66666700  0.50959300  1
  C  C28  1  0.30168300  0.81571700  0.08380800  1
  C  C29  1  0.48596600  0.18428300  0.91619200  1
  C  C30  1  0.18428300  0.48596600  0.41619200  1
  C  C31  1  0.15181500  0.63213200  0.60069200  1
  C  C32  1  0.48031700  0.84818500  0.89930800  1
  C  C33  1  0.51968300  0.36786800  0.10069200  1
  C  C34  1  0.81571700  0.30168300  0.58380800  1
  C  C35  1  0.36786800  0.51968300  0.60069200  1
  C  C36  1  0.69831700  0.51403400  0.91619200  1
  C  C37  1  0.30168300  0.81571700  0.41619200  1
  C  C38  1  0.18428300  0.48596600  0.08380800  1
  C  C39  1  0.51968300  0.36786800  0.39930800  1
  C  C40  1  0.84818500  0.48031700  0.10069200  1
  C  C41  1  0.48596600  0.18428300  0.58380800  1
  C  C42  1  0.15181500  0.63213200  0.89930800  1
  C  C43  1  0.63213200  0.15181500  0.10069200  1
  C  C44  1  0.36786800  0.51968300  0.89930800  1
  C  C45  1  0.51403400  0.69831700  0.41619200  1
  C  C46  1  0.00000000  0.00000000  0.25000000  1
  C  C47  1  0.48031700  0.84818500  0.60069200  1
  C  C48  1  0.69831700  0.51403400  0.58380800  1
  C  C49  1  0.81571700  0.30168300  0.91619200  1
  C  C50  1  0.51403400  0.69831700  0.08380800  1
  C  C51  1  0.63213200  0.15181500  0.39930800  1
  C  C52  1  0.00000000  0.00000000  0.75000000  1
  C  C53  1  0.84818500  0.48031700  0.39930800  1
