# generated using pymatgen
data_Cu18NiC9
_symmetry_space_group_name_H-M   'P 1'
_cell_length_a   11.87162448
_cell_length_b   11.87162448
_cell_length_c   11.87162454
_cell_angle_alpha   55.65416226
_cell_angle_beta   55.65416226
_cell_angle_gamma   55.65416244
_symmetry_Int_Tables_number   1
_chemical_formula_structural   Cu18NiC9
_chemical_formula_sum   'Cu18 Ni1 C9'
_cell_volume   1063.78728681
_cell_formula_units_Z   1
loop_
 _symmetry_equiv_pos_site_id
 _symmetry_equiv_pos_as_xyz
  1  'x, y, z'
loop_
 _atom_site_type_symbol
 _atom_site_label
 _atom_site_symmetry_multiplicity
 _atom_site_fract_x
 _atom_site_fract_y
 _atom_site_fract_z
 _atom_site_occupancy
  C  C0  1  0.77573900  0.77573900  0.77573900  1
  C  C1  1  0.22426100  0.22426100  0.22426100  1
  C  C2  1  0.14345000  0.91153400  0.81401200  1
  C  C3  1  0.85655000  0.08846600  0.18598800  1
  C  C4  1  0.08846600  0.18598800  0.85655000  1
  C  C5  1  0.18598800  0.85655000  0.08846600  1
  C  C6  1  0.91153400  0.81401200  0.14345000  1
  C  C7  1  0.81401200  0.14345000  0.91153400  1
  C  C8  1  0.50000000  0.50000000  0.50000000  1
  Ni  Ni9  1  0.00000000  0.00000000  0.00000000  1
  Cu  Cu10  1  0.21814000  0.47108100  0.64447200  1
  Cu  Cu11  1  0.78186000  0.52891900  0.35552800  1
  Cu  Cu12  1  0.34333600  0.05441300  0.93254600  1
  Cu  Cu13  1  0.65666400  0.94558700  0.06745400  1
  Cu  Cu14  1  0.93254600  0.34333600  0.05441300  1
  Cu  Cu15  1  0.71255700  0.87635100  0.41200600  1
  Cu  Cu16  1  0.35552800  0.78186000  0.52891900  1
  Cu  Cu17  1  0.58799400  0.28744300  0.12364900  1
  Cu  Cu18  1  0.28744300  0.12364900  0.58799400  1
  Cu  Cu19  1  0.12364900  0.58799400  0.28744300  1
  Cu  Cu20  1  0.94558700  0.06745400  0.65666400  1
  Cu  Cu21  1  0.41200600  0.71255700  0.87635100  1
  Cu  Cu22  1  0.87635100  0.41200600  0.71255700  1
  Cu  Cu23  1  0.06745400  0.65666400  0.94558700  1
  Cu  Cu24  1  0.47108100  0.64447200  0.21814000  1
  Cu  Cu25  1  0.64447200  0.21814000  0.47108100  1
  Cu  Cu26  1  0.52891900  0.35552800  0.78186000  1
  Cu  Cu27  1  0.05441300  0.93254600  0.34333600  1
