# generated using pymatgen
data_CuNi5C3
_symmetry_space_group_name_H-M   'P 1'
_cell_length_a   11.54482700
_cell_length_b   12.58842800
_cell_length_c   13.31928400
_cell_angle_alpha   90.00000000
_cell_angle_beta   90.00000000
_cell_angle_gamma   90.00000000
_symmetry_Int_Tables_number   1
_chemical_formula_structural   CuNi5C3
_chemical_formula_sum   'Cu8 Ni40 C24'
_cell_volume   1935.70783936
_cell_formula_units_Z   8
loop_
 _symmetry_equiv_pos_site_id
 _symmetry_equiv_pos_as_xyz
  1  'x, y, z'
loop_
 _atom_site_type_symbol
 _atom_site_label
 _atom_site_symmetry_multiplicity
 _atom_site_fract_x
 _atom_site_fract_y
 _atom_site_fract_z
 _atom_site_occupancy
  C  C0  1  0.79427000  0.54097300  0.86453400  1
  C  C1  1  0.51467800  0.89519800  0.99754900  1
  C  C2  1  0.01467800  0.60480200  0.00245100  1
  C  C3  1  0.70573000  0.04097300  0.86453400  1
  C  C4  1  0.98532200  0.39519800  0.99754900  1
  C  C5  1  0.20573000  0.45902700  0.13546600  1
  C  C6  1  0.51467800  0.60480200  0.49754900  1
  C  C7  1  0.98532200  0.10480200  0.49754900  1
  C  C8  1  0.48532200  0.39519800  0.50245100  1
  C  C9  1  0.29427000  0.54097300  0.63546600  1
  C  C10  1  0.20573000  0.04097300  0.63546600  1
  C  C11  1  0.70573000  0.45902700  0.36453400  1
  C  C12  1  0.01467800  0.89519800  0.50245100  1
  C  C13  1  0.29427000  0.95902700  0.13546600  1
  C  C14  1  0.48532200  0.10480200  0.00245100  1
  C  C15  1  0.79427000  0.95902700  0.36453400  1
  C  C16  1  0.01793200  0.34876000  0.69170000  1
  C  C17  1  0.98206800  0.65124000  0.30830000  1
  C  C18  1  0.51793200  0.34876000  0.80830000  1
  C  C19  1  0.51793200  0.15124000  0.30830000  1
  C  C20  1  0.48206800  0.65124000  0.19170000  1
  C  C21  1  0.98206800  0.84876000  0.80830000  1
  C  C22  1  0.01793200  0.15124000  0.19170000  1
  C  C23  1  0.48206800  0.84876000  0.69170000  1
  Ni  Ni24  1  0.21235300  0.28848500  0.14318100  1
  Ni  Ni25  1  0.63250800  0.01666100  0.42574900  1
  Ni  Ni26  1  0.61385000  0.68996200  0.60651000  1
  Ni  Ni27  1  0.28764700  0.71151500  0.64318100  1
  Ni  Ni28  1  0.11385000  0.68996200  0.89349000  1
  Ni  Ni29  1  0.13250800  0.01666100  0.07425100  1
  Ni  Ni30  1  0.88615000  0.18996200  0.60651000  1
  Ni  Ni31  1  0.71235300  0.28848500  0.35681900  1
  Ni  Ni32  1  0.71235300  0.21151500  0.85681900  1
  Ni  Ni33  1  0.78764700  0.78848500  0.35681900  1
  Ni  Ni34  1  0.67539900  0.97047200  0.71936500  1
  Ni  Ni35  1  0.28764700  0.78848500  0.14318100  1
  Ni  Ni36  1  0.11385000  0.81003800  0.39349000  1
  Ni  Ni37  1  0.44581200  0.79319100  0.88392300  1
  Ni  Ni38  1  0.88615000  0.31003800  0.10651000  1
  Ni  Ni39  1  0.36749200  0.98333900  0.57425100  1
  Ni  Ni40  1  0.36749200  0.51666100  0.07425100  1
  Ni  Ni41  1  0.82460100  0.47047200  0.71936500  1
  Ni  Ni42  1  0.78764700  0.71151500  0.85681900  1
  Ni  Ni43  1  0.05418800  0.29319100  0.88392300  1
  Ni  Ni44  1  0.55418800  0.20680900  0.11607700  1
  Ni  Ni45  1  0.94581200  0.79319100  0.61607700  1
  Ni  Ni46  1  0.21235300  0.21151500  0.64318100  1
  Ni  Ni47  1  0.61385000  0.81003800  0.10651000  1
  Ni  Ni48  1  0.44581200  0.70680900  0.38392300  1
  Ni  Ni49  1  0.94581200  0.70680900  0.11607700  1
  Ni  Ni50  1  0.13250800  0.48333900  0.57425100  1
  Ni  Ni51  1  0.32460100  0.47047200  0.78063500  1
  Ni  Ni52  1  0.17539900  0.52952800  0.28063500  1
  Ni  Ni53  1  0.38615000  0.31003800  0.39349000  1
  Ni  Ni54  1  0.55418800  0.29319100  0.61607700  1
  Ni  Ni55  1  0.38615000  0.18996200  0.89349000  1
  Ni  Ni56  1  0.86749200  0.98333900  0.92574900  1
  Ni  Ni57  1  0.32460100  0.02952800  0.28063500  1
  Ni  Ni58  1  0.05418800  0.20680900  0.38392300  1
  Ni  Ni59  1  0.17539900  0.97047200  0.78063500  1
  Ni  Ni60  1  0.63250800  0.48333900  0.92574900  1
  Ni  Ni61  1  0.82460100  0.02952800  0.21936500  1
  Ni  Ni62  1  0.86749200  0.51666100  0.42574900  1
  Ni  Ni63  1  0.67539900  0.52952800  0.21936500  1
  Cu  Cu64  1  0.41200000  0.98864300  0.05266800  1
  Cu  Cu65  1  0.91200000  0.98864300  0.44733200  1
  Cu  Cu66  1  0.91200000  0.51135700  0.94733200  1
  Cu  Cu67  1  0.08800000  0.48864300  0.05266800  1
  Cu  Cu68  1  0.58800000  0.01135700  0.94733200  1
  Cu  Cu69  1  0.41200000  0.51135700  0.55266800  1
  Cu  Cu70  1  0.08800000  0.01135700  0.55266800  1
  Cu  Cu71  1  0.58800000  0.48864300  0.44733200  1
