# generated using pymatgen
data_CuNiC9
_symmetry_space_group_name_H-M   'P 1'
_cell_length_a   10.47482900
_cell_length_b   8.69695200
_cell_length_c   12.79885889
_cell_angle_alpha   80.97098058
_cell_angle_beta   90.00000000
_cell_angle_gamma   90.00000000
_symmetry_Int_Tables_number   1
_chemical_formula_structural   CuNiC9
_chemical_formula_sum   'Cu4 Ni4 C36'
_cell_volume   1151.51684922
_cell_formula_units_Z   4
loop_
 _symmetry_equiv_pos_site_id
 _symmetry_equiv_pos_as_xyz
  1  'x, y, z'
loop_
 _atom_site_type_symbol
 _atom_site_label
 _atom_site_symmetry_multiplicity
 _atom_site_fract_x
 _atom_site_fract_y
 _atom_site_fract_z
 _atom_site_occupancy
  Ni  Ni0  1  0.27452300  0.80242300  0.56663900  1
  Ni  Ni1  1  0.22547700  0.80242300  0.06663900  1
  Ni  Ni2  1  0.77452300  0.19757700  0.93336100  1
  Ni  Ni3  1  0.72547700  0.19757700  0.43336100  1
  Cu  Cu4  1  0.18123300  0.20127900  0.80101000  1
  Cu  Cu5  1  0.68123300  0.79872100  0.69899000  1
  Cu  Cu6  1  0.31876700  0.20127900  0.30101000  1
  Cu  Cu7  1  0.81876700  0.79872100  0.19899000  1
  C  C8  1  0.59073400  0.79043200  0.26671700  1
  C  C9  1  0.95912200  0.73802300  0.36228700  1
  C  C10  1  0.82685400  0.55584400  0.11062300  1
  C  C11  1  0.67314600  0.55584400  0.61062300  1
  C  C12  1  0.40926600  0.20956800  0.73328300  1
  C  C13  1  0.45912200  0.26197700  0.13771300  1
  C  C14  1  0.17314600  0.44415600  0.88937700  1
  C  C15  1  0.09073400  0.20956800  0.23328300  1
  C  C16  1  0.32685400  0.44415600  0.38937700  1
  C  C17  1  0.54087800  0.73802300  0.86228700  1
  C  C18  1  0.04087800  0.26197700  0.63771300  1
  C  C19  1  0.90926600  0.79043200  0.76671700  1
  C  C20  1  0.71664100  0.15477800  0.81111300  1
  C  C21  1  0.37784000  0.72182900  0.04079100  1
  C  C22  1  0.82451300  0.38453200  0.87227500  1
  C  C23  1  0.28335900  0.84522200  0.18888700  1
  C  C24  1  0.33052400  0.75854200  0.44206300  1
  C  C25  1  0.77682100  0.01247500  0.49808100  1
  C  C26  1  0.12216000  0.72182900  0.54079100  1
  C  C27  1  0.66947600  0.24145800  0.55793700  1
  C  C28  1  0.83052400  0.24145800  0.05793700  1
  C  C29  1  0.62216000  0.27817100  0.95920900  1
  C  C30  1  0.92628400  0.11943000  0.90989300  1
  C  C31  1  0.21664100  0.84522200  0.68888700  1
  C  C32  1  0.07371600  0.88057000  0.09010700  1
  C  C33  1  0.67548700  0.38453200  0.37227500  1
  C  C34  1  0.27682100  0.98752500  0.00191900  1
  C  C35  1  0.17548700  0.61546800  0.12772500  1
  C  C36  1  0.78335900  0.15477800  0.31111300  1
  C  C37  1  0.22317900  0.98752500  0.50191900  1
  C  C38  1  0.72317900  0.01247500  0.99808100  1
  C  C39  1  0.16947600  0.75854200  0.94206300  1
  C  C40  1  0.87784000  0.27817100  0.45920900  1
  C  C41  1  0.42628400  0.88057000  0.59010700  1
  C  C42  1  0.57371600  0.11943000  0.40989300  1
  C  C43  1  0.32451300  0.61546800  0.62772500  1
