# generated using pymatgen
data_Cu(Ni11C17)2
_symmetry_space_group_name_H-M   'P 1'
_cell_length_a   11.30684600
_cell_length_b   9.78194400
_cell_length_c   11.89227608
_cell_angle_alpha   74.29384029
_cell_angle_beta   90.00000000
_cell_angle_gamma   90.00000000
_symmetry_Int_Tables_number   1
_chemical_formula_structural   Cu(Ni11C17)2
_chemical_formula_sum   'Cu2 Ni44 C68'
_cell_volume   1266.21004361
_cell_formula_units_Z   2
loop_
 _symmetry_equiv_pos_site_id
 _symmetry_equiv_pos_as_xyz
  1  'x, y, z'
loop_
 _atom_site_type_symbol
 _atom_site_label
 _atom_site_symmetry_multiplicity
 _atom_site_fract_x
 _atom_site_fract_y
 _atom_site_fract_z
 _atom_site_occupancy
  Ni  Ni0  1  0.00000000  0.00000000  0.00000000  1
  Ni  Ni1  1  0.12444000  0.34366200  0.21558800  1
  Ni  Ni2  1  0.00004200  0.09649100  0.21602500  1
  Ni  Ni3  1  0.00067600  0.35015100  0.95105600  1
  Ni  Ni4  1  0.00120300  0.45013600  0.64934100  1
  Ni  Ni5  1  0.99879700  0.54986400  0.35065900  1
  Ni  Ni6  1  0.37619200  0.84803100  0.20543000  1
  Ni  Ni7  1  0.12380800  0.84803100  0.20543000  1
  Ni  Ni8  1  0.25000000  0.59678200  0.20947000  1
  Ni  Ni9  1  0.99932400  0.64984900  0.04894400  1
  Ni  Ni10  1  0.25000000  0.85131200  0.94721700  1
  Ni  Ni11  1  0.25000000  0.49980100  0.00126900  1
  Ni  Ni12  1  0.99995800  0.90350900  0.78397500  1
  Ni  Ni13  1  0.12345000  0.65406700  0.78922200  1
  Ni  Ni14  1  0.25000000  0.94555100  0.64784000  1
  Ni  Ni15  1  0.25000000  0.05017500  0.35215200  1
  Ni  Ni16  1  0.37556000  0.34366200  0.21558800  1
  Ni  Ni17  1  0.62345000  0.34593300  0.21077800  1
  Ni  Ni18  1  0.49995800  0.09649100  0.21602500  1
  Ni  Ni19  1  0.25000000  0.15139200  0.04840300  1
  Ni  Ni20  1  0.49932400  0.35015100  0.95105600  1
  Ni  Ni21  1  0.50000000  0.00000000  0.00000000  1
  Ni  Ni22  1  0.25000000  0.40126600  0.78843300  1
  Ni  Ni23  1  0.37314000  0.15388800  0.78296200  1
  Ni  Ni24  1  0.12686000  0.15388800  0.78296200  1
  Ni  Ni25  1  0.49879700  0.45013600  0.64934100  1
  Ni  Ni26  1  0.50120300  0.54986400  0.35065900  1
  Ni  Ni27  1  0.87314000  0.84611200  0.21703800  1
  Ni  Ni28  1  0.62686000  0.84611200  0.21703800  1
  Ni  Ni29  1  0.75000000  0.59873400  0.21156700  1
  Ni  Ni30  1  0.50067600  0.64984900  0.04894400  1
  Ni  Ni31  1  0.75000000  0.84860800  0.95159700  1
  Ni  Ni32  1  0.75000000  0.50019900  0.99873100  1
  Ni  Ni33  1  0.50004200  0.90350900  0.78397500  1
  Ni  Ni34  1  0.37655000  0.65406700  0.78922200  1
  Ni  Ni35  1  0.62444000  0.65633800  0.78441200  1
  Ni  Ni36  1  0.75000000  0.94982500  0.64784800  1
  Ni  Ni37  1  0.75000000  0.05444900  0.35216000  1
  Ni  Ni38  1  0.87655000  0.34593300  0.21077800  1
  Ni  Ni39  1  0.75000000  0.14868800  0.05278300  1
  Ni  Ni40  1  0.75000000  0.40321800  0.79053000  1
  Ni  Ni41  1  0.62380800  0.15196900  0.79457000  1
  Ni  Ni42  1  0.87619200  0.15196900  0.79457000  1
  Ni  Ni43  1  0.87556000  0.65633800  0.78441200  1
  Cu  Cu44  1  0.25000000  0.70246900  0.46950000  1
  Cu  Cu45  1  0.75000000  0.29753100  0.53050000  1
  C  C46  1  0.99799000  0.09421000  0.71857100  1
  C  C47  1  0.13278200  0.45492100  0.90210200  1
  C  C48  1  0.99762300  0.19040700  0.90170700  1
  C  C49  1  0.25000000  0.59358400  0.71715100  1
  C  C50  1  0.12511600  0.34505100  0.71324900  1
  C  C51  1  0.00000000  0.50000000  0.50000000  1
  C  C52  1  0.12938500  0.65686000  0.29432600  1
  C  C53  1  0.99952600  0.40485300  0.28697900  1
  C  C54  1  0.25000000  0.79651400  0.10916900  1
  C  C55  1  0.00237700  0.80959300  0.09829300  1
  C  C56  1  0.13248400  0.54807300  0.09980600  1
  C  C57  1  0.38248400  0.95588600  0.90004500  1
  C  C58  1  0.11751600  0.95588600  0.90004500  1
  C  C59  1  0.25000000  0.68878100  0.90150000  1
  C  C60  1  0.99863400  0.70360500  0.88937700  1
  C  C61  1  0.50201000  0.09421000  0.71857100  1
  C  C62  1  0.25000000  0.09613300  0.70624300  1
  C  C63  1  0.12441800  0.84339000  0.71277800  1
  C  C64  1  0.37558200  0.84339000  0.71277800  1
  C  C65  1  0.25000000  0.95456300  0.49872300  1
  C  C66  1  0.37472600  0.15354600  0.29032300  1
  C  C67  1  0.12527400  0.15354600  0.29032300  1
  C  C68  1  0.25000000  0.89814400  0.28927000  1
  C  C69  1  0.49863400  0.29639500  0.11062300  1
  C  C70  1  0.25000000  0.31048700  0.09909100  1
  C  C71  1  0.38099400  0.04482400  0.09859500  1
  C  C72  1  0.11900600  0.04482400  0.09859500  1
  C  C73  1  0.63248400  0.45192700  0.90019400  1
  C  C74  1  0.36721800  0.45492100  0.90210200  1
  C  C75  1  0.50237700  0.19040700  0.90170700  1
  C  C76  1  0.25000000  0.20255200  0.88843000  1
  C  C77  1  0.75000000  0.59197100  0.71837000  1
  C  C78  1  0.49952600  0.59514700  0.71302100  1
  C  C79  1  0.62938500  0.34314000  0.70567400  1
  C  C80  1  0.37488400  0.34505100  0.71324900  1
  C  C81  1  0.50000000  0.50000000  0.50000000  1
  C  C82  1  0.37061500  0.65686000  0.29432600  1
  C  C83  1  0.62511600  0.65494900  0.28675100  1
  C  C84  1  0.50047400  0.40485300  0.28697900  1
  C  C85  1  0.25000000  0.40802900  0.28163000  1
  C  C86  1  0.75000000  0.79744800  0.11157000  1
  C  C87  1  0.49762300  0.80959300  0.09829300  1
  C  C88  1  0.36751600  0.54807300  0.09980600  1
  C  C89  1  0.63278200  0.54507900  0.09789800  1
  C  C90  1  0.88099400  0.95517600  0.90140500  1
  C  C91  1  0.61900600  0.95517600  0.90140500  1
  C  C92  1  0.75000000  0.68951300  0.90090900  1
  C  C93  1  0.50136600  0.70360500  0.88937700  1
  C  C94  1  0.75000000  0.10185600  0.71073000  1
  C  C95  1  0.62527400  0.84645400  0.70967700  1
  C  C96  1  0.87472600  0.84645400  0.70967700  1
  C  C97  1  0.75000000  0.04543700  0.50127700  1
  C  C98  1  0.62441800  0.15661000  0.28722200  1
  C  C99  1  0.87558200  0.15661000  0.28722200  1
  C  C100  1  0.75000000  0.90386700  0.29375700  1
  C  C101  1  0.49799000  0.90579000  0.28142900  1
  C  C102  1  0.00136600  0.29639500  0.11062300  1
  C  C103  1  0.75000000  0.31121900  0.09850000  1
  C  C104  1  0.61751600  0.04411400  0.09995500  1
  C  C105  1  0.88248400  0.04411400  0.09995500  1
  C  C106  1  0.86751600  0.45192700  0.90019400  1
  C  C107  1  0.75000000  0.20348600  0.89083100  1
  C  C108  1  0.00047400  0.59514700  0.71302100  1
  C  C109  1  0.87061500  0.34314000  0.70567400  1
  C  C110  1  0.87488400  0.65494900  0.28675100  1
  C  C111  1  0.75000000  0.40641600  0.28284900  1
  C  C112  1  0.86721800  0.54507900  0.09789800  1
  C  C113  1  0.00201000  0.90579000  0.28142900  1
