# generated using pymatgen
data_Cu6NiC4
_symmetry_space_group_name_H-M   'P 1'
_cell_length_a   8.43464600
_cell_length_b   8.43464600
_cell_length_c   6.09198600
_cell_angle_alpha   90.00000000
_cell_angle_beta   90.00000000
_cell_angle_gamma   90.00000000
_symmetry_Int_Tables_number   1
_chemical_formula_structural   Cu6NiC4
_chemical_formula_sum   'Cu12 Ni2 C8'
_cell_volume   433.40370216
_cell_formula_units_Z   2
loop_
 _symmetry_equiv_pos_site_id
 _symmetry_equiv_pos_as_xyz
  1  'x, y, z'
loop_
 _atom_site_type_symbol
 _atom_site_label
 _atom_site_symmetry_multiplicity
 _atom_site_fract_x
 _atom_site_fract_y
 _atom_site_fract_z
 _atom_site_occupancy
  C  C0  1  0.68551400  0.18551400  0.50000000  1
  C  C1  1  0.81448600  0.68551400  0.50000000  1
  C  C2  1  0.50000000  0.50000000  0.00000000  1
  C  C3  1  0.18551400  0.31448600  0.50000000  1
  C  C4  1  0.31448600  0.81448600  0.50000000  1
  C  C5  1  0.00000000  0.00000000  0.00000000  1
  C  C6  1  0.50000000  0.00000000  0.00000000  1
  C  C7  1  0.00000000  0.50000000  0.00000000  1
  Ni  Ni8  1  0.50000000  0.50000000  0.50000000  1
  Ni  Ni9  1  0.00000000  0.00000000  0.50000000  1
  Cu  Cu10  1  0.88751900  0.38751900  0.24109700  1
  Cu  Cu11  1  0.61248100  0.88751900  0.75890300  1
  Cu  Cu12  1  0.16673700  0.33326300  0.00000000  1
  Cu  Cu13  1  0.88751900  0.38751900  0.75890300  1
  Cu  Cu14  1  0.38751900  0.11248100  0.75890300  1
  Cu  Cu15  1  0.83326300  0.66673700  0.00000000  1
  Cu  Cu16  1  0.11248100  0.61248100  0.24109700  1
  Cu  Cu17  1  0.66673700  0.16673700  0.00000000  1
  Cu  Cu18  1  0.61248100  0.88751900  0.24109700  1
  Cu  Cu19  1  0.38751900  0.11248100  0.24109700  1
  Cu  Cu20  1  0.11248100  0.61248100  0.75890300  1
  Cu  Cu21  1  0.33326300  0.83326300  0.00000000  1
