# generated using pymatgen
data_CuNi3C8
_symmetry_space_group_name_H-M   'P 1'
_cell_length_a   8.88159700
_cell_length_b   6.67164600
_cell_length_c   12.18936188
_cell_angle_alpha   57.77745433
_cell_angle_beta   90.00000000
_cell_angle_gamma   90.00000000
_symmetry_Int_Tables_number   1
_chemical_formula_structural   CuNi3C8
_chemical_formula_sum   'Cu4 Ni12 C32'
_cell_volume   611.03611226
_cell_formula_units_Z   4
loop_
 _symmetry_equiv_pos_site_id
 _symmetry_equiv_pos_as_xyz
  1  'x, y, z'
loop_
 _atom_site_type_symbol
 _atom_site_label
 _atom_site_symmetry_multiplicity
 _atom_site_fract_x
 _atom_site_fract_y
 _atom_site_fract_z
 _atom_site_occupancy
  Ni  Ni0  1  0.81219400  0.41865100  0.60268700  1
  Ni  Ni1  1  0.31219400  0.58134900  0.89731300  1
  Ni  Ni2  1  0.56315200  0.38853700  0.39317000  1
  Ni  Ni3  1  0.73642600  0.81917400  0.65757400  1
  Ni  Ni4  1  0.43684800  0.61146300  0.60683000  1
  Ni  Ni5  1  0.68780600  0.41865100  0.10268700  1
  Ni  Ni6  1  0.26357400  0.18082600  0.34242600  1
  Ni  Ni7  1  0.18780600  0.58134900  0.39731300  1
  Ni  Ni8  1  0.23642600  0.18082600  0.84242600  1
  Ni  Ni9  1  0.06315200  0.61146300  0.10683000  1
  Ni  Ni10  1  0.93684800  0.38853700  0.89317000  1
  Ni  Ni11  1  0.76357400  0.81917400  0.15757400  1
  Cu  Cu12  1  0.11440300  0.01320400  0.64589200  1
  Cu  Cu13  1  0.38559700  0.01320400  0.14589200  1
  Cu  Cu14  1  0.88559700  0.98679600  0.35410800  1
  Cu  Cu15  1  0.61440300  0.98679600  0.85410800  1
  C  C16  1  0.56840100  0.87031900  0.37441900  1
  C  C17  1  0.09882300  0.58249700  0.63865900  1
  C  C18  1  0.06840100  0.12968100  0.12558100  1
  C  C19  1  0.93159900  0.87031900  0.87441900  1
  C  C20  1  0.40117700  0.58249700  0.13865900  1
  C  C21  1  0.59882300  0.41750300  0.86134100  1
  C  C22  1  0.43159900  0.12968100  0.62558100  1
  C  C23  1  0.90117700  0.41750300  0.36134100  1
  C  C24  1  0.21174000  0.62209300  0.70467100  1
  C  C25  1  0.10112100  0.38551300  0.63034400  1
  C  C26  1  0.65307500  0.82186600  0.48133700  1
  C  C27  1  0.91950200  0.19920400  0.11702500  1
  C  C28  1  0.60112100  0.61448700  0.86965600  1
  C  C29  1  0.39887900  0.38551300  0.13034400  1
  C  C30  1  0.58049800  0.19920400  0.61702500  1
  C  C31  1  0.13652600  0.00918800  0.24844600  1
  C  C32  1  0.36347400  0.00918800  0.74844600  1
  C  C33  1  0.51831400  0.75018300  0.08467300  1
  C  C34  1  0.63652600  0.99081200  0.25155400  1
  C  C35  1  0.41950200  0.80079600  0.38297500  1
  C  C36  1  0.89887900  0.61448700  0.36965600  1
  C  C37  1  0.84692500  0.82186600  0.98133700  1
  C  C38  1  0.86347400  0.99081200  0.75155400  1
  C  C39  1  0.78826000  0.37790700  0.29532900  1
  C  C40  1  0.15307500  0.17813400  0.01866300  1
  C  C41  1  0.08049800  0.80079600  0.88297500  1
  C  C42  1  0.01831400  0.24981700  0.41532700  1
  C  C43  1  0.48168600  0.24981700  0.91532700  1
  C  C44  1  0.71174000  0.37790700  0.79532900  1
  C  C45  1  0.98168600  0.75018300  0.58467300  1
  C  C46  1  0.28826000  0.62209300  0.20467100  1
  C  C47  1  0.34692500  0.17813400  0.51866300  1
