# generated using pymatgen
data_Cu3NiC13
_symmetry_space_group_name_H-M   'P 1'
_cell_length_a   8.43236808
_cell_length_b   8.43236808
_cell_length_c   15.49999000
_cell_angle_alpha   90.00000000
_cell_angle_beta   90.00000000
_cell_angle_gamma   120.00000067
_symmetry_Int_Tables_number   1
_chemical_formula_structural   Cu3NiC13
_chemical_formula_sum   'Cu12 Ni4 C52'
_cell_volume   954.46752942
_cell_formula_units_Z   4
loop_
 _symmetry_equiv_pos_site_id
 _symmetry_equiv_pos_as_xyz
  1  'x, y, z'
loop_
 _atom_site_type_symbol
 _atom_site_label
 _atom_site_symmetry_multiplicity
 _atom_site_fract_x
 _atom_site_fract_y
 _atom_site_fract_z
 _atom_site_occupancy
  C  C0  1  0.59342700  0.00000000  0.25000000  1
  C  C1  1  0.59342700  0.59342700  0.75000000  1
  C  C2  1  0.40657300  0.00000000  0.75000000  1
  C  C3  1  0.00000000  0.59342700  0.25000000  1
  C  C4  1  0.40657300  0.40657300  0.25000000  1
  C  C5  1  0.00000000  0.40657300  0.75000000  1
  C  C6  1  0.00000000  0.00000000  0.25000000  1
  C  C7  1  0.00000000  0.00000000  0.75000000  1
  C  C8  1  0.33333300  0.66666700  0.13070800  1
  C  C9  1  0.66666700  0.33333300  0.86929200  1
  C  C10  1  0.66666700  0.33333300  0.36929200  1
  C  C11  1  0.33333300  0.66666700  0.63070800  1
  Ni  Ni12  1  0.33333300  0.66666700  0.92712600  1
  Ni  Ni13  1  0.33333300  0.66666700  0.42712600  1
  Ni  Ni14  1  0.66666700  0.33333300  0.07287400  1
  Ni  Ni15  1  0.66666700  0.33333300  0.57287400  1
  Cu  Cu16  1  0.29630300  0.01865400  0.39584200  1
  Cu  Cu17  1  0.98134600  0.70369700  0.89584200  1
  Cu  Cu18  1  0.98134600  0.27764900  0.39584200  1
  Cu  Cu19  1  0.01865400  0.72235100  0.60415800  1
  Cu  Cu20  1  0.27764900  0.29630300  0.60415800  1
  Cu  Cu21  1  0.72235100  0.01865400  0.89584200  1
  Cu  Cu22  1  0.29630300  0.27764900  0.89584200  1
  Cu  Cu23  1  0.01865400  0.29630300  0.10415800  1
  Cu  Cu24  1  0.70369700  0.72235100  0.10415800  1
  Cu  Cu25  1  0.70369700  0.98134600  0.60415800  1
  Cu  Cu26  1  0.72235100  0.70369700  0.39584200  1
  Cu  Cu27  1  0.27764900  0.98134600  0.10415800  1
  C  C28  1  0.88533000  0.77911500  0.67606400  1
  C  C29  1  0.27966400  0.46509400  0.67487500  1
  C  C30  1  0.46509400  0.27966400  0.82512500  1
  C  C31  1  0.12919400  0.59725200  0.88334900  1
  C  C32  1  0.59725200  0.46805800  0.11665100  1
  C  C33  1  0.40274800  0.53194200  0.88334900  1
  C  C34  1  0.22088500  0.10621500  0.67606400  1
  C  C35  1  0.72033600  0.18543000  0.82512500  1
  C  C36  1  0.46805800  0.59725200  0.38334900  1
  C  C37  1  0.87080600  0.46805800  0.61665100  1
  C  C38  1  0.12919400  0.53194200  0.38334900  1
  C  C39  1  0.66666700  0.33333300  0.47064800  1
  C  C40  1  0.89378500  0.11467000  0.67606400  1
  C  C41  1  0.40274800  0.87080600  0.38334900  1
  C  C42  1  0.10621500  0.22088500  0.82393600  1
  C  C43  1  0.66666700  0.33333300  0.97064800  1
  C  C44  1  0.72033600  0.53490600  0.32512500  1
  C  C45  1  0.46509400  0.18543000  0.32512500  1
  C  C46  1  0.11467000  0.89378500  0.82393600  1
  C  C47  1  0.18543000  0.72033600  0.67487500  1
  C  C48  1  0.53490600  0.72033600  0.17487500  1
  C  C49  1  0.22088500  0.11467000  0.17606400  1
  C  C50  1  0.53490600  0.81457000  0.67487500  1
  C  C51  1  0.88533000  0.10621500  0.17606400  1
  C  C52  1  0.33333300  0.66666700  0.02935200  1
  C  C53  1  0.27966400  0.81457000  0.17487500  1
  C  C54  1  0.81457000  0.27966400  0.32512500  1
  C  C55  1  0.10621500  0.88533000  0.32393600  1
  C  C56  1  0.11467000  0.22088500  0.32393600  1
  C  C57  1  0.33333300  0.66666700  0.52935200  1
  C  C58  1  0.46805800  0.87080600  0.88334900  1
  C  C59  1  0.53194200  0.12919400  0.11665100  1
  C  C60  1  0.81457000  0.53490600  0.82512500  1
  C  C61  1  0.18543000  0.46509400  0.17487500  1
  C  C62  1  0.53194200  0.40274800  0.61665100  1
  C  C63  1  0.59725200  0.12919400  0.61665100  1
  C  C64  1  0.77911500  0.88533000  0.82393600  1
  C  C65  1  0.87080600  0.40274800  0.11665100  1
  C  C66  1  0.77911500  0.89378500  0.32393600  1
  C  C67  1  0.89378500  0.77911500  0.17606400  1
