# generated using pymatgen
data_Cu(NiC4)3
_symmetry_space_group_name_H-M   'P 1'
_cell_length_a   7.04099400
_cell_length_b   7.81925390
_cell_length_c   8.66897241
_cell_angle_alpha   73.73011374
_cell_angle_beta   73.58332162
_cell_angle_gamma   82.56454930
_symmetry_Int_Tables_number   1
_chemical_formula_structural   Cu(NiC4)3
_chemical_formula_sum   'Cu2 Ni6 C24'
_cell_volume   438.82683194
_cell_formula_units_Z   2
loop_
 _symmetry_equiv_pos_site_id
 _symmetry_equiv_pos_as_xyz
  1  'x, y, z'
loop_
 _atom_site_type_symbol
 _atom_site_label
 _atom_site_symmetry_multiplicity
 _atom_site_fract_x
 _atom_site_fract_y
 _atom_site_fract_z
 _atom_site_occupancy
  C  C0  1  0.78872100  0.28495700  0.46406400  1
  C  C1  1  0.21127900  0.71504300  0.53593600  1
  C  C2  1  0.77300600  0.36938600  0.98921900  1
  C  C3  1  0.22699400  0.63061400  0.01078100  1
  Ni  Ni4  1  0.67244000  0.69221200  0.15750700  1
  Ni  Ni5  1  0.32756000  0.30778800  0.84249300  1
  Ni  Ni6  1  0.85534700  0.96079200  0.86115000  1
  Ni  Ni7  1  0.14465300  0.03920800  0.13885000  1
  Ni  Ni8  1  0.67316600  0.76940200  0.68620300  1
  Ni  Ni9  1  0.32683400  0.23059800  0.31379700  1
  Cu  Cu10  1  0.68862300  0.80054400  0.42132600  1
  Cu  Cu11  1  0.31137700  0.19945600  0.57867400  1
  C  C12  1  0.58934800  0.70214800  0.33535000  1
  C  C13  1  0.41065200  0.29785200  0.66465000  1
  C  C14  1  0.53421200  0.62985000  0.07741100  1
  C  C15  1  0.46578800  0.37015000  0.92258900  1
  C  C16  1  0.86588100  0.57230500  0.12728100  1
  C  C17  1  0.13411900  0.42769500  0.87271900  1
  C  C18  1  0.72291000  0.89663900  0.04966900  1
  C  C19  1  0.27709000  0.10336100  0.95033100  1
  C  C20  1  0.95545000  0.15335500  0.16350900  1
  C  C21  1  0.04455000  0.84664500  0.83649100  1
  C  C22  1  0.86423000  0.15996800  0.82636900  1
  C  C23  1  0.13577000  0.84003200  0.17363100  1
  C  C24  1  0.72146100  0.93539400  0.74717200  1
  C  C25  1  0.27853900  0.06460600  0.25282800  1
  C  C26  1  0.54813800  0.25121300  0.25575800  1
  C  C27  1  0.45186200  0.74878700  0.74424200  1
  C  C28  1  0.80521800  0.60682500  0.74091200  1
  C  C29  1  0.19478200  0.39317500  0.25908800  1
  C  C30  1  0.74594400  0.85416000  0.49341300  1
  C  C31  1  0.25405600  0.14584000  0.50658700  1
