# generated using pymatgen
data_Cu6Ni2C3
_symmetry_space_group_name_H-M   'P 1'
_cell_length_a   6.04970200
_cell_length_b   9.73691100
_cell_length_c   15.75626844
_cell_angle_alpha   68.96668396
_cell_angle_beta   90.00000000
_cell_angle_gamma   90.00000000
_symmetry_Int_Tables_number   1
_chemical_formula_structural   Cu6Ni2C3
_chemical_formula_sum   'Cu24 Ni8 C12'
_cell_volume   866.28993741
_cell_formula_units_Z   4
loop_
 _symmetry_equiv_pos_site_id
 _symmetry_equiv_pos_as_xyz
  1  'x, y, z'
loop_
 _atom_site_type_symbol
 _atom_site_label
 _atom_site_symmetry_multiplicity
 _atom_site_fract_x
 _atom_site_fract_y
 _atom_site_fract_z
 _atom_site_occupancy
  C  C0  1  0.72110500  0.44627700  0.67984300  1
  C  C1  1  0.22110500  0.55372300  0.82015700  1
  C  C2  1  0.73506400  0.22378500  0.46810300  1
  C  C3  1  0.26493600  0.77621500  0.53189700  1
  C  C4  1  0.27889500  0.55372300  0.32015700  1
  C  C5  1  0.23506400  0.77621500  0.03189700  1
  C  C6  1  0.77889500  0.44627700  0.17984300  1
  C  C7  1  0.76493600  0.22378500  0.96810300  1
  C  C8  1  0.66890500  0.87321100  0.29703500  1
  C  C9  1  0.33109500  0.12678900  0.70296500  1
  C  C10  1  0.16890500  0.12678900  0.20296500  1
  C  C11  1  0.83109500  0.87321100  0.79703500  1
  Ni  Ni12  1  0.28963100  0.33936900  0.09034000  1
  Ni  Ni13  1  0.73978200  0.80788900  0.17266200  1
  Ni  Ni14  1  0.78963000  0.66063100  0.40966000  1
  Ni  Ni15  1  0.26021800  0.19211100  0.82733800  1
  Ni  Ni16  1  0.21036900  0.33936900  0.59034000  1
  Ni  Ni17  1  0.76021800  0.80788900  0.67266200  1
  Ni  Ni18  1  0.71036900  0.66063100  0.90966000  1
  Ni  Ni19  1  0.23978200  0.19211100  0.32733800  1
  Cu  Cu20  1  0.76518600  0.94957500  0.59723700  1
  Cu  Cu21  1  0.95600900  0.73311400  0.18655600  1
  Cu  Cu22  1  0.44286000  0.29147600  0.82991600  1
  Cu  Cu23  1  0.27193500  0.46081700  0.62051500  1
  Cu  Cu24  1  0.33466800  0.33394800  0.51157000  1
  Cu  Cu25  1  0.54399100  0.73311400  0.68655600  1
  Cu  Cu26  1  0.22806500  0.46081700  0.12051500  1
  Cu  Cu27  1  0.26518600  0.05042500  0.90276300  1
  Cu  Cu28  1  0.72806500  0.53918300  0.37948500  1
  Cu  Cu29  1  0.52985900  0.32587700  0.08178800  1
  Cu  Cu30  1  0.45600900  0.26688600  0.31344400  1
  Cu  Cu31  1  0.94286000  0.70852400  0.67008400  1
  Cu  Cu32  1  0.83466800  0.66605200  0.98843000  1
  Cu  Cu33  1  0.04399100  0.26688600  0.81344400  1
  Cu  Cu34  1  0.73481400  0.94957500  0.09723700  1
  Cu  Cu35  1  0.02985900  0.67412300  0.41821200  1
  Cu  Cu36  1  0.97014100  0.32587700  0.58178800  1
  Cu  Cu37  1  0.23481400  0.05042500  0.40276300  1
  Cu  Cu38  1  0.47014100  0.67412300  0.91821200  1
  Cu  Cu39  1  0.05714000  0.29147600  0.32991600  1
  Cu  Cu40  1  0.77193500  0.53918300  0.87948500  1
  Cu  Cu41  1  0.16533200  0.33394800  0.01157000  1
  Cu  Cu42  1  0.66533200  0.66605200  0.48843000  1
  Cu  Cu43  1  0.55714000  0.70852400  0.17008400  1
