# generated using pymatgen
data_CuNiC5
_symmetry_space_group_name_H-M   'P 1'
_cell_length_a   9.24189848
_cell_length_b   9.24189848
_cell_length_c   8.88308200
_cell_angle_alpha   90.00000000
_cell_angle_beta   90.00000000
_cell_angle_gamma   120.00000343
_symmetry_Int_Tables_number   1
_chemical_formula_structural   CuNiC5
_chemical_formula_sum   'Cu6 Ni6 C30'
_cell_volume   657.07761918
_cell_formula_units_Z   6
loop_
 _symmetry_equiv_pos_site_id
 _symmetry_equiv_pos_as_xyz
  1  'x, y, z'
loop_
 _atom_site_type_symbol
 _atom_site_label
 _atom_site_symmetry_multiplicity
 _atom_site_fract_x
 _atom_site_fract_y
 _atom_site_fract_z
 _atom_site_occupancy
  C  C0  1  0.66666700  0.33333300  0.73916700  1
  C  C1  1  0.00000000  0.00000000  0.24824000  1
  C  C2  1  0.33333300  0.66666700  0.23916700  1
  C  C3  1  0.33333300  0.66666700  0.73125600  1
  C  C4  1  0.00000000  0.00000000  0.74824000  1
  C  C5  1  0.66666700  0.33333300  0.23125600  1
  Ni  Ni6  1  0.67756700  0.66625300  0.53906000  1
  Ni  Ni7  1  0.01131400  0.67756700  0.03906000  1
  Ni  Ni8  1  0.98868600  0.32243300  0.53906000  1
  Ni  Ni9  1  0.33374700  0.01131400  0.53906000  1
  Ni  Ni10  1  0.66625300  0.98868600  0.03906000  1
  Ni  Ni11  1  0.32243300  0.33374700  0.03906000  1
  Cu  Cu12  1  0.32763200  0.33884700  0.43447600  1
  Cu  Cu13  1  0.01121500  0.67236800  0.43447600  1
  Cu  Cu14  1  0.66115300  0.98878500  0.43447600  1
  Cu  Cu15  1  0.98878500  0.32763200  0.93447600  1
  Cu  Cu16  1  0.67236800  0.66115300  0.93447600  1
  Cu  Cu17  1  0.33884700  0.01121500  0.93447600  1
  C  C18  1  0.65003000  0.94322900  0.25370600  1
  C  C19  1  0.53274500  0.09541400  0.99650100  1
  C  C20  1  0.09541400  0.56266900  0.49650100  1
  C  C21  1  0.76445700  0.90693800  0.51511900  1
  C  C22  1  0.19351100  0.43037500  0.95558400  1
  C  C23  1  0.46725500  0.90458600  0.49650100  1
  C  C24  1  0.29319900  0.34997000  0.25370600  1
  C  C25  1  0.56962500  0.76313700  0.95558400  1
  C  C26  1  0.56266900  0.46725500  0.99650100  1
  C  C27  1  0.94322900  0.29319900  0.75370600  1
  C  C28  1  0.70680100  0.65003000  0.75370600  1
  C  C29  1  0.80648900  0.56962500  0.45558400  1
  C  C30  1  0.90458600  0.43733100  0.99650100  1
  C  C31  1  0.23686300  0.80648900  0.95558400  1
  C  C32  1  0.43733100  0.53274500  0.49650100  1
  C  C33  1  0.14248000  0.23554300  0.51511900  1
  C  C34  1  0.23554300  0.09306200  0.01511900  1
  C  C35  1  0.85752000  0.76445700  0.01511900  1
  C  C36  1  0.90693800  0.14248000  0.01511900  1
  C  C37  1  0.05677100  0.70680100  0.25370600  1
  C  C38  1  0.43037500  0.23686300  0.45558400  1
  C  C39  1  0.76313700  0.19351100  0.45558400  1
  C  C40  1  0.09306200  0.85752000  0.51511900  1
  C  C41  1  0.34997000  0.05677100  0.75370600  1
