# generated using pymatgen
data_Cu7NiC5
_symmetry_space_group_name_H-M   'P 1'
_cell_length_a   8.61307400
_cell_length_b   8.61307800
_cell_length_c   11.02695700
_cell_angle_alpha   89.99999480
_cell_angle_beta   89.99998815
_cell_angle_gamma   90.00011974
_symmetry_Int_Tables_number   1
_chemical_formula_structural   Cu7NiC5
_chemical_formula_sum   'Cu28 Ni4 C20'
_cell_volume   818.03566715
_cell_formula_units_Z   4
loop_
 _symmetry_equiv_pos_site_id
 _symmetry_equiv_pos_as_xyz
  1  'x, y, z'
loop_
 _atom_site_type_symbol
 _atom_site_label
 _atom_site_symmetry_multiplicity
 _atom_site_fract_x
 _atom_site_fract_y
 _atom_site_fract_z
 _atom_site_occupancy
  C  C0  1  0.82947400  0.32947600  0.09001800  1
  C  C1  1  0.82947600  0.32947400  0.59001700  1
  C  C2  1  0.17052600  0.67052500  0.09001800  1
  C  C3  1  0.17052400  0.67052600  0.59001700  1
  C  C4  1  0.32947500  0.17052600  0.09001800  1
  C  C5  1  0.32947400  0.17052400  0.59001800  1
  C  C6  1  0.67052500  0.82947400  0.09001700  1
  C  C7  1  0.67052500  0.82947600  0.59001700  1
  C  C8  1  0.50000400  0.49999800  0.89752400  1
  C  C9  1  0.00000000  0.00000300  0.39752700  1
  C  C10  1  0.49999700  0.50000500  0.39753000  1
  C  C11  1  0.00000100  0.00000000  0.89752900  1
  C  C12  1  0.62942900  0.12942900  0.35107900  1
  C  C13  1  0.62942900  0.12942900  0.85107900  1
  C  C14  1  0.12942900  0.37057100  0.35107900  1
  C  C15  1  0.12942900  0.37057000  0.85107900  1
  C  C16  1  0.87057100  0.62942900  0.35107900  1
  C  C17  1  0.87057100  0.62942900  0.85107900  1
  C  C18  1  0.37057100  0.87057100  0.35107900  1
  C  C19  1  0.37057100  0.87057100  0.85107900  1
  Ni  Ni20  1  0.00000000  0.00000000  0.16461200  1
  Ni  Ni21  1  0.00000000  0.00000000  0.66461300  1
  Ni  Ni22  1  0.50000000  0.50000000  0.16461500  1
  Ni  Ni23  1  0.50000000  0.50000000  0.66461300  1
  Cu  Cu24  1  0.50000000  0.00000000  0.40575200  1
  Cu  Cu25  1  0.49999900  0.00000000  0.90575200  1
  Cu  Cu26  1  0.00000000  0.50000000  0.40575100  1
  Cu  Cu27  1  0.00000000  0.49999900  0.90575200  1
  Cu  Cu28  1  0.12949000  0.37051000  0.20524400  1
  Cu  Cu29  1  0.12949100  0.37050900  0.70524300  1
  Cu  Cu30  1  0.62949100  0.12949000  0.20524400  1
  Cu  Cu31  1  0.62949000  0.12949000  0.70524400  1
  Cu  Cu32  1  0.37050900  0.87051000  0.20524400  1
  Cu  Cu33  1  0.37050900  0.87050900  0.70524400  1
  Cu  Cu34  1  0.87050900  0.62949000  0.20524400  1
  Cu  Cu35  1  0.87050900  0.62949000  0.70524400  1
  Cu  Cu36  1  0.79204900  0.07949900  0.41942400  1
  Cu  Cu37  1  0.79205000  0.07949900  0.91942500  1
  Cu  Cu38  1  0.57949900  0.29204900  0.41942500  1
  Cu  Cu39  1  0.57949900  0.29205000  0.91942300  1
  Cu  Cu40  1  0.07949900  0.20795000  0.41942300  1
  Cu  Cu41  1  0.07949800  0.20795000  0.91942500  1
  Cu  Cu42  1  0.70795000  0.57949800  0.41942400  1
  Cu  Cu43  1  0.70794900  0.57949800  0.91942400  1
  Cu  Cu44  1  0.29204900  0.42050100  0.41942500  1
  Cu  Cu45  1  0.29205000  0.42050100  0.91942300  1
  Cu  Cu46  1  0.42050200  0.70795000  0.41942500  1
  Cu  Cu47  1  0.42050200  0.70795000  0.91942300  1
  Cu  Cu48  1  0.20795100  0.92050100  0.41942300  1
  Cu  Cu49  1  0.20795000  0.92050100  0.91942500  1
  Cu  Cu50  1  0.92050200  0.79204900  0.41942400  1
  Cu  Cu51  1  0.92050000  0.79205000  0.91942600  1
