# generated using pymatgen
data_Cu(NiC)3
_symmetry_space_group_name_H-M   'P 1'
_cell_length_a   8.10155574
_cell_length_b   8.10155574
_cell_length_c   8.10155574
_cell_angle_alpha   60.00000000
_cell_angle_beta   60.00000000
_cell_angle_gamma   60.00000000
_symmetry_Int_Tables_number   1
_chemical_formula_structural   Cu(NiC)3
_chemical_formula_sum   'Cu4 Ni12 C12'
_cell_volume   376.00210374
_cell_formula_units_Z   4
loop_
 _symmetry_equiv_pos_site_id
 _symmetry_equiv_pos_as_xyz
  1  'x, y, z'
loop_
 _atom_site_type_symbol
 _atom_site_label
 _atom_site_symmetry_multiplicity
 _atom_site_fract_x
 _atom_site_fract_y
 _atom_site_fract_z
 _atom_site_occupancy
  Ni  Ni0  1  0.93896200  0.93896200  0.56103800  1
  Ni  Ni1  1  0.68896200  0.31103800  0.31103800  1
  Ni  Ni2  1  0.31103800  0.68896200  0.68896200  1
  Ni  Ni3  1  0.68896200  0.68896200  0.31103800  1
  Ni  Ni4  1  0.68896200  0.31103800  0.68896200  1
  Ni  Ni5  1  0.31103800  0.68896200  0.31103800  1
  Ni  Ni6  1  0.56103800  0.93896200  0.56103800  1
  Ni  Ni7  1  0.56103800  0.93896200  0.93896200  1
  Ni  Ni8  1  0.93896200  0.56103800  0.56103800  1
  Ni  Ni9  1  0.93896200  0.56103800  0.93896200  1
  Ni  Ni10  1  0.31103800  0.31103800  0.68896200  1
  Ni  Ni11  1  0.56103800  0.56103800  0.93896200  1
  C  C12  1  0.91709800  0.24870700  0.91709800  1
  C  C13  1  0.33290200  0.33290200  0.00129300  1
  C  C14  1  0.00129300  0.33290200  0.33290200  1
  C  C15  1  0.33290200  0.33290200  0.33290200  1
  C  C16  1  0.24870700  0.91709800  0.91709800  1
  C  C17  1  0.91709800  0.91709800  0.91709800  1
  C  C18  1  0.91709800  0.91709800  0.24870700  1
  C  C19  1  0.33290200  0.00129300  0.33290200  1
  Cu  Cu20  1  0.12500000  0.62500000  0.12500000  1
  Cu  Cu21  1  0.12500000  0.12500000  0.62500000  1
  Cu  Cu22  1  0.62500000  0.12500000  0.12500000  1
  Cu  Cu23  1  0.12500000  0.12500000  0.12500000  1
  C  C24  1  0.62500000  0.12500000  0.62500000  1
  C  C25  1  0.62500000  0.62500000  0.12500000  1
  C  C26  1  0.12500000  0.62500000  0.62500000  1
  C  C27  1  0.62500000  0.62500000  0.62500000  1
