# generated using pymatgen
data_Cu6NiC6
_symmetry_space_group_name_H-M   'P 1'
_cell_length_a   12.60898300
_cell_length_b   12.60898300
_cell_length_c   12.60898300
_cell_angle_alpha   90.00000000
_cell_angle_beta   90.00000000
_cell_angle_gamma   90.00000000
_symmetry_Int_Tables_number   1
_chemical_formula_structural   Cu6NiC6
_chemical_formula_sum   'Cu48 Ni8 C48'
_cell_volume   2004.65747421
_cell_formula_units_Z   8
loop_
 _symmetry_equiv_pos_site_id
 _symmetry_equiv_pos_as_xyz
  1  'x, y, z'
loop_
 _atom_site_type_symbol
 _atom_site_label
 _atom_site_symmetry_multiplicity
 _atom_site_fract_x
 _atom_site_fract_y
 _atom_site_fract_z
 _atom_site_occupancy
  Ni  Ni0  1  0.63289800  0.63289800  0.63289800  1
  Ni  Ni1  1  0.63289800  0.86710200  0.13289800  1
  Ni  Ni2  1  0.13289800  0.86710200  0.36710200  1
  Ni  Ni3  1  0.86710200  0.36710200  0.13289800  1
  Ni  Ni4  1  0.36710200  0.36710200  0.36710200  1
  Ni  Ni5  1  0.13289800  0.63289800  0.86710200  1
  Ni  Ni6  1  0.86710200  0.13289800  0.63289800  1
  Ni  Ni7  1  0.36710200  0.13289800  0.86710200  1
  Cu  Cu8  1  0.90691500  0.07188000  0.06525900  1
  Cu  Cu9  1  0.12948300  0.47285200  0.53042000  1
  Cu  Cu10  1  0.42812000  0.56525900  0.90691500  1
  Cu  Cu11  1  0.07188000  0.06525900  0.90691500  1
  Cu  Cu12  1  0.40691500  0.07188000  0.43474100  1
  Cu  Cu13  1  0.59308500  0.92812000  0.56525900  1
  Cu  Cu14  1  0.02714800  0.03042000  0.12948300  1
  Cu  Cu15  1  0.03042000  0.12948300  0.02714800  1
  Cu  Cu16  1  0.57188000  0.06525900  0.59308500  1
  Cu  Cu17  1  0.47285200  0.53042000  0.12948300  1
  Cu  Cu18  1  0.92812000  0.56525900  0.59308500  1
  Cu  Cu19  1  0.42812000  0.93474100  0.40691500  1
  Cu  Cu20  1  0.46958000  0.62948300  0.02714800  1
  Cu  Cu21  1  0.46958000  0.87051700  0.52714800  1
  Cu  Cu22  1  0.93474100  0.40691500  0.42812000  1
  Cu  Cu23  1  0.09308500  0.92812000  0.93474100  1
  Cu  Cu24  1  0.06525900  0.59308500  0.57188000  1
  Cu  Cu25  1  0.07188000  0.43474100  0.40691500  1
  Cu  Cu26  1  0.09308500  0.57188000  0.43474100  1
  Cu  Cu27  1  0.62948300  0.02714800  0.46958000  1
  Cu  Cu28  1  0.53042000  0.37051700  0.97285200  1
  Cu  Cu29  1  0.06525900  0.90691500  0.07188000  1
  Cu  Cu30  1  0.52714800  0.03042000  0.37051700  1
  Cu  Cu31  1  0.90691500  0.42812000  0.56525900  1
  Cu  Cu32  1  0.03042000  0.37051700  0.52714800  1
  Cu  Cu33  1  0.92812000  0.93474100  0.09308500  1
  Cu  Cu34  1  0.62948300  0.47285200  0.96958000  1
  Cu  Cu35  1  0.97285200  0.53042000  0.37051700  1
  Cu  Cu36  1  0.87051700  0.52714800  0.46958000  1
  Cu  Cu37  1  0.40691500  0.42812000  0.93474100  1
  Cu  Cu38  1  0.02714800  0.46958000  0.62948300  1
  Cu  Cu39  1  0.59308500  0.57188000  0.06525900  1
  Cu  Cu40  1  0.56525900  0.59308500  0.92812000  1
  Cu  Cu41  1  0.43474100  0.40691500  0.07188000  1
  Cu  Cu42  1  0.56525900  0.90691500  0.42812000  1
  Cu  Cu43  1  0.97285200  0.96958000  0.87051700  1
  Cu  Cu44  1  0.37051700  0.52714800  0.03042000  1
  Cu  Cu45  1  0.96958000  0.62948300  0.47285200  1
  Cu  Cu46  1  0.52714800  0.46958000  0.87051700  1
  Cu  Cu47  1  0.43474100  0.09308500  0.57188000  1
  Cu  Cu48  1  0.96958000  0.87051700  0.97285200  1
  Cu  Cu49  1  0.12948300  0.02714800  0.03042000  1
  Cu  Cu50  1  0.87051700  0.97285200  0.96958000  1
  Cu  Cu51  1  0.57188000  0.43474100  0.09308500  1
  Cu  Cu52  1  0.93474100  0.09308500  0.92812000  1
  Cu  Cu53  1  0.37051700  0.97285200  0.53042000  1
  Cu  Cu54  1  0.53042000  0.12948300  0.47285200  1
  Cu  Cu55  1  0.47285200  0.96958000  0.62948300  1
  C  C56  1  0.80657100  0.14756200  0.13128100  1
  C  C57  1  0.73259500  0.55333500  0.44304600  1
  C  C58  1  0.64756200  0.36871900  0.19342900  1
  C  C59  1  0.05695400  0.23259500  0.55333500  1
  C  C60  1  0.94666500  0.55695400  0.23259500  1
  C  C61  1  0.55333500  0.44304600  0.73259500  1
  C  C62  1  0.55695400  0.23259500  0.94666500  1
  C  C63  1  0.05695400  0.26740500  0.05333500  1
  C  C64  1  0.44304600  0.73259500  0.55333500  1
  C  C65  1  0.94304600  0.76740500  0.44666500  1
  C  C66  1  0.19342900  0.64756200  0.36871900  1
  C  C67  1  0.85243800  0.86871900  0.19342900  1
  C  C68  1  0.44666500  0.55695400  0.26740500  1
  C  C69  1  0.05333500  0.44304600  0.76740500  1
  C  C70  1  0.44666500  0.94304600  0.76740500  1
  C  C71  1  0.94666500  0.94304600  0.73259500  1
  C  C72  1  0.36871900  0.30657100  0.14756200  1
  C  C73  1  0.13128100  0.69342900  0.64756200  1
  C  C74  1  0.13128100  0.80657100  0.14756200  1
  C  C75  1  0.63128100  0.69342900  0.85243800  1
  C  C76  1  0.35243800  0.63128100  0.80657100  1
  C  C77  1  0.30657100  0.14756200  0.36871900  1
  C  C78  1  0.23259500  0.94666500  0.55695400  1
  C  C79  1  0.69342900  0.64756200  0.13128100  1
  C  C80  1  0.14756200  0.36871900  0.30657100  1
  C  C81  1  0.35243800  0.86871900  0.30657100  1
  C  C82  1  0.44304600  0.76740500  0.05333500  1
  C  C83  1  0.85243800  0.63128100  0.69342900  1
  C  C84  1  0.55333500  0.05695400  0.23259500  1
  C  C85  1  0.64756200  0.13128100  0.69342900  1
  C  C86  1  0.86871900  0.19342900  0.85243800  1
  C  C87  1  0.26740500  0.05333500  0.05695400  1
  C  C88  1  0.30657100  0.35243800  0.86871900  1
  C  C89  1  0.19342900  0.85243800  0.86871900  1
  C  C90  1  0.69342900  0.85243800  0.63128100  1
  C  C91  1  0.26740500  0.44666500  0.55695400  1
  C  C92  1  0.63128100  0.80657100  0.35243800  1
  C  C93  1  0.86871900  0.30657100  0.35243800  1
  C  C94  1  0.36871900  0.19342900  0.64756200  1
  C  C95  1  0.94304600  0.73259500  0.94666500  1
  C  C96  1  0.05333500  0.05695400  0.26740500  1
  C  C97  1  0.80657100  0.35243800  0.63128100  1
  C  C98  1  0.14756200  0.13128100  0.80657100  1
  C  C99  1  0.76740500  0.05333500  0.44304600  1
  C  C100  1  0.76740500  0.44666500  0.94304600  1
  C  C101  1  0.55695400  0.26740500  0.44666500  1
  C  C102  1  0.23259500  0.55333500  0.05695400  1
  C  C103  1  0.73259500  0.94666500  0.94304600  1
