# generated using pymatgen
data_Cu28Ni4C19
_symmetry_space_group_name_H-M   'P 1'
_cell_length_a   12.90929212
_cell_length_b   12.90929212
_cell_length_c   12.90929212
_cell_angle_alpha   120.26954390
_cell_angle_beta   120.26954390
_cell_angle_gamma   89.53376687
_symmetry_Int_Tables_number   1
_chemical_formula_structural   Cu28Ni4C19
_chemical_formula_sum   'Cu56 Ni8 C38'
_cell_volume   1514.96886173
_cell_formula_units_Z   2
loop_
 _symmetry_equiv_pos_site_id
 _symmetry_equiv_pos_as_xyz
  1  'x, y, z'
loop_
 _atom_site_type_symbol
 _atom_site_label
 _atom_site_symmetry_multiplicity
 _atom_site_fract_x
 _atom_site_fract_y
 _atom_site_fract_z
 _atom_site_occupancy
  C  C0  1  0.00000000  0.00000000  0.00000000  1
  C  C1  1  0.75000000  0.25000000  0.50000000  1
  C  C2  1  0.50197800  0.00197800  0.50000000  1
  C  C3  1  0.24802200  0.24802200  0.00000000  1
  C  C4  1  0.99802200  0.49802200  0.50000000  1
  C  C5  1  0.75197800  0.75197800  0.00000000  1
  C  C6  1  0.62636500  0.27411500  0.00479700  1
  C  C7  1  0.52758600  0.03010400  0.16468600  1
  C  C8  1  0.88458200  0.88710000  0.66468600  1
  C  C9  1  0.86541800  0.36290000  0.83531400  1
  C  C10  1  0.37843200  0.37363500  0.64775000  1
  C  C11  1  0.02411500  0.51931800  0.14775000  1
  C  C12  1  0.22241400  0.21989600  0.33531400  1
  C  C13  1  0.26931800  0.62156800  0.99520300  1
  C  C14  1  0.72588500  0.73068200  0.35225000  1
  C  C15  1  0.12363500  0.97588500  0.49520300  1
  C  C16  1  0.48068200  0.62843200  0.50479700  1
  C  C17  1  0.96989600  0.13458200  0.49748200  1
  C  C18  1  0.78010400  0.11541800  0.00251800  1
  C  C19  1  0.37156800  0.87636500  0.85225000  1
  C  C20  1  0.63710000  0.47241400  0.50251800  1
  C  C21  1  0.11290000  0.77758600  0.99748200  1
  C  C22  1  0.01250200  0.01669300  0.49428800  1
  C  C23  1  0.73749800  0.23330700  0.00571200  1
  C  C24  1  0.63736400  0.14115400  0.28353200  1
  C  C25  1  0.85762300  0.35383200  0.71646800  1
  C  C26  1  0.22759600  0.73178700  0.99428800  1
  C  C27  1  0.26821300  0.26250200  0.49580900  1
  C  C28  1  0.89237700  0.89616800  0.78353200  1
  C  C29  1  0.85884600  0.14237700  0.49621000  1
  C  C30  1  0.76669300  0.77240400  0.50419100  1
  C  C31  1  0.89115400  0.10762300  0.00379000  1
  C  C32  1  0.64616800  0.36263600  0.50379000  1
  C  C33  1  0.48178700  0.98749800  0.00419100  1
  C  C34  1  0.11263600  0.10884600  0.21646800  1
  C  C35  1  0.98330700  0.47759600  0.99580900  1
  C  C36  1  0.10383200  0.88736400  0.99621000  1
  C  C37  1  0.52240400  0.51821300  0.50571200  1
  Ni  Ni38  1  0.35780000  0.86683900  0.73227400  1
  Ni  Ni39  1  0.37447400  0.64220000  0.50903900  1
  Ni  Ni40  1  0.61543400  0.62447400  0.23227400  1
  Ni  Ni41  1  0.13316100  0.86543400  0.49096100  1
  Ni  Ni42  1  0.61683900  0.38456600  0.00903900  1
  Ni  Ni43  1  0.39220000  0.38316100  0.76772600  1
  Ni  Ni44  1  0.13456600  0.62552600  0.26772600  1
  Ni  Ni45  1  0.37552600  0.60780000  0.99096100  1
  Cu  Cu46  1  0.39913200  0.02544500  0.15364800  1
  Cu  Cu47  1  0.46232100  0.62476400  0.37390100  1
  Cu  Cu48  1  0.15548900  0.49503900  0.87291100  1
  Cu  Cu49  1  0.09962300  0.25087000  0.62760000  1
  Cu  Cu50  1  0.87179700  0.24548400  0.84635200  1
  Cu  Cu51  1  0.97455500  0.12820300  0.37368700  1
  Cu  Cu52  1  0.84966700  0.84966700  0.00000000  1
  Cu  Cu53  1  0.89111000  0.75256500  0.13837100  1
  Cu  Cu54  1  0.50496100  0.37787200  0.66045000  1
  Cu  Cu55  1  0.10947800  0.24757000  0.86228600  1
  Cu  Cu56  1  0.65540500  0.65540500  0.00000000  1
  Cu  Cu57  1  0.15033300  0.15033300  0.00000000  1
  Cu  Cu58  1  0.36471600  0.00280800  0.36228600  1
  Cu  Cu59  1  0.65037700  0.99913000  0.87240000  1
  Cu  Cu60  1  0.91158000  0.53767900  0.16244300  1
  Cu  Cu61  1  0.12673000  0.77797600  0.12760000  1
  Cu  Cu62  1  0.13580600  0.49726100  0.63837100  1
  Cu  Cu63  1  0.99548400  0.64913200  0.87368700  1
  Cu  Cu64  1  0.62327000  0.47202400  0.37240000  1
  Cu  Cu65  1  0.61419400  0.75273900  0.86162900  1
  Cu  Cu66  1  0.22202400  0.34962300  0.34875300  1
  Cu  Cu67  1  0.59966700  0.09966700  0.50000000  1
  Cu  Cu68  1  0.50273900  0.14111000  0.63854500  1
  Cu  Cu69  1  0.59451100  0.75496100  0.62708900  1
  Cu  Cu70  1  0.37523600  0.74913700  0.83755700  1
  Cu  Cu71  1  0.25086300  0.08842000  0.62609900  1
  Cu  Cu72  1  0.24503900  0.87212800  0.83955000  1
  Cu  Cu73  1  0.87820300  0.00451600  0.65364800  1
  Cu  Cu74  1  0.75451600  0.60086800  0.62631300  1
  Cu  Cu75  1  0.52797600  0.90037700  0.15124700  1
  Cu  Cu76  1  0.71742200  0.84451100  0.33955000  1
  Cu  Cu77  1  0.90033300  0.40033300  0.50000000  1
  Cu  Cu78  1  0.37476400  0.50086300  0.66244300  1
  Cu  Cu79  1  0.50256500  0.86419400  0.36145500  1
  Cu  Cu80  1  0.77544500  0.12179700  0.12631300  1
  Cu  Cu81  1  0.64052200  0.00243000  0.63771400  1
  Cu  Cu82  1  0.03257800  0.40548900  0.16045000  1
  Cu  Cu83  1  0.83842000  0.71232100  0.33755700  1
  Cu  Cu84  1  0.28767900  0.62523600  0.12609900  1
  Cu  Cu85  1  0.74913000  0.37673000  0.84875300  1
  Cu  Cu86  1  0.24726100  0.10889000  0.86145500  1
  Cu  Cu87  1  0.34459500  0.34459500  0.00000000  1
  Cu  Cu88  1  0.38528400  0.24719200  0.13771400  1
  Cu  Cu89  1  0.75243000  0.61471600  0.86190800  1
  Cu  Cu90  1  0.40540500  0.90540500  0.50000000  1
  Cu  Cu91  1  0.85889000  0.49743500  0.36162900  1
  Cu  Cu92  1  0.00087000  0.87327000  0.65124700  1
  Cu  Cu93  1  0.62212800  0.28257800  0.12708900  1
  Cu  Cu94  1  0.99757000  0.63528400  0.63809200  1
  Cu  Cu95  1  0.35086800  0.22455500  0.34635200  1
  Cu  Cu96  1  0.12787200  0.96742200  0.37291100  1
  Cu  Cu97  1  0.99719200  0.35947800  0.36190800  1
  Cu  Cu98  1  0.24743500  0.38580600  0.13854500  1
  Cu  Cu99  1  0.09459500  0.59459500  0.50000000  1
  Cu  Cu100  1  0.49913700  0.16158000  0.87390100  1
  Cu  Cu101  1  0.75280800  0.89052200  0.13809200  1
