# generated using pymatgen
data_CuNiC2
_symmetry_space_group_name_H-M   'P 1'
_cell_length_a   7.56711700
_cell_length_b   7.59395100
_cell_length_c   12.70286100
_cell_angle_alpha   90.00000000
_cell_angle_beta   90.00000000
_cell_angle_gamma   90.00000000
_symmetry_Int_Tables_number   1
_chemical_formula_structural   CuNiC2
_chemical_formula_sum   'Cu8 Ni8 C16'
_cell_volume   729.96121491
_cell_formula_units_Z   8
loop_
 _symmetry_equiv_pos_site_id
 _symmetry_equiv_pos_as_xyz
  1  'x, y, z'
loop_
 _atom_site_type_symbol
 _atom_site_label
 _atom_site_symmetry_multiplicity
 _atom_site_fract_x
 _atom_site_fract_y
 _atom_site_fract_z
 _atom_site_occupancy
  C  C0  1  0.52239900  0.24052300  0.06837100  1
  C  C1  1  0.02239900  0.25947700  0.93162900  1
  C  C2  1  0.47760100  0.75947700  0.93162900  1
  C  C3  1  0.47760100  0.74052300  0.43162900  1
  C  C4  1  0.97760100  0.74052300  0.06837100  1
  C  C5  1  0.52239900  0.25947700  0.56837100  1
  C  C6  1  0.02239900  0.24052300  0.43162900  1
  C  C7  1  0.97760100  0.75947700  0.56837100  1
  C  C8  1  0.16945500  0.07118200  0.20922100  1
  C  C9  1  0.66945500  0.07118200  0.29077900  1
  C  C10  1  0.16945500  0.42881800  0.70922100  1
  C  C11  1  0.33054500  0.57118200  0.20922100  1
  C  C12  1  0.83054500  0.57118200  0.29077900  1
  C  C13  1  0.33054500  0.92881800  0.70922100  1
  C  C14  1  0.66945500  0.42881800  0.79077900  1
  C  C15  1  0.83054500  0.92881800  0.79077900  1
  Ni  Ni16  1  0.89073900  0.22202100  0.69273500  1
  Ni  Ni17  1  0.60926100  0.77797900  0.19273500  1
  Ni  Ni18  1  0.60926100  0.72202100  0.69273500  1
  Ni  Ni19  1  0.10926100  0.77797900  0.30726500  1
  Ni  Ni20  1  0.10926100  0.72202100  0.80726500  1
  Ni  Ni21  1  0.39073900  0.22202100  0.80726500  1
  Ni  Ni22  1  0.89073900  0.27797900  0.19273500  1
  Ni  Ni23  1  0.39073900  0.27797900  0.30726500  1
  Cu  Cu24  1  0.75989500  0.99798200  0.96175800  1
  Cu  Cu25  1  0.25989500  0.99798200  0.53824200  1
  Cu  Cu26  1  0.74010500  0.00201800  0.46175800  1
  Cu  Cu27  1  0.75989500  0.50201800  0.46175800  1
  Cu  Cu28  1  0.24010500  0.00201800  0.03824200  1
  Cu  Cu29  1  0.74010500  0.49798200  0.96175800  1
  Cu  Cu30  1  0.25989500  0.50201800  0.03824200  1
  Cu  Cu31  1  0.24010500  0.49798200  0.53824200  1
