# generated using pymatgen
data_CuNi3C23
_symmetry_space_group_name_H-M   'P 1'
_cell_length_a   10.75703698
_cell_length_b   10.75703698
_cell_length_c   8.52095100
_cell_angle_alpha   90.00000000
_cell_angle_beta   90.00000000
_cell_angle_gamma   119.99999373
_symmetry_Int_Tables_number   1
_chemical_formula_structural   CuNi3C23
_chemical_formula_sum   'Cu2 Ni6 C46'
_cell_volume   853.89417373
_cell_formula_units_Z   2
loop_
 _symmetry_equiv_pos_site_id
 _symmetry_equiv_pos_as_xyz
  1  'x, y, z'
loop_
 _atom_site_type_symbol
 _atom_site_label
 _atom_site_symmetry_multiplicity
 _atom_site_fract_x
 _atom_site_fract_y
 _atom_site_fract_z
 _atom_site_occupancy
  C  C0  1  0.58462700  0.72246200  0.25000000  1
  C  C1  1  0.86216500  0.58462700  0.75000000  1
  C  C2  1  0.41537300  0.27753800  0.75000000  1
  C  C3  1  0.13783500  0.41537300  0.25000000  1
  C  C4  1  0.27753800  0.86216500  0.25000000  1
  C  C5  1  0.72246200  0.13783500  0.75000000  1
  Ni  Ni6  1  0.16267800  0.43391500  0.75000000  1
  Ni  Ni7  1  0.56608500  0.72876300  0.75000000  1
  Ni  Ni8  1  0.83732200  0.56608500  0.25000000  1
  Ni  Ni9  1  0.72876300  0.16267800  0.25000000  1
  Ni  Ni10  1  0.27123700  0.83732200  0.75000000  1
  Ni  Ni11  1  0.43391500  0.27123700  0.25000000  1
  Cu  Cu12  1  0.00000000  0.00000000  0.25000000  1
  Cu  Cu13  1  0.00000000  0.00000000  0.75000000  1
  C  C14  1  0.36653000  0.55013500  0.25000000  1
  C  C15  1  0.72018900  0.14541700  0.98776100  1
  C  C16  1  0.76500000  0.96500700  0.75000000  1
  C  C17  1  0.77536400  0.71943400  0.75000000  1
  C  C18  1  0.00000000  0.00000000  0.00000000  1
  C  C19  1  0.20000600  0.23500000  0.75000000  1
  C  C20  1  0.03499300  0.79999400  0.75000000  1
  C  C21  1  0.05593000  0.77536400  0.25000000  1
  C  C22  1  0.27981100  0.85458300  0.48776100  1
  C  C23  1  0.14541700  0.42522800  0.48776100  1
  C  C24  1  0.63347000  0.44986500  0.75000000  1
  C  C25  1  0.94069800  0.41313800  0.25000000  1
  C  C26  1  0.79999400  0.76500000  0.25000000  1
  C  C27  1  0.85458300  0.57477200  0.98776100  1
  C  C28  1  0.57477200  0.72018900  0.01223900  1
  C  C29  1  0.23500000  0.03499300  0.25000000  1
  C  C30  1  0.71943400  0.94407000  0.25000000  1
  C  C31  1  0.81639500  0.36653000  0.75000000  1
  C  C32  1  0.22463600  0.28056600  0.25000000  1
  C  C33  1  0.47244000  0.05930200  0.25000000  1
  C  C34  1  0.27981100  0.85458300  0.01223900  1
  C  C35  1  0.52756000  0.94069800  0.75000000  1
  C  C36  1  0.42522800  0.27981100  0.98776100  1
  C  C37  1  0.41313800  0.47244000  0.75000000  1
  C  C38  1  0.14541700  0.42522800  0.01223900  1
  C  C39  1  0.72018900  0.14541700  0.51223900  1
  C  C40  1  0.28056600  0.05593000  0.75000000  1
  C  C41  1  0.85458300  0.57477200  0.51223900  1
  C  C42  1  0.05930200  0.58686200  0.75000000  1
  C  C43  1  0.44986500  0.81639500  0.25000000  1
  C  C44  1  0.00000000  0.00000000  0.50000000  1
  C  C45  1  0.58686200  0.52756000  0.25000000  1
  C  C46  1  0.55013500  0.18360500  0.75000000  1
  C  C47  1  0.94407000  0.22463600  0.75000000  1
  C  C48  1  0.42522800  0.27981100  0.51223900  1
  C  C49  1  0.66666700  0.33333300  0.25000000  1
  C  C50  1  0.96500700  0.20000600  0.25000000  1
  C  C51  1  0.57477200  0.72018900  0.48776100  1
  C  C52  1  0.18360500  0.63347000  0.25000000  1
  C  C53  1  0.33333300  0.66666700  0.75000000  1
