# generated using pymatgen
data_Cu2NiC10
_symmetry_space_group_name_H-M   'P 1'
_cell_length_a   8.98554100
_cell_length_b   8.98554100
_cell_length_c   8.87724000
_cell_angle_alpha   90.00000000
_cell_angle_beta   90.00000000
_cell_angle_gamma   90.00000000
_symmetry_Int_Tables_number   1
_chemical_formula_structural   Cu2NiC10
_chemical_formula_sum   'Cu8 Ni4 C40'
_cell_volume   716.74788766
_cell_formula_units_Z   4
loop_
 _symmetry_equiv_pos_site_id
 _symmetry_equiv_pos_as_xyz
  1  'x, y, z'
loop_
 _atom_site_type_symbol
 _atom_site_label
 _atom_site_symmetry_multiplicity
 _atom_site_fract_x
 _atom_site_fract_y
 _atom_site_fract_z
 _atom_site_occupancy
  Ni  Ni0  1  0.00000000  0.00000000  0.00000000  1
  Ni  Ni1  1  0.50000000  0.50000000  0.00000000  1
  Ni  Ni2  1  0.50000000  0.50000000  0.50000000  1
  Ni  Ni3  1  0.00000000  0.00000000  0.50000000  1
  C  C4  1  0.50000000  0.00000000  0.81837200  1
  C  C5  1  0.50000000  0.00000000  0.31837200  1
  C  C6  1  0.00000000  0.50000000  0.68162800  1
  C  C7  1  0.00000000  0.50000000  0.18162800  1
  Cu  Cu8  1  0.68199100  0.31800900  0.75000000  1
  Cu  Cu9  1  0.68199100  0.68199100  0.25000000  1
  Cu  Cu10  1  0.81800900  0.81800900  0.75000000  1
  Cu  Cu11  1  0.81800900  0.18199100  0.25000000  1
  Cu  Cu12  1  0.18199100  0.18199100  0.75000000  1
  Cu  Cu13  1  0.18199100  0.81800900  0.25000000  1
  Cu  Cu14  1  0.31800900  0.68199100  0.75000000  1
  Cu  Cu15  1  0.31800900  0.31800900  0.25000000  1
  C  C16  1  0.60152200  0.37391100  0.60877700  1
  C  C17  1  0.50000000  0.00000000  0.01085600  1
  C  C18  1  0.87391100  0.10152200  0.10877700  1
  C  C19  1  0.37391100  0.39847800  0.39122300  1
  C  C20  1  0.83854200  0.64753300  0.73315800  1
  C  C21  1  0.66145800  0.85246700  0.26684200  1
  C  C22  1  0.16145800  0.64753300  0.23315800  1
  C  C23  1  0.00000000  0.50000000  0.98914400  1
  C  C24  1  0.89847800  0.87391100  0.89122300  1
  C  C25  1  0.16145800  0.35246700  0.73315800  1
  C  C26  1  0.62608900  0.39847800  0.89122300  1
  C  C27  1  0.89847800  0.12608900  0.39122300  1
  C  C28  1  0.50000000  0.00000000  0.51085600  1
  C  C29  1  0.37391100  0.60152200  0.89122300  1
  C  C30  1  0.66145800  0.14753300  0.76684200  1
  C  C31  1  0.33854200  0.85246700  0.76684200  1
  C  C32  1  0.87391100  0.89847800  0.60877700  1
  C  C33  1  0.62608900  0.60152200  0.39122300  1
  C  C34  1  0.10152200  0.12608900  0.89122300  1
  C  C35  1  0.64753300  0.83854200  0.76684200  1
  C  C36  1  0.00000000  0.50000000  0.48914400  1
  C  C37  1  0.14753300  0.66145800  0.73315800  1
  C  C38  1  0.33854200  0.14753300  0.26684200  1
  C  C39  1  0.85246700  0.33854200  0.73315800  1
  C  C40  1  0.35246700  0.83854200  0.26684200  1
  C  C41  1  0.10152200  0.87391100  0.39122300  1
  C  C42  1  0.12608900  0.10152200  0.60877700  1
  C  C43  1  0.39847800  0.37391100  0.10877700  1
  C  C44  1  0.64753300  0.16145800  0.26684200  1
  C  C45  1  0.12608900  0.89847800  0.10877700  1
  C  C46  1  0.85246700  0.66145800  0.23315800  1
  C  C47  1  0.60152200  0.62608900  0.10877700  1
  C  C48  1  0.14753300  0.33854200  0.23315800  1
  C  C49  1  0.83854200  0.35246700  0.23315800  1
  C  C50  1  0.39847800  0.62608900  0.60877700  1
  C  C51  1  0.35246700  0.16145800  0.76684200  1
