# generated using pymatgen
data_CuNiC14
_symmetry_space_group_name_H-M   'P 1'
_cell_length_a   7.63273800
_cell_length_b   9.02345400
_cell_length_c   17.74263200
_cell_angle_alpha   90.00000000
_cell_angle_beta   90.00000000
_cell_angle_gamma   90.00000000
_symmetry_Int_Tables_number   1
_chemical_formula_structural   CuNiC14
_chemical_formula_sum   'Cu8 Ni8 C112'
_cell_volume   1222.00000808
_cell_formula_units_Z   8
loop_
 _symmetry_equiv_pos_site_id
 _symmetry_equiv_pos_as_xyz
  1  'x, y, z'
loop_
 _atom_site_type_symbol
 _atom_site_label
 _atom_site_symmetry_multiplicity
 _atom_site_fract_x
 _atom_site_fract_y
 _atom_site_fract_z
 _atom_site_occupancy
  Ni  Ni0  1  0.27929600  0.30828200  0.31171100  1
  Ni  Ni1  1  0.77929600  0.19171800  0.68828900  1
  Ni  Ni2  1  0.72070400  0.80828200  0.18828900  1
  Ni  Ni3  1  0.22070400  0.69171800  0.81171100  1
  Ni  Ni4  1  0.72070400  0.69171800  0.68828900  1
  Ni  Ni5  1  0.22070400  0.80828200  0.31171100  1
  Ni  Ni6  1  0.27929600  0.19171800  0.81171100  1
  Ni  Ni7  1  0.77929600  0.30828200  0.18828900  1
  C  C8  1  0.01134600  0.39241300  0.29397100  1
  C  C9  1  0.51134600  0.10758700  0.70602900  1
  C  C10  1  0.98865400  0.89241300  0.20602900  1
  C  C11  1  0.48865400  0.60758700  0.79397100  1
  C  C12  1  0.98865400  0.60758700  0.70602900  1
  C  C13  1  0.48865400  0.89241300  0.29397100  1
  C  C14  1  0.01134600  0.10758700  0.79397100  1
  C  C15  1  0.51134600  0.39241300  0.20602900  1
  C  C16  1  0.80740900  0.41223600  0.54979900  1
  C  C17  1  0.30740900  0.08776400  0.45020100  1
  C  C18  1  0.19259100  0.91223600  0.95020100  1
  C  C19  1  0.69259100  0.58776400  0.04979900  1
  C  C20  1  0.19259100  0.58776400  0.45020100  1
  C  C21  1  0.69259100  0.91223600  0.54979900  1
  C  C22  1  0.80740900  0.08776400  0.04979900  1
  C  C23  1  0.30740900  0.41223600  0.95020100  1
  C  C24  1  0.82256600  0.59281600  0.51210100  1
  C  C25  1  0.32256600  0.90718400  0.48789900  1
  C  C26  1  0.17743400  0.09281600  0.98789900  1
  C  C27  1  0.67743400  0.40718400  0.01210100  1
  C  C28  1  0.17743400  0.40718400  0.48789900  1
  C  C29  1  0.67743400  0.09281600  0.51210100  1
  C  C30  1  0.82256600  0.90718400  0.01210100  1
  C  C31  1  0.32256600  0.59281600  0.98789900  1
  C  C32  1  0.55905400  0.50707800  0.35151800  1
  C  C33  1  0.05905400  0.99292200  0.64848200  1
  C  C34  1  0.44094600  0.00707800  0.14848200  1
  C  C35  1  0.94094600  0.49292200  0.85151800  1
  C  C36  1  0.44094600  0.49292200  0.64848200  1
  C  C37  1  0.94094600  0.00707800  0.35151800  1
  C  C38  1  0.55905400  0.99292200  0.85151800  1
  C  C39  1  0.05905400  0.50707800  0.14848200  1
  C  C40  1  0.67648300  0.64715900  0.39786600  1
  C  C41  1  0.17648300  0.85284100  0.60213400  1
  C  C42  1  0.32351700  0.14715900  0.10213400  1
  C  C43  1  0.82351700  0.35284100  0.89786600  1
  C  C44  1  0.32351700  0.35284100  0.60213400  1
  C  C45  1  0.82351700  0.14715900  0.39786600  1
  C  C46  1  0.67648300  0.85284100  0.89786600  1
  C  C47  1  0.17648300  0.64715900  0.10213400  1
  C  C48  1  0.19815300  0.09152300  0.26135500  1
  C  C49  1  0.69815300  0.40847700  0.73864500  1
  C  C50  1  0.80184700  0.59152300  0.23864500  1
  C  C51  1  0.30184700  0.90847700  0.76135500  1
  C  C52  1  0.80184700  0.90847700  0.73864500  1
  C  C53  1  0.30184700  0.59152300  0.26135500  1
  C  C54  1  0.19815300  0.40847700  0.76135500  1
  C  C55  1  0.69815300  0.09152300  0.23864500  1
  C  C56  1  0.51115200  0.28301900  0.41187400  1
  C  C57  1  0.01115200  0.21698100  0.58812600  1
  C  C58  1  0.48884800  0.78301900  0.08812600  1
  C  C59  1  0.98884800  0.71698100  0.91187400  1
  C  C60  1  0.48884800  0.71698100  0.58812600  1
  C  C61  1  0.98884800  0.78301900  0.41187400  1
  C  C62  1  0.51115200  0.21698100  0.91187400  1
  C  C63  1  0.01115200  0.28301900  0.08812600  1
  Cu  Cu64  1  0.68175600  0.44468400  0.44953800  1
  Cu  Cu65  1  0.18175600  0.05531600  0.55046200  1
  Cu  Cu66  1  0.31824400  0.94468400  0.05046200  1
  Cu  Cu67  1  0.81824400  0.55531600  0.94953800  1
  Cu  Cu68  1  0.31824400  0.55531600  0.55046200  1
  Cu  Cu69  1  0.81824400  0.94468400  0.44953800  1
  Cu  Cu70  1  0.68175600  0.05531600  0.94953800  1
  Cu  Cu71  1  0.18175600  0.44468400  0.05046200  1
  C  C72  1  0.78408800  0.48550900  0.50664600  1
  C  C73  1  0.28408800  0.01449100  0.49335400  1
  C  C74  1  0.21591200  0.98550900  0.99335400  1
  C  C75  1  0.71591200  0.51449100  0.00664600  1
  C  C76  1  0.21591200  0.51449100  0.49335400  1
  C  C77  1  0.71591200  0.98550900  0.50664600  1
  C  C78  1  0.78408800  0.01449100  0.00664600  1
  C  C79  1  0.28408800  0.48550900  0.99335400  1
  C  C80  1  0.63136100  0.54114200  0.39698000  1
  C  C81  1  0.13136100  0.95885800  0.60302000  1
  C  C82  1  0.36863900  0.04114200  0.10302000  1
  C  C83  1  0.86863900  0.45885800  0.89698000  1
  C  C84  1  0.36863900  0.45885800  0.60302000  1
  C  C85  1  0.86863900  0.04114200  0.39698000  1
  C  C86  1  0.63136100  0.95885800  0.89698000  1
  C  C87  1  0.13136100  0.54114200  0.10302000  1
  C  C88  1  0.09157600  0.36357900  0.33737300  1
  C  C89  1  0.59157600  0.13642100  0.66262700  1
  C  C90  1  0.90842400  0.86357900  0.16262700  1
  C  C91  1  0.40842400  0.63642100  0.83737300  1
  C  C92  1  0.90842400  0.63642100  0.66262700  1
  C  C93  1  0.40842400  0.86357900  0.33737300  1
  C  C94  1  0.09157600  0.13642100  0.83737300  1
  C  C95  1  0.59157600  0.36357900  0.16262700  1
  C  C96  1  0.38745500  0.43496300  0.27717200  1
  C  C97  1  0.88745500  0.06503700  0.72282800  1
  C  C98  1  0.61254500  0.93496300  0.22282800  1
  C  C99  1  0.11254500  0.56503700  0.77717200  1
  C  C100  1  0.61254500  0.56503700  0.72282800  1
  C  C101  1  0.11254500  0.93496300  0.27717200  1
  C  C102  1  0.38745500  0.06503700  0.77717200  1
  C  C103  1  0.88745500  0.43496300  0.22282800  1
  C  C104  1  0.25445800  0.19031000  0.24697400  1
  C  C105  1  0.75445800  0.30969000  0.75302600  1
  C  C106  1  0.74554200  0.69031000  0.25302600  1
  C  C107  1  0.24554200  0.80969000  0.74697400  1
  C  C108  1  0.74554200  0.80969000  0.75302600  1
  C  C109  1  0.24554200  0.69031000  0.24697400  1
  C  C110  1  0.25445800  0.30969000  0.74697400  1
  C  C111  1  0.75445800  0.19031000  0.25302600  1
  C  C112  1  0.36321800  0.24079300  0.38213200  1
  C  C113  1  0.86321800  0.25920700  0.61786800  1
  C  C114  1  0.63678200  0.74079300  0.11786800  1
  C  C115  1  0.13678200  0.75920700  0.88213200  1
  C  C116  1  0.63678200  0.75920700  0.61786800  1
  C  C117  1  0.13678200  0.74079300  0.38213200  1
  C  C118  1  0.36321800  0.25920700  0.88213200  1
  C  C119  1  0.86321800  0.24079300  0.11786800  1
  C  C120  1  0.63242200  0.30566300  0.44640000  1
  C  C121  1  0.13242200  0.19433700  0.55360000  1
  C  C122  1  0.36757800  0.80566300  0.05360000  1
  C  C123  1  0.86757800  0.69433700  0.94640000  1
  C  C124  1  0.36757800  0.69433700  0.55360000  1
  C  C125  1  0.86757800  0.80566300  0.44640000  1
  C  C126  1  0.63242200  0.19433700  0.94640000  1
  C  C127  1  0.13242200  0.30566300  0.05360000  1
