# generated using pymatgen
data_Cu2NiC4
_symmetry_space_group_name_H-M   'P 1'
_cell_length_a   3.74310833
_cell_length_b   3.74310833
_cell_length_c   16.47121600
_cell_angle_alpha   90.00000000
_cell_angle_beta   90.00000000
_cell_angle_gamma   120.00000586
_symmetry_Int_Tables_number   1
_chemical_formula_structural   Cu2NiC4
_chemical_formula_sum   'Cu4 Ni2 C8'
_cell_volume   199.85778114
_cell_formula_units_Z   2
loop_
 _symmetry_equiv_pos_site_id
 _symmetry_equiv_pos_as_xyz
  1  'x, y, z'
loop_
 _atom_site_type_symbol
 _atom_site_label
 _atom_site_symmetry_multiplicity
 _atom_site_fract_x
 _atom_site_fract_y
 _atom_site_fract_z
 _atom_site_occupancy
  C  C0  1  0.66666700  0.33333300  0.41125800  1
  C  C1  1  0.33333300  0.66666700  0.91125800  1
  C  C2  1  0.66666700  0.33333300  0.08874200  1
  C  C3  1  0.33333300  0.66666700  0.58874200  1
  Ni  Ni4  1  0.00000000  0.00000000  0.25000000  1
  Ni  Ni5  1  0.00000000  0.00000000  0.75000000  1
  Cu  Cu6  1  0.00000000  0.00000000  0.67498100  1
  Cu  Cu7  1  0.00000000  0.00000000  0.17498100  1
  Cu  Cu8  1  0.00000000  0.00000000  0.82501900  1
  Cu  Cu9  1  0.00000000  0.00000000  0.32501900  1
  C  C10  1  0.66666700  0.33333300  0.94823100  1
  C  C11  1  0.33333300  0.66666700  0.05176900  1
  C  C12  1  0.33333300  0.66666700  0.44823100  1
  C  C13  1  0.66666700  0.33333300  0.55176900  1
