# generated using pymatgen
data_CuNi2C15
_symmetry_space_group_name_H-M   'P 1'
_cell_length_a   7.75147351
_cell_length_b   7.75147351
_cell_length_c   12.96440797
_cell_angle_alpha   73.74254500
_cell_angle_beta   73.74254500
_cell_angle_gamma   59.97243775
_symmetry_Int_Tables_number   1
_chemical_formula_structural   CuNi2C15
_chemical_formula_sum   'Cu2 Ni4 C30'
_cell_volume   638.22124592
_cell_formula_units_Z   2
loop_
 _symmetry_equiv_pos_site_id
 _symmetry_equiv_pos_as_xyz
  1  'x, y, z'
loop_
 _atom_site_type_symbol
 _atom_site_label
 _atom_site_symmetry_multiplicity
 _atom_site_fract_x
 _atom_site_fract_y
 _atom_site_fract_z
 _atom_site_occupancy
  Ni  Ni0  1  0.90450300  0.47498100  0.67745100  1
  Ni  Ni1  1  0.09549700  0.52501900  0.32254900  1
  Ni  Ni2  1  0.52501900  0.09549700  0.82254900  1
  Ni  Ni3  1  0.47498100  0.90450300  0.17745100  1
  Cu  Cu4  1  0.22792500  0.77207500  0.75000000  1
  Cu  Cu5  1  0.77207500  0.22792500  0.25000000  1
  C  C6  1  0.50000000  0.00000000  0.50000000  1
  C  C7  1  0.00000000  0.50000000  0.00000000  1
  C  C8  1  0.00000000  0.00000000  0.50000000  1
  C  C9  1  0.00000000  0.00000000  0.00000000  1
  C  C10  1  0.50000000  0.50000000  0.50000000  1
  C  C11  1  0.50000000  0.50000000  0.00000000  1
  C  C12  1  0.89527600  0.96202100  0.64801800  1
  C  C13  1  0.51347700  0.89260500  0.64763100  1
  C  C14  1  0.26195600  0.41215700  0.02984300  1
  C  C15  1  0.68182100  0.21588800  0.02874900  1
  C  C16  1  0.89260500  0.51347700  0.14763100  1
  C  C17  1  0.10739500  0.48652300  0.85236900  1
  C  C18  1  0.48652300  0.10739500  0.35236900  1
  C  C19  1  0.78411200  0.31817900  0.47125100  1
  C  C20  1  0.10472400  0.03797900  0.35198200  1
  C  C21  1  0.58784300  0.73804400  0.47015700  1
  C  C22  1  0.45387400  0.51145900  0.14678000  1
  C  C23  1  0.41215700  0.26195600  0.52984300  1
  C  C24  1  0.51145900  0.45387400  0.64678000  1
  C  C25  1  0.82147400  0.92910000  0.46384600  1
  C  C26  1  0.17852600  0.07090000  0.53615400  1
  C  C27  1  0.54612600  0.48854100  0.85322000  1
  C  C28  1  0.92910000  0.82147400  0.96384600  1
  C  C29  1  0.48854100  0.54612600  0.35322000  1
  C  C30  1  0.73804400  0.58784300  0.97015700  1
  C  C31  1  0.96202100  0.89527600  0.14801800  1
  C  C32  1  0.07090000  0.17852600  0.03615400  1
  C  C33  1  0.31817900  0.78411200  0.97125100  1
  C  C34  1  0.03797900  0.10472400  0.85198200  1
  C  C35  1  0.21588800  0.68182100  0.52874900  1
