# generated using pymatgen
data_CuNi3C8
_symmetry_space_group_name_H-M   'P 1'
_cell_length_a   8.59783800
_cell_length_b   6.61607800
_cell_length_c   12.15341062
_cell_angle_alpha   61.11995625
_cell_angle_beta   90.00000000
_cell_angle_gamma   90.00000000
_symmetry_Int_Tables_number   1
_chemical_formula_structural   CuNi3C8
_chemical_formula_sum   'Cu4 Ni12 C32'
_cell_volume   605.35490881
_cell_formula_units_Z   4
loop_
 _symmetry_equiv_pos_site_id
 _symmetry_equiv_pos_as_xyz
  1  'x, y, z'
loop_
 _atom_site_type_symbol
 _atom_site_label
 _atom_site_symmetry_multiplicity
 _atom_site_fract_x
 _atom_site_fract_y
 _atom_site_fract_z
 _atom_site_occupancy
  Ni  Ni0  1  0.70243100  0.39928000  0.11731800  1
  Ni  Ni1  1  0.05534700  0.67206400  0.11580400  1
  Ni  Ni2  1  0.20243100  0.60072000  0.38268200  1
  Ni  Ni3  1  0.29577300  0.05944100  0.92794700  1
  Ni  Ni4  1  0.29756900  0.60072000  0.88268200  1
  Ni  Ni5  1  0.55534700  0.32793600  0.38419600  1
  Ni  Ni6  1  0.20422700  0.05944100  0.42794700  1
  Ni  Ni7  1  0.79577300  0.94055900  0.57205300  1
  Ni  Ni8  1  0.44465300  0.67206400  0.61580400  1
  Ni  Ni9  1  0.70422700  0.94055900  0.07205300  1
  Ni  Ni10  1  0.79756900  0.39928000  0.61731800  1
  Ni  Ni11  1  0.94465300  0.32793600  0.88419600  1
  Cu  Cu12  1  0.62662800  0.90605500  0.82930600  1
  Cu  Cu13  1  0.12662800  0.09394500  0.67069400  1
  Cu  Cu14  1  0.87337200  0.90605500  0.32930600  1
  Cu  Cu15  1  0.37337200  0.09394500  0.17069400  1
  C  C16  1  0.55853000  0.83432500  0.38027100  1
  C  C17  1  0.94147000  0.83432500  0.88027100  1
  C  C18  1  0.44147000  0.16567500  0.61972900  1
  C  C19  1  0.08858100  0.63470900  0.62488500  1
  C  C20  1  0.41141900  0.63470900  0.12488500  1
  C  C21  1  0.58858100  0.36529100  0.87511500  1
  C  C22  1  0.05853000  0.16567500  0.11972900  1
  C  C23  1  0.91141900  0.36529100  0.37511500  1
  C  C24  1  0.49402700  0.74653300  0.01250100  1
  C  C25  1  0.99402700  0.25346700  0.48749900  1
  C  C26  1  0.16405500  0.26254000  0.02229600  1
  C  C27  1  0.68805100  0.23983200  0.83997400  1
  C  C28  1  0.88249000  0.93088000  0.75656800  1
  C  C29  1  0.00597300  0.74653300  0.51250100  1
  C  C30  1  0.90107100  0.14561900  0.10609300  1
  C  C31  1  0.66405500  0.73746000  0.47770400  1
  C  C32  1  0.57021400  0.60254800  0.79896100  1
  C  C33  1  0.31194900  0.76016800  0.16002600  1
  C  C34  1  0.09892900  0.85438100  0.89390700  1
  C  C35  1  0.11751000  0.06912000  0.24343200  1
  C  C36  1  0.81194900  0.23983200  0.33997400  1
  C  C37  1  0.42978600  0.39745200  0.20103900  1
  C  C38  1  0.40107100  0.85438100  0.39390700  1
  C  C39  1  0.38249000  0.06912000  0.74343200  1
  C  C40  1  0.07021400  0.39745200  0.70103900  1
  C  C41  1  0.50597300  0.25346700  0.98749900  1
  C  C42  1  0.59892900  0.14561900  0.60609300  1
  C  C43  1  0.33594500  0.26254000  0.52229600  1
  C  C44  1  0.18805100  0.76016800  0.66002600  1
  C  C45  1  0.61751000  0.93088000  0.25656800  1
  C  C46  1  0.83594500  0.73746000  0.97770400  1
  C  C47  1  0.92978600  0.60254800  0.29896100  1
