# generated using pymatgen
data_Cu12Ni6C29
_symmetry_space_group_name_H-M   'P 1'
_cell_length_a   11.86016729
_cell_length_b   11.86016729
_cell_length_c   9.63526090
_cell_angle_alpha   84.10383001
_cell_angle_beta   84.10383001
_cell_angle_gamma   63.54672547
_symmetry_Int_Tables_number   1
_chemical_formula_structural   Cu12Ni6C29
_chemical_formula_sum   'Cu24 Ni12 C58'
_cell_volume   1204.53314057
_cell_formula_units_Z   2
loop_
 _symmetry_equiv_pos_site_id
 _symmetry_equiv_pos_as_xyz
  1  'x, y, z'
loop_
 _atom_site_type_symbol
 _atom_site_label
 _atom_site_symmetry_multiplicity
 _atom_site_fract_x
 _atom_site_fract_y
 _atom_site_fract_z
 _atom_site_occupancy
  Ni  Ni0  1  0.57113000  0.57113000  0.32898600  1
  Ni  Ni1  1  0.10851300  0.10851300  0.68522800  1
  Ni  Ni2  1  0.24697600  0.57959700  0.35720600  1
  Ni  Ni3  1  0.57959700  0.24697600  0.35720600  1
  Ni  Ni4  1  0.90103900  0.23100200  0.34276700  1
  Ni  Ni5  1  0.89148700  0.89148700  0.31477200  1
  Ni  Ni6  1  0.09896100  0.76899800  0.65723300  1
  Ni  Ni7  1  0.23100200  0.90103900  0.34276700  1
  Ni  Ni8  1  0.42887000  0.42887000  0.67101400  1
  Ni  Ni9  1  0.42040300  0.75302400  0.64279400  1
  Ni  Ni10  1  0.75302400  0.42040300  0.64279400  1
  Ni  Ni11  1  0.76899800  0.09896100  0.65723300  1
  Cu  Cu12  1  0.88570400  0.38270100  0.99468800  1
  Cu  Cu13  1  0.36611000  0.36611000  0.01233800  1
  Cu  Cu14  1  0.87813900  0.12186100  0.00000000  1
  Cu  Cu15  1  0.61729900  0.11429600  0.00531200  1
  Cu  Cu16  1  0.86569900  0.86569900  0.99444400  1
  Cu  Cu17  1  0.38270100  0.88570400  0.99468800  1
  Cu  Cu18  1  0.11429600  0.61729900  0.00531200  1
  Cu  Cu19  1  0.74397800  0.74397800  0.50059800  1
  Cu  Cu20  1  0.60694200  0.85909000  0.22395900  1
  Cu  Cu21  1  0.37176800  0.62823200  0.00000000  1
  Cu  Cu22  1  0.14091000  0.39305800  0.77604100  1
  Cu  Cu23  1  0.85909000  0.60694200  0.22395900  1
  Cu  Cu24  1  0.88802300  0.63826000  0.77245200  1
  Cu  Cu25  1  0.39305800  0.14091000  0.77604100  1
  Cu  Cu26  1  0.63826000  0.88802300  0.77245200  1
  Cu  Cu27  1  0.62823200  0.37176800  0.00000000  1
  Cu  Cu28  1  0.12186100  0.87813900  0.00000000  1
  Cu  Cu29  1  0.00000000  0.50000000  0.50000000  1
  Cu  Cu30  1  0.11197700  0.36174000  0.22754800  1
  Cu  Cu31  1  0.50000000  0.00000000  0.50000000  1
  Cu  Cu32  1  0.25602200  0.25602200  0.49940200  1
  Cu  Cu33  1  0.36174000  0.11197700  0.22754800  1
  Cu  Cu34  1  0.63389000  0.63389000  0.98766200  1
  Cu  Cu35  1  0.13430100  0.13430100  0.00555600  1
  C  C36  1  0.53869400  0.53869400  0.09878600  1
  C  C37  1  0.28409900  0.79454700  0.10800700  1
  C  C38  1  0.03223000  0.28554100  0.11938700  1
  C  C39  1  0.05644300  0.56616200  0.65669000  1
  C  C40  1  0.71853700  0.71853700  0.87122100  1
  C  C41  1  0.82636800  0.56896800  0.61314900  1
  C  C42  1  0.71590100  0.20545300  0.89199300  1
  C  C43  1  0.53179400  0.03027500  0.12785800  1
  C  C44  1  0.27089500  0.61661100  0.59216000  1
  C  C45  1  0.18579000  0.91390300  0.59054100  1
  C  C46  1  0.31435600  0.31435600  0.66124400  1
  C  C47  1  0.94355700  0.43383800  0.34331000  1
  C  C48  1  0.43103200  0.17363200  0.38685100  1
  C  C49  1  0.78145900  0.53290600  0.10912400  1
  C  C50  1  0.55733400  0.55733400  0.59551800  1
  C  C51  1  0.28554100  0.03223000  0.11938700  1
  C  C52  1  0.72149500  0.46516300  0.88428800  1
  C  C53  1  0.91375000  0.67171400  0.38566100  1
  C  C54  1  0.96777000  0.71445900  0.88061300  1
  C  C55  1  0.46820600  0.96972500  0.87214200  1
  C  C56  1  0.27850500  0.53483700  0.11571200  1
  C  C57  1  0.28146300  0.28146300  0.12877900  1
  C  C58  1  0.08625000  0.32828600  0.61433900  1
  C  C59  1  0.91390300  0.18579000  0.59054100  1
  C  C60  1  0.03027500  0.53179400  0.12785800  1
  C  C61  1  0.80758200  0.80758200  0.65197500  1
  C  C62  1  0.19241800  0.19241800  0.34802500  1
  C  C63  1  0.46130600  0.46130600  0.90121400  1
  C  C64  1  0.03820300  0.03820300  0.10898300  1
  C  C65  1  0.56616200  0.05644300  0.65669000  1
  C  C66  1  0.71445900  0.96777000  0.88061300  1
  C  C67  1  0.08609700  0.81421000  0.40945900  1
  C  C68  1  0.43383800  0.94355700  0.34331000  1
  C  C69  1  0.72910500  0.38338900  0.40784000  1
  C  C70  1  0.21825600  0.21825600  0.87163800  1
  C  C71  1  0.44266600  0.44266600  0.40448200  1
  C  C72  1  0.46516300  0.72149500  0.88428800  1
  C  C73  1  0.56896800  0.82636800  0.61314900  1
  C  C74  1  0.21854100  0.46709400  0.89087600  1
  C  C75  1  0.20545300  0.71590100  0.89199300  1
  C  C76  1  0.53483700  0.27850500  0.11571200  1
  C  C77  1  0.81421000  0.08609700  0.40945900  1
  C  C78  1  0.32828600  0.08625000  0.61433900  1
  C  C79  1  0.96179700  0.96179700  0.89101700  1
  C  C80  1  0.96972500  0.46820600  0.87214200  1
  C  C81  1  0.97579500  0.21314800  0.89057400  1
  C  C82  1  0.53290600  0.78145900  0.10912400  1
  C  C83  1  0.78174400  0.78174400  0.12836200  1
  C  C84  1  0.46709400  0.21854100  0.89087600  1
  C  C85  1  0.78685200  0.02420500  0.10942600  1
  C  C86  1  0.67171400  0.91375000  0.38566100  1
  C  C87  1  0.17363200  0.43103200  0.38685100  1
  C  C88  1  0.61661100  0.27089500  0.59216000  1
  C  C89  1  0.68564400  0.68564400  0.33875600  1
  C  C90  1  0.79454700  0.28409900  0.10800700  1
  C  C91  1  0.21314800  0.97579500  0.89057400  1
  C  C92  1  0.02420500  0.78685200  0.10942600  1
  C  C93  1  0.38338900  0.72910500  0.40784000  1
