# generated using pymatgen
data_CuNi2C9
_symmetry_space_group_name_H-M   'P 1'
_cell_length_a   7.46130800
_cell_length_b   7.46130800
_cell_length_c   4.83343800
_cell_angle_alpha   90.00000000
_cell_angle_beta   90.00000000
_cell_angle_gamma   90.00000000
_symmetry_Int_Tables_number   1
_chemical_formula_structural   CuNi2C9
_chemical_formula_sum   'Cu2 Ni4 C18'
_cell_volume   269.08289275
_cell_formula_units_Z   2
loop_
 _symmetry_equiv_pos_site_id
 _symmetry_equiv_pos_as_xyz
  1  'x, y, z'
loop_
 _atom_site_type_symbol
 _atom_site_label
 _atom_site_symmetry_multiplicity
 _atom_site_fract_x
 _atom_site_fract_y
 _atom_site_fract_z
 _atom_site_occupancy
  C  C0  1  0.34175000  0.15825000  0.50594000  1
  C  C1  1  0.84175000  0.34175000  0.49406000  1
  C  C2  1  0.15825000  0.65825000  0.49406000  1
  C  C3  1  0.65825000  0.84175000  0.50594000  1
  Ni  Ni4  1  0.13488200  0.36511800  0.95226400  1
  Ni  Ni5  1  0.63488200  0.13488200  0.04773600  1
  Ni  Ni6  1  0.36511800  0.86511800  0.04773600  1
  Ni  Ni7  1  0.86511800  0.63488200  0.95226400  1
  Cu  Cu8  1  0.00000000  0.00000000  0.00000000  1
  Cu  Cu9  1  0.50000000  0.50000000  0.00000000  1
  C  C10  1  0.00000000  0.50000000  0.81305700  1
  C  C11  1  0.50000000  0.00000000  0.18694300  1
  C  C12  1  0.14207600  0.35792400  0.28117000  1
  C  C13  1  0.64207600  0.14207600  0.71883000  1
  C  C14  1  0.35792400  0.85792400  0.71883000  1
  C  C15  1  0.85792400  0.64207600  0.28117000  1
  C  C16  1  0.08205400  0.17151000  0.78433400  1
  C  C17  1  0.82849000  0.08205400  0.21566600  1
  C  C18  1  0.17151000  0.91794600  0.21566600  1
  C  C19  1  0.91794600  0.82849000  0.78433400  1
  C  C20  1  0.58205400  0.32849000  0.21566600  1
  C  C21  1  0.41794600  0.67151000  0.21566600  1
  C  C22  1  0.67151000  0.58205400  0.78433400  1
  C  C23  1  0.32849000  0.41794600  0.78433400  1
