# generated using pymatgen
data_Cu5(NiC2)2
_symmetry_space_group_name_H-M   'P 1'
_cell_length_a   13.08538500
_cell_length_b   14.31725200
_cell_length_c   15.25556178
_cell_angle_alpha   87.25381760
_cell_angle_beta   90.00000000
_cell_angle_gamma   90.00000000
_symmetry_Int_Tables_number   1
_chemical_formula_structural   Cu5(NiC2)2
_chemical_formula_sum   'Cu40 Ni16 C32'
_cell_volume   2854.79771458
_cell_formula_units_Z   8
loop_
 _symmetry_equiv_pos_site_id
 _symmetry_equiv_pos_as_xyz
  1  'x, y, z'
loop_
 _atom_site_type_symbol
 _atom_site_label
 _atom_site_symmetry_multiplicity
 _atom_site_fract_x
 _atom_site_fract_y
 _atom_site_fract_z
 _atom_site_occupancy
  C  C0  1  0.62073600  0.90490300  0.44858000  1
  C  C1  1  0.13460200  0.42266100  0.92717600  1
  C  C2  1  0.15677400  0.01124700  0.76872900  1
  C  C3  1  0.64331500  0.71554900  0.84662800  1
  C  C4  1  0.63403900  0.38028800  0.96262300  1
  C  C5  1  0.59032100  0.50869000  0.22770300  1
  C  C6  1  0.85668500  0.71554900  0.34662800  1
  C  C7  1  0.36539800  0.42266100  0.42717600  1
  C  C8  1  0.62091900  0.09771200  0.06036500  1
  C  C9  1  0.09257600  0.79757000  0.14065800  1
  C  C10  1  0.35668500  0.28445100  0.15337200  1
  C  C11  1  0.13403900  0.61971200  0.53737700  1
  C  C12  1  0.59257600  0.20243000  0.35934200  1
  C  C13  1  0.34322600  0.01124700  0.26872900  1
  C  C14  1  0.86596100  0.38028800  0.46262300  1
  C  C15  1  0.37926400  0.09509700  0.55142000  1
  C  C16  1  0.90742400  0.20243000  0.85934200  1
  C  C17  1  0.63460200  0.57733900  0.57282400  1
  C  C18  1  0.14331500  0.28445100  0.65337200  1
  C  C19  1  0.40742400  0.79757000  0.64065800  1
  C  C20  1  0.84322600  0.98875300  0.23127100  1
  C  C21  1  0.12073600  0.09509700  0.05142000  1
  C  C22  1  0.65677400  0.98875300  0.73127100  1
  C  C23  1  0.90967900  0.50869000  0.72770300  1
  C  C24  1  0.37908100  0.90228800  0.93963500  1
  C  C25  1  0.87926400  0.90490300  0.94858000  1
  C  C26  1  0.09032100  0.49131000  0.27229700  1
  C  C27  1  0.87908100  0.09771200  0.56036500  1
  C  C28  1  0.40967900  0.49131000  0.77229700  1
  C  C29  1  0.86539800  0.57733900  0.07282400  1
  C  C30  1  0.12091900  0.90228800  0.43963500  1
  C  C31  1  0.36596100  0.61971200  0.03737700  1
  Ni  Ni32  1  0.30316500  0.67930600  0.28564900  1
  Ni  Ni33  1  0.66345400  0.77922000  0.08174200  1
  Ni  Ni34  1  0.83654600  0.77922000  0.58174200  1
  Ni  Ni35  1  0.59050100  0.28007500  0.58604800  1
  Ni  Ni36  1  0.55798300  0.82596700  0.20961300  1
  Ni  Ni37  1  0.44201700  0.17403300  0.79038700  1
  Ni  Ni38  1  0.05798300  0.17403300  0.29038700  1
  Ni  Ni39  1  0.69683500  0.32069400  0.71435100  1
  Ni  Ni40  1  0.80316500  0.32069400  0.21435100  1
  Ni  Ni41  1  0.16345400  0.22078000  0.41825800  1
  Ni  Ni42  1  0.40949900  0.71992500  0.41395200  1
  Ni  Ni43  1  0.90949900  0.28007500  0.08604800  1
  Ni  Ni44  1  0.94201700  0.82596700  0.70961300  1
  Ni  Ni45  1  0.09050100  0.71992500  0.91395200  1
  Ni  Ni46  1  0.19683500  0.67930600  0.78564900  1
  Ni  Ni47  1  0.33654600  0.22078000  0.91825800  1
  Cu  Cu48  1  0.65188500  0.78738100  0.64551200  1
  Cu  Cu49  1  0.40426000  0.00403100  0.75082700  1
  Cu  Cu50  1  0.09571700  0.29761800  0.15748100  1
  Cu  Cu51  1  0.12966800  0.09722300  0.54495600  1
  Cu  Cu52  1  0.11596200  0.38732900  0.46494800  1
  Cu  Cu53  1  0.61596200  0.61267100  0.03505200  1
  Cu  Cu54  1  0.66112500  0.48636000  0.76694200  1
  Cu  Cu55  1  0.36110400  0.81112200  0.16384300  1
  Cu  Cu56  1  0.11538200  0.70560000  0.33362000  1
  Cu  Cu57  1  0.90428300  0.70238200  0.84251900  1
  Cu  Cu58  1  0.86110400  0.18887800  0.33615700  1
  Cu  Cu59  1  0.59574000  0.99596900  0.24917300  1
  Cu  Cu60  1  0.09574000  0.00403100  0.25082700  1
  Cu  Cu61  1  0.33887500  0.51364000  0.23305800  1
  Cu  Cu62  1  0.61976000  0.39700100  0.45511500  1
  Cu  Cu63  1  0.13889600  0.81112200  0.66384300  1
  Cu  Cu64  1  0.34811500  0.21261900  0.35448800  1
  Cu  Cu65  1  0.90426000  0.99596900  0.74917300  1
  Cu  Cu66  1  0.11976000  0.60299900  0.04488500  1
  Cu  Cu67  1  0.38024000  0.60299900  0.54488500  1
  Cu  Cu68  1  0.63889600  0.18887800  0.83615700  1
  Cu  Cu69  1  0.83887500  0.48636000  0.26694200  1
  Cu  Cu70  1  0.88403800  0.61267100  0.53505200  1
  Cu  Cu71  1  0.88461800  0.29440000  0.66638000  1
  Cu  Cu72  1  0.16112500  0.51364000  0.73305800  1
  Cu  Cu73  1  0.84811500  0.78738100  0.14551200  1
  Cu  Cu74  1  0.62966800  0.90277700  0.95504400  1
  Cu  Cu75  1  0.38461800  0.70560000  0.83362000  1
  Cu  Cu76  1  0.37055400  0.89036400  0.45293300  1
  Cu  Cu77  1  0.87033200  0.90277700  0.45504400  1
  Cu  Cu78  1  0.62944600  0.10963600  0.54706700  1
  Cu  Cu79  1  0.12944600  0.89036400  0.95293300  1
  Cu  Cu80  1  0.15188500  0.21261900  0.85448800  1
  Cu  Cu81  1  0.88024000  0.39700100  0.95511500  1
  Cu  Cu82  1  0.61538200  0.29440000  0.16638000  1
  Cu  Cu83  1  0.38403800  0.38732900  0.96494800  1
  Cu  Cu84  1  0.87055400  0.10963600  0.04706700  1
  Cu  Cu85  1  0.40428300  0.29761800  0.65748100  1
  Cu  Cu86  1  0.59571700  0.70238200  0.34251900  1
  Cu  Cu87  1  0.37033200  0.09722300  0.04495600  1
