# generated using pymatgen
data_Cu3NiC2
_symmetry_space_group_name_H-M   'P 1'
_cell_length_a   7.05738900
_cell_length_b   7.33144100
_cell_length_c   8.91929700
_cell_angle_alpha   90.00000000
_cell_angle_beta   90.00000000
_cell_angle_gamma   90.00000000
_symmetry_Int_Tables_number   1
_chemical_formula_structural   Cu3NiC2
_chemical_formula_sum   'Cu12 Ni4 C8'
_cell_volume   461.49183932
_cell_formula_units_Z   4
loop_
 _symmetry_equiv_pos_site_id
 _symmetry_equiv_pos_as_xyz
  1  'x, y, z'
loop_
 _atom_site_type_symbol
 _atom_site_label
 _atom_site_symmetry_multiplicity
 _atom_site_fract_x
 _atom_site_fract_y
 _atom_site_fract_z
 _atom_site_occupancy
  C  C0  1  0.25000000  0.60589000  0.96079800  1
  C  C1  1  0.75000000  0.39411000  0.03920200  1
  C  C2  1  0.25000000  0.10589000  0.53920200  1
  C  C3  1  0.75000000  0.89411000  0.46079800  1
  C  C4  1  0.75000000  0.28976900  0.63228800  1
  C  C5  1  0.25000000  0.21023100  0.13228800  1
  C  C6  1  0.75000000  0.78976900  0.86771200  1
  C  C7  1  0.25000000  0.71023100  0.36771200  1
  Ni  Ni8  1  0.75000000  0.55659300  0.31833000  1
  Ni  Ni9  1  0.75000000  0.05659300  0.18167000  1
  Ni  Ni10  1  0.25000000  0.44340700  0.68167000  1
  Ni  Ni11  1  0.25000000  0.94340700  0.81833000  1
  Cu  Cu12  1  0.57315300  0.14158300  0.56732600  1
  Cu  Cu13  1  0.07315300  0.85841700  0.43267400  1
  Cu  Cu14  1  0.25000000  0.25184500  0.31993300  1
  Cu  Cu15  1  0.92684700  0.14158300  0.56732600  1
  Cu  Cu16  1  0.42684700  0.35841700  0.06732600  1
  Cu  Cu17  1  0.92684700  0.64158300  0.93267400  1
  Cu  Cu18  1  0.75000000  0.74815500  0.68006700  1
  Cu  Cu19  1  0.25000000  0.75184500  0.18006700  1
  Cu  Cu20  1  0.42684700  0.85841700  0.43267400  1
  Cu  Cu21  1  0.07315300  0.35841700  0.06732600  1
  Cu  Cu22  1  0.75000000  0.24815500  0.81993300  1
  Cu  Cu23  1  0.57315300  0.64158300  0.93267400  1
