# generated using pymatgen
data_Cu8Ni4C3
_symmetry_space_group_name_H-M   'P 1'
_cell_length_a   6.73717000
_cell_length_b   9.15415100
_cell_length_c   13.60506600
_cell_angle_alpha   90.00000000
_cell_angle_beta   90.00000000
_cell_angle_gamma   90.00000000
_symmetry_Int_Tables_number   1
_chemical_formula_structural   Cu8Ni4C3
_chemical_formula_sum   'Cu32 Ni16 C12'
_cell_volume   839.06620808
_cell_formula_units_Z   4
loop_
 _symmetry_equiv_pos_site_id
 _symmetry_equiv_pos_as_xyz
  1  'x, y, z'
loop_
 _atom_site_type_symbol
 _atom_site_label
 _atom_site_symmetry_multiplicity
 _atom_site_fract_x
 _atom_site_fract_y
 _atom_site_fract_z
 _atom_site_occupancy
  C  C0  1  0.68947300  0.00239400  0.39547400  1
  C  C1  1  0.31052700  0.50239400  0.60452600  1
  C  C2  1  0.18947300  0.50239400  0.10452600  1
  C  C3  1  0.31052700  0.99760600  0.60452600  1
  C  C4  1  0.18947300  0.99760600  0.10452600  1
  C  C5  1  0.81052700  0.00239400  0.89547400  1
  C  C6  1  0.68947300  0.49760600  0.39547400  1
  C  C7  1  0.81052700  0.49760600  0.89547400  1
  C  C8  1  0.57672200  0.75000000  0.74562300  1
  C  C9  1  0.07672200  0.25000000  0.75437700  1
  C  C10  1  0.42327800  0.25000000  0.25437700  1
  C  C11  1  0.92327800  0.75000000  0.24562300  1
  Ni  Ni12  1  0.17603800  0.66468600  0.35731700  1
  Ni  Ni13  1  0.67603800  0.33531400  0.14268300  1
  Ni  Ni14  1  0.75856600  0.75000000  0.59324100  1
  Ni  Ni15  1  0.25856600  0.25000000  0.90675900  1
  Ni  Ni16  1  0.90907600  0.75000000  0.68049900  1
  Ni  Ni17  1  0.82396200  0.16468600  0.64268300  1
  Ni  Ni18  1  0.59092400  0.75000000  0.18049900  1
  Ni  Ni19  1  0.17603800  0.83531400  0.35731700  1
  Ni  Ni20  1  0.40907600  0.25000000  0.81950100  1
  Ni  Ni21  1  0.32396200  0.83531400  0.85731700  1
  Ni  Ni22  1  0.09092400  0.25000000  0.31950100  1
  Ni  Ni23  1  0.67603800  0.16468600  0.14268300  1
  Ni  Ni24  1  0.24143400  0.25000000  0.40675900  1
  Ni  Ni25  1  0.32396200  0.66468600  0.85731700  1
  Ni  Ni26  1  0.82396200  0.33531400  0.64268300  1
  Ni  Ni27  1  0.74143400  0.75000000  0.09324100  1
  Cu  Cu28  1  0.40917000  0.75000000  0.16807800  1
  Cu  Cu29  1  0.28900200  0.59087600  0.40871300  1
  Cu  Cu30  1  0.78900200  0.09087600  0.09128700  1
  Cu  Cu31  1  0.81174100  0.75000000  0.50626200  1
  Cu  Cu32  1  0.04054700  0.61349600  0.29746300  1
  Cu  Cu33  1  0.95945300  0.38650400  0.70253700  1
  Cu  Cu34  1  0.95945300  0.11349600  0.70253700  1
  Cu  Cu35  1  0.68346000  0.75000000  0.26491100  1
  Cu  Cu36  1  0.21099800  0.90912400  0.90871300  1
  Cu  Cu37  1  0.45945300  0.61349600  0.79746300  1
  Cu  Cu38  1  0.45945300  0.88650400  0.79746300  1
  Cu  Cu39  1  0.71099800  0.40912400  0.59128700  1
  Cu  Cu40  1  0.28900200  0.90912400  0.40871300  1
  Cu  Cu41  1  0.81654000  0.75000000  0.76491100  1
  Cu  Cu42  1  0.09083000  0.75000000  0.66807800  1
  Cu  Cu43  1  0.71099800  0.09087600  0.59128700  1
  Cu  Cu44  1  0.59083000  0.25000000  0.83192200  1
  Cu  Cu45  1  0.18346000  0.25000000  0.23508900  1
  Cu  Cu46  1  0.42445400  0.25000000  0.37463000  1
  Cu  Cu47  1  0.21099800  0.59087600  0.90871300  1
  Cu  Cu48  1  0.57554600  0.75000000  0.62537000  1
  Cu  Cu49  1  0.68825900  0.75000000  0.00626200  1
  Cu  Cu50  1  0.31654000  0.25000000  0.73508900  1
  Cu  Cu51  1  0.78900200  0.40912400  0.09128700  1
  Cu  Cu52  1  0.04054700  0.88650400  0.29746300  1
  Cu  Cu53  1  0.07554600  0.25000000  0.87463000  1
  Cu  Cu54  1  0.54054700  0.11349600  0.20253700  1
  Cu  Cu55  1  0.31174100  0.25000000  0.99373800  1
  Cu  Cu56  1  0.92445400  0.75000000  0.12537000  1
  Cu  Cu57  1  0.54054700  0.38650400  0.20253700  1
  Cu  Cu58  1  0.90917000  0.25000000  0.33192200  1
  Cu  Cu59  1  0.18825900  0.25000000  0.49373800  1
