# generated using pymatgen
data_CuNi2C11
_symmetry_space_group_name_H-M   'P 1'
_cell_length_a   8.74704500
_cell_length_b   12.14475400
_cell_length_c   14.97061200
_cell_angle_alpha   90.00000000
_cell_angle_beta   90.00000000
_cell_angle_gamma   90.00000000
_symmetry_Int_Tables_number   1
_chemical_formula_structural   CuNi2C11
_chemical_formula_sum   'Cu8 Ni16 C88'
_cell_volume   1590.33873818
_cell_formula_units_Z   8
loop_
 _symmetry_equiv_pos_site_id
 _symmetry_equiv_pos_as_xyz
  1  'x, y, z'
loop_
 _atom_site_type_symbol
 _atom_site_label
 _atom_site_symmetry_multiplicity
 _atom_site_fract_x
 _atom_site_fract_y
 _atom_site_fract_z
 _atom_site_occupancy
  C  C0  1  0.30359600  0.75000000  0.90412300  1
  C  C1  1  0.80359600  0.75000000  0.59587700  1
  C  C2  1  0.19640400  0.25000000  0.40412300  1
  C  C3  1  0.69640400  0.25000000  0.09587700  1
  C  C4  1  0.45675700  0.58899800  0.18389600  1
  C  C5  1  0.12626400  0.11868200  0.06760500  1
  C  C6  1  0.36564300  0.40712000  0.14541600  1
  C  C7  1  0.10060100  0.41532200  0.18300600  1
  C  C8  1  0.65746700  0.50382800  0.93941400  1
  C  C9  1  0.65746700  0.99617200  0.93941400  1
  C  C10  1  0.26762300  0.64046200  0.16422600  1
  C  C11  1  0.07443600  0.51890300  0.09794200  1
  C  C12  1  0.76762300  0.64046200  0.33577400  1
  C  C13  1  0.54324300  0.08899800  0.81610400  1
  C  C14  1  0.57443600  0.98109700  0.40205800  1
  C  C15  1  0.19917600  0.04477100  0.75431200  1
  C  C16  1  0.23237700  0.35953800  0.66422600  1
  C  C17  1  0.69917600  0.04477100  0.74568800  1
  C  C18  1  0.86564300  0.40712000  0.35458400  1
  C  C19  1  0.84253300  0.00382800  0.43941400  1
  C  C20  1  0.15746700  0.50382800  0.56058600  1
  C  C21  1  0.87373600  0.88131800  0.93239500  1
  C  C22  1  0.63435700  0.90712000  0.85458400  1
  C  C23  1  0.73237700  0.35953800  0.83577400  1
  C  C24  1  0.62626400  0.11868200  0.43239500  1
  C  C25  1  0.84253300  0.49617200  0.43941400  1
  C  C26  1  0.57443600  0.51890300  0.40205800  1
  C  C27  1  0.04324300  0.41100200  0.68389600  1
  C  C28  1  0.45675700  0.91100200  0.18389600  1
  C  C29  1  0.26762300  0.85953800  0.16422600  1
  C  C30  1  0.23237700  0.14046200  0.66422600  1
  C  C31  1  0.60060100  0.41532200  0.31699400  1
  C  C32  1  0.86564300  0.09288000  0.35458400  1
  C  C33  1  0.54324300  0.41100200  0.81610400  1
  C  C34  1  0.89939900  0.58467800  0.81699400  1
  C  C35  1  0.39939900  0.58467800  0.68300600  1
  C  C36  1  0.30082400  0.54477100  0.25431200  1
  C  C37  1  0.15746700  0.99617200  0.56058600  1
  C  C38  1  0.34253300  0.00382800  0.06058600  1
  C  C39  1  0.36564300  0.09288000  0.14541600  1
  C  C40  1  0.80082400  0.95522900  0.24568800  1
  C  C41  1  0.63435700  0.59288000  0.85458400  1
  C  C42  1  0.13435700  0.59288000  0.64541600  1
  C  C43  1  0.76762300  0.85953800  0.33577400  1
  C  C44  1  0.95675700  0.91100200  0.31610400  1
  C  C45  1  0.19917600  0.45522900  0.75431200  1
  C  C46  1  0.04324300  0.08899800  0.68389600  1
  C  C47  1  0.69917600  0.45522900  0.74568800  1
  C  C48  1  0.42556400  0.01890300  0.59794200  1
  C  C49  1  0.34253300  0.49617200  0.06058600  1
  C  C50  1  0.73237700  0.14046200  0.83577400  1
  C  C51  1  0.13435700  0.90712000  0.64541600  1
  C  C52  1  0.92556400  0.48109700  0.90205800  1
  C  C53  1  0.42556400  0.48109700  0.59794200  1
  C  C54  1  0.30082400  0.95522900  0.25431200  1
  C  C55  1  0.80082400  0.54477100  0.24568800  1
  C  C56  1  0.37373600  0.61868200  0.56760500  1
  C  C57  1  0.95675700  0.58899800  0.31610400  1
  C  C58  1  0.10060100  0.08467800  0.18300600  1
  C  C59  1  0.07443600  0.98109700  0.09794200  1
  C  C60  1  0.92556400  0.01890300  0.90205800  1
  C  C61  1  0.39939900  0.91532200  0.68300600  1
  C  C62  1  0.12626400  0.38131800  0.06760500  1
  C  C63  1  0.87373600  0.61868200  0.93239500  1
  C  C64  1  0.60060100  0.08467800  0.31699400  1
  C  C65  1  0.62626400  0.38131800  0.43239500  1
  C  C66  1  0.37373600  0.88131800  0.56760500  1
  C  C67  1  0.89939900  0.91532200  0.81699400  1
  Ni  Ni68  1  0.63942200  0.44591200  0.38197300  1
  Ni  Ni69  1  0.13942200  0.05408800  0.11802700  1
  Ni  Ni70  1  0.86057800  0.55408800  0.88197300  1
  Ni  Ni71  1  0.66532700  0.06946800  0.81331400  1
  Ni  Ni72  1  0.36057800  0.55408800  0.61802700  1
  Ni  Ni73  1  0.33467300  0.56946800  0.18668600  1
  Ni  Ni74  1  0.16532700  0.43053200  0.68668600  1
  Ni  Ni75  1  0.83467300  0.56946800  0.31331400  1
  Ni  Ni76  1  0.36057800  0.94591200  0.61802700  1
  Ni  Ni77  1  0.63942200  0.05408800  0.38197300  1
  Ni  Ni78  1  0.83467300  0.93053200  0.31331400  1
  Ni  Ni79  1  0.16532700  0.06946800  0.68668600  1
  Ni  Ni80  1  0.86057800  0.94591200  0.88197300  1
  Ni  Ni81  1  0.33467300  0.93053200  0.18668600  1
  Ni  Ni82  1  0.13942200  0.44591200  0.11802700  1
  Ni  Ni83  1  0.66532700  0.43053200  0.81331400  1
  Cu  Cu84  1  0.19571400  0.52382300  0.62443900  1
  Cu  Cu85  1  0.80428600  0.02382300  0.37556100  1
  Cu  Cu86  1  0.30428600  0.02382300  0.12443900  1
  Cu  Cu87  1  0.69571400  0.97617700  0.87556100  1
  Cu  Cu88  1  0.80428600  0.47617700  0.37556100  1
  Cu  Cu89  1  0.30428600  0.47617700  0.12443900  1
  Cu  Cu90  1  0.69571400  0.52382300  0.87556100  1
  Cu  Cu91  1  0.19571400  0.97617700  0.62443900  1
  C  C92  1  0.43811100  0.25000000  0.21686700  1
  C  C93  1  0.69050200  0.03184000  0.08925500  1
  C  C94  1  0.06188900  0.75000000  0.71686700  1
  C  C95  1  0.60098800  0.75000000  0.47522000  1
  C  C96  1  0.56188900  0.75000000  0.78313300  1
  C  C97  1  0.69050200  0.46816000  0.08925500  1
  C  C98  1  0.50701500  0.75000000  0.01499500  1
  C  C99  1  0.00701500  0.75000000  0.48500500  1
  C  C100  1  0.93811100  0.25000000  0.28313300  1
  C  C101  1  0.30949800  0.96816000  0.91074500  1
  C  C102  1  0.19050200  0.46816000  0.41074500  1
  C  C103  1  0.10098800  0.75000000  0.02478000  1
  C  C104  1  0.19050200  0.03184000  0.41074500  1
  C  C105  1  0.99298500  0.25000000  0.51499500  1
  C  C106  1  0.30949800  0.53184000  0.91074500  1
  C  C107  1  0.80949800  0.53184000  0.58925500  1
  C  C108  1  0.49298500  0.25000000  0.98500500  1
  C  C109  1  0.80949800  0.96816000  0.58925500  1
  C  C110  1  0.39901200  0.25000000  0.52478000  1
  C  C111  1  0.89901200  0.25000000  0.97522000  1
