# generated using pymatgen
data_CuNiC6
_symmetry_space_group_name_H-M   'P 1'
_cell_length_a   5.50223200
_cell_length_b   11.03760400
_cell_length_c   15.86507500
_cell_angle_alpha   90.00000000
_cell_angle_beta   90.00000000
_cell_angle_gamma   90.00000000
_symmetry_Int_Tables_number   1
_chemical_formula_structural   CuNiC6
_chemical_formula_sum   'Cu8 Ni8 C48'
_cell_volume   963.50913495
_cell_formula_units_Z   8
loop_
 _symmetry_equiv_pos_site_id
 _symmetry_equiv_pos_as_xyz
  1  'x, y, z'
loop_
 _atom_site_type_symbol
 _atom_site_label
 _atom_site_symmetry_multiplicity
 _atom_site_fract_x
 _atom_site_fract_y
 _atom_site_fract_z
 _atom_site_occupancy
  C  C0  1  0.05741000  0.73432300  0.68639300  1
  C  C1  1  0.49661000  0.48647900  0.93816200  1
  C  C2  1  0.50339000  0.51352100  0.43816200  1
  C  C3  1  0.50339000  0.98647900  0.93816200  1
  C  C4  1  0.49661000  0.01352100  0.43816200  1
  C  C5  1  0.44853200  0.23822400  0.81754200  1
  C  C6  1  0.55146800  0.76177600  0.31754200  1
  C  C7  1  0.55146800  0.73822400  0.81754200  1
  C  C8  1  0.44853200  0.26177600  0.31754200  1
  C  C9  1  0.94259000  0.26567700  0.18639300  1
  C  C10  1  0.94259000  0.23432300  0.68639300  1
  C  C11  1  0.05741000  0.76567700  0.18639300  1
  C  C12  1  0.00659100  0.51256600  0.06141700  1
  C  C13  1  0.99340900  0.01256600  0.06141700  1
  C  C14  1  0.99340900  0.48743400  0.56141700  1
  C  C15  1  0.00659100  0.98743400  0.56141700  1
  Ni  Ni16  1  0.53809700  0.74068700  0.56422900  1
  Ni  Ni17  1  0.99198200  0.49008100  0.81112100  1
  Ni  Ni18  1  0.00801800  0.50991900  0.31112100  1
  Ni  Ni19  1  0.00801800  0.99008100  0.81112100  1
  Ni  Ni20  1  0.99198200  0.00991900  0.31112100  1
  Ni  Ni21  1  0.53809700  0.75931300  0.06422900  1
  Ni  Ni22  1  0.46190300  0.24068700  0.56422900  1
  Ni  Ni23  1  0.46190300  0.25931300  0.06422900  1
  Cu  Cu24  1  0.96729600  0.26481900  0.43515200  1
  Cu  Cu25  1  0.03270400  0.73518100  0.93515200  1
  Cu  Cu26  1  0.03270400  0.76481900  0.43515200  1
  Cu  Cu27  1  0.96729600  0.23518100  0.93515200  1
  Cu  Cu28  1  0.50909000  0.99189400  0.68896600  1
  Cu  Cu29  1  0.49091000  0.00810600  0.18896600  1
  Cu  Cu30  1  0.49091000  0.49189400  0.68896600  1
  Cu  Cu31  1  0.50909000  0.50810600  0.18896600  1
  C  C32  1  0.21747200  0.01182100  0.71083800  1
  C  C33  1  0.78252800  0.98817900  0.21083800  1
  C  C34  1  0.78252800  0.51182100  0.71083800  1
  C  C35  1  0.21747200  0.48817900  0.21083800  1
  C  C36  1  0.56887300  0.84938800  0.66235900  1
  C  C37  1  0.43112700  0.15061200  0.16235900  1
  C  C38  1  0.43112700  0.34938800  0.66235900  1
  C  C39  1  0.56887300  0.65061200  0.16235900  1
  C  C40  1  0.41815600  0.58167200  0.60910700  1
  C  C41  1  0.58184400  0.41832800  0.10910700  1
  C  C42  1  0.58184400  0.08167200  0.60910700  1
  C  C43  1  0.41815600  0.91832800  0.10910700  1
  C  C44  1  0.84488500  0.70229800  0.50424000  1
  C  C45  1  0.15511500  0.29770200  0.00424000  1
  C  C46  1  0.15511500  0.20229800  0.50424000  1
  C  C47  1  0.70256400  0.20463400  0.97966700  1
  C  C48  1  0.32995000  0.97482400  0.27430000  1
  C  C49  1  0.67005000  0.02517600  0.77430000  1
  C  C50  1  0.67005000  0.47482400  0.27430000  1
  C  C51  1  0.32995000  0.52517600  0.77430000  1
  C  C52  1  0.92600500  0.17554200  0.35268100  1
  C  C53  1  0.07399500  0.82445800  0.85268100  1
  C  C54  1  0.07399500  0.67554200  0.35268100  1
  C  C55  1  0.92600500  0.32445800  0.85268100  1
  C  C56  1  0.08844000  0.39446400  0.40302500  1
  C  C57  1  0.91156000  0.60553600  0.90302500  1
  C  C58  1  0.91156000  0.89446400  0.40302500  1
  C  C59  1  0.08844000  0.10553600  0.90302500  1
  C  C60  1  0.70256400  0.29536600  0.47966700  1
  C  C61  1  0.29743600  0.70463400  0.97966700  1
  C  C62  1  0.29743600  0.79536600  0.47966700  1
  C  C63  1  0.84488500  0.79770200  0.00424000  1
