# generated using pymatgen
data_Cu(NiC3)2
_symmetry_space_group_name_H-M   'P 1'
_cell_length_a   9.05660835
_cell_length_b   9.05660835
_cell_length_c   4.90079500
_cell_angle_alpha   90.00000000
_cell_angle_beta   90.00000000
_cell_angle_gamma   120.00000253
_symmetry_Int_Tables_number   1
_chemical_formula_structural   Cu(NiC3)2
_chemical_formula_sum   'Cu3 Ni6 C18'
_cell_volume   348.11948399
_cell_formula_units_Z   3
loop_
 _symmetry_equiv_pos_site_id
 _symmetry_equiv_pos_as_xyz
  1  'x, y, z'
loop_
 _atom_site_type_symbol
 _atom_site_label
 _atom_site_symmetry_multiplicity
 _atom_site_fract_x
 _atom_site_fract_y
 _atom_site_fract_z
 _atom_site_occupancy
  Ni  Ni0  1  0.63212000  0.00000000  0.00000000  1
  Ni  Ni1  1  0.00000000  0.63212000  0.00000000  1
  Ni  Ni2  1  0.36788000  0.36788000  0.00000000  1
  Ni  Ni3  1  0.29493600  0.00000000  0.50000000  1
  Ni  Ni4  1  0.00000000  0.29493600  0.50000000  1
  Ni  Ni5  1  0.70506400  0.70506400  0.50000000  1
  Cu  Cu6  1  0.00000000  0.00000000  0.00000000  1
  Cu  Cu7  1  0.33333300  0.66666700  0.51355100  1
  Cu  Cu8  1  0.66666700  0.33333300  0.48644900  1
  C  C9  1  0.08651900  0.88065000  0.78003900  1
  C  C10  1  0.11935000  0.20586900  0.78003900  1
  C  C11  1  0.79413100  0.91348100  0.78003900  1
  C  C12  1  0.20586900  0.11935000  0.21996100  1
  C  C13  1  0.91348100  0.79413100  0.21996100  1
  C  C14  1  0.88065000  0.08651900  0.21996100  1
  C  C15  1  0.46103900  0.58965100  0.73780100  1
  C  C16  1  0.41034900  0.87138700  0.73780100  1
  C  C17  1  0.12861300  0.53896100  0.73780100  1
  C  C18  1  0.87138700  0.41034900  0.26219900  1
  C  C19  1  0.53896100  0.12861300  0.26219900  1
  C  C20  1  0.58965100  0.46103900  0.26219900  1
  C  C21  1  0.22041400  0.76034400  0.28950500  1
  C  C22  1  0.23965600  0.46007000  0.28950500  1
  C  C23  1  0.53993000  0.77958600  0.28950500  1
  C  C24  1  0.46007000  0.23965600  0.71049500  1
  C  C25  1  0.77958600  0.53993000  0.71049500  1
  C  C26  1  0.76034400  0.22041400  0.71049500  1
