# generated using pymatgen
data_Cu(NiC10)2
_symmetry_space_group_name_H-M   'P 1'
_cell_length_a   11.48269065
_cell_length_b   11.48269065
_cell_length_c   9.61719600
_cell_angle_alpha   90.00000000
_cell_angle_beta   90.00000000
_cell_angle_gamma   120.00000377
_symmetry_Int_Tables_number   1
_chemical_formula_structural   Cu(NiC10)2
_chemical_formula_sum   'Cu3 Ni6 C60'
_cell_volume   1098.16200192
_cell_formula_units_Z   3
loop_
 _symmetry_equiv_pos_site_id
 _symmetry_equiv_pos_as_xyz
  1  'x, y, z'
loop_
 _atom_site_type_symbol
 _atom_site_label
 _atom_site_symmetry_multiplicity
 _atom_site_fract_x
 _atom_site_fract_y
 _atom_site_fract_z
 _atom_site_occupancy
  Ni  Ni0  1  0.72900700  0.00000000  0.33333300  1
  Ni  Ni1  1  0.00000000  0.53743500  0.16666700  1
  Ni  Ni2  1  0.00000000  0.72900700  0.66666700  1
  Ni  Ni3  1  0.46256500  0.46256500  0.50000000  1
  Ni  Ni4  1  0.27099300  0.27099300  0.00000000  1
  Ni  Ni5  1  0.53743500  0.00000000  0.83333300  1
  Cu  Cu6  1  0.67330400  0.67330400  0.00000000  1
  Cu  Cu7  1  0.32669600  0.00000000  0.33333300  1
  Cu  Cu8  1  0.00000000  0.32669600  0.66666700  1
  C  C9  1  0.42256900  0.67034600  0.06473100  1
  C  C10  1  0.24777700  0.57743100  0.73139800  1
  C  C11  1  0.74302900  0.64108600  0.28532500  1
  C  C12  1  0.25697100  0.89805700  0.04800800  1
  C  C13  1  0.35891400  0.10194300  0.61865800  1
  C  C14  1  0.75222300  0.32965400  0.60193600  1
  C  C15  1  0.32965400  0.75222300  0.39806400  1
  C  C16  1  0.57743100  0.24777700  0.26860200  1
  C  C17  1  0.92029200  0.92029200  0.00000000  1
  C  C18  1  0.00000000  0.07970800  0.66666700  1
  C  C19  1  0.10194300  0.35891400  0.38134200  1
  C  C20  1  0.07970800  0.00000000  0.33333300  1
  C  C21  1  0.89805700  0.25697100  0.95199200  1
  C  C22  1  0.64108600  0.74302900  0.71467500  1
  C  C23  1  0.67034600  0.42256900  0.93526900  1
  C  C24  1  0.99686200  0.36594500  0.41268600  1
  C  C25  1  0.33730100  0.65017900  0.42261400  1
  C  C26  1  0.75679400  0.22033600  0.59203800  1
  C  C27  1  0.66688500  0.82468700  0.81663300  1
  C  C28  1  0.22033600  0.75679400  0.40796200  1
  C  C29  1  0.63091700  0.63405500  0.25398100  1
  C  C30  1  0.17531300  0.84219800  0.14996600  1
  C  C31  1  0.81713700  0.90237700  0.07389400  1
  C  C32  1  0.33311500  0.15780200  0.51670100  1
  C  C33  1  0.24320600  0.46354200  0.74129500  1
  C  C34  1  0.14584300  0.37516700  0.26116000  1
  C  C35  1  0.34982100  0.68712100  0.75594700  1
  C  C36  1  0.13815400  0.57198400  0.69266200  1
  C  C37  1  0.68712100  0.34982100  0.24405300  1
  C  C38  1  0.08524000  0.18286300  0.74056100  1
  C  C39  1  0.18286300  0.08524000  0.25943900  1
  C  C40  1  0.42801600  0.56617000  0.02599500  1
  C  C41  1  0.84219800  0.17531300  0.85003400  1
  C  C42  1  0.22932400  0.85415700  0.92782700  1
  C  C43  1  0.57198400  0.13815400  0.30733800  1
  C  C44  1  0.97445600  0.00000000  0.33333300  1
  C  C45  1  0.00313800  0.36908300  0.92064800  1
  C  C46  1  0.15780200  0.33311500  0.48329900  1
  C  C47  1  0.86184600  0.43383000  0.64067200  1
  C  C48  1  0.66269900  0.31287900  0.91072000  1
  C  C49  1  0.00000000  0.97445600  0.66666700  1
  C  C50  1  0.77067600  0.62483300  0.40550600  1
  C  C51  1  0.63405500  0.63091700  0.74601900  1
  C  C52  1  0.91476000  0.09762300  0.59277300  1
  C  C53  1  0.82468700  0.66688500  0.18336700  1
  C  C54  1  0.56617000  0.42801600  0.97400500  1
  C  C55  1  0.36908300  0.00313800  0.07935200  1
  C  C56  1  0.37516700  0.14584300  0.73884000  1
  C  C57  1  0.53645800  0.77966400  0.07462800  1
  C  C58  1  0.62483300  0.77067600  0.59449400  1
  C  C59  1  0.02554400  0.02554400  0.00000000  1
  C  C60  1  0.85415700  0.22932400  0.07217300  1
  C  C61  1  0.09762300  0.91476000  0.40722700  1
  C  C62  1  0.31287900  0.66269900  0.08928000  1
  C  C63  1  0.46354200  0.24320600  0.25870500  1
  C  C64  1  0.36594500  0.99686200  0.58731400  1
  C  C65  1  0.77966400  0.53645800  0.92537200  1
  C  C66  1  0.65017900  0.33730100  0.57738600  1
  C  C67  1  0.90237700  0.81713700  0.92610600  1
  C  C68  1  0.43383000  0.86184600  0.35932800  1
