# generated using pymatgen
data_Cu6Ni2C
_symmetry_space_group_name_H-M   'P 1'
_cell_length_a   6.84003700
_cell_length_b   8.50352300
_cell_length_c   15.39167865
_cell_angle_alpha   58.05125528
_cell_angle_beta   90.00000000
_cell_angle_gamma   90.00000000
_symmetry_Int_Tables_number   1
_chemical_formula_structural   Cu6Ni2C
_chemical_formula_sum   'Cu36 Ni12 C6'
_cell_volume   759.63739884
_cell_formula_units_Z   6
loop_
 _symmetry_equiv_pos_site_id
 _symmetry_equiv_pos_as_xyz
  1  'x, y, z'
loop_
 _atom_site_type_symbol
 _atom_site_label
 _atom_site_symmetry_multiplicity
 _atom_site_fract_x
 _atom_site_fract_y
 _atom_site_fract_z
 _atom_site_occupancy
  C  C0  1  0.22054000  0.38010200  0.65950600  1
  C  C1  1  0.72054000  0.61989800  0.84049400  1
  C  C2  1  0.77946000  0.61989800  0.34049400  1
  C  C3  1  0.27946000  0.38010200  0.15950600  1
  C  C4  1  0.50000000  0.00000000  0.50000000  1
  C  C5  1  0.00000000  0.00000000  0.00000000  1
  Ni  Ni6  1  0.72161300  0.10134000  0.11294300  1
  Ni  Ni7  1  0.23294300  0.78052700  0.68157900  1
  Ni  Ni8  1  0.74549000  0.66956700  0.54880600  1
  Ni  Ni9  1  0.77838700  0.10134000  0.61294300  1
  Ni  Ni10  1  0.73294300  0.21947300  0.81842100  1
  Ni  Ni11  1  0.24549000  0.33043300  0.95119400  1
  Ni  Ni12  1  0.76705700  0.21947300  0.31842100  1
  Ni  Ni13  1  0.25451000  0.33043300  0.45119400  1
  Ni  Ni14  1  0.75451000  0.66956700  0.04880600  1
  Ni  Ni15  1  0.27838700  0.89866000  0.88705700  1
  Ni  Ni16  1  0.22161300  0.89866000  0.38705700  1
  Ni  Ni17  1  0.26705700  0.78052700  0.18157900  1
  Cu  Cu18  1  0.64217300  0.54791700  0.05850300  1
  Cu  Cu19  1  0.28249700  0.95479400  0.11921900  1
  Cu  Cu20  1  0.90955200  0.71229300  0.99306200  1
  Cu  Cu21  1  0.29049000  0.82914300  0.98392200  1
  Cu  Cu22  1  0.14217300  0.45208300  0.44149700  1
  Cu  Cu23  1  0.11532300  0.70381100  0.16874500  1
  Cu  Cu24  1  0.61532300  0.29618900  0.33125500  1
  Cu  Cu25  1  0.38965600  0.85643800  0.84029700  1
  Cu  Cu26  1  0.79049000  0.17085700  0.51607800  1
  Cu  Cu27  1  0.59044800  0.71229300  0.49306200  1
  Cu  Cu28  1  0.36086200  0.01766800  0.34184800  1
  Cu  Cu29  1  0.40955200  0.28770700  0.50693800  1
  Cu  Cu30  1  0.11197500  0.68907000  0.74919100  1
  Cu  Cu31  1  0.88802500  0.31093000  0.25080900  1
  Cu  Cu32  1  0.61197500  0.31093000  0.75080900  1
  Cu  Cu33  1  0.38467700  0.70381100  0.66874500  1
  Cu  Cu34  1  0.35782700  0.45208300  0.94149700  1
  Cu  Cu35  1  0.88467700  0.29618900  0.83125500  1
  Cu  Cu36  1  0.88965600  0.14356200  0.65970300  1
  Cu  Cu37  1  0.11034400  0.85643800  0.34029700  1
  Cu  Cu38  1  0.72543100  0.76192700  0.09144100  1
  Cu  Cu39  1  0.20951000  0.82914300  0.48392200  1
  Cu  Cu40  1  0.78249700  0.04520600  0.38078100  1
  Cu  Cu41  1  0.21750300  0.95479400  0.61921900  1
  Cu  Cu42  1  0.86086200  0.98233200  0.15815200  1
  Cu  Cu43  1  0.61034400  0.14356200  0.15970300  1
  Cu  Cu44  1  0.77456900  0.76192700  0.59144100  1
  Cu  Cu45  1  0.85782700  0.54791700  0.55850300  1
  Cu  Cu46  1  0.09044800  0.28770700  0.00693800  1
  Cu  Cu47  1  0.63913800  0.98233200  0.65815200  1
  Cu  Cu48  1  0.22543100  0.23807300  0.40855900  1
  Cu  Cu49  1  0.71750300  0.04520600  0.88078100  1
  Cu  Cu50  1  0.70951000  0.17085700  0.01607800  1
  Cu  Cu51  1  0.38802500  0.68907000  0.24919100  1
  Cu  Cu52  1  0.13913800  0.01766800  0.84184800  1
  Cu  Cu53  1  0.27456900  0.23807300  0.90855900  1
