# generated using pymatgen
data_CuNi8C5
_symmetry_space_group_name_H-M   'P 1'
_cell_length_a   8.95993051
_cell_length_b   8.95993051
_cell_length_c   10.91205918
_cell_angle_alpha   82.90136589
_cell_angle_beta   82.90136589
_cell_angle_gamma   52.24570015
_symmetry_Int_Tables_number   1
_chemical_formula_structural   CuNi8C5
_chemical_formula_sum   'Cu2 Ni16 C10'
_cell_volume   686.03088964
_cell_formula_units_Z   2
loop_
 _symmetry_equiv_pos_site_id
 _symmetry_equiv_pos_as_xyz
  1  'x, y, z'
loop_
 _atom_site_type_symbol
 _atom_site_label
 _atom_site_symmetry_multiplicity
 _atom_site_fract_x
 _atom_site_fract_y
 _atom_site_fract_z
 _atom_site_occupancy
  C  C0  1  0.07688400  0.32102600  0.81902000  1
  C  C1  1  0.40464700  0.59535300  0.75000000  1
  C  C2  1  0.92311600  0.67897400  0.18098000  1
  C  C3  1  0.67897400  0.92311600  0.68098000  1
  C  C4  1  0.59535300  0.40464700  0.25000000  1
  C  C5  1  0.32102600  0.07688400  0.31902000  1
  C  C6  1  0.62302800  0.69667500  0.97018900  1
  C  C7  1  0.69667500  0.62302800  0.47018900  1
  C  C8  1  0.30332500  0.37697200  0.52981100  1
  C  C9  1  0.37697200  0.30332500  0.02981100  1
  Ni  Ni10  1  0.59978200  0.11101200  0.14809100  1
  Ni  Ni11  1  0.25021200  0.44981500  0.33891600  1
  Ni  Ni12  1  0.74978800  0.55018500  0.66108400  1
  Ni  Ni13  1  0.71287300  0.85039000  0.41412000  1
  Ni  Ni14  1  0.27739900  0.58522900  0.04343500  1
  Ni  Ni15  1  0.28712700  0.14961000  0.58588000  1
  Ni  Ni16  1  0.44981500  0.25021200  0.83891600  1
  Ni  Ni17  1  0.58522900  0.27739900  0.54343500  1
  Ni  Ni18  1  0.85039000  0.71287300  0.91412000  1
  Ni  Ni19  1  0.88898800  0.40021800  0.35190900  1
  Ni  Ni20  1  0.40021800  0.88898800  0.85190900  1
  Ni  Ni21  1  0.55018500  0.74978800  0.16108400  1
  Ni  Ni22  1  0.72260100  0.41477100  0.95656500  1
  Ni  Ni23  1  0.11101200  0.59978200  0.64809100  1
  Ni  Ni24  1  0.41477100  0.72260100  0.45656500  1
  Ni  Ni25  1  0.14961000  0.28712700  0.08588000  1
  Cu  Cu26  1  0.98631800  0.01368200  0.75000000  1
  Cu  Cu27  1  0.01368200  0.98631800  0.25000000  1
