# generated using pymatgen
data_Cu2(Ni2C9)3
_symmetry_space_group_name_H-M   'P 1'
_cell_length_a   12.55800500
_cell_length_b   12.55800500
_cell_length_c   12.55800500
_cell_angle_alpha   90.00000000
_cell_angle_beta   90.00000000
_cell_angle_gamma   90.00000000
_symmetry_Int_Tables_number   1
_chemical_formula_structural   Cu2(Ni2C9)3
_chemical_formula_sum   'Cu8 Ni24 C108'
_cell_volume   1980.44121066
_cell_formula_units_Z   4
loop_
 _symmetry_equiv_pos_site_id
 _symmetry_equiv_pos_as_xyz
  1  'x, y, z'
loop_
 _atom_site_type_symbol
 _atom_site_label
 _atom_site_symmetry_multiplicity
 _atom_site_fract_x
 _atom_site_fract_y
 _atom_site_fract_z
 _atom_site_occupancy
  C  C0  1  0.00000000  0.00000000  0.00000000  1
  C  C1  1  0.00000000  0.50000000  0.50000000  1
  C  C2  1  0.50000000  0.50000000  0.00000000  1
  C  C3  1  0.50000000  0.00000000  0.50000000  1
  C  C4  1  0.92732900  0.75814200  0.69695500  1
  C  C5  1  0.26424600  0.36076500  0.20082600  1
  C  C6  1  0.84626100  0.34845600  0.86981400  1
  C  C7  1  0.75814200  0.80304500  0.42732900  1
  C  C8  1  0.74185800  0.19695500  0.92732900  1
  C  C9  1  0.79917400  0.73575400  0.63923500  1
  C  C10  1  0.63018600  0.34626100  0.34845600  1
  C  C11  1  0.63923500  0.79917400  0.73575400  1
  C  C12  1  0.63018600  0.15373900  0.84845600  1
  C  C13  1  0.13018600  0.15373900  0.65154400  1
  C  C14  1  0.34845600  0.86981400  0.84626100  1
  C  C15  1  0.80304500  0.42732900  0.75814200  1
  C  C16  1  0.36981400  0.65373900  0.65154400  1
  C  C17  1  0.15154400  0.13018600  0.34626100  1
  C  C18  1  0.24185800  0.30304500  0.07267100  1
  C  C19  1  0.23575400  0.63923500  0.70082600  1
  C  C20  1  0.65628800  0.34371200  0.84371200  1
  C  C21  1  0.84371200  0.65628800  0.34371200  1
  C  C22  1  0.25814200  0.69695500  0.57267100  1
  C  C23  1  0.74185800  0.30304500  0.42732900  1
  C  C24  1  0.19695500  0.57267100  0.24185800  1
  C  C25  1  0.84626100  0.15154400  0.36981400  1
  C  C26  1  0.34626100  0.15154400  0.13018600  1
  C  C27  1  0.34371200  0.65628800  0.15628800  1
  C  C28  1  0.65154400  0.13018600  0.15373900  1
  C  C29  1  0.24185800  0.19695500  0.57267100  1
  C  C30  1  0.65373900  0.84845600  0.86981400  1
  C  C31  1  0.29917400  0.76424600  0.36076500  1
  C  C32  1  0.42732900  0.74185800  0.30304500  1
  C  C33  1  0.13923500  0.70082600  0.26424600  1
  C  C34  1  0.86981400  0.65373900  0.84845600  1
  C  C35  1  0.75814200  0.69695500  0.92732900  1
  C  C36  1  0.19695500  0.92732900  0.74185800  1
  C  C37  1  0.15628800  0.34371200  0.65628800  1
  C  C38  1  0.65628800  0.15628800  0.34371200  1
  C  C39  1  0.57267100  0.25814200  0.69695500  1
  C  C40  1  0.25814200  0.80304500  0.07267100  1
  C  C41  1  0.15154400  0.36981400  0.84626100  1
  C  C42  1  0.34626100  0.34845600  0.63018600  1
  C  C43  1  0.84845600  0.86981400  0.65373900  1
  C  C44  1  0.15373900  0.65154400  0.13018600  1
  C  C45  1  0.70082600  0.23575400  0.63923500  1
  C  C46  1  0.26424600  0.13923500  0.70082600  1
  C  C47  1  0.57267100  0.24185800  0.19695500  1
  C  C48  1  0.36076500  0.29917400  0.76424600  1
  C  C49  1  0.86981400  0.84626100  0.34845600  1
  C  C50  1  0.13018600  0.34626100  0.15154400  1
  C  C51  1  0.76424600  0.36076500  0.29917400  1
  C  C52  1  0.73575400  0.86076500  0.29917400  1
  C  C53  1  0.80304500  0.07267100  0.25814200  1
  C  C54  1  0.65154400  0.36981400  0.65373900  1
  C  C55  1  0.20082600  0.23575400  0.86076500  1
  C  C56  1  0.76424600  0.13923500  0.79917400  1
  C  C57  1  0.70082600  0.26424600  0.13923500  1
  C  C58  1  0.79917400  0.76424600  0.13923500  1
  C  C59  1  0.30304500  0.42732900  0.74185800  1
  C  C60  1  0.69695500  0.57267100  0.25814200  1
  C  C61  1  0.23575400  0.86076500  0.20082600  1
  C  C62  1  0.86076500  0.20082600  0.23575400  1
  C  C63  1  0.69695500  0.92732900  0.75814200  1
  C  C64  1  0.84845600  0.63018600  0.15373900  1
  C  C65  1  0.65373900  0.65154400  0.36981400  1
  C  C66  1  0.84371200  0.84371200  0.84371200  1
  C  C67  1  0.63923500  0.70082600  0.23575400  1
  C  C68  1  0.20082600  0.26424600  0.36076500  1
  C  C69  1  0.34371200  0.84371200  0.65628800  1
  C  C70  1  0.92732900  0.74185800  0.19695500  1
  C  C71  1  0.30304500  0.07267100  0.24185800  1
  C  C72  1  0.15373900  0.84845600  0.63018600  1
  C  C73  1  0.42732900  0.75814200  0.80304500  1
  C  C74  1  0.29917400  0.73575400  0.86076500  1
  C  C75  1  0.07267100  0.25814200  0.80304500  1
  C  C76  1  0.86076500  0.29917400  0.73575400  1
  C  C77  1  0.73575400  0.63923500  0.79917400  1
  C  C78  1  0.36981400  0.84626100  0.15154400  1
  C  C79  1  0.07267100  0.24185800  0.30304500  1
  C  C80  1  0.13923500  0.79917400  0.76424600  1
  C  C81  1  0.34845600  0.63018600  0.34626100  1
  C  C82  1  0.36076500  0.20082600  0.26424600  1
  C  C83  1  0.15628800  0.15628800  0.15628800  1
  Ni  Ni84  1  0.71008400  0.18845500  0.84666200  1
  Ni  Ni85  1  0.21008400  0.18845500  0.65333800  1
  Ni  Ni86  1  0.31154500  0.34666200  0.71008400  1
  Ni  Ni87  1  0.15333800  0.21008400  0.31154500  1
  Ni  Ni88  1  0.34666200  0.78991600  0.81154500  1
  Ni  Ni89  1  0.71008400  0.31154500  0.34666200  1
  Ni  Ni90  1  0.18845500  0.84666200  0.71008400  1
  Ni  Ni91  1  0.65333800  0.21008400  0.18845500  1
  Ni  Ni92  1  0.21008400  0.31154500  0.15333800  1
  Ni  Ni93  1  0.68845500  0.65333800  0.28991600  1
  Ni  Ni94  1  0.18845500  0.65333800  0.21008400  1
  Ni  Ni95  1  0.84666200  0.71008400  0.18845500  1
  Ni  Ni96  1  0.28991600  0.81154500  0.15333800  1
  Ni  Ni97  1  0.68845500  0.84666200  0.78991600  1
  Ni  Ni98  1  0.28991600  0.68845500  0.65333800  1
  Ni  Ni99  1  0.81154500  0.34666200  0.78991600  1
  Ni  Ni100  1  0.81154500  0.15333800  0.28991600  1
  Ni  Ni101  1  0.31154500  0.15333800  0.21008400  1
  Ni  Ni102  1  0.78991600  0.68845500  0.84666200  1
  Ni  Ni103  1  0.84666200  0.78991600  0.68845500  1
  Ni  Ni104  1  0.15333800  0.28991600  0.81154500  1
  Ni  Ni105  1  0.65333800  0.28991600  0.68845500  1
  Ni  Ni106  1  0.78991600  0.81154500  0.34666200  1
  Ni  Ni107  1  0.34666200  0.71008400  0.31154500  1
  Cu  Cu108  1  0.20395000  0.29605000  0.70395000  1
  Cu  Cu109  1  0.70395000  0.20395000  0.29605000  1
  Cu  Cu110  1  0.20395000  0.20395000  0.20395000  1
  Cu  Cu111  1  0.29605000  0.79605000  0.70395000  1
  Cu  Cu112  1  0.70395000  0.29605000  0.79605000  1
  Cu  Cu113  1  0.29605000  0.70395000  0.20395000  1
  Cu  Cu114  1  0.79605000  0.70395000  0.29605000  1
  Cu  Cu115  1  0.79605000  0.79605000  0.79605000  1
  C  C116  1  0.03485700  0.52569700  0.70048500  1
  C  C117  1  0.02569700  0.79951500  0.96514300  1
  C  C118  1  0.47430300  0.29951500  0.96514300  1
  C  C119  1  0.53485700  0.97430300  0.29951500  1
  C  C120  1  0.97430300  0.29951500  0.53485700  1
  C  C121  1  0.79951500  0.53485700  0.52569700  1
  C  C122  1  0.52569700  0.79951500  0.53485700  1
  C  C123  1  0.70048500  0.46514300  0.02569700  1
  C  C124  1  0.79951500  0.96514300  0.02569700  1
  C  C125  1  0.29951500  0.96514300  0.47430300  1
  C  C126  1  0.96514300  0.02569700  0.79951500  1
  C  C127  1  0.47430300  0.20048500  0.46514300  1
  C  C128  1  0.53485700  0.52569700  0.79951500  1
  C  C129  1  0.29951500  0.53485700  0.97430300  1
  C  C130  1  0.70048500  0.03485700  0.52569700  1
  C  C131  1  0.52569700  0.70048500  0.03485700  1
  C  C132  1  0.96514300  0.47430300  0.29951500  1
  C  C133  1  0.20048500  0.03485700  0.97430300  1
  C  C134  1  0.46514300  0.02569700  0.70048500  1
  C  C135  1  0.20048500  0.46514300  0.47430300  1
  C  C136  1  0.03485700  0.97430300  0.20048500  1
  C  C137  1  0.97430300  0.20048500  0.03485700  1
  C  C138  1  0.46514300  0.47430300  0.20048500  1
  C  C139  1  0.02569700  0.70048500  0.46514300  1
