# generated using pymatgen
data_Cu(NiC)2
_symmetry_space_group_name_H-M   'P 1'
_cell_length_a   5.24962440
_cell_length_b   5.24962440
_cell_length_c   13.46289800
_cell_angle_alpha   90.00000000
_cell_angle_beta   90.00000000
_cell_angle_gamma   148.04787936
_symmetry_Int_Tables_number   1
_chemical_formula_structural   Cu(NiC)2
_chemical_formula_sum   'Cu4 Ni8 C8'
_cell_volume   196.34660346
_cell_formula_units_Z   4
loop_
 _symmetry_equiv_pos_site_id
 _symmetry_equiv_pos_as_xyz
  1  'x, y, z'
loop_
 _atom_site_type_symbol
 _atom_site_label
 _atom_site_symmetry_multiplicity
 _atom_site_fract_x
 _atom_site_fract_y
 _atom_site_fract_z
 _atom_site_occupancy
  C  C0  1  0.82528300  0.17471700  0.94150800  1
  C  C1  1  0.00161800  0.99838200  0.75000000  1
  C  C2  1  0.99838200  0.00161800  0.25000000  1
  C  C3  1  0.26876400  0.73123600  0.25000000  1
  C  C4  1  0.73123600  0.26876400  0.75000000  1
  C  C5  1  0.17471700  0.82528300  0.05849200  1
  C  C6  1  0.17471700  0.82528300  0.44150800  1
  C  C7  1  0.82528300  0.17471700  0.55849200  1
  Ni  Ni8  1  0.79813100  0.20186900  0.36972000  1
  Ni  Ni9  1  0.79813100  0.20186900  0.13028000  1
  Ni  Ni10  1  0.20186900  0.79813100  0.63028000  1
  Ni  Ni11  1  0.63517500  0.36482500  0.31832700  1
  Ni  Ni12  1  0.36482500  0.63517500  0.68167300  1
  Ni  Ni13  1  0.63517500  0.36482500  0.18167300  1
  Ni  Ni14  1  0.20186900  0.79813100  0.86972000  1
  Ni  Ni15  1  0.36482500  0.63517500  0.81832700  1
  Cu  Cu16  1  0.44385400  0.55614600  0.41100400  1
  Cu  Cu17  1  0.44385400  0.55614600  0.08899600  1
  Cu  Cu18  1  0.55614600  0.44385400  0.91100400  1
  Cu  Cu19  1  0.55614600  0.44385400  0.58899600  1
