# generated using pymatgen
data_CuNi
_symmetry_space_group_name_H-M   'P 1'
_cell_length_a   3.81260047
_cell_length_b   3.81260047
_cell_length_c   35.10467100
_cell_angle_alpha   90.00000000
_cell_angle_beta   90.00000000
_cell_angle_gamma   120.00000820
_symmetry_Int_Tables_number   1
_chemical_formula_structural   CuNi
_chemical_formula_sum   'Cu8 Ni8'
_cell_volume   441.91434324
_cell_formula_units_Z   8
loop_
 _symmetry_equiv_pos_site_id
 _symmetry_equiv_pos_as_xyz
  1  'x, y, z'
loop_
 _atom_site_type_symbol
 _atom_site_label
 _atom_site_symmetry_multiplicity
 _atom_site_fract_x
 _atom_site_fract_y
 _atom_site_fract_z
 _atom_site_occupancy
  Ni  Ni0  1  0.33333300  0.66666700  0.21644900  1
  Ni  Ni1  1  0.00000000  0.00000000  0.53549700  1
  Ni  Ni2  1  0.66666700  0.33333300  0.71644900  1
  Ni  Ni3  1  0.00000000  0.00000000  0.03549700  1
  Ni  Ni4  1  0.33333300  0.66666700  0.28665700  1
  Ni  Ni5  1  0.66666700  0.33333300  0.78665700  1
  Ni  Ni6  1  0.00000000  0.00000000  0.96515200  1
  Ni  Ni7  1  0.00000000  0.00000000  0.46515200  1
  Cu  Cu8  1  0.00000000  0.00000000  0.68306700  1
  Cu  Cu9  1  0.66666700  0.33333300  0.93169800  1
  Cu  Cu10  1  0.66666700  0.33333300  0.06895200  1
  Cu  Cu11  1  0.00000000  0.00000000  0.32002900  1
  Cu  Cu12  1  0.00000000  0.00000000  0.18306700  1
  Cu  Cu13  1  0.33333300  0.66666700  0.56895200  1
  Cu  Cu14  1  0.00000000  0.00000000  0.82002900  1
  Cu  Cu15  1  0.33333300  0.66666700  0.43169800  1
