# generated using pymatgen
data_CuNi2C
_symmetry_space_group_name_H-M   'P 1'
_cell_length_a   11.91923800
_cell_length_b   11.91923800
_cell_length_c   6.78485300
_cell_angle_alpha   90.00000000
_cell_angle_beta   90.00000000
_cell_angle_gamma   90.00000000
_symmetry_Int_Tables_number   1
_chemical_formula_structural   CuNi2C
_chemical_formula_sum   'Cu8 Ni16 C8'
_cell_volume   963.91208706
_cell_formula_units_Z   8
loop_
 _symmetry_equiv_pos_site_id
 _symmetry_equiv_pos_as_xyz
  1  'x, y, z'
loop_
 _atom_site_type_symbol
 _atom_site_label
 _atom_site_symmetry_multiplicity
 _atom_site_fract_x
 _atom_site_fract_y
 _atom_site_fract_z
 _atom_site_occupancy
  C  C0  1  0.04269800  0.83799400  0.94884300  1
  C  C1  1  0.33799400  0.45730200  0.44884300  1
  C  C2  1  0.83799400  0.95730200  0.05115700  1
  C  C3  1  0.45730200  0.66200600  0.55115700  1
  C  C4  1  0.54269800  0.33799400  0.55115700  1
  C  C5  1  0.16200600  0.04269800  0.05115700  1
  C  C6  1  0.66200600  0.54269800  0.44884300  1
  C  C7  1  0.95730200  0.16200600  0.94884300  1
  Ni  Ni8  1  0.09882900  0.80865900  0.64327500  1
  Ni  Ni9  1  0.67068700  0.94351700  0.91353800  1
  Ni  Ni10  1  0.40117100  0.69134100  0.85672500  1
  Ni  Ni11  1  0.17068700  0.44351700  0.58646200  1
  Ni  Ni12  1  0.30865900  0.40117100  0.14327500  1
  Ni  Ni13  1  0.59882900  0.30865900  0.85672500  1
  Ni  Ni14  1  0.80865900  0.90117100  0.35672500  1
  Ni  Ni15  1  0.82931300  0.55648300  0.58646200  1
  Ni  Ni16  1  0.94351700  0.32931300  0.08646200  1
  Ni  Ni17  1  0.44351700  0.82931300  0.41353800  1
  Ni  Ni18  1  0.55648300  0.17068700  0.41353800  1
  Ni  Ni19  1  0.05648300  0.67068700  0.08646200  1
  Ni  Ni20  1  0.19134100  0.09882900  0.35672500  1
  Ni  Ni21  1  0.32931300  0.05648300  0.91353800  1
  Ni  Ni22  1  0.90117100  0.19134100  0.64327500  1
  Ni  Ni23  1  0.69134100  0.59882900  0.14327500  1
  Cu  Cu24  1  0.41428300  0.37202900  0.56891600  1
  Cu  Cu25  1  0.37202900  0.58571700  0.43108400  1
  Cu  Cu26  1  0.87202900  0.08571700  0.06891600  1
  Cu  Cu27  1  0.58571700  0.62797100  0.56891600  1
  Cu  Cu28  1  0.91428300  0.87202900  0.93108400  1
  Cu  Cu29  1  0.12797100  0.91428300  0.06891600  1
  Cu  Cu30  1  0.08571700  0.12797100  0.93108400  1
  Cu  Cu31  1  0.62797100  0.41428300  0.43108400  1
