# generated using pymatgen
data_CuNiC4
_symmetry_space_group_name_H-M   'P 1'
_cell_length_a   13.07392296
_cell_length_b   13.07392296
_cell_length_c   13.07392314
_cell_angle_alpha   25.34190751
_cell_angle_beta   25.34190751
_cell_angle_gamma   25.34190514
_symmetry_Int_Tables_number   1
_chemical_formula_structural   CuNiC4
_chemical_formula_sum   'Cu4 Ni4 C16'
_cell_volume   360.32333779
_cell_formula_units_Z   4
loop_
 _symmetry_equiv_pos_site_id
 _symmetry_equiv_pos_as_xyz
  1  'x, y, z'
loop_
 _atom_site_type_symbol
 _atom_site_label
 _atom_site_symmetry_multiplicity
 _atom_site_fract_x
 _atom_site_fract_y
 _atom_site_fract_z
 _atom_site_occupancy
  Ni  Ni0  1  0.58704900  0.58704900  0.58704900  1
  Ni  Ni1  1  0.08704900  0.08704900  0.08704900  1
  Ni  Ni2  1  0.91295100  0.91295100  0.91295100  1
  Ni  Ni3  1  0.41295100  0.41295100  0.41295100  1
  Cu  Cu4  1  0.19084800  0.19084800  0.19084800  1
  Cu  Cu5  1  0.69084800  0.69084800  0.69084800  1
  Cu  Cu6  1  0.30915200  0.30915200  0.30915200  1
  Cu  Cu7  1  0.80915200  0.80915200  0.80915200  1
  C  C8  1  0.50000000  0.50000000  0.50000000  1
  C  C9  1  0.00000000  0.00000000  0.00000000  1
  C  C10  1  0.22237900  0.79203700  0.40393500  1
  C  C11  1  0.72237900  0.90393500  0.29203700  1
  C  C12  1  0.27762100  0.09606500  0.70796300  1
  C  C13  1  0.79203700  0.40393500  0.22237900  1
  C  C14  1  0.90393500  0.29203700  0.72237900  1
  C  C15  1  0.77762100  0.20796300  0.59606500  1
  C  C16  1  0.40393500  0.22237900  0.79203700  1
  C  C17  1  0.20796300  0.59606500  0.77762100  1
  C  C18  1  0.70796300  0.27762100  0.09606500  1
  C  C19  1  0.29203700  0.72237900  0.90393500  1
  C  C20  1  0.59606500  0.77762100  0.20796300  1
  C  C21  1  0.25000000  0.25000000  0.25000000  1
  C  C22  1  0.75000000  0.75000000  0.75000000  1
  C  C23  1  0.09606500  0.70796300  0.27762100  1
