# generated using pymatgen
data_CuNi4C7
_symmetry_space_group_name_H-M   'P 1'
_cell_length_a   5.32698600
_cell_length_b   8.21356900
_cell_length_c   19.58551800
_cell_angle_alpha   90.00000000
_cell_angle_beta   90.00000000
_cell_angle_gamma   90.00000000
_symmetry_Int_Tables_number   1
_chemical_formula_structural   CuNi4C7
_chemical_formula_sum   'Cu4 Ni16 C28'
_cell_volume   856.93627547
_cell_formula_units_Z   4
loop_
 _symmetry_equiv_pos_site_id
 _symmetry_equiv_pos_as_xyz
  1  'x, y, z'
loop_
 _atom_site_type_symbol
 _atom_site_label
 _atom_site_symmetry_multiplicity
 _atom_site_fract_x
 _atom_site_fract_y
 _atom_site_fract_z
 _atom_site_occupancy
  C  C0  1  0.75000000  0.39888500  0.55659500  1
  C  C1  1  0.25000000  0.89888500  0.94340500  1
  C  C2  1  0.75000000  0.10111500  0.05659500  1
  C  C3  1  0.25000000  0.60111500  0.44340500  1
  Ni  Ni4  1  0.75000000  0.40807600  0.17777000  1
  Ni  Ni5  1  0.25000000  0.66309400  0.61455500  1
  Ni  Ni6  1  0.75000000  0.09192400  0.67777000  1
  Ni  Ni7  1  0.25000000  0.83690600  0.11455500  1
  Ni  Ni8  1  0.25000000  0.90807600  0.32223000  1
  Ni  Ni9  1  0.75000000  0.70984900  0.33401300  1
  Ni  Ni10  1  0.25000000  0.15438900  0.45157100  1
  Ni  Ni11  1  0.75000000  0.79015100  0.83401300  1
  Ni  Ni12  1  0.75000000  0.16309400  0.88544500  1
  Ni  Ni13  1  0.25000000  0.59192400  0.82223000  1
  Ni  Ni14  1  0.75000000  0.33690600  0.38544500  1
  Ni  Ni15  1  0.25000000  0.29015100  0.66598700  1
  Ni  Ni16  1  0.25000000  0.34561100  0.95157100  1
  Ni  Ni17  1  0.75000000  0.65438900  0.04842900  1
  Ni  Ni18  1  0.25000000  0.20984900  0.16598700  1
  Ni  Ni19  1  0.75000000  0.84561100  0.54842900  1
  Cu  Cu20  1  0.75000000  0.00407800  0.21766400  1
  Cu  Cu21  1  0.25000000  0.99592200  0.78233600  1
  Cu  Cu22  1  0.25000000  0.50407800  0.28233600  1
  Cu  Cu23  1  0.75000000  0.49592200  0.71766400  1
  C  C24  1  0.99818300  0.30691400  0.45097700  1
  C  C25  1  0.50207600  0.17671700  0.62191500  1
  C  C26  1  0.49818300  0.69308600  0.54902300  1
  C  C27  1  0.99792400  0.17671700  0.62191500  1
  C  C28  1  0.75000000  0.61068700  0.13910400  1
  C  C29  1  0.50207600  0.32328300  0.12191500  1
  C  C30  1  0.25000000  0.38931300  0.86089600  1
  C  C31  1  0.50181700  0.30691400  0.45097700  1
  C  C32  1  0.75000000  0.55424600  0.40365800  1
  C  C33  1  0.49792400  0.82328300  0.37808500  1
  C  C34  1  0.00207600  0.82328300  0.37808500  1
  C  C35  1  0.49792400  0.67671700  0.87808500  1
  C  C36  1  0.75000000  0.94575400  0.90365800  1
  C  C37  1  0.25000000  0.11068700  0.36089600  1
  C  C38  1  0.25000000  0.44575400  0.59634200  1
  C  C39  1  0.25000000  0.05424600  0.09634200  1
  C  C40  1  0.00181700  0.80691400  0.04902300  1
  C  C41  1  0.00207600  0.67671700  0.87808500  1
  C  C42  1  0.00181700  0.69308600  0.54902300  1
  C  C43  1  0.49818300  0.80691400  0.04902300  1
  C  C44  1  0.50181700  0.19308600  0.95097700  1
  C  C45  1  0.75000000  0.88931300  0.63910400  1
  C  C46  1  0.99818300  0.19308600  0.95097700  1
  C  C47  1  0.99792400  0.32328300  0.12191500  1
