# generated using pymatgen
data_Cu(NiC6)2
_symmetry_space_group_name_H-M   'P 1'
_cell_length_a   6.66731300
_cell_length_b   7.13904400
_cell_length_c   20.88356100
_cell_angle_alpha   90.00000000
_cell_angle_beta   90.00000000
_cell_angle_gamma   90.00000000
_symmetry_Int_Tables_number   1
_chemical_formula_structural   Cu(NiC6)2
_chemical_formula_sum   'Cu4 Ni8 C48'
_cell_volume   994.02076668
_cell_formula_units_Z   4
loop_
 _symmetry_equiv_pos_site_id
 _symmetry_equiv_pos_as_xyz
  1  'x, y, z'
loop_
 _atom_site_type_symbol
 _atom_site_label
 _atom_site_symmetry_multiplicity
 _atom_site_fract_x
 _atom_site_fract_y
 _atom_site_fract_z
 _atom_site_occupancy
  Ni  Ni0  1  0.31526800  0.85551200  0.49037200  1
  Ni  Ni1  1  0.29548500  0.62602800  0.30252900  1
  Ni  Ni2  1  0.68473200  0.85551200  0.99037200  1
  Ni  Ni3  1  0.70451500  0.12602800  0.69747100  1
  Ni  Ni4  1  0.68473200  0.35551200  0.50962800  1
  Ni  Ni5  1  0.29548500  0.12602800  0.19747100  1
  Ni  Ni6  1  0.70451500  0.62602800  0.80252900  1
  Ni  Ni7  1  0.31526800  0.35551200  0.00962800  1
  Cu  Cu8  1  0.06618200  0.60416200  0.63317500  1
  Cu  Cu9  1  0.06618200  0.10416200  0.86682500  1
  Cu  Cu10  1  0.93381800  0.60416200  0.13317500  1
  Cu  Cu11  1  0.93381800  0.10416200  0.36682500  1
  C  C12  1  0.06112800  0.70474000  0.05061900  1
  C  C13  1  0.51661100  0.59584700  0.63381800  1
  C  C14  1  0.93887200  0.20474000  0.94938100  1
  C  C15  1  0.06112800  0.20474000  0.44938100  1
  C  C16  1  0.33246200  0.55873900  0.15986900  1
  C  C17  1  0.03948900  0.77256700  0.71038200  1
  C  C18  1  0.83228800  0.72404100  0.38729700  1
  C  C19  1  0.51661100  0.09584700  0.86618200  1
  C  C20  1  0.48338900  0.59584700  0.13381800  1
  C  C21  1  0.69956900  0.12199900  0.10110600  1
  C  C22  1  0.72062300  0.46709600  0.94393400  1
  C  C23  1  0.63367700  0.13153400  0.39508700  1
  C  C24  1  0.17071200  0.83857500  0.05380200  1
  C  C25  1  0.80445000  0.33527700  0.26916300  1
  C  C26  1  0.19555000  0.83527700  0.73083700  1
  C  C27  1  0.65745900  0.39756200  0.24810000  1
  C  C28  1  0.93887200  0.70474000  0.55061900  1
  C  C29  1  0.63367700  0.63153400  0.10491300  1
  C  C30  1  0.72062300  0.96709600  0.55606600  1
  C  C31  1  0.16771200  0.22404100  0.61270300  1
  C  C32  1  0.36632300  0.63153400  0.60491300  1
  C  C33  1  0.97208200  0.82452000  0.37511700  1
  C  C34  1  0.36632300  0.13153400  0.89508700  1
  C  C35  1  0.19555000  0.33527700  0.76916300  1
  C  C36  1  0.27937700  0.46709600  0.44393400  1
  C  C37  1  0.16771200  0.72404100  0.88729700  1
  C  C38  1  0.03948900  0.27256700  0.78961800  1
  C  C39  1  0.02791800  0.82452000  0.87511700  1
  C  C40  1  0.34254100  0.39756200  0.74810000  1
  C  C41  1  0.02791800  0.32452000  0.62488300  1
  C  C42  1  0.34254100  0.89756200  0.75190000  1
  C  C43  1  0.66753800  0.05873900  0.84013100  1
  C  C44  1  0.48338900  0.09584700  0.36618200  1
  C  C45  1  0.30043100  0.62199900  0.89889400  1
  C  C46  1  0.65745900  0.89756200  0.25190000  1
  C  C47  1  0.17071200  0.33857500  0.44619800  1
  C  C48  1  0.27937700  0.96709600  0.05606600  1
  C  C49  1  0.69956900  0.62199900  0.39889400  1
  C  C50  1  0.80445000  0.83527700  0.23083700  1
  C  C51  1  0.96051100  0.27256700  0.28961800  1
  C  C52  1  0.33246200  0.05873900  0.34013100  1
  C  C53  1  0.82928800  0.33857500  0.94619800  1
  C  C54  1  0.82928800  0.83857500  0.55380200  1
  C  C55  1  0.97208200  0.32452000  0.12488300  1
  C  C56  1  0.83228800  0.22404100  0.11270300  1
  C  C57  1  0.66753800  0.55873900  0.65986900  1
  C  C58  1  0.96051100  0.77256700  0.21038200  1
  C  C59  1  0.30043100  0.12199900  0.60110600  1
