# generated using pymatgen
data_Cu6Ni4C17
_symmetry_space_group_name_H-M   'P 1'
_cell_length_a   11.17895581
_cell_length_b   11.17895581
_cell_length_c   11.17895611
_cell_angle_alpha   53.38964913
_cell_angle_beta   53.38964913
_cell_angle_gamma   53.38964792
_symmetry_Int_Tables_number   1
_chemical_formula_structural   Cu6Ni4C17
_chemical_formula_sum   'Cu12 Ni8 C34'
_cell_volume   834.98912835
_cell_formula_units_Z   2
loop_
 _symmetry_equiv_pos_site_id
 _symmetry_equiv_pos_as_xyz
  1  'x, y, z'
loop_
 _atom_site_type_symbol
 _atom_site_label
 _atom_site_symmetry_multiplicity
 _atom_site_fract_x
 _atom_site_fract_y
 _atom_site_fract_z
 _atom_site_occupancy
  C  C0  1  0.50000000  0.50000000  0.50000000  1
  C  C1  1  0.00000000  0.00000000  0.00000000  1
  C  C2  1  0.57820900  0.19504700  0.30742400  1
  C  C3  1  0.42179100  0.80495300  0.69257600  1
  C  C4  1  0.19504700  0.30742400  0.57820900  1
  C  C5  1  0.80495300  0.69257600  0.42179100  1
  C  C6  1  0.69257600  0.42179100  0.80495300  1
  C  C7  1  0.30742400  0.57820900  0.19504700  1
  C  C8  1  0.86878800  0.98849700  0.57902000  1
  C  C9  1  0.71527200  0.66866500  0.05388800  1
  C  C10  1  0.74395700  0.83214800  0.01659100  1
  C  C11  1  0.01150300  0.42098000  0.13121200  1
  C  C12  1  0.94611200  0.28472800  0.33133500  1
  C  C13  1  0.28472800  0.33133500  0.94611200  1
  C  C14  1  0.83219400  0.76873900  0.63002300  1
  C  C15  1  0.83214800  0.01659100  0.74395700  1
  C  C16  1  0.98849700  0.57902000  0.86878800  1
  C  C17  1  0.16780600  0.23126100  0.36997700  1
  C  C18  1  0.98340900  0.25604300  0.16785200  1
  C  C19  1  0.57902000  0.86878800  0.98849700  1
  C  C20  1  0.33133500  0.94611200  0.28472800  1
  C  C21  1  0.23126100  0.36997700  0.16780600  1
  C  C22  1  0.05388800  0.71527200  0.66866500  1
  C  C23  1  0.76873900  0.63002300  0.83219400  1
  C  C24  1  0.66866500  0.05388800  0.71527200  1
  C  C25  1  0.42098000  0.13121200  0.01150300  1
  C  C26  1  0.36997700  0.16780600  0.23126100  1
  C  C27  1  0.13121200  0.01150300  0.42098000  1
  C  C28  1  0.16785200  0.98340900  0.25604300  1
  C  C29  1  0.63002300  0.83219400  0.76873900  1
  C  C30  1  0.01659100  0.74395700  0.83214800  1
  C  C31  1  0.25604300  0.16785200  0.98340900  1
  Ni  Ni32  1  0.29601200  0.20565100  0.02038800  1
  Ni  Ni33  1  0.02038800  0.29601200  0.20565100  1
  Ni  Ni34  1  0.97961200  0.70398800  0.79434900  1
  Ni  Ni35  1  0.75587800  0.75587800  0.75587800  1
  Ni  Ni36  1  0.20565100  0.02038800  0.29601200  1
  Ni  Ni37  1  0.24412200  0.24412200  0.24412200  1
  Ni  Ni38  1  0.70398800  0.79434900  0.97961200  1
  Ni  Ni39  1  0.79434900  0.97961200  0.70398800  1
  Cu  Cu40  1  0.45632800  0.17316400  0.57528300  1
  Cu  Cu41  1  0.17316400  0.57528300  0.45632800  1
  Cu  Cu42  1  0.82683600  0.42471700  0.54367200  1
  Cu  Cu43  1  0.70589400  0.16990000  0.94881700  1
  Cu  Cu44  1  0.83010000  0.05118300  0.29410600  1
  Cu  Cu45  1  0.16990000  0.94881700  0.70589400  1
  Cu  Cu46  1  0.94881700  0.70589400  0.16990000  1
  Cu  Cu47  1  0.05118300  0.29410600  0.83010000  1
  Cu  Cu48  1  0.57528300  0.45632800  0.17316400  1
  Cu  Cu49  1  0.29410600  0.83010000  0.05118300  1
  Cu  Cu50  1  0.54367200  0.82683600  0.42471700  1
  Cu  Cu51  1  0.42471700  0.54367200  0.82683600  1
  C  C52  1  0.19165800  0.19165800  0.19165800  1
  C  C53  1  0.80834200  0.80834200  0.80834200  1
