# generated using pymatgen
data_Cu6NiC2
_symmetry_space_group_name_H-M   'P 1'
_cell_length_a   4.99743641
_cell_length_b   4.99743641
_cell_length_c   5.30831500
_cell_angle_alpha   90.00000000
_cell_angle_beta   90.00000000
_cell_angle_gamma   120.00000539
_symmetry_Int_Tables_number   1
_chemical_formula_structural   Cu6NiC2
_chemical_formula_sum   'Cu6 Ni1 C2'
_cell_volume   114.81056317
_cell_formula_units_Z   1
loop_
 _symmetry_equiv_pos_site_id
 _symmetry_equiv_pos_as_xyz
  1  'x, y, z'
loop_
 _atom_site_type_symbol
 _atom_site_label
 _atom_site_symmetry_multiplicity
 _atom_site_fract_x
 _atom_site_fract_y
 _atom_site_fract_z
 _atom_site_occupancy
  C  C0  1  0.33333300  0.66666700  0.00000000  1
  C  C1  1  0.66666700  0.33333300  0.50000000  1
  Ni  Ni2  1  0.00000000  0.00000000  0.50000000  1
  Cu  Cu3  1  0.95745100  0.66389500  0.29903000  1
  Cu  Cu4  1  0.33610500  0.04254900  0.70097000  1
  Cu  Cu5  1  0.70644400  0.66389500  0.70097000  1
  Cu  Cu6  1  0.95745100  0.29355600  0.70097000  1
  Cu  Cu7  1  0.70644400  0.04254900  0.29903000  1
  Cu  Cu8  1  0.33610500  0.29355600  0.29903000  1
