# generated using pymatgen
data_Cu6Ni3C2
_symmetry_space_group_name_H-M   'P 1'
_cell_length_a   10.96219500
_cell_length_b   10.96219500
_cell_length_c   10.96219500
_cell_angle_alpha   90.00000000
_cell_angle_beta   90.00000000
_cell_angle_gamma   90.00000000
_symmetry_Int_Tables_number   1
_chemical_formula_structural   Cu6Ni3C2
_chemical_formula_sum   'Cu48 Ni24 C16'
_cell_volume   1317.32389516
_cell_formula_units_Z   8
loop_
 _symmetry_equiv_pos_site_id
 _symmetry_equiv_pos_as_xyz
  1  'x, y, z'
loop_
 _atom_site_type_symbol
 _atom_site_label
 _atom_site_symmetry_multiplicity
 _atom_site_fract_x
 _atom_site_fract_y
 _atom_site_fract_z
 _atom_site_occupancy
  C  C0  1  0.50000000  0.50000000  0.00000000  1
  C  C1  1  0.50000000  0.00000000  0.50000000  1
  C  C2  1  0.25000000  0.75000000  0.75000000  1
  C  C3  1  0.75000000  0.25000000  0.25000000  1
  C  C4  1  0.75000000  0.25000000  0.75000000  1
  C  C5  1  0.00000000  0.00000000  0.00000000  1
  C  C6  1  0.75000000  0.75000000  0.25000000  1
  C  C7  1  0.25000000  0.75000000  0.25000000  1
  C  C8  1  0.00000000  0.50000000  0.50000000  1
  C  C9  1  0.25000000  0.25000000  0.75000000  1
  C  C10  1  0.25000000  0.25000000  0.25000000  1
  C  C11  1  0.75000000  0.75000000  0.75000000  1
  C  C12  1  0.00000000  0.00000000  0.50000000  1
  C  C13  1  0.50000000  0.00000000  0.00000000  1
  C  C14  1  0.00000000  0.50000000  0.00000000  1
  C  C15  1  0.50000000  0.50000000  0.50000000  1
  Ni  Ni16  1  0.50669700  0.50757800  0.69152500  1
  Ni  Ni17  1  0.80847500  0.99330300  0.50757800  1
  Ni  Ni18  1  0.69152500  0.99330300  0.99242200  1
  Ni  Ni19  1  0.50757800  0.80847500  0.99330300  1
  Ni  Ni20  1  0.99330300  0.99242200  0.69152500  1
  Ni  Ni21  1  0.00757800  0.30847500  0.00669700  1
  Ni  Ni22  1  0.30847500  0.00669700  0.00757800  1
  Ni  Ni23  1  0.80847500  0.50669700  0.99242200  1
  Ni  Ni24  1  0.50757800  0.69152500  0.50669700  1
  Ni  Ni25  1  0.00669700  0.49242200  0.19152500  1
  Ni  Ni26  1  0.99242200  0.80847500  0.50669700  1
  Ni  Ni27  1  0.49330300  0.49242200  0.30847500  1
  Ni  Ni28  1  0.50669700  0.99242200  0.80847500  1
  Ni  Ni29  1  0.00757800  0.19152500  0.49330300  1
  Ni  Ni30  1  0.69152500  0.50669700  0.50757800  1
  Ni  Ni31  1  0.49242200  0.19152500  0.00669700  1
  Ni  Ni32  1  0.49242200  0.30847500  0.49330300  1
  Ni  Ni33  1  0.19152500  0.00669700  0.49242200  1
  Ni  Ni34  1  0.99242200  0.69152500  0.99330300  1
  Ni  Ni35  1  0.99330300  0.50757800  0.80847500  1
  Ni  Ni36  1  0.49330300  0.00757800  0.19152500  1
  Ni  Ni37  1  0.00669700  0.00757800  0.30847500  1
  Ni  Ni38  1  0.19152500  0.49330300  0.00757800  1
  Ni  Ni39  1  0.30847500  0.49330300  0.49242200  1
  Cu  Cu40  1  0.51626700  0.25011200  0.91149300  1
  Cu  Cu41  1  0.01626700  0.75011200  0.08850700  1
  Cu  Cu42  1  0.41149300  0.01626700  0.74988800  1
  Cu  Cu43  1  0.24988800  0.58850700  0.51626700  1
  Cu  Cu44  1  0.91149300  0.51626700  0.25011200  1
  Cu  Cu45  1  0.24778700  0.10070700  0.03926300  1
  Cu  Cu46  1  0.39929300  0.03926300  0.25221300  1
  Cu  Cu47  1  0.53926300  0.75221300  0.60070700  1
  Cu  Cu48  1  0.58850700  0.98373300  0.25011200  1
  Cu  Cu49  1  0.46073700  0.24778700  0.39929300  1
  Cu  Cu50  1  0.08850700  0.01626700  0.75011200  1
  Cu  Cu51  1  0.39929300  0.46073700  0.24778700  1
  Cu  Cu52  1  0.74988800  0.41149300  0.01626700  1
  Cu  Cu53  1  0.89929300  0.53926300  0.74778700  1
  Cu  Cu54  1  0.46073700  0.25221300  0.10070700  1
  Cu  Cu55  1  0.91149300  0.98373300  0.24988800  1
  Cu  Cu56  1  0.89929300  0.96073700  0.75221300  1
  Cu  Cu57  1  0.25011200  0.91149300  0.51626700  1
  Cu  Cu58  1  0.08850700  0.48373300  0.74988800  1
  Cu  Cu59  1  0.10070700  0.46073700  0.25221300  1
  Cu  Cu60  1  0.96073700  0.75221300  0.89929300  1
  Cu  Cu61  1  0.25011200  0.58850700  0.98373300  1
  Cu  Cu62  1  0.24778700  0.39929300  0.46073700  1
  Cu  Cu63  1  0.74988800  0.08850700  0.48373300  1
  Cu  Cu64  1  0.01626700  0.74988800  0.41149300  1
  Cu  Cu65  1  0.25221300  0.39929300  0.03926300  1
  Cu  Cu66  1  0.41149300  0.48373300  0.75011200  1
  Cu  Cu67  1  0.98373300  0.25011200  0.58850700  1
  Cu  Cu68  1  0.58850700  0.51626700  0.24988800  1
  Cu  Cu69  1  0.96073700  0.74778700  0.60070700  1
  Cu  Cu70  1  0.75221300  0.60070700  0.53926300  1
  Cu  Cu71  1  0.60070700  0.53926300  0.75221300  1
  Cu  Cu72  1  0.24988800  0.91149300  0.98373300  1
  Cu  Cu73  1  0.74778700  0.89929300  0.53926300  1
  Cu  Cu74  1  0.75011200  0.08850700  0.01626700  1
  Cu  Cu75  1  0.51626700  0.24988800  0.58850700  1
  Cu  Cu76  1  0.75221300  0.89929300  0.96073700  1
  Cu  Cu77  1  0.75011200  0.41149300  0.48373300  1
  Cu  Cu78  1  0.98373300  0.24988800  0.91149300  1
  Cu  Cu79  1  0.48373300  0.74988800  0.08850700  1
  Cu  Cu80  1  0.10070700  0.03926300  0.24778700  1
  Cu  Cu81  1  0.25221300  0.10070700  0.46073700  1
  Cu  Cu82  1  0.03926300  0.25221300  0.39929300  1
  Cu  Cu83  1  0.60070700  0.96073700  0.74778700  1
  Cu  Cu84  1  0.48373300  0.75011200  0.41149300  1
  Cu  Cu85  1  0.53926300  0.74778700  0.89929300  1
  Cu  Cu86  1  0.74778700  0.60070700  0.96073700  1
  Cu  Cu87  1  0.03926300  0.24778700  0.10070700  1
