# generated using pymatgen
data_Cu7NiC4
_symmetry_space_group_name_H-M   'P 1'
_cell_length_a   9.94491832
_cell_length_b   9.94491832
_cell_length_c   5.70554100
_cell_angle_alpha   90.00000000
_cell_angle_beta   90.00000000
_cell_angle_gamma   120.00000215
_symmetry_Int_Tables_number   1
_chemical_formula_structural   Cu7NiC4
_chemical_formula_sum   'Cu14 Ni2 C8'
_cell_volume   488.68599632
_cell_formula_units_Z   2
loop_
 _symmetry_equiv_pos_site_id
 _symmetry_equiv_pos_as_xyz
  1  'x, y, z'
loop_
 _atom_site_type_symbol
 _atom_site_label
 _atom_site_symmetry_multiplicity
 _atom_site_fract_x
 _atom_site_fract_y
 _atom_site_fract_z
 _atom_site_occupancy
  C  C0  1  0.87473700  0.64364600  0.24812500  1
  C  C1  1  0.35635400  0.23109100  0.24812500  1
  C  C2  1  0.23109100  0.87473700  0.74812500  1
  C  C3  1  0.12526300  0.35635400  0.74812500  1
  C  C4  1  0.64364600  0.76890900  0.74812500  1
  C  C5  1  0.76890900  0.12526300  0.24812500  1
  C  C6  1  0.00000000  0.00000000  0.20050200  1
  C  C7  1  0.00000000  0.00000000  0.70050200  1
  Ni  Ni8  1  0.33333300  0.66666700  0.33667300  1
  Ni  Ni9  1  0.66666700  0.33333300  0.83667300  1
  Cu  Cu10  1  0.66666700  0.33333300  0.46674400  1
  Cu  Cu11  1  0.89206200  0.41396100  0.98657500  1
  Cu  Cu12  1  0.90872700  0.74324700  0.72342300  1
  Cu  Cu13  1  0.52189900  0.10793800  0.98657500  1
  Cu  Cu14  1  0.47810100  0.89206200  0.48657500  1
  Cu  Cu15  1  0.74324700  0.83452000  0.22342300  1
  Cu  Cu16  1  0.10793800  0.58603900  0.48657500  1
  Cu  Cu17  1  0.58603900  0.47810100  0.98657500  1
  Cu  Cu18  1  0.16548000  0.90872700  0.22342300  1
  Cu  Cu19  1  0.83452000  0.09127300  0.72342300  1
  Cu  Cu20  1  0.09127300  0.25675300  0.22342300  1
  Cu  Cu21  1  0.33333300  0.66666700  0.96674400  1
  Cu  Cu22  1  0.41396100  0.52189900  0.48657500  1
  Cu  Cu23  1  0.25675300  0.16548000  0.72342300  1
