# generated using pymatgen
data_Cu2Ni2C9
_symmetry_space_group_name_H-M   'P 1'
_cell_length_a   8.14366200
_cell_length_b   9.02223200
_cell_length_c   12.40552477
_cell_angle_alpha   76.07983959
_cell_angle_beta   90.00000000
_cell_angle_gamma   90.00000000
_symmetry_Int_Tables_number   1
_chemical_formula_structural   Cu2Ni2C9
_chemical_formula_sum   'Cu8 Ni8 C36'
_cell_volume   884.71507690
_cell_formula_units_Z   4
loop_
 _symmetry_equiv_pos_site_id
 _symmetry_equiv_pos_as_xyz
  1  'x, y, z'
loop_
 _atom_site_type_symbol
 _atom_site_label
 _atom_site_symmetry_multiplicity
 _atom_site_fract_x
 _atom_site_fract_y
 _atom_site_fract_z
 _atom_site_occupancy
  C  C0  1  0.62361400  0.53422000  0.86895000  1
  C  C1  1  0.37930300  0.93247400  0.65285200  1
  C  C2  1  0.12069700  0.93247400  0.15285200  1
  C  C3  1  0.87638600  0.53422000  0.36895000  1
  C  C4  1  0.62069700  0.06752600  0.34714800  1
  C  C5  1  0.37638600  0.46578000  0.13105000  1
  C  C6  1  0.87930300  0.06752600  0.84714800  1
  C  C7  1  0.12361400  0.46578000  0.63105000  1
  Ni  Ni8  1  0.11095700  0.16063900  0.38686800  1
  Ni  Ni9  1  0.61095700  0.83936100  0.11313200  1
  Ni  Ni10  1  0.43616700  0.68598900  0.36939700  1
  Ni  Ni11  1  0.56383300  0.31401100  0.63060300  1
  Ni  Ni12  1  0.38904300  0.16063900  0.88686800  1
  Ni  Ni13  1  0.06383300  0.68598900  0.86939700  1
  Ni  Ni14  1  0.88904300  0.83936100  0.61313200  1
  Ni  Ni15  1  0.93616700  0.31401100  0.13060300  1
  Cu  Cu16  1  0.64340700  0.16906100  0.06365100  1
  Cu  Cu17  1  0.85659300  0.16906100  0.56365100  1
  Cu  Cu18  1  0.60948900  0.64780800  0.57787000  1
  Cu  Cu19  1  0.35659300  0.83093900  0.93634900  1
  Cu  Cu20  1  0.14340700  0.83093900  0.43634900  1
  Cu  Cu21  1  0.39051100  0.35219200  0.42213000  1
  Cu  Cu22  1  0.10948900  0.35219200  0.92213000  1
  Cu  Cu23  1  0.89051100  0.64780800  0.07787000  1
  C  C24  1  0.48287700  0.48162900  0.37671300  1
  C  C25  1  0.21928800  0.97246600  0.40716700  1
  C  C26  1  0.21756500  0.70436800  0.41131000  1
  C  C27  1  0.99118800  0.80716600  0.48649600  1
  C  C28  1  0.27344500  0.30890100  0.35503200  1
  C  C29  1  0.49118800  0.19283400  0.01350400  1
  C  C30  1  0.42109900  0.26064300  0.52704500  1
  C  C31  1  0.28071200  0.97246600  0.90716700  1
  C  C32  1  0.46772700  0.81166600  0.23067900  1
  C  C33  1  0.51712300  0.51837100  0.62328700  1
  C  C34  1  0.01712300  0.48162900  0.87671300  1
  C  C35  1  0.00881200  0.19283400  0.51350400  1
  C  C36  1  0.07890100  0.26064300  0.02704500  1
  C  C37  1  0.57890100  0.73935700  0.47295500  1
  C  C38  1  0.50881200  0.80716600  0.98649600  1
  C  C39  1  0.78071200  0.02753400  0.59283300  1
  C  C40  1  0.22655500  0.30890100  0.85503200  1
  C  C41  1  0.53227300  0.18833400  0.76932100  1
  C  C42  1  0.98287700  0.51837100  0.12328700  1
  C  C43  1  0.92109900  0.73935700  0.97295500  1
  C  C44  1  0.71928800  0.02753400  0.09283300  1
  C  C45  1  0.96772700  0.18833400  0.26932100  1
  C  C46  1  0.78243500  0.29563200  0.58869000  1
  C  C47  1  0.03227300  0.81166600  0.73067900  1
  C  C48  1  0.28243500  0.70436800  0.91131000  1
  C  C49  1  0.71756500  0.29563200  0.08869000  1
  C  C50  1  0.77344500  0.69109900  0.14496800  1
  C  C51  1  0.72655500  0.69109900  0.64496800  1
