# generated using pymatgen
data_Cu6NiC4
_symmetry_space_group_name_H-M   'P 1'
_cell_length_a   10.37551700
_cell_length_b   12.48409000
_cell_length_c   16.23512900
_cell_angle_alpha   90.00000000
_cell_angle_beta   90.00000000
_cell_angle_gamma   90.00000000
_symmetry_Int_Tables_number   1
_chemical_formula_structural   Cu6NiC4
_chemical_formula_sum   'Cu48 Ni8 C32'
_cell_volume   2102.91820630
_cell_formula_units_Z   8
loop_
 _symmetry_equiv_pos_site_id
 _symmetry_equiv_pos_as_xyz
  1  'x, y, z'
loop_
 _atom_site_type_symbol
 _atom_site_label
 _atom_site_symmetry_multiplicity
 _atom_site_fract_x
 _atom_site_fract_y
 _atom_site_fract_z
 _atom_site_occupancy
  C  C0  1  0.75000000  0.88404100  0.12351700  1
  C  C1  1  0.75000000  0.38404100  0.37648300  1
  C  C2  1  0.95635200  0.31247100  0.59527200  1
  C  C3  1  0.96403200  0.61835400  0.11171700  1
  C  C4  1  0.75000000  0.12318900  0.86175000  1
  C  C5  1  0.25000000  0.11595900  0.87648300  1
  C  C6  1  0.45635200  0.18752900  0.09527200  1
  C  C7  1  0.53596800  0.11835400  0.38828300  1
  C  C8  1  0.04364800  0.68752900  0.40472800  1
  C  C9  1  0.45635200  0.68752900  0.40472800  1
  C  C10  1  0.54364800  0.31247100  0.59527200  1
  C  C11  1  0.03596800  0.88164600  0.61171700  1
  C  C12  1  0.54364800  0.81247100  0.90472800  1
  C  C13  1  0.95635200  0.81247100  0.90472800  1
  C  C14  1  0.04364800  0.18752900  0.09527200  1
  C  C15  1  0.53596800  0.61835400  0.11171700  1
  C  C16  1  0.96403200  0.11835400  0.38828300  1
  C  C17  1  0.03596800  0.38164600  0.88828300  1
  C  C18  1  0.75000000  0.62318900  0.63825000  1
  C  C19  1  0.25000000  0.37681100  0.36175000  1
  C  C20  1  0.46403200  0.88164600  0.61171700  1
  C  C21  1  0.46403200  0.38164600  0.88828300  1
  C  C22  1  0.25000000  0.61595900  0.62351700  1
  C  C23  1  0.25000000  0.87681100  0.13825000  1
  Ni  Ni24  1  0.25000000  0.11636200  0.25936200  1
  Ni  Ni25  1  0.25000000  0.61636200  0.24063800  1
  Ni  Ni26  1  0.75000000  0.88363800  0.74063800  1
  Ni  Ni27  1  0.25000000  0.33607900  0.72280000  1
  Ni  Ni28  1  0.75000000  0.66392100  0.27720000  1
  Ni  Ni29  1  0.25000000  0.83607900  0.77720000  1
  Ni  Ni30  1  0.75000000  0.16392100  0.22280000  1
  Ni  Ni31  1  0.75000000  0.38363800  0.75936200  1
  Cu  Cu32  1  0.25000000  0.38193000  0.59699600  1
  Cu  Cu33  1  0.41863800  0.02788900  0.22946100  1
  Cu  Cu34  1  0.98997400  0.65763400  0.56839300  1
  Cu  Cu35  1  0.51002600  0.65763400  0.56839300  1
  Cu  Cu36  1  0.75000000  0.72949600  0.80136200  1
  Cu  Cu37  1  0.75000000  0.11807000  0.09699600  1
  Cu  Cu38  1  0.91045100  0.76134300  0.24564400  1
  Cu  Cu39  1  0.25000000  0.47946200  0.79289300  1
  Cu  Cu40  1  0.48997400  0.34236600  0.43160700  1
  Cu  Cu41  1  0.08136200  0.52788900  0.27053900  1
  Cu  Cu42  1  0.25000000  0.64442400  0.11154900  1
  Cu  Cu43  1  0.25000000  0.14442400  0.38845100  1
  Cu  Cu44  1  0.01002600  0.34236600  0.43160700  1
  Cu  Cu45  1  0.41045100  0.23865700  0.75435600  1
  Cu  Cu46  1  0.08954900  0.73865700  0.74564400  1
  Cu  Cu47  1  0.75000000  0.52053800  0.20710700  1
  Cu  Cu48  1  0.75000000  0.85557600  0.61154900  1
  Cu  Cu49  1  0.08136200  0.02788900  0.22946100  1
  Cu  Cu50  1  0.75000000  0.68610200  0.02859500  1
  Cu  Cu51  1  0.25000000  0.97946200  0.70710700  1
  Cu  Cu52  1  0.41863800  0.52788900  0.27053900  1
  Cu  Cu53  1  0.58954900  0.26134300  0.25435600  1
  Cu  Cu54  1  0.58954900  0.76134300  0.24564400  1
  Cu  Cu55  1  0.58136200  0.47211100  0.72946100  1
  Cu  Cu56  1  0.25000000  0.56341800  0.45286400  1
  Cu  Cu57  1  0.75000000  0.18610200  0.47140500  1
  Cu  Cu58  1  0.08954900  0.23865700  0.75435600  1
  Cu  Cu59  1  0.75000000  0.93658200  0.95286400  1
  Cu  Cu60  1  0.75000000  0.35557600  0.88845100  1
  Cu  Cu61  1  0.48997400  0.84236600  0.06839300  1
  Cu  Cu62  1  0.41045100  0.73865700  0.74564400  1
  Cu  Cu63  1  0.25000000  0.27050400  0.19863800  1
  Cu  Cu64  1  0.75000000  0.02053800  0.29289300  1
  Cu  Cu65  1  0.75000000  0.43658200  0.54713600  1
  Cu  Cu66  1  0.98997400  0.15763400  0.93160700  1
  Cu  Cu67  1  0.25000000  0.81389800  0.52859500  1
  Cu  Cu68  1  0.75000000  0.61807000  0.40300400  1
  Cu  Cu69  1  0.25000000  0.31389800  0.97140500  1
  Cu  Cu70  1  0.01002600  0.84236600  0.06839300  1
  Cu  Cu71  1  0.91863800  0.97211100  0.77053900  1
  Cu  Cu72  1  0.58136200  0.97211100  0.77053900  1
  Cu  Cu73  1  0.91863800  0.47211100  0.72946100  1
  Cu  Cu74  1  0.25000000  0.06341800  0.04713600  1
  Cu  Cu75  1  0.75000000  0.22949600  0.69863800  1
  Cu  Cu76  1  0.25000000  0.77050400  0.30136200  1
  Cu  Cu77  1  0.25000000  0.88193000  0.90300400  1
  Cu  Cu78  1  0.51002600  0.15763400  0.93160700  1
  Cu  Cu79  1  0.91045100  0.26134300  0.25435600  1
  C  C80  1  0.45719500  0.10351200  0.56003200  1
  C  C81  1  0.45719500  0.60351200  0.93996800  1
  C  C82  1  0.95719500  0.39648800  0.06003200  1
  C  C83  1  0.04280500  0.60351200  0.93996800  1
  C  C84  1  0.95719500  0.89648800  0.43996800  1
  C  C85  1  0.54280500  0.89648800  0.43996800  1
  C  C86  1  0.54280500  0.39648800  0.06003200  1
  C  C87  1  0.04280500  0.10351200  0.56003200  1
