# generated using pymatgen
data_Cu3NiC
_symmetry_space_group_name_H-M   'P 1'
_cell_length_a   7.41002200
_cell_length_b   11.42595500
_cell_length_c   11.93495585
_cell_angle_alpha   71.04123541
_cell_angle_beta   90.00000000
_cell_angle_gamma   90.00000000
_symmetry_Int_Tables_number   1
_chemical_formula_structural   Cu3NiC
_chemical_formula_sum   'Cu24 Ni8 C8'
_cell_volume   955.67535295
_cell_formula_units_Z   8
loop_
 _symmetry_equiv_pos_site_id
 _symmetry_equiv_pos_as_xyz
  1  'x, y, z'
loop_
 _atom_site_type_symbol
 _atom_site_label
 _atom_site_symmetry_multiplicity
 _atom_site_fract_x
 _atom_site_fract_y
 _atom_site_fract_z
 _atom_site_occupancy
  C  C0  1  0.11144500  0.40309200  0.37964800  1
  C  C1  1  0.88855500  0.59690800  0.62035200  1
  C  C2  1  0.61144500  0.59690800  0.12035200  1
  C  C3  1  0.38855500  0.40309200  0.87964800  1
  C  C4  1  0.16072100  0.86801400  0.82094400  1
  C  C5  1  0.83927900  0.13198600  0.17905600  1
  C  C6  1  0.33927900  0.86801400  0.32094400  1
  C  C7  1  0.66072100  0.13198600  0.67905600  1
  Ni  Ni8  1  0.89999300  0.24404800  0.83471100  1
  Ni  Ni9  1  0.10000700  0.75595200  0.16528900  1
  Ni  Ni10  1  0.87841200  0.75380300  0.29590400  1
  Ni  Ni11  1  0.39999300  0.75595200  0.66528900  1
  Ni  Ni12  1  0.37841200  0.24619700  0.20409600  1
  Ni  Ni13  1  0.62158800  0.75380300  0.79590400  1
  Ni  Ni14  1  0.12158800  0.24619700  0.70409600  1
  Ni  Ni15  1  0.60000700  0.24404800  0.33471100  1
  Cu  Cu16  1  0.50943700  0.17720600  0.08475800  1
  Cu  Cu17  1  0.80361700  0.34207700  0.22444000  1
  Cu  Cu18  1  0.30361700  0.65792300  0.27556000  1
  Cu  Cu19  1  0.30650700  0.12428800  0.80409900  1
  Cu  Cu20  1  0.69638300  0.34207700  0.72444000  1
  Cu  Cu21  1  0.20998300  0.42005300  0.63384600  1
  Cu  Cu22  1  0.00943700  0.82279400  0.41524200  1
  Cu  Cu23  1  0.49418100  0.68750500  0.54329500  1
  Cu  Cu24  1  0.69349300  0.87571200  0.19590100  1
  Cu  Cu25  1  0.50581900  0.31249500  0.45670500  1
  Cu  Cu26  1  0.99418100  0.31249500  0.95670500  1
  Cu  Cu27  1  0.80873000  0.06420500  0.88995800  1
  Cu  Cu28  1  0.00581900  0.68750500  0.04329500  1
  Cu  Cu29  1  0.70998300  0.57994700  0.86615400  1
  Cu  Cu30  1  0.99056300  0.17720600  0.58475800  1
  Cu  Cu31  1  0.49056300  0.82279400  0.91524200  1
  Cu  Cu32  1  0.79001700  0.57994700  0.36615400  1
  Cu  Cu33  1  0.69127000  0.06420500  0.38995900  1
  Cu  Cu34  1  0.19349300  0.12428800  0.30409900  1
  Cu  Cu35  1  0.80650700  0.87571200  0.69590100  1
  Cu  Cu36  1  0.30873000  0.93579500  0.61004200  1
  Cu  Cu37  1  0.19638300  0.65792300  0.77556000  1
  Cu  Cu38  1  0.29001700  0.42005300  0.13384600  1
  Cu  Cu39  1  0.19127000  0.93579500  0.11004200  1
