# generated using pymatgen
data_CuNiC6
_symmetry_space_group_name_H-M   'P 1'
_cell_length_a   5.52901500
_cell_length_b   9.82532700
_cell_length_c   16.59463100
_cell_angle_alpha   90.00000000
_cell_angle_beta   90.00000000
_cell_angle_gamma   90.00000000
_symmetry_Int_Tables_number   1
_chemical_formula_structural   CuNiC6
_chemical_formula_sum   'Cu8 Ni8 C48'
_cell_volume   901.49304643
_cell_formula_units_Z   8
loop_
 _symmetry_equiv_pos_site_id
 _symmetry_equiv_pos_as_xyz
  1  'x, y, z'
loop_
 _atom_site_type_symbol
 _atom_site_label
 _atom_site_symmetry_multiplicity
 _atom_site_fract_x
 _atom_site_fract_y
 _atom_site_fract_z
 _atom_site_occupancy
  C  C0  1  0.25000000  0.34519800  0.75000000  1
  C  C1  1  0.75000000  0.65480200  0.25000000  1
  C  C2  1  0.25000000  0.84519800  0.75000000  1
  C  C3  1  0.75000000  0.15480200  0.25000000  1
  Ni  Ni4  1  0.74966900  0.09366600  0.90792900  1
  Ni  Ni5  1  0.75033100  0.09366600  0.59207100  1
  Ni  Ni6  1  0.74966900  0.59366600  0.59207100  1
  Ni  Ni7  1  0.25033100  0.90633400  0.09207100  1
  Ni  Ni8  1  0.24966900  0.90633400  0.40792900  1
  Ni  Ni9  1  0.75033100  0.59366600  0.90792900  1
  Ni  Ni10  1  0.24966900  0.40633400  0.09207100  1
  Ni  Ni11  1  0.25033100  0.40633400  0.40792900  1
  Cu  Cu12  1  0.07027600  0.41832700  0.31201700  1
  Cu  Cu13  1  0.42972400  0.91832700  0.31201700  1
  Cu  Cu14  1  0.92972400  0.08167300  0.81201700  1
  Cu  Cu15  1  0.57027600  0.08167300  0.68798300  1
  Cu  Cu16  1  0.57027600  0.58167300  0.81201700  1
  Cu  Cu17  1  0.07027600  0.91832700  0.18798300  1
  Cu  Cu18  1  0.92972400  0.58167300  0.68798300  1
  Cu  Cu19  1  0.42972400  0.41832700  0.18798300  1
  C  C20  1  0.25000000  0.98609700  0.25000000  1
  C  C21  1  0.75000000  0.51390300  0.75000000  1
  C  C22  1  0.25000000  0.48609700  0.25000000  1
  C  C23  1  0.75000000  0.01390300  0.75000000  1
  C  C24  1  0.11784800  0.48287500  0.67024500  1
  C  C25  1  0.88215200  0.01712500  0.17024500  1
  C  C26  1  0.11784800  0.98287500  0.82975500  1
  C  C27  1  0.50306500  0.27930300  0.20447700  1
  C  C28  1  0.88215200  0.51712500  0.32975500  1
  C  C29  1  0.00306500  0.22069700  0.79552300  1
  C  C30  1  0.49693500  0.22069700  0.70447700  1
  C  C31  1  0.38215200  0.48287500  0.82975500  1
  C  C32  1  0.50306500  0.77930300  0.29552300  1
  C  C33  1  0.99693500  0.27930300  0.29552300  1
  C  C34  1  0.99693500  0.77930300  0.20447700  1
  C  C35  1  0.38215200  0.98287500  0.67024500  1
  C  C36  1  0.49693500  0.72069700  0.79552300  1
  C  C37  1  0.61784800  0.51712500  0.17024500  1
  C  C38  1  0.61784800  0.01712500  0.32975500  1
  C  C39  1  0.00306500  0.72069700  0.70447700  1
  C  C40  1  0.67183500  0.46933100  0.56990100  1
  C  C41  1  0.60868900  0.14573600  0.53359500  1
  C  C42  1  0.39131100  0.35426400  0.03359500  1
  C  C43  1  0.17183500  0.03066900  0.43009900  1
  C  C44  1  0.44262800  0.82384500  0.10333900  1
  C  C45  1  0.89131100  0.14573600  0.96640500  1
  C  C46  1  0.60868900  0.64573600  0.96640500  1
  C  C47  1  0.10868900  0.85426400  0.03359500  1
  C  C48  1  0.17183500  0.53066900  0.06990100  1
  C  C49  1  0.05737200  0.32384500  0.10333900  1
  C  C50  1  0.67183500  0.96933100  0.93009900  1
  C  C51  1  0.89131100  0.64573600  0.53359500  1
  C  C52  1  0.32816500  0.03066900  0.06990100  1
  C  C53  1  0.55737200  0.67615500  0.60333900  1
  C  C54  1  0.94262800  0.17615500  0.60333900  1
  C  C55  1  0.05737200  0.82384500  0.39666100  1
  C  C56  1  0.94262800  0.67615500  0.89666100  1
  C  C57  1  0.82816500  0.46933100  0.93009900  1
  C  C58  1  0.82816500  0.96933100  0.56990100  1
  C  C59  1  0.39131100  0.85426400  0.46640500  1
  C  C60  1  0.10868900  0.35426400  0.46640500  1
  C  C61  1  0.44262800  0.32384500  0.39666100  1
  C  C62  1  0.55737200  0.17615500  0.89666100  1
  C  C63  1  0.32816500  0.53066900  0.43009900  1
