# generated using pymatgen
data_Cu(NiC2)3
_symmetry_space_group_name_H-M   'P 1'
_cell_length_a   11.90954671
_cell_length_b   11.90954671
_cell_length_c   11.90954671
_cell_angle_alpha   109.47122063
_cell_angle_beta   109.47122063
_cell_angle_gamma   109.47122063
_symmetry_Int_Tables_number   1
_chemical_formula_structural   Cu(NiC2)3
_chemical_formula_sum   'Cu8 Ni24 C48'
_cell_volume   1300.36061049
_cell_formula_units_Z   8
loop_
 _symmetry_equiv_pos_site_id
 _symmetry_equiv_pos_as_xyz
  1  'x, y, z'
loop_
 _atom_site_type_symbol
 _atom_site_label
 _atom_site_symmetry_multiplicity
 _atom_site_fract_x
 _atom_site_fract_y
 _atom_site_fract_z
 _atom_site_occupancy
  Ni  Ni0  1  0.68735700  0.59367900  0.34367900  1
  Ni  Ni1  1  0.18735700  0.84367900  0.09367900  1
  Ni  Ni2  1  0.25000000  0.65632100  0.84367900  1
  Ni  Ni3  1  0.09367900  0.40632100  0.25000000  1
  Ni  Ni4  1  0.59367900  0.34367900  0.68735700  1
  Ni  Ni5  1  0.65632100  0.31264300  0.40632100  1
  Ni  Ni6  1  0.15632100  0.90632100  0.81264300  1
  Ni  Ni7  1  0.90632100  0.81264300  0.15632100  1
  Ni  Ni8  1  0.81264300  0.15632100  0.90632100  1
  Ni  Ni9  1  0.75000000  0.34367900  0.15632100  1
  Ni  Ni10  1  0.84367900  0.09367900  0.18735700  1
  Ni  Ni11  1  0.31264300  0.40632100  0.65632100  1
  Ni  Ni12  1  0.90632100  0.59367900  0.75000000  1
  Ni  Ni13  1  0.75000000  0.90632100  0.59367900  1
  Ni  Ni14  1  0.25000000  0.09367900  0.40632100  1
  Ni  Ni15  1  0.59367900  0.75000000  0.90632100  1
  Ni  Ni16  1  0.40632100  0.25000000  0.09367900  1
  Ni  Ni17  1  0.40632100  0.65632100  0.31264300  1
  Ni  Ni18  1  0.34367900  0.15632100  0.75000000  1
  Ni  Ni19  1  0.84367900  0.25000000  0.65632100  1
  Ni  Ni20  1  0.65632100  0.84367900  0.25000000  1
  Ni  Ni21  1  0.34367900  0.68735700  0.59367900  1
  Ni  Ni22  1  0.15632100  0.75000000  0.34367900  1
  Ni  Ni23  1  0.09367900  0.18735700  0.84367900  1
  Cu  Cu24  1  0.00000000  0.50000000  0.50000000  1
  Cu  Cu25  1  0.00000000  0.00000000  0.00000000  1
  Cu  Cu26  1  0.50000000  0.00000000  0.50000000  1
  Cu  Cu27  1  0.50000000  0.00000000  0.00000000  1
  Cu  Cu28  1  0.00000000  0.50000000  0.00000000  1
  Cu  Cu29  1  0.00000000  0.00000000  0.50000000  1
  Cu  Cu30  1  0.50000000  0.50000000  0.00000000  1
  Cu  Cu31  1  0.50000000  0.50000000  0.50000000  1
  C  C32  1  0.64178800  0.65064700  0.50498300  1
  C  C33  1  0.85433600  0.50498300  0.36319500  1
  C  C34  1  0.00498300  0.35433600  0.86319500  1
  C  C35  1  0.49114200  0.13680500  0.64178800  1
  C  C36  1  0.65064700  0.50498300  0.64178800  1
  C  C37  1  0.00498300  0.15064700  0.14178800  1
  C  C38  1  0.50498300  0.64178800  0.65064700  1
  C  C39  1  0.65064700  0.64566400  0.00885800  1
  C  C40  1  0.15064700  0.50885800  0.14566400  1
  C  C41  1  0.99114200  0.34935300  0.35433600  1
  C  C42  1  0.86319500  0.00498300  0.35433600  1
  C  C43  1  0.50885800  0.14566400  0.15064700  1
  C  C44  1  0.64566400  0.13680500  0.99501700  1
  C  C45  1  0.13680500  0.64178800  0.49114200  1
  C  C46  1  0.85821200  0.36319500  0.00885800  1
  C  C47  1  0.99501700  0.64566400  0.13680500  1
  C  C48  1  0.86319500  0.35821200  0.50885800  1
  C  C49  1  0.35821200  0.34935300  0.49501700  1
  C  C50  1  0.63680500  0.14566400  0.49501700  1
  C  C51  1  0.00885800  0.85821200  0.36319500  1
  C  C52  1  0.50885800  0.86319500  0.35821200  1
  C  C53  1  0.35433600  0.86319500  0.00498300  1
  C  C54  1  0.13680500  0.99501700  0.64566400  1
  C  C55  1  0.14566400  0.49501700  0.63680500  1
  C  C56  1  0.36319500  0.00885800  0.85821200  1
  C  C57  1  0.64566400  0.00885800  0.65064700  1
  C  C58  1  0.84935300  0.85821200  0.99501700  1
  C  C59  1  0.34935300  0.49501700  0.35821200  1
  C  C60  1  0.36319500  0.85433600  0.50498300  1
  C  C61  1  0.34935300  0.35433600  0.99114200  1
  C  C62  1  0.50498300  0.36319500  0.85433600  1
  C  C63  1  0.49501700  0.63680500  0.14566400  1
  C  C64  1  0.14178800  0.00498300  0.15064700  1
  C  C65  1  0.63680500  0.99114200  0.14178800  1
  C  C66  1  0.99501700  0.84935300  0.85821200  1
  C  C67  1  0.64178800  0.49114200  0.13680500  1
  C  C68  1  0.15064700  0.14178800  0.00498300  1
  C  C69  1  0.35821200  0.50885800  0.86319500  1
  C  C70  1  0.85821200  0.99501700  0.84935300  1
  C  C71  1  0.49114200  0.85433600  0.84935300  1
  C  C72  1  0.49501700  0.35821200  0.34935300  1
  C  C73  1  0.14566400  0.15064700  0.50885800  1
  C  C74  1  0.00885800  0.65064700  0.64566400  1
  C  C75  1  0.99114200  0.14178800  0.63680500  1
  C  C76  1  0.35433600  0.99114200  0.34935300  1
  C  C77  1  0.14178800  0.63680500  0.99114200  1
  C  C78  1  0.84935300  0.49114200  0.85433600  1
  C  C79  1  0.85433600  0.84935300  0.49114200  1
