# generated using pymatgen
data_Cu2Ni2C9
_symmetry_space_group_name_H-M   'P 1'
_cell_length_a   9.79240500
_cell_length_b   8.69832500
_cell_length_c   9.32548482
_cell_angle_alpha   89.52621847
_cell_angle_beta   90.00000000
_cell_angle_gamma   90.00000000
_symmetry_Int_Tables_number   1
_chemical_formula_structural   Cu2Ni2C9
_chemical_formula_sum   'Cu8 Ni8 C36'
_cell_volume   794.29452486
_cell_formula_units_Z   4
loop_
 _symmetry_equiv_pos_site_id
 _symmetry_equiv_pos_as_xyz
  1  'x, y, z'
loop_
 _atom_site_type_symbol
 _atom_site_label
 _atom_site_symmetry_multiplicity
 _atom_site_fract_x
 _atom_site_fract_y
 _atom_site_fract_z
 _atom_site_occupancy
  C  C0  1  0.41285300  0.74951000  0.88541200  1
  C  C1  1  0.91285300  0.25049000  0.61458800  1
  C  C2  1  0.58714700  0.25049000  0.11458800  1
  C  C3  1  0.08714700  0.74951000  0.38541200  1
  Ni  Ni4  1  0.92416200  0.06735000  0.23506500  1
  Ni  Ni5  1  0.42416200  0.93265000  0.26493500  1
  Ni  Ni6  1  0.07583800  0.93265000  0.76493500  1
  Ni  Ni7  1  0.57583800  0.06735000  0.73506500  1
  Ni  Ni8  1  0.19392800  0.43110900  0.05356400  1
  Ni  Ni9  1  0.69392800  0.56889100  0.44643600  1
  Ni  Ni10  1  0.80607200  0.56889100  0.94643600  1
  Ni  Ni11  1  0.30607200  0.43110900  0.55356400  1
  Cu  Cu12  1  0.92026400  0.43812800  0.24196600  1
  Cu  Cu13  1  0.42026400  0.56187200  0.25803400  1
  Cu  Cu14  1  0.07973600  0.56187200  0.75803400  1
  Cu  Cu15  1  0.57973600  0.43812800  0.74196600  1
  Cu  Cu16  1  0.19935700  0.06000700  0.05693100  1
  Cu  Cu17  1  0.69935700  0.93999300  0.44306900  1
  Cu  Cu18  1  0.80064300  0.93999300  0.94306900  1
  Cu  Cu19  1  0.30064300  0.06000700  0.55693100  1
  C  C20  1  0.09197100  0.98066200  0.19359300  1
  C  C21  1  0.59197100  0.01933800  0.30640700  1
  C  C22  1  0.90802900  0.01933800  0.80640700  1
  C  C23  1  0.40802900  0.98066200  0.69359300  1
  C  C24  1  0.07900400  0.51733600  0.19104900  1
  C  C25  1  0.57900400  0.48266400  0.30895100  1
  C  C26  1  0.92099600  0.48266400  0.80895100  1
  C  C27  1  0.42099600  0.51733600  0.69104900  1
  C  C28  1  0.37180500  0.06626500  0.11629600  1
  C  C29  1  0.87180500  0.93373500  0.38370400  1
  C  C30  1  0.62819500  0.93373500  0.88370400  1
  C  C31  1  0.12819500  0.06626500  0.61629600  1
  C  C32  1  0.37388900  0.43367800  0.11844500  1
  C  C33  1  0.87388900  0.56632200  0.38155500  1
  C  C34  1  0.62611100  0.56632200  0.88155500  1
  C  C35  1  0.12611100  0.43367800  0.61844500  1
  C  C36  1  0.19904800  0.92543300  0.91473700  1
  C  C37  1  0.69904800  0.07456700  0.58526300  1
  C  C38  1  0.80095200  0.07456700  0.08526300  1
  C  C39  1  0.30095200  0.92543300  0.41473700  1
  C  C40  1  0.19814900  0.57013400  0.90024600  1
  C  C41  1  0.69814900  0.42986600  0.59975400  1
  C  C42  1  0.80185100  0.42986600  0.09975400  1
  C  C43  1  0.30185100  0.57013400  0.40024600  1
  C  C44  1  0.13595900  0.23912800  0.00141300  1
  C  C45  1  0.63595900  0.76087200  0.49858700  1
  C  C46  1  0.86404100  0.76087200  0.99858700  1
  C  C47  1  0.36404100  0.23912800  0.50141300  1
  C  C48  1  0.92501000  0.25546500  0.32940700  1
  C  C49  1  0.42501000  0.74453500  0.17059300  1
  C  C50  1  0.07499000  0.74453500  0.67059300  1
  C  C51  1  0.57499000  0.25546500  0.82940700  1
