# generated using pymatgen
data_Cu3Ni2
_symmetry_space_group_name_H-M   'P 1'
_cell_length_a   10.42166851
_cell_length_b   10.42166851
_cell_length_c   10.42166891
_cell_angle_alpha   23.19231766
_cell_angle_beta   23.19231766
_cell_angle_gamma   23.19231739
_symmetry_Int_Tables_number   1
_chemical_formula_structural   Cu3Ni2
_chemical_formula_sum   'Cu3 Ni2'
_cell_volume   154.10680098
_cell_formula_units_Z   1
loop_
 _symmetry_equiv_pos_site_id
 _symmetry_equiv_pos_as_xyz
  1  'x, y, z'
loop_
 _atom_site_type_symbol
 _atom_site_label
 _atom_site_symmetry_multiplicity
 _atom_site_fract_x
 _atom_site_fract_y
 _atom_site_fract_z
 _atom_site_occupancy
  Ni  Ni0  1  0.60266000  0.60266000  0.60266000  1
  Ni  Ni1  1  0.39734000  0.39734000  0.39734000  1
  Cu  Cu2  1  0.00000000  0.00000000  0.00000000  1
  Cu  Cu3  1  0.21785300  0.21785300  0.21785300  1
  Cu  Cu4  1  0.78214700  0.78214700  0.78214700  1
