# generated using pymatgen
data_CuNiC4
_symmetry_space_group_name_H-M   'P 1'
_cell_length_a   5.56287000
_cell_length_b   8.98368900
_cell_length_c   12.76517000
_cell_angle_alpha   90.00000000
_cell_angle_beta   90.00000000
_cell_angle_gamma   90.00000000
_symmetry_Int_Tables_number   1
_chemical_formula_structural   CuNiC4
_chemical_formula_sum   'Cu8 Ni8 C32'
_cell_volume   637.94057103
_cell_formula_units_Z   8
loop_
 _symmetry_equiv_pos_site_id
 _symmetry_equiv_pos_as_xyz
  1  'x, y, z'
loop_
 _atom_site_type_symbol
 _atom_site_label
 _atom_site_symmetry_multiplicity
 _atom_site_fract_x
 _atom_site_fract_y
 _atom_site_fract_z
 _atom_site_occupancy
  C  C0  1  0.55392600  0.82573300  0.75000000  1
  C  C1  1  0.94607400  0.32573300  0.75000000  1
  C  C2  1  0.05392600  0.67426700  0.25000000  1
  C  C3  1  0.44607400  0.17426700  0.25000000  1
  Ni  Ni4  1  0.06644200  0.66761600  0.90835400  1
  Ni  Ni5  1  0.56644200  0.83238400  0.40835400  1
  Ni  Ni6  1  0.93355800  0.33238400  0.40835400  1
  Ni  Ni7  1  0.43355800  0.16761600  0.59164600  1
  Ni  Ni8  1  0.56644200  0.83238400  0.09164600  1
  Ni  Ni9  1  0.06644200  0.66761600  0.59164600  1
  Ni  Ni10  1  0.43355800  0.16761600  0.90835400  1
  Ni  Ni11  1  0.93355800  0.33238400  0.09164600  1
  Cu  Cu12  1  0.48496300  0.47620600  0.87991100  1
  Cu  Cu13  1  0.51503700  0.52379400  0.12008900  1
  Cu  Cu14  1  0.01503700  0.97620600  0.87991100  1
  Cu  Cu15  1  0.51503700  0.52379400  0.37991100  1
  Cu  Cu16  1  0.48496300  0.47620600  0.62008900  1
  Cu  Cu17  1  0.01503700  0.97620600  0.62008900  1
  Cu  Cu18  1  0.98496300  0.02379400  0.12008900  1
  Cu  Cu19  1  0.98496300  0.02379400  0.37991100  1
  C  C20  1  0.77009600  0.10748400  0.37871100  1
  C  C21  1  0.22990400  0.89251600  0.62128900  1
  C  C22  1  0.27009600  0.39251600  0.62128900  1
  C  C23  1  0.80415700  0.89817000  0.88923800  1
  C  C24  1  0.03593400  0.37261700  0.25000000  1
  C  C25  1  0.22990400  0.89251600  0.87871100  1
  C  C26  1  0.69584300  0.39817000  0.61076200  1
  C  C27  1  0.72990400  0.60748400  0.12128900  1
  C  C28  1  0.03703800  0.12855200  0.62457300  1
  C  C29  1  0.96296200  0.87144800  0.12457300  1
  C  C30  1  0.53703800  0.37144800  0.12457300  1
  C  C31  1  0.46296200  0.62855200  0.87542700  1
  C  C32  1  0.19584300  0.10183000  0.11076200  1
  C  C33  1  0.69584300  0.39817000  0.88923800  1
  C  C34  1  0.46296200  0.62855200  0.62457300  1
  C  C35  1  0.53593400  0.12738300  0.75000000  1
  C  C36  1  0.19584300  0.10183000  0.38923800  1
  C  C37  1  0.30415700  0.60183000  0.38923800  1
  C  C38  1  0.72990400  0.60748400  0.37871100  1
  C  C39  1  0.46406600  0.87261700  0.25000000  1
  C  C40  1  0.96406600  0.62738300  0.75000000  1
  C  C41  1  0.77009600  0.10748400  0.12128900  1
  C  C42  1  0.53703800  0.37144800  0.37542700  1
  C  C43  1  0.30415700  0.60183000  0.11076200  1
  C  C44  1  0.80415700  0.89817000  0.61076200  1
  C  C45  1  0.96296200  0.87144800  0.37542700  1
  C  C46  1  0.27009600  0.39251600  0.87871100  1
  C  C47  1  0.03703800  0.12855200  0.87542700  1
