# generated using pymatgen
data_CuNiC3
_symmetry_space_group_name_H-M   'P 1'
_cell_length_a   7.36521693
_cell_length_b   7.36521693
_cell_length_c   13.73510324
_cell_angle_alpha   72.60970678
_cell_angle_beta   72.60970678
_cell_angle_gamma   81.22179871
_symmetry_Int_Tables_number   1
_chemical_formula_structural   CuNiC3
_chemical_formula_sum   'Cu4 Ni4 C12'
_cell_volume   676.88296326
_cell_formula_units_Z   4
loop_
 _symmetry_equiv_pos_site_id
 _symmetry_equiv_pos_as_xyz
  1  'x, y, z'
loop_
 _atom_site_type_symbol
 _atom_site_label
 _atom_site_symmetry_multiplicity
 _atom_site_fract_x
 _atom_site_fract_y
 _atom_site_fract_z
 _atom_site_occupancy
  C  C0  1  0.74542600  0.90704200  0.07920400  1
  C  C1  1  0.25457400  0.09295800  0.92079600  1
  C  C2  1  0.09295800  0.25457400  0.42079600  1
  C  C3  1  0.90704200  0.74542600  0.57920400  1
  Ni  Ni4  1  0.28204700  0.40404600  0.41244600  1
  Ni  Ni5  1  0.59595400  0.71795300  0.08755400  1
  Ni  Ni6  1  0.40404600  0.28204700  0.91244600  1
  Ni  Ni7  1  0.71795300  0.59595400  0.58755400  1
  C  C8  1  0.96850100  0.53460500  0.27895900  1
  C  C9  1  0.82224900  0.04390800  0.42909100  1
  C  C10  1  0.46539500  0.03149900  0.22104100  1
  C  C11  1  0.95609200  0.17775100  0.07090900  1
  C  C12  1  0.03149900  0.46539500  0.72104100  1
  C  C13  1  0.53460500  0.96850100  0.77895900  1
  C  C14  1  0.04390800  0.82224900  0.92909100  1
  C  C15  1  0.17775100  0.95609200  0.57090900  1
  Cu  Cu16  1  0.49704700  0.40004200  0.90609200  1
  Cu  Cu17  1  0.59995800  0.50295300  0.59390800  1
  Cu  Cu18  1  0.50295300  0.59995800  0.09390800  1
  Cu  Cu19  1  0.40004200  0.49704700  0.40609200  1
