# generated using pymatgen
data_Cu2NiC9
_symmetry_space_group_name_H-M   'P 1'
_cell_length_a   8.55624923
_cell_length_b   10.89072326
_cell_length_c   8.56900459
_cell_angle_alpha   89.99999953
_cell_angle_beta   111.24555361
_cell_angle_gamma   90.00000368
_symmetry_Int_Tables_number   1
_chemical_formula_structural   Cu2NiC9
_chemical_formula_sum   'Cu8 Ni4 C36'
_cell_volume   744.22320732
_cell_formula_units_Z   4
loop_
 _symmetry_equiv_pos_site_id
 _symmetry_equiv_pos_as_xyz
  1  'x, y, z'
loop_
 _atom_site_type_symbol
 _atom_site_label
 _atom_site_symmetry_multiplicity
 _atom_site_fract_x
 _atom_site_fract_y
 _atom_site_fract_z
 _atom_site_occupancy
  C  C0  1  0.22731000  0.95903800  0.97413700  1
  C  C1  1  0.72731000  0.45903800  0.97413700  1
  C  C2  1  0.77269000  0.04096200  0.02586300  1
  C  C3  1  0.27269000  0.54096200  0.02586300  1
  C  C4  1  0.77269000  0.95903800  0.52586300  1
  C  C5  1  0.27269000  0.45903800  0.52586300  1
  C  C6  1  0.22731000  0.04096200  0.47413700  1
  C  C7  1  0.72731000  0.54096200  0.47413700  1
  Ni  Ni8  1  0.00000000  0.74261300  0.25000000  1
  Ni  Ni9  1  0.00000000  0.25738700  0.75000000  1
  Ni  Ni10  1  0.50000000  0.24261300  0.25000000  1
  Ni  Ni11  1  0.50000000  0.75738700  0.75000000  1
  Cu  Cu12  1  0.61328700  0.78111100  0.13778800  1
  Cu  Cu13  1  0.11328700  0.28111100  0.13778800  1
  Cu  Cu14  1  0.38671300  0.21888900  0.86221200  1
  Cu  Cu15  1  0.88671300  0.71888900  0.86221200  1
  Cu  Cu16  1  0.38671300  0.78111100  0.36221200  1
  Cu  Cu17  1  0.88671300  0.28111100  0.36221200  1
  Cu  Cu18  1  0.61328700  0.21888900  0.63778800  1
  Cu  Cu19  1  0.11328700  0.71888900  0.63778800  1
  C  C20  1  0.50000000  0.16655800  0.75000000  1
  C  C21  1  0.00000000  0.66655800  0.75000000  1
  C  C22  1  0.50000000  0.83344200  0.25000000  1
  C  C23  1  0.00000000  0.33344200  0.25000000  1
  C  C24  1  0.47286400  0.85153400  0.54354400  1
  C  C25  1  0.97286400  0.35153400  0.54354400  1
  C  C26  1  0.52713600  0.85153400  0.95645600  1
  C  C27  1  0.02713600  0.35153400  0.95645600  1
  C  C28  1  0.52713600  0.14846600  0.45645600  1
  C  C29  1  0.02713600  0.64846600  0.45645600  1
  C  C30  1  0.47286400  0.14846600  0.04354400  1
  C  C31  1  0.97286400  0.64846600  0.04354400  1
  C  C32  1  0.39109800  0.63222700  0.36684200  1
  C  C33  1  0.89109800  0.13222700  0.36684200  1
  C  C34  1  0.60890200  0.63222700  0.13315800  1
  C  C35  1  0.10890200  0.13222700  0.13315800  1
  C  C36  1  0.39109800  0.36777300  0.86684200  1
  C  C37  1  0.89109800  0.86777300  0.86684200  1
  C  C38  1  0.60890200  0.36777300  0.63315800  1
  C  C39  1  0.10890200  0.86777300  0.63315800  1
  C  C40  1  0.20040700  0.84259100  0.26452100  1
  C  C41  1  0.70040700  0.34259100  0.26452100  1
  C  C42  1  0.79959300  0.15740900  0.73547900  1
  C  C43  1  0.29959300  0.65740900  0.73547900  1
  C  C44  1  0.79959300  0.84259100  0.23547900  1
  C  C45  1  0.29959300  0.34259100  0.23547900  1
  C  C46  1  0.20040700  0.15740900  0.76452100  1
  C  C47  1  0.70040700  0.65740900  0.76452100  1
