# generated using pymatgen
data_CuNiC3
_symmetry_space_group_name_H-M   'P 1'
_cell_length_a   5.51888400
_cell_length_b   5.78559000
_cell_length_c   8.02615800
_cell_angle_alpha   90.00000000
_cell_angle_beta   90.00000000
_cell_angle_gamma   90.00000000
_symmetry_Int_Tables_number   1
_chemical_formula_structural   CuNiC3
_chemical_formula_sum   'Cu4 Ni4 C12'
_cell_volume   256.27522559
_cell_formula_units_Z   4
loop_
 _symmetry_equiv_pos_site_id
 _symmetry_equiv_pos_as_xyz
  1  'x, y, z'
loop_
 _atom_site_type_symbol
 _atom_site_label
 _atom_site_symmetry_multiplicity
 _atom_site_fract_x
 _atom_site_fract_y
 _atom_site_fract_z
 _atom_site_occupancy
  Ni  Ni0  1  0.98137300  0.05967700  0.75000000  1
  Ni  Ni1  1  0.48137300  0.44032300  0.25000000  1
  Ni  Ni2  1  0.51862700  0.55967700  0.75000000  1
  Ni  Ni3  1  0.01862700  0.94032300  0.25000000  1
  Cu  Cu4  1  0.00000000  0.50000000  0.50000000  1
  Cu  Cu5  1  0.50000000  0.00000000  0.50000000  1
  Cu  Cu6  1  0.50000000  0.00000000  0.00000000  1
  Cu  Cu7  1  0.00000000  0.50000000  0.00000000  1
  C  C8  1  0.69375900  0.30417000  0.56510500  1
  C  C9  1  0.19375900  0.19583000  0.43489500  1
  C  C10  1  0.80624100  0.80417000  0.93489500  1
  C  C11  1  0.30624100  0.69583000  0.06510500  1
  C  C12  1  0.30624100  0.69583000  0.43489500  1
  C  C13  1  0.80624100  0.80417000  0.56510500  1
  C  C14  1  0.19375900  0.19583000  0.06510500  1
  C  C15  1  0.69375900  0.30417000  0.93489500  1
  C  C16  1  0.87608100  0.55182500  0.25000000  1
  C  C17  1  0.37608100  0.94817500  0.75000000  1
  C  C18  1  0.62391900  0.05182500  0.25000000  1
  C  C19  1  0.12391900  0.44817500  0.75000000  1
