# generated using pymatgen
data_Cu12Ni3C2
_symmetry_space_group_name_H-M   'P 1'
_cell_length_a   8.78369863
_cell_length_b   8.78369863
_cell_length_c   8.78369888
_cell_angle_alpha   55.59406658
_cell_angle_beta   55.59406658
_cell_angle_gamma   55.59406111
_symmetry_Int_Tables_number   1
_chemical_formula_structural   Cu12Ni3C2
_chemical_formula_sum   'Cu24 Ni6 C4'
_cell_volume   430.19925910
_cell_formula_units_Z   2
loop_
 _symmetry_equiv_pos_site_id
 _symmetry_equiv_pos_as_xyz
  1  'x, y, z'
loop_
 _atom_site_type_symbol
 _atom_site_label
 _atom_site_symmetry_multiplicity
 _atom_site_fract_x
 _atom_site_fract_y
 _atom_site_fract_z
 _atom_site_occupancy
  C  C0  1  0.14383400  0.14383400  0.14383400  1
  C  C1  1  0.85616600  0.85616600  0.85616600  1
  C  C2  1  0.34940100  0.34940100  0.34940100  1
  C  C3  1  0.65059900  0.65059900  0.65059900  1
  Ni  Ni4  1  0.03927500  0.45803200  0.75116400  1
  Ni  Ni5  1  0.45803200  0.75116400  0.03927500  1
  Ni  Ni6  1  0.75116400  0.03927500  0.45803200  1
  Ni  Ni7  1  0.96072500  0.54196800  0.24883600  1
  Ni  Ni8  1  0.54196800  0.24883600  0.96072500  1
  Ni  Ni9  1  0.24883600  0.96072500  0.54196800  1
  Cu  Cu10  1  0.01406100  0.61043600  0.79739100  1
  Cu  Cu11  1  0.61043600  0.79739100  0.01406100  1
  Cu  Cu12  1  0.79739100  0.01406100  0.61043600  1
  Cu  Cu13  1  0.98593900  0.38956400  0.20260900  1
  Cu  Cu14  1  0.38956400  0.20260900  0.98593900  1
  Cu  Cu15  1  0.20260900  0.98593900  0.38956400  1
  Cu  Cu16  1  0.84563600  0.47347200  0.78466500  1
  Cu  Cu17  1  0.47347200  0.78466500  0.84563600  1
  Cu  Cu18  1  0.78466500  0.84563600  0.47347200  1
  Cu  Cu19  1  0.15436400  0.52652800  0.21533500  1
  Cu  Cu20  1  0.52652800  0.21533500  0.15436400  1
  Cu  Cu21  1  0.21533500  0.15436400  0.52652800  1
  Cu  Cu22  1  0.17506600  0.48550300  0.54206000  1
  Cu  Cu23  1  0.48550300  0.54206000  0.17506600  1
  Cu  Cu24  1  0.54206000  0.17506600  0.48550300  1
  Cu  Cu25  1  0.82493400  0.51449700  0.45794000  1
  Cu  Cu26  1  0.51449700  0.45794000  0.82493400  1
  Cu  Cu27  1  0.45794000  0.82493400  0.51449700  1
  Cu  Cu28  1  0.12751500  0.25839900  0.88221200  1
  Cu  Cu29  1  0.25839900  0.88221200  0.12751500  1
  Cu  Cu30  1  0.88221200  0.12751500  0.25839900  1
  Cu  Cu31  1  0.87248500  0.74160100  0.11778800  1
  Cu  Cu32  1  0.74160100  0.11778800  0.87248500  1
  Cu  Cu33  1  0.11778800  0.87248500  0.74160100  1
