# generated using pymatgen
data_Cu2NiC17
_symmetry_space_group_name_H-M   'P 1'
_cell_length_a   7.38764420
_cell_length_b   7.38764420
_cell_length_c   14.81682458
_cell_angle_alpha   88.20076789
_cell_angle_beta   88.20076789
_cell_angle_gamma   41.90909928
_symmetry_Int_Tables_number   1
_chemical_formula_structural   Cu2NiC17
_chemical_formula_sum   'Cu4 Ni2 C34'
_cell_volume   539.84108080
_cell_formula_units_Z   2
loop_
 _symmetry_equiv_pos_site_id
 _symmetry_equiv_pos_as_xyz
  1  'x, y, z'
loop_
 _atom_site_type_symbol
 _atom_site_label
 _atom_site_symmetry_multiplicity
 _atom_site_fract_x
 _atom_site_fract_y
 _atom_site_fract_z
 _atom_site_occupancy
  C  C0  1  0.23175400  0.15082800  0.38196800  1
  C  C1  1  0.84917200  0.76824600  0.11803200  1
  C  C2  1  0.76824600  0.84917200  0.61803200  1
  C  C3  1  0.15082800  0.23175400  0.88196800  1
  C  C4  1  0.56059700  0.43940300  0.25000000  1
  C  C5  1  0.43940300  0.56059700  0.75000000  1
  Ni  Ni6  1  0.50000000  0.50000000  0.00000000  1
  Ni  Ni7  1  0.50000000  0.50000000  0.50000000  1
  Cu  Cu8  1  0.12127000  0.11094900  0.12174400  1
  Cu  Cu9  1  0.88905100  0.87873000  0.37825600  1
  Cu  Cu10  1  0.87873000  0.88905100  0.87825600  1
  Cu  Cu11  1  0.11094900  0.12127000  0.62174400  1
  C  C12  1  0.28294000  0.19719200  0.07890300  1
  C  C13  1  0.80280800  0.71706000  0.42109700  1
  C  C14  1  0.71706000  0.80280800  0.92109700  1
  C  C15  1  0.19719200  0.28294000  0.57890300  1
  C  C16  1  0.73317700  0.10986400  0.97572600  1
  C  C17  1  0.89013600  0.26682300  0.52427400  1
  C  C18  1  0.26682300  0.89013600  0.02427400  1
  C  C19  1  0.10986400  0.73317700  0.47572600  1
  C  C20  1  0.39993600  0.82592500  0.55055000  1
  C  C21  1  0.17407500  0.60006400  0.94945000  1
  C  C22  1  0.60006400  0.17407500  0.44945000  1
  C  C23  1  0.82592500  0.39993600  0.05055000  1
  C  C24  1  0.93077700  0.05624100  0.15883400  1
  C  C25  1  0.94375900  0.06922300  0.34116600  1
  C  C26  1  0.06922300  0.94375900  0.84116600  1
  C  C27  1  0.05624100  0.93077700  0.65883400  1
  C  C28  1  0.35772000  0.96119600  0.71500900  1
  C  C29  1  0.03880400  0.64228000  0.78499100  1
  C  C30  1  0.64228000  0.03880400  0.28499100  1
  C  C31  1  0.96119600  0.35772000  0.21500900  1
  C  C32  1  0.59401200  0.15345200  0.80550400  1
  C  C33  1  0.84654800  0.40598800  0.69449600  1
  C  C34  1  0.40598800  0.84654800  0.19449600  1
  C  C35  1  0.15345200  0.59401200  0.30550400  1
  C  C36  1  0.51211400  0.61900500  0.38073900  1
  C  C37  1  0.38099500  0.48788600  0.11926100  1
  C  C38  1  0.48788600  0.38099500  0.61926100  1
  C  C39  1  0.61900500  0.51211400  0.88073900  1
