# generated using pymatgen
data_Cu2NiC7
_symmetry_space_group_name_H-M   'P 1'
_cell_length_a   7.57116300
_cell_length_b   6.75892600
_cell_length_c   10.05756110
_cell_angle_alpha   87.78096277
_cell_angle_beta   90.00000000
_cell_angle_gamma   90.00000000
_symmetry_Int_Tables_number   1
_chemical_formula_structural   Cu2NiC7
_chemical_formula_sum   'Cu4 Ni2 C14'
_cell_volume   514.28892332
_cell_formula_units_Z   2
loop_
 _symmetry_equiv_pos_site_id
 _symmetry_equiv_pos_as_xyz
  1  'x, y, z'
loop_
 _atom_site_type_symbol
 _atom_site_label
 _atom_site_symmetry_multiplicity
 _atom_site_fract_x
 _atom_site_fract_y
 _atom_site_fract_z
 _atom_site_occupancy
  C  C0  1  0.47519500  0.70164600  0.49805600  1
  C  C1  1  0.97519500  0.29835400  0.50194400  1
  Ni  Ni2  1  0.22799500  0.21058900  0.98241900  1
  Ni  Ni3  1  0.72799500  0.78941100  0.01758100  1
  Cu  Cu4  1  0.68447100  0.31233300  0.82836700  1
  Cu  Cu5  1  0.95922000  0.79608000  0.29771000  1
  Cu  Cu6  1  0.18447100  0.68766700  0.17163300  1
  Cu  Cu7  1  0.45922000  0.20392000  0.70229000  1
  C  C8  1  0.77190700  0.57223800  0.75001100  1
  C  C9  1  0.53979000  0.17728100  0.51685400  1
  C  C10  1  0.76852900  0.58856600  0.26910400  1
  C  C11  1  0.57013700  0.34469000  0.01396100  1
  C  C12  1  0.37979900  0.95244400  0.80956200  1
  C  C13  1  0.26852900  0.41143400  0.73089600  1
  C  C14  1  0.07013700  0.65531000  0.98603900  1
  C  C15  1  0.87979900  0.04755600  0.19043800  1
  C  C16  1  0.03979000  0.82271900  0.48314600  1
  C  C17  1  0.37184800  0.90875700  0.16994500  1
  C  C18  1  0.87184800  0.09124300  0.83005500  1
  C  C19  1  0.27190700  0.42776200  0.24998900  1
