# generated using pymatgen
data_Cu4NiC12
_symmetry_space_group_name_H-M   'P 1'
_cell_length_a   7.17369200
_cell_length_b   10.20582200
_cell_length_c   14.25641800
_cell_angle_alpha   90.00000000
_cell_angle_beta   90.00000000
_cell_angle_gamma   90.00000000
_symmetry_Int_Tables_number   1
_chemical_formula_structural   Cu4NiC12
_chemical_formula_sum   'Cu16 Ni4 C48'
_cell_volume   1043.76117055
_cell_formula_units_Z   4
loop_
 _symmetry_equiv_pos_site_id
 _symmetry_equiv_pos_as_xyz
  1  'x, y, z'
loop_
 _atom_site_type_symbol
 _atom_site_label
 _atom_site_symmetry_multiplicity
 _atom_site_fract_x
 _atom_site_fract_y
 _atom_site_fract_z
 _atom_site_occupancy
  C  C0  1  0.23132600  0.40113500  0.11928500  1
  C  C1  1  0.73132600  0.09886500  0.88071500  1
  C  C2  1  0.26867400  0.59886500  0.61928500  1
  C  C3  1  0.76867400  0.90113500  0.38071500  1
  C  C4  1  0.98877700  0.67523200  0.90061200  1
  C  C5  1  0.48877700  0.82476800  0.09938800  1
  C  C6  1  0.01122300  0.17523200  0.59938800  1
  C  C7  1  0.51122300  0.32476800  0.40061200  1
  Ni  Ni8  1  0.48165000  0.80640300  0.85346800  1
  Ni  Ni9  1  0.01835000  0.19359700  0.35346800  1
  Ni  Ni10  1  0.51835000  0.30640300  0.64653200  1
  Ni  Ni11  1  0.98165000  0.69359700  0.14653200  1
  Cu  Cu12  1  0.26617300  0.94004400  0.40087100  1
  Cu  Cu13  1  0.76617300  0.55995600  0.59912900  1
  Cu  Cu14  1  0.23631500  0.34478800  0.82080000  1
  Cu  Cu15  1  0.53145700  0.51828500  0.92106400  1
  Cu  Cu16  1  0.17368300  0.90298700  0.72684200  1
  Cu  Cu17  1  0.46854300  0.01828500  0.57893600  1
  Cu  Cu18  1  0.82631700  0.40298700  0.77315800  1
  Cu  Cu19  1  0.67368300  0.59701300  0.27315800  1
  Cu  Cu20  1  0.26368500  0.65521200  0.32080000  1
  Cu  Cu21  1  0.03145700  0.98171500  0.07893600  1
  Cu  Cu22  1  0.73631500  0.15521200  0.17920000  1
  Cu  Cu23  1  0.32631700  0.09701300  0.22684200  1
  Cu  Cu24  1  0.76368500  0.84478800  0.67920000  1
  Cu  Cu25  1  0.96854300  0.48171500  0.42106400  1
  Cu  Cu26  1  0.23382700  0.05995600  0.90087100  1
  Cu  Cu27  1  0.73382700  0.44004400  0.09912900  1
  C  C28  1  0.92054400  0.57415400  0.51338600  1
  C  C29  1  0.80688900  0.50802700  0.34177200  1
  C  C30  1  0.10738400  0.00489000  0.81104300  1
  C  C31  1  0.50967900  0.13486600  0.16315700  1
  C  C32  1  0.71612100  0.84741600  0.78905000  1
  C  C33  1  0.02231600  0.82938600  0.05186500  1
  C  C34  1  0.28387900  0.34741600  0.71095000  1
  C  C35  1  0.22944700  0.22755100  0.26682500  1
  C  C36  1  0.19813500  0.79016100  0.37528900  1
  C  C37  1  0.89261600  0.50489000  0.68895700  1
  C  C38  1  0.67122200  0.96643100  0.61830700  1
  C  C39  1  0.07945600  0.07415400  0.98661400  1
  C  C40  1  0.49032100  0.63486600  0.33684300  1
  C  C41  1  0.82877800  0.03356900  0.11830700  1
  C  C42  1  0.59052000  0.46853700  0.57480000  1
  C  C43  1  0.97768400  0.32938600  0.44813500  1
  C  C44  1  0.39261600  0.99511000  0.31104300  1
  C  C45  1  0.80186500  0.29016100  0.12471100  1
  C  C46  1  0.27055300  0.77244900  0.76682500  1
  C  C47  1  0.69813500  0.70983900  0.62471100  1
  C  C48  1  0.90948000  0.53146300  0.07480000  1
  C  C49  1  0.60738400  0.49511000  0.18895700  1
  C  C50  1  0.00967900  0.36513400  0.83684300  1
  C  C51  1  0.69311100  0.49197300  0.84177200  1
  C  C52  1  0.21612100  0.65258400  0.21095000  1
  C  C53  1  0.19311100  0.00802700  0.15822800  1
  C  C54  1  0.57945600  0.42584600  0.01338600  1
  C  C55  1  0.40948000  0.96853700  0.92520000  1
  C  C56  1  0.30688900  0.99197300  0.65822800  1
  C  C57  1  0.47768400  0.17061400  0.55186500  1
  C  C58  1  0.09052000  0.03146300  0.42520000  1
  C  C59  1  0.30186500  0.20983900  0.87528900  1
  C  C60  1  0.52231600  0.67061400  0.94813500  1
  C  C61  1  0.99032100  0.86513400  0.66315700  1
  C  C62  1  0.17122200  0.53356900  0.38169300  1
  C  C63  1  0.77055300  0.72755100  0.23317500  1
  C  C64  1  0.78387900  0.15258400  0.28905000  1
  C  C65  1  0.72944700  0.27244900  0.73317500  1
  C  C66  1  0.32877800  0.46643100  0.88169300  1
  C  C67  1  0.42054400  0.92584600  0.48661400  1
