# generated using pymatgen
data_Cu3NiC5
_symmetry_space_group_name_H-M   'P 1'
_cell_length_a   7.15076500
_cell_length_b   12.24886000
_cell_length_c   13.67279100
_cell_angle_alpha   90.00000000
_cell_angle_beta   90.00000000
_cell_angle_gamma   90.00000000
_symmetry_Int_Tables_number   1
_chemical_formula_structural   Cu3NiC5
_chemical_formula_sum   'Cu24 Ni8 C40'
_cell_volume   1197.58225401
_cell_formula_units_Z   8
loop_
 _symmetry_equiv_pos_site_id
 _symmetry_equiv_pos_as_xyz
  1  'x, y, z'
loop_
 _atom_site_type_symbol
 _atom_site_label
 _atom_site_symmetry_multiplicity
 _atom_site_fract_x
 _atom_site_fract_y
 _atom_site_fract_z
 _atom_site_occupancy
  C  C0  1  0.61027100  0.65858500  0.01740800  1
  C  C1  1  0.11027100  0.84141500  0.01740800  1
  C  C2  1  0.36180100  0.45352900  0.66340900  1
  C  C3  1  0.13819900  0.54647100  0.16340900  1
  C  C4  1  0.68482800  0.75000000  0.75000000  1
  C  C5  1  0.81517200  0.25000000  0.25000000  1
  C  C6  1  0.88972900  0.34141500  0.51740800  1
  C  C7  1  0.18482800  0.75000000  0.75000000  1
  C  C8  1  0.63819900  0.95352900  0.16340900  1
  C  C9  1  0.88972900  0.15858500  0.98259200  1
  C  C10  1  0.38972900  0.34141500  0.98259200  1
  C  C11  1  0.36180100  0.04647100  0.83659100  1
  C  C12  1  0.63819900  0.54647100  0.33659100  1
  C  C13  1  0.86180100  0.45352900  0.83659100  1
  C  C14  1  0.13819900  0.95352900  0.33659100  1
  C  C15  1  0.61027100  0.84141500  0.48259200  1
  C  C16  1  0.31517200  0.25000000  0.25000000  1
  C  C17  1  0.86180100  0.04647100  0.66340900  1
  C  C18  1  0.38972900  0.15858500  0.51740800  1
  C  C19  1  0.11027100  0.65858500  0.48259200  1
  C  C20  1  0.82203600  0.56280600  0.59928100  1
  C  C21  1  0.32203600  0.93719400  0.59928100  1
  C  C22  1  0.61362200  0.60854600  0.57032300  1
  C  C23  1  0.82203600  0.93719400  0.90071900  1
  C  C24  1  0.88637800  0.39145400  0.07032300  1
  C  C25  1  0.38637800  0.39145400  0.42967700  1
  C  C26  1  0.67796400  0.06280600  0.40071900  1
  C  C27  1  0.61362200  0.89145400  0.92967700  1
  C  C28  1  0.63489500  0.25000000  0.75000000  1
  C  C29  1  0.17796400  0.06280600  0.09928100  1
  C  C30  1  0.11362200  0.89145400  0.57032300  1
  C  C31  1  0.88637800  0.10854600  0.42967700  1
  C  C32  1  0.36510500  0.75000000  0.25000000  1
  C  C33  1  0.13489500  0.25000000  0.75000000  1
  C  C34  1  0.17796400  0.43719400  0.40071900  1
  C  C35  1  0.32203600  0.56280600  0.90071900  1
  C  C36  1  0.38637800  0.10854600  0.07032300  1
  C  C37  1  0.67796400  0.43719400  0.09928100  1
  C  C38  1  0.86510500  0.75000000  0.25000000  1
  C  C39  1  0.11362200  0.60854600  0.92967700  1
  Ni  Ni40  1  0.22344700  0.93586200  0.54643100  1
  Ni  Ni41  1  0.72344700  0.56413800  0.54643100  1
  Ni  Ni42  1  0.27655300  0.06413800  0.04643100  1
  Ni  Ni43  1  0.77655300  0.06413800  0.45356900  1
  Ni  Ni44  1  0.27655300  0.43586200  0.45356900  1
  Ni  Ni45  1  0.22344700  0.56413800  0.95356900  1
  Ni  Ni46  1  0.72344700  0.93586200  0.95356900  1
  Ni  Ni47  1  0.77655300  0.43586200  0.04643100  1
  Cu  Cu48  1  0.56348800  0.17476100  0.10283400  1
  Cu  Cu49  1  0.93651200  0.82523900  0.60283400  1
  Cu  Cu50  1  0.99902200  0.45324600  0.33384300  1
  Cu  Cu51  1  0.56348800  0.32523900  0.39716600  1
  Cu  Cu52  1  0.86447100  0.76661200  0.33281500  1
  Cu  Cu53  1  0.13552900  0.23338800  0.66718500  1
  Cu  Cu54  1  0.06348800  0.32523900  0.10283400  1
  Cu  Cu55  1  0.86447100  0.73338800  0.16718500  1
  Cu  Cu56  1  0.00097800  0.95324600  0.83384300  1
  Cu  Cu57  1  0.50097800  0.54675400  0.83384300  1
  Cu  Cu58  1  0.36447100  0.76661200  0.16718500  1
  Cu  Cu59  1  0.43651200  0.82523900  0.89716600  1
  Cu  Cu60  1  0.93651200  0.67476100  0.89716600  1
  Cu  Cu61  1  0.06348800  0.17476100  0.39716600  1
  Cu  Cu62  1  0.63552900  0.23338800  0.83281500  1
  Cu  Cu63  1  0.36447100  0.73338800  0.33281500  1
  Cu  Cu64  1  0.49902200  0.45324600  0.16615700  1
  Cu  Cu65  1  0.43651200  0.67476100  0.60283400  1
  Cu  Cu66  1  0.63552900  0.26661200  0.66718500  1
  Cu  Cu67  1  0.49902200  0.04675400  0.33384300  1
  Cu  Cu68  1  0.50097800  0.95324600  0.66615700  1
  Cu  Cu69  1  0.00097800  0.54675400  0.66615700  1
  Cu  Cu70  1  0.13552900  0.26661200  0.83281500  1
  Cu  Cu71  1  0.99902200  0.04675400  0.16615700  1
