# generated using pymatgen
data_Cu5NiC6
_symmetry_space_group_name_H-M   'P 1'
_cell_length_a   6.82348100
_cell_length_b   7.63402500
_cell_length_c   9.32778000
_cell_angle_alpha   90.00000000
_cell_angle_beta   90.00000000
_cell_angle_gamma   90.00000000
_symmetry_Int_Tables_number   1
_chemical_formula_structural   Cu5NiC6
_chemical_formula_sum   'Cu20 Ni4 C24'
_cell_volume   485.88988578
_cell_formula_units_Z   4
loop_
 _symmetry_equiv_pos_site_id
 _symmetry_equiv_pos_as_xyz
  1  'x, y, z'
loop_
 _atom_site_type_symbol
 _atom_site_label
 _atom_site_symmetry_multiplicity
 _atom_site_fract_x
 _atom_site_fract_y
 _atom_site_fract_z
 _atom_site_occupancy
  C  C0  1  0.22594900  0.53261300  0.59454400  1
  C  C1  1  0.72594900  0.96738700  0.40545600  1
  C  C2  1  0.77405100  0.03261300  0.90545600  1
  C  C3  1  0.27405100  0.46738700  0.09454400  1
  Ni  Ni4  1  0.48117400  0.17894200  0.65026200  1
  Ni  Ni5  1  0.98117400  0.32105800  0.34973800  1
  Ni  Ni6  1  0.51882600  0.67894200  0.84973800  1
  Ni  Ni7  1  0.01882600  0.82105800  0.15026200  1
  Cu  Cu8  1  0.62866600  0.29949500  0.61397700  1
  Cu  Cu9  1  0.12866600  0.20050500  0.38602300  1
  Cu  Cu10  1  0.37133400  0.79949500  0.88602300  1
  Cu  Cu11  1  0.87133400  0.70050500  0.11397700  1
  Cu  Cu12  1  0.30872400  0.87690100  0.53445100  1
  Cu  Cu13  1  0.80872400  0.62309900  0.46554900  1
  Cu  Cu14  1  0.69127600  0.37690100  0.96554900  1
  Cu  Cu15  1  0.19127600  0.12309900  0.03445100  1
  Cu  Cu16  1  0.12245400  0.82078200  0.43695900  1
  Cu  Cu17  1  0.62245400  0.67921800  0.56304100  1
  Cu  Cu18  1  0.87754600  0.32078200  0.06304100  1
  Cu  Cu19  1  0.37754600  0.17921800  0.93695900  1
  Cu  Cu20  1  0.52718800  0.55587700  0.34427000  1
  Cu  Cu21  1  0.02718800  0.94412300  0.65573000  1
  Cu  Cu22  1  0.47281200  0.05587700  0.15573000  1
  Cu  Cu23  1  0.97281200  0.44412300  0.84427000  1
  Cu  Cu24  1  0.57490700  0.35932500  0.32058500  1
  Cu  Cu25  1  0.07490700  0.14067500  0.67941500  1
  Cu  Cu26  1  0.42509300  0.85932500  0.17941500  1
  Cu  Cu27  1  0.92509300  0.64067500  0.82058500  1
  C  C28  1  0.49359100  0.02726400  0.54069900  1
  C  C29  1  0.99359100  0.47273600  0.45930100  1
  C  C30  1  0.50640900  0.52726400  0.95930100  1
  C  C31  1  0.00640900  0.97273600  0.04069900  1
  C  C32  1  0.28101300  0.27240100  0.64318000  1
  C  C33  1  0.78101300  0.22759900  0.35682000  1
  C  C34  1  0.71898700  0.77240100  0.85682000  1
  C  C35  1  0.21898700  0.72759900  0.14318000  1
  C  C36  1  0.51982800  0.11599600  0.80539900  1
  C  C37  1  0.01982800  0.38400400  0.19460100  1
  C  C38  1  0.48017200  0.61599600  0.69460100  1
  C  C39  1  0.98017200  0.88400400  0.30539900  1
  C  C40  1  0.19230800  0.79632000  0.53031100  1
  C  C41  1  0.69230800  0.70368000  0.46968900  1
  C  C42  1  0.80769200  0.29632000  0.96968900  1
  C  C43  1  0.30769200  0.20368000  0.03031100  1
  C  C44  1  0.46841900  0.44718500  0.30728000  1
  C  C45  1  0.96841900  0.05281500  0.69272000  1
  C  C46  1  0.53158100  0.94718500  0.19272000  1
  C  C47  1  0.03158100  0.55281500  0.80728000  1
