# generated using pymatgen
data_Cu(NiC5)2
_symmetry_space_group_name_H-M   'P 1'
_cell_length_a   8.54365700
_cell_length_b   10.67769700
_cell_length_c   13.71642766
_cell_angle_alpha   60.75704191
_cell_angle_beta   90.00000000
_cell_angle_gamma   90.00000000
_symmetry_Int_Tables_number   1
_chemical_formula_structural   Cu(NiC5)2
_chemical_formula_sum   'Cu4 Ni8 C40'
_cell_volume   1091.83182979
_cell_formula_units_Z   4
loop_
 _symmetry_equiv_pos_site_id
 _symmetry_equiv_pos_as_xyz
  1  'x, y, z'
loop_
 _atom_site_type_symbol
 _atom_site_label
 _atom_site_symmetry_multiplicity
 _atom_site_fract_x
 _atom_site_fract_y
 _atom_site_fract_z
 _atom_site_occupancy
  C  C0  1  0.19111000  0.76496100  0.32210800  1
  C  C1  1  0.80889000  0.23503900  0.67789200  1
  C  C2  1  0.69111000  0.23503900  0.17789200  1
  C  C3  1  0.30889000  0.76496100  0.82210800  1
  Ni  Ni4  1  0.17683500  0.30162100  0.97735000  1
  Ni  Ni5  1  0.09580900  0.31917000  0.36402300  1
  Ni  Ni6  1  0.59580900  0.68083000  0.13597700  1
  Ni  Ni7  1  0.67683500  0.69837900  0.52265000  1
  Ni  Ni8  1  0.32316500  0.30162100  0.47735000  1
  Ni  Ni9  1  0.90419100  0.68083000  0.63597700  1
  Ni  Ni10  1  0.40419100  0.31917000  0.86402300  1
  Ni  Ni11  1  0.82316500  0.69837900  0.02265000  1
  Cu  Cu12  1  0.22931800  0.05099400  0.95004600  1
  Cu  Cu13  1  0.72931800  0.94900600  0.54995400  1
  Cu  Cu14  1  0.27068200  0.05099400  0.45004600  1
  Cu  Cu15  1  0.77068200  0.94900600  0.04995400  1
  C  C16  1  0.11828900  0.14009600  0.38901000  1
  C  C17  1  0.62409500  0.87063800  0.50396800  1
  C  C18  1  0.88171100  0.85990400  0.61099000  1
  C  C19  1  0.38171100  0.14009600  0.88901000  1
  C  C20  1  0.87590500  0.87063800  0.00396800  1
  C  C21  1  0.61828900  0.85990400  0.11099000  1
  C  C22  1  0.37590500  0.12936200  0.49603200  1
  C  C23  1  0.12409500  0.12936200  0.99603200  1
  C  C24  1  0.81229200  0.54747400  0.81303500  1
  C  C25  1  0.68770800  0.54747400  0.31303500  1
  C  C26  1  0.31229200  0.45252600  0.68696500  1
  C  C27  1  0.18770800  0.45252600  0.18696500  1
  C  C28  1  0.65329400  0.44529500  0.10236000  1
  C  C29  1  0.76335600  0.03402100  0.74868700  1
  C  C30  1  0.48941800  0.20546400  0.24833300  1
  C  C31  1  0.01058200  0.20546400  0.74833300  1
  C  C32  1  0.28518900  0.75292800  0.19851500  1
  C  C33  1  0.59438300  0.22519600  0.05283200  1
  C  C34  1  0.71481100  0.24707200  0.80148500  1
  C  C35  1  0.09438300  0.77480400  0.44716800  1
  C  C36  1  0.39082100  0.71928800  0.39987600  1
  C  C37  1  0.15329400  0.55470500  0.39764000  1
  C  C38  1  0.60917900  0.28071200  0.60012400  1
  C  C39  1  0.73664400  0.03402100  0.24868700  1
  C  C40  1  0.34670600  0.55470500  0.89764000  1
  C  C41  1  0.98941800  0.79453600  0.25166700  1
  C  C42  1  0.10917900  0.71928800  0.89987600  1
  C  C43  1  0.78518900  0.24707200  0.30148500  1
  C  C44  1  0.23664400  0.96597900  0.25131300  1
  C  C45  1  0.84670600  0.44529500  0.60236000  1
  C  C46  1  0.51058200  0.79453600  0.75166700  1
  C  C47  1  0.90561700  0.22519600  0.55283200  1
  C  C48  1  0.89082100  0.28071200  0.10012400  1
  C  C49  1  0.26335600  0.96597900  0.75131300  1
  C  C50  1  0.40561700  0.77480400  0.94716800  1
  C  C51  1  0.21481100  0.75292800  0.69851500  1
