# generated using pymatgen
data_Cu7NiC4
_symmetry_space_group_name_H-M   'P 1'
_cell_length_a   9.77367402
_cell_length_b   9.77367402
_cell_length_c   5.86099300
_cell_angle_alpha   90.00000000
_cell_angle_beta   90.00000000
_cell_angle_gamma   120.00000016
_symmetry_Int_Tables_number   1
_chemical_formula_structural   Cu7NiC4
_chemical_formula_sum   'Cu14 Ni2 C8'
_cell_volume   484.86131384
_cell_formula_units_Z   2
loop_
 _symmetry_equiv_pos_site_id
 _symmetry_equiv_pos_as_xyz
  1  'x, y, z'
loop_
 _atom_site_type_symbol
 _atom_site_label
 _atom_site_symmetry_multiplicity
 _atom_site_fract_x
 _atom_site_fract_y
 _atom_site_fract_z
 _atom_site_occupancy
  C  C0  1  0.22155000  0.35808300  0.75555800  1
  C  C1  1  0.77845000  0.64191700  0.25555800  1
  C  C2  1  0.86346700  0.22155000  0.25555800  1
  C  C3  1  0.13653300  0.77845000  0.75555800  1
  C  C4  1  0.64191700  0.86346700  0.75555800  1
  C  C5  1  0.35808300  0.13653300  0.25555800  1
  C  C6  1  0.00000000  0.00000000  0.67273500  1
  C  C7  1  0.00000000  0.00000000  0.17273500  1
  Ni  Ni8  1  0.66666700  0.33333300  0.83574300  1
  Ni  Ni9  1  0.33333300  0.66666700  0.33574300  1
  Cu  Cu10  1  0.51972400  0.42357200  0.00001800  1
  Cu  Cu11  1  0.73869100  0.89604400  0.20375100  1
  Cu  Cu12  1  0.57642800  0.09615200  0.00001800  1
  Cu  Cu13  1  0.09615200  0.51972400  0.50001800  1
  Cu  Cu14  1  0.84264700  0.73869100  0.70375100  1
  Cu  Cu15  1  0.10395600  0.84264700  0.20375100  1
  Cu  Cu16  1  0.89604400  0.15735300  0.70375100  1
  Cu  Cu17  1  0.33333300  0.66666700  0.95803800  1
  Cu  Cu18  1  0.90384800  0.48027600  0.00001800  1
  Cu  Cu19  1  0.66666700  0.33333300  0.45803800  1
  Cu  Cu20  1  0.26130900  0.10395600  0.70375100  1
  Cu  Cu21  1  0.48027600  0.57642800  0.50001800  1
  Cu  Cu22  1  0.15735300  0.26130900  0.20375100  1
  Cu  Cu23  1  0.42357200  0.90384800  0.50001800  1
