# generated using pymatgen
data_Cu2Ni2C11
_symmetry_space_group_name_H-M   'P 1'
_cell_length_a   5.32332416
_cell_length_b   5.32332416
_cell_length_c   14.58557100
_cell_angle_alpha   90.00000000
_cell_angle_beta   90.00000000
_cell_angle_gamma   120.00000197
_symmetry_Int_Tables_number   1
_chemical_formula_structural   Cu2Ni2C11
_chemical_formula_sum   'Cu4 Ni4 C22'
_cell_volume   357.94795419
_cell_formula_units_Z   2
loop_
 _symmetry_equiv_pos_site_id
 _symmetry_equiv_pos_as_xyz
  1  'x, y, z'
loop_
 _atom_site_type_symbol
 _atom_site_label
 _atom_site_symmetry_multiplicity
 _atom_site_fract_x
 _atom_site_fract_y
 _atom_site_fract_z
 _atom_site_occupancy
  Ni  Ni0  1  0.33333300  0.66666700  0.01757100  1
  Ni  Ni1  1  0.33333300  0.66666700  0.51757100  1
  Ni  Ni2  1  0.66666700  0.33333300  0.98874900  1
  Ni  Ni3  1  0.66666700  0.33333300  0.48874900  1
  Cu  Cu4  1  0.00000000  0.00000000  0.64389400  1
  Cu  Cu5  1  0.00000000  0.00000000  0.14389400  1
  Cu  Cu6  1  0.00000000  0.00000000  0.86184100  1
  Cu  Cu7  1  0.00000000  0.00000000  0.36184100  1
  C  C8  1  0.66666700  0.33333300  0.71065100  1
  C  C9  1  0.33333300  0.66666700  0.29719000  1
  C  C10  1  0.33333300  0.66666700  0.79719000  1
  C  C11  1  0.66666700  0.33333300  0.21065100  1
  C  C12  1  0.68880700  0.66322600  0.58834100  1
  C  C13  1  0.00033500  0.71368600  0.75293900  1
  C  C14  1  0.66260400  0.97422300  0.41715500  1
  C  C15  1  0.31161900  0.33739600  0.41715500  1
  C  C16  1  0.97441900  0.31119300  0.58834100  1
  C  C17  1  0.71335100  0.71368600  0.25293900  1
  C  C18  1  0.02577700  0.33739600  0.91715500  1
  C  C19  1  0.33677400  0.02558100  0.58834100  1
  C  C20  1  0.33677400  0.31119300  0.08834100  1
  C  C21  1  0.02577700  0.68838100  0.41715500  1
  C  C22  1  0.66260400  0.68838100  0.91715500  1
  C  C23  1  0.68880700  0.02558100  0.08834100  1
  C  C24  1  0.71335100  0.99966500  0.75293900  1
  C  C25  1  0.28631400  0.28664900  0.75293900  1
  C  C26  1  0.28631400  0.99966500  0.25293900  1
  C  C27  1  0.97441900  0.66322600  0.08834100  1
  C  C28  1  0.00033500  0.28664900  0.25293900  1
  C  C29  1  0.31161900  0.97422300  0.91715500  1
