# generated using pymatgen
data_Cu3NiC3
_symmetry_space_group_name_H-M   'P 1'
_cell_length_a   8.75360900
_cell_length_b   3.98374900
_cell_length_c   12.51664753
_cell_angle_alpha   79.68203744
_cell_angle_beta   90.00000000
_cell_angle_gamma   90.00000000
_symmetry_Int_Tables_number   1
_chemical_formula_structural   Cu3NiC3
_chemical_formula_sum   'Cu12 Ni4 C12'
_cell_volume   429.42440739
_cell_formula_units_Z   4
loop_
 _symmetry_equiv_pos_site_id
 _symmetry_equiv_pos_as_xyz
  1  'x, y, z'
loop_
 _atom_site_type_symbol
 _atom_site_label
 _atom_site_symmetry_multiplicity
 _atom_site_fract_x
 _atom_site_fract_y
 _atom_site_fract_z
 _atom_site_occupancy
  C  C0  1  0.62086100  0.67050400  0.88344200  1
  C  C1  1  0.37913900  0.32949600  0.11655800  1
  C  C2  1  0.11798900  0.70668500  0.86046900  1
  C  C3  1  0.87913900  0.67050400  0.38344200  1
  C  C4  1  0.61798900  0.29331500  0.63953100  1
  C  C5  1  0.38201100  0.70668500  0.36046900  1
  C  C6  1  0.88201100  0.29331500  0.13953100  1
  C  C7  1  0.12086100  0.32949600  0.61655800  1
  C  C8  1  0.63359100  0.71014200  0.15570200  1
  C  C9  1  0.86640900  0.71014200  0.65570200  1
  C  C10  1  0.36640900  0.28985800  0.84429800  1
  C  C11  1  0.13359100  0.28985800  0.34429800  1
  Ni  Ni12  1  0.87480700  0.20017000  0.91285400  1
  Ni  Ni13  1  0.12519300  0.79983000  0.08714600  1
  Ni  Ni14  1  0.37480700  0.79983000  0.58714600  1
  Ni  Ni15  1  0.62519300  0.20017000  0.41285400  1
  Cu  Cu16  1  0.48956500  0.80121900  0.18762200  1
  Cu  Cu17  1  0.98956500  0.19878100  0.31237800  1
  Cu  Cu18  1  0.76959400  0.77575500  0.20517000  1
  Cu  Cu19  1  0.64099200  0.51918800  0.07249500  1
  Cu  Cu20  1  0.01043500  0.80121900  0.68762200  1
  Cu  Cu21  1  0.73040600  0.77575500  0.70517000  1
  Cu  Cu22  1  0.51043500  0.19878100  0.81237800  1
  Cu  Cu23  1  0.26959400  0.22424500  0.29483000  1
  Cu  Cu24  1  0.35900800  0.48081200  0.92750500  1
  Cu  Cu25  1  0.14099200  0.48081200  0.42750500  1
  Cu  Cu26  1  0.85900800  0.51918800  0.57249500  1
  Cu  Cu27  1  0.23040600  0.22424500  0.79483000  1
