# generated using pymatgen
data_Cu(NiC)2
_symmetry_space_group_name_H-M   'P 1'
_cell_length_a   5.54797200
_cell_length_b   5.65444500
_cell_length_c   8.30973400
_cell_angle_alpha   90.00000000
_cell_angle_beta   90.00000000
_cell_angle_gamma   90.00000000
_symmetry_Int_Tables_number   1
_chemical_formula_structural   Cu(NiC)2
_chemical_formula_sum   'Cu4 Ni8 C8'
_cell_volume   260.68219346
_cell_formula_units_Z   4
loop_
 _symmetry_equiv_pos_site_id
 _symmetry_equiv_pos_as_xyz
  1  'x, y, z'
loop_
 _atom_site_type_symbol
 _atom_site_label
 _atom_site_symmetry_multiplicity
 _atom_site_fract_x
 _atom_site_fract_y
 _atom_site_fract_z
 _atom_site_occupancy
  C  C0  1  0.96814400  0.02469900  0.25000000  1
  C  C1  1  0.53185600  0.52469900  0.25000000  1
  C  C2  1  0.46814400  0.47530100  0.75000000  1
  C  C3  1  0.03185600  0.97530100  0.75000000  1
  C  C4  1  0.50000000  0.00000000  0.50000000  1
  C  C5  1  0.50000000  0.00000000  0.00000000  1
  C  C6  1  0.00000000  0.50000000  0.50000000  1
  C  C7  1  0.00000000  0.50000000  0.00000000  1
  Ni  Ni8  1  0.72521300  0.27283500  0.04110100  1
  Ni  Ni9  1  0.22521300  0.22716500  0.54110100  1
  Ni  Ni10  1  0.27478700  0.72716500  0.54110100  1
  Ni  Ni11  1  0.22521300  0.22716500  0.95889900  1
  Ni  Ni12  1  0.72521300  0.27283500  0.45889900  1
  Ni  Ni13  1  0.27478700  0.72716500  0.95889900  1
  Ni  Ni14  1  0.77478700  0.77283500  0.45889900  1
  Ni  Ni15  1  0.77478700  0.77283500  0.04110100  1
  Cu  Cu16  1  0.39046200  0.97699400  0.25000000  1
  Cu  Cu17  1  0.60953800  0.02300600  0.75000000  1
  Cu  Cu18  1  0.89046200  0.52300600  0.75000000  1
  Cu  Cu19  1  0.10953800  0.47699400  0.25000000  1
