# generated using pymatgen
data_Cu2NiC9
_symmetry_space_group_name_H-M   'P 1'
_cell_length_a   6.58609100
_cell_length_b   6.58995700
_cell_length_c   10.71576800
_cell_angle_alpha   90.00000000
_cell_angle_beta   90.00000000
_cell_angle_gamma   90.00000000
_symmetry_Int_Tables_number   1
_chemical_formula_structural   Cu2NiC9
_chemical_formula_sum   'Cu8 Ni4 C36'
_cell_volume   465.08636805
_cell_formula_units_Z   4
loop_
 _symmetry_equiv_pos_site_id
 _symmetry_equiv_pos_as_xyz
  1  'x, y, z'
loop_
 _atom_site_type_symbol
 _atom_site_label
 _atom_site_symmetry_multiplicity
 _atom_site_fract_x
 _atom_site_fract_y
 _atom_site_fract_z
 _atom_site_occupancy
  C  C0  1  0.25000000  0.47700400  0.95358500  1
  C  C1  1  0.25000000  0.02605200  0.93741900  1
  C  C2  1  0.11384700  0.18989900  0.55596800  1
  C  C3  1  0.38615300  0.31010100  0.05596800  1
  C  C4  1  0.11384700  0.31010100  0.05596800  1
  C  C5  1  0.87910000  0.81455900  0.15700000  1
  C  C6  1  0.75000000  0.52299600  0.04641500  1
  C  C7  1  0.37910000  0.18544100  0.84300000  1
  C  C8  1  0.37910000  0.31455900  0.34300000  1
  C  C9  1  0.75000000  0.97394800  0.06258100  1
  C  C10  1  0.12090000  0.18544100  0.84300000  1
  C  C11  1  0.61384700  0.68989900  0.94403200  1
  C  C12  1  0.12090000  0.31455900  0.34300000  1
  C  C13  1  0.25000000  0.47394800  0.43741900  1
  C  C14  1  0.25000000  0.02299600  0.45358500  1
  C  C15  1  0.75000000  0.52605200  0.56258100  1
  C  C16  1  0.62090000  0.68544100  0.65700000  1
  C  C17  1  0.75000000  0.97700400  0.54641500  1
  C  C18  1  0.61384700  0.81010100  0.44403200  1
  C  C19  1  0.62090000  0.81455900  0.15700000  1
  C  C20  1  0.87910000  0.68544100  0.65700000  1
  C  C21  1  0.88615300  0.68989900  0.94403200  1
  C  C22  1  0.38615300  0.18989900  0.55596800  1
  C  C23  1  0.88615300  0.81010100  0.44403200  1
  Ni  Ni24  1  0.25000000  0.17239300  0.49836900  1
  Ni  Ni25  1  0.75000000  0.67239300  0.00163100  1
  Ni  Ni26  1  0.75000000  0.82760700  0.50163100  1
  Ni  Ni27  1  0.25000000  0.32760700  0.99836900  1
  Cu  Cu28  1  0.25000000  0.33061500  0.39943100  1
  Cu  Cu29  1  0.25000000  0.16938500  0.89943100  1
  Cu  Cu30  1  0.25000000  0.73430400  0.70088200  1
  Cu  Cu31  1  0.75000000  0.83061500  0.10056900  1
  Cu  Cu32  1  0.25000000  0.76569600  0.20088200  1
  Cu  Cu33  1  0.75000000  0.66938500  0.60056900  1
  Cu  Cu34  1  0.75000000  0.26569600  0.29911800  1
  Cu  Cu35  1  0.75000000  0.23430400  0.79911800  1
  C  C36  1  0.91666000  0.22567600  0.24422500  1
  C  C37  1  0.08334000  0.77432400  0.75577500  1
  C  C38  1  0.75000000  0.15782500  0.90714600  1
  C  C39  1  0.91666000  0.27432400  0.74422500  1
  C  C40  1  0.41666000  0.72567600  0.25577500  1
  C  C41  1  0.58334000  0.27432400  0.74422500  1
  C  C42  1  0.75000000  0.34217500  0.40714600  1
  C  C43  1  0.25000000  0.84217500  0.09285400  1
  C  C44  1  0.08334000  0.72567600  0.25577500  1
  C  C45  1  0.41666000  0.77432400  0.75577500  1
  C  C46  1  0.58334000  0.22567600  0.24422500  1
  C  C47  1  0.25000000  0.65782500  0.59285400  1
