# generated using pymatgen
data_CuNiC5
_symmetry_space_group_name_H-M   'P 1'
_cell_length_a   17.24542500
_cell_length_b   5.86719500
_cell_length_c   7.03338402
_cell_angle_alpha   62.99635679
_cell_angle_beta   90.00000000
_cell_angle_gamma   90.00000000
_symmetry_Int_Tables_number   1
_chemical_formula_structural   CuNiC5
_chemical_formula_sum   'Cu4 Ni4 C20'
_cell_volume   634.06760735
_cell_formula_units_Z   4
loop_
 _symmetry_equiv_pos_site_id
 _symmetry_equiv_pos_as_xyz
  1  'x, y, z'
loop_
 _atom_site_type_symbol
 _atom_site_label
 _atom_site_symmetry_multiplicity
 _atom_site_fract_x
 _atom_site_fract_y
 _atom_site_fract_z
 _atom_site_occupancy
  C  C0  1  0.03840200  0.84622200  0.30965900  1
  C  C1  1  0.53840200  0.15377800  0.19034100  1
  C  C2  1  0.11325400  0.56466700  0.88236100  1
  C  C3  1  0.61325400  0.43533300  0.61763900  1
  C  C4  1  0.88674600  0.43533300  0.11763900  1
  C  C5  1  0.38674600  0.56466700  0.38236100  1
  C  C6  1  0.96159800  0.15377800  0.69034100  1
  C  C7  1  0.46159800  0.84622200  0.80965900  1
  Ni  Ni8  1  0.21230100  0.88119900  0.10043900  1
  Ni  Ni9  1  0.28769900  0.88119900  0.60043900  1
  Ni  Ni10  1  0.78769900  0.11880100  0.89956100  1
  Ni  Ni11  1  0.71230100  0.11880100  0.39956100  1
  Cu  Cu12  1  0.17393100  0.25491900  0.51834800  1
  Cu  Cu13  1  0.82606900  0.74508100  0.48165200  1
  Cu  Cu14  1  0.32606900  0.25491900  0.01834800  1
  Cu  Cu15  1  0.67393100  0.74508100  0.98165200  1
  C  C16  1  0.19588400  0.70958600  0.46012100  1
  C  C17  1  0.94308900  0.65803200  0.69491300  1
  C  C18  1  0.61279700  0.92484900  0.62661400  1
  C  C19  1  0.55691100  0.65803200  0.19491300  1
  C  C20  1  0.30411600  0.70958600  0.96012100  1
  C  C21  1  0.69588400  0.29041400  0.03987900  1
  C  C22  1  0.11279700  0.07515100  0.87338600  1
  C  C23  1  0.05691100  0.34196800  0.30508700  1
  C  C24  1  0.44308900  0.34196800  0.80508700  1
  C  C25  1  0.80411600  0.29041400  0.53987900  1
  C  C26  1  0.88720300  0.92484900  0.12661400  1
  C  C27  1  0.38720300  0.07515100  0.37338600  1
