# generated using pymatgen
data_CuNiC4
_symmetry_space_group_name_H-M   'P 1'
_cell_length_a   13.18424181
_cell_length_b   13.18424181
_cell_length_c   13.18424187
_cell_angle_alpha   25.28697474
_cell_angle_beta   25.28697474
_cell_angle_gamma   25.28697271
_symmetry_Int_Tables_number   1
_chemical_formula_structural   CuNiC4
_chemical_formula_sum   'Cu4 Ni4 C16'
_cell_volume   368.00135640
_cell_formula_units_Z   4
loop_
 _symmetry_equiv_pos_site_id
 _symmetry_equiv_pos_as_xyz
  1  'x, y, z'
loop_
 _atom_site_type_symbol
 _atom_site_label
 _atom_site_symmetry_multiplicity
 _atom_site_fract_x
 _atom_site_fract_y
 _atom_site_fract_z
 _atom_site_occupancy
  Ni  Ni0  1  0.08712100  0.08712100  0.08712100  1
  Ni  Ni1  1  0.91287900  0.91287900  0.91287900  1
  Ni  Ni2  1  0.41287900  0.41287900  0.41287900  1
  Ni  Ni3  1  0.58712100  0.58712100  0.58712100  1
  Cu  Cu4  1  0.69078900  0.69078900  0.69078900  1
  Cu  Cu5  1  0.80921100  0.80921100  0.80921100  1
  Cu  Cu6  1  0.19078900  0.19078900  0.19078900  1
  Cu  Cu7  1  0.30921100  0.30921100  0.30921100  1
  C  C8  1  0.50000000  0.50000000  0.50000000  1
  C  C9  1  0.00000000  0.00000000  0.00000000  1
  C  C10  1  0.10074800  0.70958700  0.27138100  1
  C  C11  1  0.22861900  0.79041300  0.39925200  1
  C  C12  1  0.29041300  0.72861900  0.89925200  1
  C  C13  1  0.77138100  0.20958700  0.60074800  1
  C  C14  1  0.60074800  0.77138100  0.20958700  1
  C  C15  1  0.72861900  0.89925200  0.29041300  1
  C  C16  1  0.79041300  0.39925200  0.22861900  1
  C  C17  1  0.89925200  0.29041300  0.72861900  1
  C  C18  1  0.70958700  0.27138100  0.10074800  1
  C  C19  1  0.27138100  0.10074800  0.70958700  1
  C  C20  1  0.25000000  0.25000000  0.25000000  1
  C  C21  1  0.20958700  0.60074800  0.77138100  1
  C  C22  1  0.75000000  0.75000000  0.75000000  1
  C  C23  1  0.39925200  0.22861900  0.79041300  1
