# generated using pymatgen
data_Cu6Ni4C29
_symmetry_space_group_name_H-M   'P 1'
_cell_length_a   12.78376800
_cell_length_b   9.99189100
_cell_length_c   11.81301542
_cell_angle_alpha   58.54037153
_cell_angle_beta   90.00000000
_cell_angle_gamma   90.00000000
_symmetry_Int_Tables_number   1
_chemical_formula_structural   Cu6Ni4C29
_chemical_formula_sum   'Cu12 Ni8 C58'
_cell_volume   1287.12433444
_cell_formula_units_Z   2
loop_
 _symmetry_equiv_pos_site_id
 _symmetry_equiv_pos_as_xyz
  1  'x, y, z'
loop_
 _atom_site_type_symbol
 _atom_site_label
 _atom_site_symmetry_multiplicity
 _atom_site_fract_x
 _atom_site_fract_y
 _atom_site_fract_z
 _atom_site_occupancy
  Ni  Ni0  1  0.29978500  0.60016700  0.99648900  1
  Ni  Ni1  1  0.79978500  0.39983300  0.50351100  1
  Ni  Ni2  1  0.13162200  0.24125000  0.27347400  1
  Ni  Ni3  1  0.63162200  0.75875000  0.22652600  1
  Ni  Ni4  1  0.20021500  0.60016700  0.49648900  1
  Ni  Ni5  1  0.36837800  0.24125000  0.77347400  1
  Ni  Ni6  1  0.86837800  0.75875000  0.72652600  1
  Ni  Ni7  1  0.70021500  0.39983300  0.00351100  1
  C  C8  1  0.00000000  0.00000000  0.00000000  1
  C  C9  1  0.50000000  0.00000000  0.50000000  1
  Cu  Cu10  1  0.52308600  0.76955700  0.57378900  1
  Cu  Cu11  1  0.55331500  0.97014600  0.67245500  1
  Cu  Cu12  1  0.14668700  0.95003500  0.07354800  1
  Cu  Cu13  1  0.47691400  0.23044300  0.42621100  1
  Cu  Cu14  1  0.64668700  0.04996500  0.42645200  1
  Cu  Cu15  1  0.44668500  0.02985400  0.32754500  1
  Cu  Cu16  1  0.35331300  0.95003500  0.57354800  1
  Cu  Cu17  1  0.02308600  0.23044300  0.92621100  1
  Cu  Cu18  1  0.05331500  0.02985400  0.82754500  1
  Cu  Cu19  1  0.97691400  0.76955700  0.07378900  1
  Cu  Cu20  1  0.94668500  0.97014600  0.17245500  1
  Cu  Cu21  1  0.85331300  0.04996500  0.92645200  1
  C  C22  1  0.77116400  0.08206400  0.88388600  1
  C  C23  1  0.27116400  0.91793600  0.61611400  1
  C  C24  1  0.72883600  0.08206400  0.38388600  1
  C  C25  1  0.03348600  0.36154800  0.88137700  1
  C  C26  1  0.46651400  0.36154800  0.38137700  1
  C  C27  1  0.41680400  0.04788300  0.22999300  1
  C  C28  1  0.22883600  0.91793600  0.11611400  1
  C  C29  1  0.58319600  0.95211700  0.77000700  1
  C  C30  1  0.53348600  0.63845200  0.61862300  1
  C  C31  1  0.91680400  0.95211700  0.27000700  1
  C  C32  1  0.96651400  0.63845200  0.11862300  1
  C  C33  1  0.08319600  0.04788300  0.72999300  1
  C  C34  1  0.73379200  0.46513700  0.61004100  1
  C  C35  1  0.99556400  0.70240300  0.82431200  1
  C  C36  1  0.61519700  0.58227300  0.92067000  1
  C  C37  1  0.68420300  0.53598900  0.36294000  1
  C  C38  1  0.72991800  0.79426700  0.65256200  1
  C  C39  1  0.08920000  0.03450900  0.40124500  1
  C  C40  1  0.27008200  0.20573300  0.34743800  1
  C  C41  1  0.65249200  0.34827400  0.87939800  1
  C  C42  1  0.81579700  0.53598900  0.86294000  1
  C  C43  1  0.41080000  0.03450900  0.90124500  1
  C  C44  1  0.68178200  0.82169000  0.34481900  1
  C  C45  1  0.39607000  0.73121200  0.85938000  1
  C  C46  1  0.22991800  0.20573300  0.84743800  1
  C  C47  1  0.91103400  0.66836100  0.62809800  1
  C  C48  1  0.30259900  0.76379300  0.44120400  1
  C  C49  1  0.81821800  0.82169000  0.84481900  1
  C  C50  1  0.10393000  0.73121200  0.35938000  1
  C  C51  1  0.91080000  0.96549100  0.59875500  1
  C  C52  1  0.11519700  0.41772700  0.57933000  1
  C  C53  1  0.88480300  0.58227300  0.42067000  1
  C  C54  1  0.18420300  0.46401100  0.13706000  1
  C  C55  1  0.80259900  0.23620700  0.05879600  1
  C  C56  1  0.50443600  0.70240300  0.32431200  1
  C  C57  1  0.49556400  0.29759700  0.67568800  1
  C  C58  1  0.31821800  0.17831000  0.65518100  1
  C  C59  1  0.76620800  0.46513700  0.11004100  1
  C  C60  1  0.41103400  0.33163900  0.87190200  1
  C  C61  1  0.77008200  0.79426700  0.15256200  1
  C  C62  1  0.19740100  0.76379300  0.94120400  1
  C  C63  1  0.58896600  0.66836100  0.12809800  1
  C  C64  1  0.15249200  0.65172600  0.62060200  1
  C  C65  1  0.23379200  0.53486300  0.88995900  1
  C  C66  1  0.00443600  0.29759700  0.17568800  1
  C  C67  1  0.58920000  0.96549100  0.09875500  1
  C  C68  1  0.69740100  0.23620700  0.55879600  1
  C  C69  1  0.31579700  0.46401100  0.63706000  1
  C  C70  1  0.08896600  0.33163900  0.37190200  1
  C  C71  1  0.60393000  0.26878800  0.14062000  1
  C  C72  1  0.26620800  0.53486300  0.38995900  1
  C  C73  1  0.18178200  0.17831000  0.15518100  1
  C  C74  1  0.89607000  0.26878800  0.64062000  1
  C  C75  1  0.34750800  0.65172600  0.12060200  1
  C  C76  1  0.38480300  0.41772700  0.07933000  1
  C  C77  1  0.84750800  0.34827400  0.37939800  1
