# generated using pymatgen
data_Cu(Ni3C5)2
_symmetry_space_group_name_H-M   'P 1'
_cell_length_a   9.95781100
_cell_length_b   17.03233200
_cell_length_c   26.93796500
_cell_angle_alpha   90.00000000
_cell_angle_beta   90.00000000
_cell_angle_gamma   90.00000000
_symmetry_Int_Tables_number   1
_chemical_formula_structural   Cu(Ni3C5)2
_chemical_formula_sum   'Cu8 Ni48 C80'
_cell_volume   4568.80662929
_cell_formula_units_Z   8
loop_
 _symmetry_equiv_pos_site_id
 _symmetry_equiv_pos_as_xyz
  1  'x, y, z'
loop_
 _atom_site_type_symbol
 _atom_site_label
 _atom_site_symmetry_multiplicity
 _atom_site_fract_x
 _atom_site_fract_y
 _atom_site_fract_z
 _atom_site_occupancy
  Ni  Ni0  1  0.14754800  0.92775000  0.57334400  1
  Ni  Ni1  1  0.34309100  0.63241800  0.99146600  1
  Ni  Ni2  1  0.15690900  0.13241800  0.50853400  1
  Ni  Ni3  1  0.29491700  0.42093800  0.25000000  1
  Ni  Ni4  1  0.35245200  0.42775000  0.92665600  1
  Ni  Ni5  1  0.63286000  0.35683000  0.32028900  1
  Ni  Ni6  1  0.31623500  0.44494000  0.43302800  1
  Ni  Ni7  1  0.65690900  0.36758200  0.49146600  1
  Ni  Ni8  1  0.81623500  0.05506000  0.56697200  1
  Ni  Ni9  1  0.13286000  0.14317000  0.67971100  1
  Ni  Ni10  1  0.36714000  0.64317000  0.67971100  1
  Ni  Ni11  1  0.85245200  0.07225000  0.42665600  1
  Ni  Ni12  1  0.80629500  0.27578100  0.67949400  1
  Ni  Ni13  1  0.86714000  0.85683000  0.32028900  1
  Ni  Ni14  1  0.31623500  0.44494000  0.06697200  1
  Ni  Ni15  1  0.80629500  0.27578100  0.82050600  1
  Ni  Ni16  1  0.36714000  0.64317000  0.82028900  1
  Ni  Ni17  1  0.70508300  0.57906200  0.75000000  1
  Ni  Ni18  1  0.30629500  0.22421900  0.17949400  1
  Ni  Ni19  1  0.13286000  0.14317000  0.82028900  1
  Ni  Ni20  1  0.81623500  0.05506000  0.93302800  1
  Ni  Ni21  1  0.85245200  0.07225000  0.07334400  1
  Ni  Ni22  1  0.84309100  0.86758200  0.00853400  1
  Ni  Ni23  1  0.18376500  0.94494000  0.43302800  1
  Ni  Ni24  1  0.19370500  0.72421900  0.17949400  1
  Ni  Ni25  1  0.35245200  0.42775000  0.57334400  1
  Ni  Ni26  1  0.15690900  0.13241800  0.99146600  1
  Ni  Ni27  1  0.34309100  0.63241800  0.50853400  1
  Ni  Ni28  1  0.14754800  0.92775000  0.92665600  1
  Ni  Ni29  1  0.30629500  0.22421900  0.32050600  1
  Ni  Ni30  1  0.64754800  0.57225000  0.42665600  1
  Ni  Ni31  1  0.37643000  0.83887700  0.75000000  1
  Ni  Ni32  1  0.79491700  0.07906200  0.75000000  1
  Ni  Ni33  1  0.64754800  0.57225000  0.07334400  1
  Ni  Ni34  1  0.20508300  0.92093800  0.25000000  1
  Ni  Ni35  1  0.87643000  0.66112300  0.25000000  1
  Ni  Ni36  1  0.69370500  0.77578100  0.82050600  1
  Ni  Ni37  1  0.84309100  0.86758200  0.49146600  1
  Ni  Ni38  1  0.86714000  0.85683000  0.17971100  1
  Ni  Ni39  1  0.12357000  0.33887700  0.75000000  1
  Ni  Ni40  1  0.68376500  0.55506000  0.93302800  1
  Ni  Ni41  1  0.63286000  0.35683000  0.17971100  1
  Ni  Ni42  1  0.19370500  0.72421900  0.32050600  1
  Ni  Ni43  1  0.68376500  0.55506000  0.56697200  1
  Ni  Ni44  1  0.62357000  0.16112300  0.25000000  1
  Ni  Ni45  1  0.69370500  0.77578100  0.67949400  1
  Ni  Ni46  1  0.65690900  0.36758200  0.00853400  1
  Ni  Ni47  1  0.18376500  0.94494000  0.06697200  1
  Cu  Cu48  1  0.53579700  0.70545900  0.75000000  1
  Cu  Cu49  1  0.03579700  0.79454100  0.25000000  1
  Cu  Cu50  1  0.46420300  0.29454100  0.25000000  1
  Cu  Cu51  1  0.50000000  0.50000000  0.00000000  1
  Cu  Cu52  1  0.00000000  0.00000000  0.00000000  1
  Cu  Cu53  1  0.50000000  0.50000000  0.50000000  1
  Cu  Cu54  1  0.96420300  0.20545900  0.75000000  1
  Cu  Cu55  1  0.00000000  0.00000000  0.50000000  1
  C  C56  1  0.46182200  0.09252300  0.32094200  1
  C  C57  1  0.86072100  0.63761800  0.67969500  1
  C  C58  1  0.78868200  0.22764600  0.17573400  1
  C  C59  1  0.31574900  0.05803100  0.57988100  1
  C  C60  1  0.21131800  0.77235400  0.67573400  1
  C  C61  1  0.71131800  0.72764600  0.32426600  1
  C  C62  1  0.14316000  0.15915400  0.25000000  1
  C  C63  1  0.96395300  0.00226300  0.84513400  1
  C  C64  1  0.35684000  0.65915400  0.25000000  1
  C  C65  1  0.48608800  0.70470900  0.06653000  1
  C  C66  1  0.28868200  0.27235400  0.82426600  1
  C  C67  1  0.53134000  0.69806700  0.90585200  1
  C  C68  1  0.18425100  0.55803100  0.92011900  1
  C  C69  1  0.68425100  0.94196900  0.07988100  1
  C  C70  1  0.66805000  0.91847000  0.56004500  1
  C  C71  1  0.18425100  0.55803100  0.57988100  1
  C  C72  1  0.13927900  0.36238200  0.32030500  1
  C  C73  1  0.98608800  0.79529100  0.93347000  1
  C  C74  1  0.96182200  0.40747700  0.67905800  1
  C  C75  1  0.46395300  0.49773700  0.34513400  1
  C  C76  1  0.27932500  0.06275500  0.75000000  1
  C  C77  1  0.51391200  0.29529100  0.93347000  1
  C  C78  1  0.81817900  0.63687200  0.49339900  1
  C  C79  1  0.48608800  0.70470900  0.43347000  1
  C  C80  1  0.66805000  0.91847000  0.93995500  1
  C  C81  1  0.03817800  0.59252300  0.32094200  1
  C  C82  1  0.53134000  0.69806700  0.59414800  1
  C  C83  1  0.28868200  0.27235400  0.67573400  1
  C  C84  1  0.33195000  0.08153000  0.06004500  1
  C  C85  1  0.03134000  0.80193300  0.09414800  1
  C  C86  1  0.78868200  0.22764600  0.32426600  1
  C  C87  1  0.18182100  0.36312800  0.99339900  1
  C  C88  1  0.36072100  0.86238200  0.17969500  1
  C  C89  1  0.71131800  0.72764600  0.17573400  1
  C  C90  1  0.96395300  0.00226300  0.65486600  1
  C  C91  1  0.96182200  0.40747700  0.82094200  1
  C  C92  1  0.72067500  0.93724500  0.25000000  1
  C  C93  1  0.51391200  0.29529100  0.56653000  1
  C  C94  1  0.77932500  0.43724500  0.25000000  1
  C  C95  1  0.16805000  0.58153000  0.43995500  1
  C  C96  1  0.01391200  0.20470900  0.43347000  1
  C  C97  1  0.86072100  0.63761800  0.82030500  1
  C  C98  1  0.03134000  0.80193300  0.40585200  1
  C  C99  1  0.36072100  0.86238200  0.32030500  1
  C  C100  1  0.03604700  0.99773700  0.15486600  1
  C  C101  1  0.31817900  0.86312800  0.99339900  1
  C  C102  1  0.64316000  0.34084600  0.75000000  1
  C  C103  1  0.31574900  0.05803100  0.92011900  1
  C  C104  1  0.96866000  0.19806700  0.59414800  1
  C  C105  1  0.83195000  0.41847000  0.93995500  1
  C  C106  1  0.53604700  0.50226300  0.84513400  1
  C  C107  1  0.81574900  0.44196900  0.07988100  1
  C  C108  1  0.46866000  0.30193300  0.09414800  1
  C  C109  1  0.98608800  0.79529100  0.56653000  1
  C  C110  1  0.22067500  0.56275500  0.75000000  1
  C  C111  1  0.63927900  0.13761800  0.67969500  1
  C  C112  1  0.53817800  0.90747700  0.82094200  1
  C  C113  1  0.46395300  0.49773700  0.15486600  1
  C  C114  1  0.03604700  0.99773700  0.34513400  1
  C  C115  1  0.68182100  0.13687200  0.49339900  1
  C  C116  1  0.85684000  0.84084600  0.75000000  1
  C  C117  1  0.46866000  0.30193300  0.40585200  1
  C  C118  1  0.03817800  0.59252300  0.17905800  1
  C  C119  1  0.81574900  0.44196900  0.42011900  1
  C  C120  1  0.81817900  0.63687200  0.00660100  1
  C  C121  1  0.53817800  0.90747700  0.67905800  1
  C  C122  1  0.63927900  0.13761800  0.82030500  1
  C  C123  1  0.16805000  0.58153000  0.06004500  1
  C  C124  1  0.46182200  0.09252300  0.17905800  1
  C  C125  1  0.13927900  0.36238200  0.17969500  1
  C  C126  1  0.53604700  0.50226300  0.65486600  1
  C  C127  1  0.68182100  0.13687200  0.00660100  1
  C  C128  1  0.21131800  0.77235400  0.82426600  1
  C  C129  1  0.83195000  0.41847000  0.56004500  1
  C  C130  1  0.96866000  0.19806700  0.90585200  1
  C  C131  1  0.18182100  0.36312800  0.50660100  1
  C  C132  1  0.68425100  0.94196900  0.42011900  1
  C  C133  1  0.33195000  0.08153000  0.43995500  1
  C  C134  1  0.01391200  0.20470900  0.06653000  1
  C  C135  1  0.31817900  0.86312800  0.50660100  1
