# generated using pymatgen
data_Cu9NiC4
_symmetry_space_group_name_H-M   'P 1'
_cell_length_a   12.86587999
_cell_length_b   12.86587999
_cell_length_c   12.32958400
_cell_angle_alpha   90.00000000
_cell_angle_beta   90.00000000
_cell_angle_gamma   116.47800522
_symmetry_Int_Tables_number   1
_chemical_formula_structural   Cu9NiC4
_chemical_formula_sum   'Cu36 Ni4 C16'
_cell_volume   1826.84492022
_cell_formula_units_Z   4
loop_
 _symmetry_equiv_pos_site_id
 _symmetry_equiv_pos_as_xyz
  1  'x, y, z'
loop_
 _atom_site_type_symbol
 _atom_site_label
 _atom_site_symmetry_multiplicity
 _atom_site_fract_x
 _atom_site_fract_y
 _atom_site_fract_z
 _atom_site_occupancy
  C  C0  1  0.44654100  0.14586800  0.17622700  1
  C  C1  1  0.46375500  0.46375500  0.66595500  1
  C  C2  1  0.14586800  0.44654100  0.17622700  1
  C  C3  1  0.94654100  0.64586800  0.32377300  1
  C  C4  1  0.55345900  0.85413200  0.82377300  1
  C  C5  1  0.05345900  0.35413200  0.67622700  1
  C  C6  1  0.96375500  0.96375500  0.83404500  1
  C  C7  1  0.53624500  0.53624500  0.33404500  1
  C  C8  1  0.85413200  0.55345900  0.82377300  1
  C  C9  1  0.64586800  0.94654100  0.32377300  1
  C  C10  1  0.03624500  0.03624500  0.16595500  1
  C  C11  1  0.35413200  0.05345900  0.67622700  1
  C  C12  1  0.43182700  0.56817300  0.00000000  1
  C  C13  1  0.93182700  0.06817300  0.50000000  1
  C  C14  1  0.56817300  0.43182700  0.00000000  1
  C  C15  1  0.06817300  0.93182700  0.50000000  1
  Ni  Ni16  1  0.26869700  0.26869700  0.92517700  1
  Ni  Ni17  1  0.23130300  0.23130300  0.42517700  1
  Ni  Ni18  1  0.76869700  0.76869700  0.57482300  1
  Ni  Ni19  1  0.73130300  0.73130300  0.07482300  1
  Cu  Cu20  1  0.16798300  0.57566700  0.90266800  1
  Cu  Cu21  1  0.25262500  0.42034700  0.45567200  1
  Cu  Cu22  1  0.31705400  0.56483200  0.85626100  1
  Cu  Cu23  1  0.57965300  0.74737500  0.54432800  1
  Cu  Cu24  1  0.93516800  0.18294600  0.35626100  1
  Cu  Cu25  1  0.07566700  0.66798300  0.59733200  1
  Cu  Cu26  1  0.75262500  0.92034700  0.04432800  1
  Cu  Cu27  1  0.70320400  0.24876100  0.58089500  1
  Cu  Cu28  1  0.42433300  0.83201700  0.09733200  1
  Cu  Cu29  1  0.42034700  0.25262500  0.45567200  1
  Cu  Cu30  1  0.24737500  0.07965300  0.95567200  1
  Cu  Cu31  1  0.25123900  0.79679600  0.08089500  1
  Cu  Cu32  1  0.29679600  0.75123900  0.41910500  1
  Cu  Cu33  1  0.75123900  0.29679600  0.41910500  1
  Cu  Cu34  1  0.92034700  0.75262500  0.04432800  1
  Cu  Cu35  1  0.74876100  0.20320400  0.91910500  1
  Cu  Cu36  1  0.24876100  0.70320400  0.58089500  1
  Cu  Cu37  1  0.43516800  0.68294600  0.14373900  1
  Cu  Cu38  1  0.61788200  0.61788200  0.91931100  1
  Cu  Cu39  1  0.92433300  0.33201700  0.40266800  1
  Cu  Cu40  1  0.88211800  0.88211800  0.41931100  1
  Cu  Cu41  1  0.57566700  0.16798300  0.90266800  1
  Cu  Cu42  1  0.33201700  0.92433300  0.40266800  1
  Cu  Cu43  1  0.06483200  0.81705400  0.64373900  1
  Cu  Cu44  1  0.07965300  0.24737500  0.95567200  1
  Cu  Cu45  1  0.11788200  0.11788200  0.58068900  1
  Cu  Cu46  1  0.18294600  0.93516800  0.35626100  1
  Cu  Cu47  1  0.74737500  0.57965300  0.54432800  1
  Cu  Cu48  1  0.81705400  0.06483200  0.64373900  1
  Cu  Cu49  1  0.56483200  0.31705400  0.85626100  1
  Cu  Cu50  1  0.38211800  0.38211800  0.08068900  1
  Cu  Cu51  1  0.66798300  0.07566700  0.59733200  1
  Cu  Cu52  1  0.83201700  0.42433300  0.09733200  1
  Cu  Cu53  1  0.79679600  0.25123900  0.08089500  1
  Cu  Cu54  1  0.68294600  0.43516800  0.14373900  1
  Cu  Cu55  1  0.20320400  0.74876100  0.91910500  1
