# generated using pymatgen
data_Cu6NiC2
_symmetry_space_group_name_H-M   'P 1'
_cell_length_a   7.53607300
_cell_length_b   8.05007600
_cell_length_c   10.68408700
_cell_angle_alpha   90.00000000
_cell_angle_beta   90.00000000
_cell_angle_gamma   90.00000000
_symmetry_Int_Tables_number   1
_chemical_formula_structural   Cu6NiC2
_chemical_formula_sum   'Cu24 Ni4 C8'
_cell_volume   648.16039876
_cell_formula_units_Z   4
loop_
 _symmetry_equiv_pos_site_id
 _symmetry_equiv_pos_as_xyz
  1  'x, y, z'
loop_
 _atom_site_type_symbol
 _atom_site_label
 _atom_site_symmetry_multiplicity
 _atom_site_fract_x
 _atom_site_fract_y
 _atom_site_fract_z
 _atom_site_occupancy
  C  C0  1  0.37173800  0.48530600  0.12304900  1
  C  C1  1  0.87173800  0.51469400  0.87695100  1
  C  C2  1  0.87173800  0.01469400  0.62304900  1
  C  C3  1  0.37173800  0.98530600  0.37695100  1
  C  C4  1  0.59357000  0.49191600  0.47354200  1
  C  C5  1  0.09357000  0.50808500  0.52645800  1
  C  C6  1  0.09357000  0.00808400  0.97354200  1
  C  C7  1  0.59357000  0.99191500  0.02645800  1
  Ni  Ni8  1  0.42680000  0.27360000  0.73958000  1
  Ni  Ni9  1  0.92680000  0.72640000  0.26042000  1
  Ni  Ni10  1  0.92680000  0.22640000  0.23958000  1
  Ni  Ni11  1  0.42680000  0.77360000  0.76042000  1
  Cu  Cu12  1  0.54043700  0.63951100  0.35864700  1
  Cu  Cu13  1  0.04043700  0.36048900  0.64135300  1
  Cu  Cu14  1  0.04043700  0.86048900  0.85864700  1
  Cu  Cu15  1  0.54043700  0.13951100  0.14135300  1
  Cu  Cu16  1  0.62740800  0.30911000  0.38622200  1
  Cu  Cu17  1  0.12740800  0.69089000  0.61377800  1
  Cu  Cu18  1  0.12740800  0.19089000  0.88622200  1
  Cu  Cu19  1  0.62740800  0.80911000  0.11377800  1
  Cu  Cu20  1  0.33641600  0.44638700  0.51144600  1
  Cu  Cu21  1  0.83641600  0.55361300  0.48855400  1
  Cu  Cu22  1  0.83641600  0.05361300  0.01144600  1
  Cu  Cu23  1  0.33641600  0.94638700  0.98855400  1
  Cu  Cu24  1  0.41509300  0.07416600  0.65728800  1
  Cu  Cu25  1  0.91509300  0.92583400  0.34271200  1
  Cu  Cu26  1  0.91509300  0.42583400  0.15728800  1
  Cu  Cu27  1  0.41509300  0.57416600  0.84271200  1
  Cu  Cu28  1  0.62256900  0.36121200  0.65486700  1
  Cu  Cu29  1  0.12256900  0.63878800  0.34513300  1
  Cu  Cu30  1  0.12256900  0.13878800  0.15486700  1
  Cu  Cu31  1  0.62256900  0.86121200  0.84513300  1
  Cu  Cu32  1  0.55022900  0.21770500  0.88172500  1
  Cu  Cu33  1  0.05022900  0.78229500  0.11827500  1
  Cu  Cu34  1  0.05022900  0.28229500  0.38172500  1
  Cu  Cu35  1  0.55022900  0.71770500  0.61827500  1
