# generated using pymatgen
data_Cu5Ni4
_symmetry_space_group_name_H-M   'P 1'
_cell_length_a   8.47734900
_cell_length_b   8.09387700
_cell_length_c   8.26183723
_cell_angle_alpha   77.36794901
_cell_angle_beta   90.00000000
_cell_angle_gamma   90.00000000
_symmetry_Int_Tables_number   1
_chemical_formula_structural   Cu5Ni4
_chemical_formula_sum   'Cu10 Ni8'
_cell_volume   553.16118668
_cell_formula_units_Z   2
loop_
 _symmetry_equiv_pos_site_id
 _symmetry_equiv_pos_as_xyz
  1  'x, y, z'
loop_
 _atom_site_type_symbol
 _atom_site_label
 _atom_site_symmetry_multiplicity
 _atom_site_fract_x
 _atom_site_fract_y
 _atom_site_fract_z
 _atom_site_occupancy
  Ni  Ni0  1  0.01939500  0.26247300  0.38837600  1
  Ni  Ni1  1  0.51939500  0.73752700  0.61162400  1
  Ni  Ni2  1  0.98060500  0.73752700  0.61162400  1
  Ni  Ni3  1  0.48060500  0.26247300  0.38837600  1
  Ni  Ni4  1  0.75000000  0.47064400  0.95177500  1
  Ni  Ni5  1  0.25000000  0.52935600  0.04822500  1
  Ni  Ni6  1  0.75000000  0.78273300  0.97763900  1
  Ni  Ni7  1  0.25000000  0.21726700  0.02236100  1
  Cu  Cu8  1  0.75000000  0.78364100  0.46507800  1
  Cu  Cu9  1  0.25000000  0.21635900  0.53492200  1
  Cu  Cu10  1  0.04256900  0.52761500  0.22496300  1
  Cu  Cu11  1  0.54256900  0.47238500  0.77503700  1
  Cu  Cu12  1  0.95743100  0.47238500  0.77503700  1
  Cu  Cu13  1  0.45743100  0.52761500  0.22496300  1
  Cu  Cu14  1  0.03890400  0.11822000  0.18234500  1
  Cu  Cu15  1  0.53890400  0.88178000  0.81765500  1
  Cu  Cu16  1  0.46109600  0.11822000  0.18234500  1
  Cu  Cu17  1  0.96109600  0.88178000  0.81765500  1
