# generated using pymatgen
data_Cu4NiC2
_symmetry_space_group_name_H-M   'P 1'
_cell_length_a   6.59068300
_cell_length_b   6.86142500
_cell_length_c   18.08606300
_cell_angle_alpha   90.00000000
_cell_angle_beta   90.00000000
_cell_angle_gamma   90.00000000
_symmetry_Int_Tables_number   1
_chemical_formula_structural   Cu4NiC2
_chemical_formula_sum   'Cu16 Ni4 C8'
_cell_volume   817.87848384
_cell_formula_units_Z   4
loop_
 _symmetry_equiv_pos_site_id
 _symmetry_equiv_pos_as_xyz
  1  'x, y, z'
loop_
 _atom_site_type_symbol
 _atom_site_label
 _atom_site_symmetry_multiplicity
 _atom_site_fract_x
 _atom_site_fract_y
 _atom_site_fract_z
 _atom_site_occupancy
  C  C0  1  0.49472100  0.99388600  0.53229300  1
  C  C1  1  0.50527900  0.49388600  0.96770700  1
  C  C2  1  0.00527900  0.00611400  0.03229300  1
  C  C3  1  0.99472100  0.50611400  0.46770700  1
  C  C4  1  0.70693100  0.48024400  0.22745900  1
  C  C5  1  0.79306900  0.51975600  0.72745900  1
  C  C6  1  0.20693100  0.01975600  0.77254100  1
  C  C7  1  0.29306900  0.98024400  0.27254100  1
  Ni  Ni8  1  0.20828800  0.51511400  0.16671400  1
  Ni  Ni9  1  0.70828800  0.98488600  0.83328600  1
  Ni  Ni10  1  0.79171200  0.01511400  0.33328600  1
  Ni  Ni11  1  0.29171200  0.48488600  0.66671400  1
  Cu  Cu12  1  0.89874200  0.08079200  0.21899100  1
  Cu  Cu13  1  0.60039600  0.74651600  0.34470900  1
  Cu  Cu14  1  0.39874200  0.41920800  0.78100900  1
  Cu  Cu15  1  0.89960400  0.25348400  0.84470900  1
  Cu  Cu16  1  0.43772400  0.75061000  0.14701300  1
  Cu  Cu17  1  0.39960400  0.24651600  0.15529100  1
  Cu  Cu18  1  0.10039600  0.75348400  0.65529100  1
  Cu  Cu19  1  0.93772400  0.74939000  0.85298700  1
  Cu  Cu20  1  0.06227600  0.24939000  0.64701300  1
  Cu  Cu21  1  0.94051100  0.51143300  0.09360400  1
  Cu  Cu22  1  0.56227600  0.25060900  0.35298700  1
  Cu  Cu23  1  0.10125800  0.58079200  0.28100900  1
  Cu  Cu24  1  0.60125800  0.91920800  0.71899100  1
  Cu  Cu25  1  0.55948900  0.48856700  0.59360400  1
  Cu  Cu26  1  0.44051100  0.98856700  0.90639600  1
  Cu  Cu27  1  0.05948900  0.01143300  0.40639600  1
