# generated using pymatgen
data_CuNiC6
_symmetry_space_group_name_H-M   'P 1'
_cell_length_a   5.37334000
_cell_length_b   11.08048700
_cell_length_c   15.42219900
_cell_angle_alpha   90.00000000
_cell_angle_beta   90.00000000
_cell_angle_gamma   90.00000000
_symmetry_Int_Tables_number   1
_chemical_formula_structural   CuNiC6
_chemical_formula_sum   'Cu8 Ni8 C48'
_cell_volume   918.22576109
_cell_formula_units_Z   8
loop_
 _symmetry_equiv_pos_site_id
 _symmetry_equiv_pos_as_xyz
  1  'x, y, z'
loop_
 _atom_site_type_symbol
 _atom_site_label
 _atom_site_symmetry_multiplicity
 _atom_site_fract_x
 _atom_site_fract_y
 _atom_site_fract_z
 _atom_site_occupancy
  C  C0  1  0.01021700  0.85885900  0.55326100  1
  C  C1  1  0.51021700  0.14114100  0.94673900  1
  C  C2  1  0.48978300  0.35885900  0.44673900  1
  C  C3  1  0.48978300  0.85885900  0.05326100  1
  C  C4  1  0.98978300  0.14114100  0.44673900  1
  C  C5  1  0.51021700  0.64114100  0.55326100  1
  C  C6  1  0.01021700  0.35885900  0.94673900  1
  C  C7  1  0.98978300  0.64114100  0.05326100  1
  Ni  Ni8  1  0.00640400  0.40301900  0.59541700  1
  Ni  Ni9  1  0.99359600  0.59698100  0.40458300  1
  Ni  Ni10  1  0.50640400  0.59698100  0.90458300  1
  Ni  Ni11  1  0.49359600  0.90301900  0.40458300  1
  Ni  Ni12  1  0.99359600  0.09698100  0.09541700  1
  Ni  Ni13  1  0.00640400  0.90301900  0.90458300  1
  Ni  Ni14  1  0.49359600  0.40301900  0.09541700  1
  Ni  Ni15  1  0.50640400  0.09698100  0.59541700  1
  Cu  Cu16  1  0.54309500  0.64670800  0.23716800  1
  Cu  Cu17  1  0.04309500  0.35329200  0.26283200  1
  Cu  Cu18  1  0.54309500  0.14670800  0.26283200  1
  Cu  Cu19  1  0.45690500  0.85329200  0.73716800  1
  Cu  Cu20  1  0.95690500  0.14670800  0.76283200  1
  Cu  Cu21  1  0.45690500  0.35329200  0.76283200  1
  Cu  Cu22  1  0.95690500  0.64670800  0.73716800  1
  Cu  Cu23  1  0.04309500  0.85329200  0.23716800  1
  C  C24  1  0.19508700  0.97572600  0.12612800  1
  C  C25  1  0.24983800  0.23501400  0.84995500  1
  C  C26  1  0.69508700  0.52427400  0.12612800  1
  C  C27  1  0.75016200  0.76498600  0.15004500  1
  C  C28  1  0.19844600  0.95873800  0.43890000  1
  C  C29  1  0.93460800  0.67008100  0.30246500  1
  C  C30  1  0.80155400  0.04126200  0.56110000  1
  C  C31  1  0.93460800  0.17008100  0.19753500  1
  C  C32  1  0.19844600  0.45873800  0.06110000  1
  C  C33  1  0.75016200  0.26498600  0.34995500  1
  C  C34  1  0.80155400  0.54126200  0.93890000  1
  C  C35  1  0.06539200  0.82991900  0.80246500  1
  C  C36  1  0.25016200  0.23501400  0.34995500  1
  C  C37  1  0.85649900  0.30860800  0.51989600  1
  C  C38  1  0.85649900  0.80860800  0.98010400  1
  C  C39  1  0.43460800  0.32991900  0.19753500  1
  C  C40  1  0.80491300  0.02427400  0.87387200  1
  C  C41  1  0.74983800  0.76498600  0.65004500  1
  C  C42  1  0.69844600  0.04126200  0.06110000  1
  C  C43  1  0.64350100  0.80860800  0.48010400  1
  C  C44  1  0.74983800  0.26498600  0.84995500  1
  C  C45  1  0.69508700  0.02427400  0.37387200  1
  C  C46  1  0.35649900  0.19139200  0.51989600  1
  C  C47  1  0.24983800  0.73501400  0.65004500  1
  C  C48  1  0.06539200  0.32991900  0.69753500  1
  C  C49  1  0.30155400  0.95873800  0.93890000  1
  C  C50  1  0.64350100  0.30860800  0.01989600  1
  C  C51  1  0.14350100  0.19139200  0.01989600  1
  C  C52  1  0.56539200  0.67008100  0.80246500  1
  C  C53  1  0.30491300  0.47572600  0.87387200  1
  C  C54  1  0.69844600  0.54126200  0.43890000  1
  C  C55  1  0.30491300  0.97572600  0.62612800  1
  C  C56  1  0.30155400  0.45873800  0.56110000  1
  C  C57  1  0.19508700  0.47572600  0.37387200  1
  C  C58  1  0.56539200  0.17008100  0.69753500  1
  C  C59  1  0.80491300  0.52427400  0.62612800  1
  C  C60  1  0.35649900  0.69139200  0.98010400  1
  C  C61  1  0.14350100  0.69139200  0.48010400  1
  C  C62  1  0.43460800  0.82991900  0.30246500  1
  C  C63  1  0.25016200  0.73501400  0.15004500  1
