# generated using pymatgen
data_Cu(NiC8)2
_symmetry_space_group_name_H-M   'P 1'
_cell_length_a   10.48429700
_cell_length_b   10.48429700
_cell_length_c   10.48429700
_cell_angle_alpha   90.00000000
_cell_angle_beta   90.00000000
_cell_angle_gamma   90.00000000
_symmetry_Int_Tables_number   1
_chemical_formula_structural   Cu(NiC8)2
_chemical_formula_sum   'Cu4 Ni8 C64'
_cell_volume   1152.43899628
_cell_formula_units_Z   4
loop_
 _symmetry_equiv_pos_site_id
 _symmetry_equiv_pos_as_xyz
  1  'x, y, z'
loop_
 _atom_site_type_symbol
 _atom_site_label
 _atom_site_symmetry_multiplicity
 _atom_site_fract_x
 _atom_site_fract_y
 _atom_site_fract_z
 _atom_site_occupancy
  Ni  Ni0  1  0.06677300  0.06677300  0.06677300  1
  Ni  Ni1  1  0.19625000  0.69625000  0.80375000  1
  Ni  Ni2  1  0.30375000  0.30375000  0.30375000  1
  Ni  Ni3  1  0.43322700  0.93322700  0.56677300  1
  Ni  Ni4  1  0.56677300  0.43322700  0.93322700  1
  Ni  Ni5  1  0.69625000  0.80375000  0.19625000  1
  Ni  Ni6  1  0.80375000  0.19625000  0.69625000  1
  Ni  Ni7  1  0.93322700  0.56677300  0.43322700  1
  Cu  Cu8  1  0.14719700  0.35280300  0.64719700  1
  Cu  Cu9  1  0.35280300  0.64719700  0.14719700  1
  Cu  Cu10  1  0.64719700  0.14719700  0.35280300  1
  Cu  Cu11  1  0.85280300  0.85280300  0.85280300  1
  C  C12  1  0.08780500  0.91219500  0.41219500  1
  C  C13  1  0.41219500  0.08780500  0.91219500  1
  C  C14  1  0.58780500  0.58780500  0.58780500  1
  C  C15  1  0.91219500  0.41219500  0.08780500  1
  C  C16  1  0.03176600  0.72760700  0.12971600  1
  C  C17  1  0.12971600  0.03176600  0.72760700  1
  C  C18  1  0.22760700  0.37028400  0.96823400  1
  C  C19  1  0.27239300  0.62971600  0.46823400  1
  C  C20  1  0.37028400  0.96823400  0.22760700  1
  C  C21  1  0.46823400  0.27239300  0.62971600  1
  C  C22  1  0.53176600  0.77239300  0.87028400  1
  C  C23  1  0.62971600  0.46823400  0.27239300  1
  C  C24  1  0.72760700  0.12971600  0.03176600  1
  C  C25  1  0.77239300  0.87028400  0.53176600  1
  C  C26  1  0.87028400  0.53176600  0.77239300  1
  C  C27  1  0.96823400  0.22760700  0.37028400  1
  C  C28  1  0.99209100  0.58529100  0.14782500  1
  C  C29  1  0.02473100  0.79141400  0.26402000  1
  C  C30  1  0.04351900  0.93651200  0.79848100  1
  C  C31  1  0.06348800  0.29848100  0.45648100  1
  C  C32  1  0.07546700  0.16788700  0.73400600  1
  C  C33  1  0.08529100  0.35217500  0.00790900  1
  C  C34  1  0.14782500  0.99209100  0.58529100  1
  C  C35  1  0.16788700  0.73400600  0.07546700  1
  C  C36  1  0.20858600  0.76402000  0.47526900  1
  C  C37  1  0.20151900  0.54351900  0.56348800  1
  C  C38  1  0.23400600  0.42453300  0.83211300  1
  C  C39  1  0.23598000  0.97526900  0.29141400  1
  C  C40  1  0.26402000  0.02473100  0.79141400  1
  C  C41  1  0.26599400  0.57546700  0.33211300  1
  C  C42  1  0.29848100  0.45648100  0.06348800  1
  C  C43  1  0.29141400  0.23598000  0.97526900  1
  C  C44  1  0.33211300  0.26599400  0.57546700  1
  C  C45  1  0.35217500  0.00790900  0.08529100  1
  C  C46  1  0.41470900  0.64782500  0.50790900  1
  C  C47  1  0.42453300  0.83211300  0.23400600  1
  C  C48  1  0.43651200  0.70151900  0.95648100  1
  C  C49  1  0.45648100  0.06348800  0.29848100  1
  C  C50  1  0.47526900  0.20858600  0.76402000  1
  C  C51  1  0.50790900  0.41470900  0.64782500  1
  C  C52  1  0.49209100  0.91470900  0.85217500  1
  C  C53  1  0.52473100  0.70858600  0.73598000  1
  C  C54  1  0.54351900  0.56348800  0.20151900  1
  C  C55  1  0.56348800  0.20151900  0.54351900  1
  C  C56  1  0.57546700  0.33211300  0.26599400  1
  C  C57  1  0.58529100  0.14782500  0.99209100  1
  C  C58  1  0.64782500  0.50790900  0.41470900  1
  C  C59  1  0.66788700  0.76599400  0.92453300  1
  C  C60  1  0.70858600  0.73598000  0.52473100  1
  C  C61  1  0.70151900  0.95648100  0.43651200  1
  C  C62  1  0.73400600  0.07546700  0.16788700  1
  C  C63  1  0.73598000  0.52473100  0.70858600  1
  C  C64  1  0.76402000  0.47526900  0.20858600  1
  C  C65  1  0.76599400  0.92453300  0.66788700  1
  C  C66  1  0.79848100  0.04351900  0.93651200  1
  C  C67  1  0.79141400  0.26402000  0.02473100  1
  C  C68  1  0.83211300  0.23400600  0.42453300  1
  C  C69  1  0.85217500  0.49209100  0.91470900  1
  C  C70  1  0.91470900  0.85217500  0.49209100  1
  C  C71  1  0.92453300  0.66788700  0.76599400  1
  C  C72  1  0.93651200  0.79848100  0.04351900  1
  C  C73  1  0.95648100  0.43651200  0.70151900  1
  C  C74  1  0.97526900  0.29141400  0.23598000  1
  C  C75  1  0.00790900  0.08529100  0.35217500  1
