# generated using pymatgen
data_Cu(NiC)2
_symmetry_space_group_name_H-M   'P 1'
_cell_length_a   3.98378100
_cell_length_b   10.10298500
_cell_length_c   13.01489300
_cell_angle_alpha   90.00000000
_cell_angle_beta   90.00000000
_cell_angle_gamma   90.00000000
_symmetry_Int_Tables_number   1
_chemical_formula_structural   Cu(NiC)2
_chemical_formula_sum   'Cu4 Ni8 C8'
_cell_volume   523.82445057
_cell_formula_units_Z   4
loop_
 _symmetry_equiv_pos_site_id
 _symmetry_equiv_pos_as_xyz
  1  'x, y, z'
loop_
 _atom_site_type_symbol
 _atom_site_label
 _atom_site_symmetry_multiplicity
 _atom_site_fract_x
 _atom_site_fract_y
 _atom_site_fract_z
 _atom_site_occupancy
  C  C0  1  0.75000000  0.99265400  0.26284400  1
  C  C1  1  0.75000000  0.49265400  0.23715600  1
  C  C2  1  0.25000000  0.50734600  0.76284400  1
  C  C3  1  0.25000000  0.00734600  0.73715600  1
  C  C4  1  0.25000000  0.31467900  0.46206100  1
  C  C5  1  0.75000000  0.18532100  0.96206100  1
  C  C6  1  0.25000000  0.81467900  0.03793900  1
  C  C7  1  0.75000000  0.68532100  0.53793900  1
  Ni  Ni8  1  0.25000000  0.05402400  0.11931900  1
  Ni  Ni9  1  0.75000000  0.75166600  0.17652400  1
  Ni  Ni10  1  0.75000000  0.25166600  0.32347600  1
  Ni  Ni11  1  0.25000000  0.74833400  0.67652400  1
  Ni  Ni12  1  0.75000000  0.44597600  0.61931900  1
  Ni  Ni13  1  0.25000000  0.24833400  0.82347600  1
  Ni  Ni14  1  0.25000000  0.55402400  0.38068100  1
  Ni  Ni15  1  0.75000000  0.94597600  0.88068100  1
  Cu  Cu16  1  0.25000000  0.93094600  0.38728600  1
  Cu  Cu17  1  0.75000000  0.56905400  0.88728600  1
  Cu  Cu18  1  0.25000000  0.43094600  0.11271400  1
  Cu  Cu19  1  0.75000000  0.06905400  0.61271400  1
