# generated using pymatgen
data_Cu7NiC9
_symmetry_space_group_name_H-M   'P 1'
_cell_length_a   6.04086100
_cell_length_b   10.75668900
_cell_length_c   17.82085779
_cell_angle_alpha   89.66216534
_cell_angle_beta   90.00000000
_cell_angle_gamma   90.00000000
_symmetry_Int_Tables_number   1
_chemical_formula_structural   Cu7NiC9
_chemical_formula_sum   'Cu28 Ni4 C36'
_cell_volume   1157.97320475
_cell_formula_units_Z   4
loop_
 _symmetry_equiv_pos_site_id
 _symmetry_equiv_pos_as_xyz
  1  'x, y, z'
loop_
 _atom_site_type_symbol
 _atom_site_label
 _atom_site_symmetry_multiplicity
 _atom_site_fract_x
 _atom_site_fract_y
 _atom_site_fract_z
 _atom_site_occupancy
  Ni  Ni0  1  0.01598000  0.86001000  0.46369300  1
  Ni  Ni1  1  0.98402000  0.13999000  0.53630700  1
  Ni  Ni2  1  0.48402000  0.36001000  0.46369300  1
  Ni  Ni3  1  0.51598000  0.63999000  0.53630700  1
  Cu  Cu4  1  0.31936800  0.66689700  0.19451500  1
  Cu  Cu5  1  0.44109500  0.07021400  0.41982600  1
  Cu  Cu6  1  0.28623900  0.70536200  0.82259200  1
  Cu  Cu7  1  0.18063200  0.16689700  0.19451500  1
  Cu  Cu8  1  0.81936800  0.83310300  0.80548500  1
  Cu  Cu9  1  0.40168000  0.40991000  0.29354200  1
  Cu  Cu10  1  0.83598500  0.57856400  0.86431700  1
  Cu  Cu11  1  0.68063200  0.33310300  0.80548500  1
  Cu  Cu12  1  0.33598500  0.92143600  0.13568300  1
  Cu  Cu13  1  0.21376100  0.20536200  0.82259200  1
  Cu  Cu14  1  0.66401500  0.07856400  0.86431700  1
  Cu  Cu15  1  0.05890500  0.57021400  0.41982600  1
  Cu  Cu16  1  0.66951400  0.81330700  0.97075300  1
  Cu  Cu17  1  0.59832000  0.59009000  0.70645800  1
  Cu  Cu18  1  0.16951400  0.68669300  0.02924700  1
  Cu  Cu19  1  0.14592200  0.45773100  0.74661100  1
  Cu  Cu20  1  0.55890500  0.92978600  0.58017400  1
  Cu  Cu21  1  0.85407800  0.54226900  0.25338900  1
  Cu  Cu22  1  0.83048600  0.31330700  0.97075300  1
  Cu  Cu23  1  0.35407800  0.95773100  0.74661100  1
  Cu  Cu24  1  0.90168000  0.09009000  0.70645800  1
  Cu  Cu25  1  0.78623900  0.79463800  0.17740800  1
  Cu  Cu26  1  0.94109500  0.42978600  0.58017400  1
  Cu  Cu27  1  0.09832000  0.90991000  0.29354200  1
  Cu  Cu28  1  0.64592200  0.04226900  0.25338900  1
  Cu  Cu29  1  0.71376100  0.29463800  0.17740800  1
  Cu  Cu30  1  0.33048600  0.18669300  0.02924700  1
  Cu  Cu31  1  0.16401500  0.42143600  0.13568300  1
  C  C32  1  0.68337700  0.55990800  0.07776900  1
  C  C33  1  0.31662300  0.44009200  0.92223100  1
  C  C34  1  0.06604600  0.75017700  0.64246600  1
  C  C35  1  0.43395400  0.25017700  0.64246600  1
  C  C36  1  0.93395400  0.24982300  0.35753400  1
  C  C37  1  0.81662300  0.05990800  0.07776900  1
  C  C38  1  0.18337700  0.94009200  0.92223100  1
  C  C39  1  0.56604600  0.74982300  0.35753400  1
  C  C40  1  0.43342900  0.57266000  0.38145100  1
  C  C41  1  0.01109100  0.75707700  0.91718100  1
  C  C42  1  0.56657100  0.42734000  0.61854900  1
  C  C43  1  0.01426500  0.63877700  0.54709400  1
  C  C44  1  0.98890900  0.24292300  0.08281900  1
  C  C45  1  0.90593800  0.72179500  0.33343000  1
  C  C46  1  0.09406200  0.27820500  0.66657000  1
  C  C47  1  0.95468500  0.65460600  0.73997100  1
  C  C48  1  0.04531500  0.34539400  0.26002900  1
  C  C49  1  0.51314100  0.11822400  0.13814500  1
  C  C50  1  0.48890900  0.25707700  0.91718100  1
  C  C51  1  0.45468500  0.84539400  0.26002900  1
  C  C52  1  0.54531500  0.15460600  0.73997100  1
  C  C53  1  0.48685900  0.88177600  0.86185500  1
  C  C54  1  0.51109100  0.74292300  0.08281900  1
  C  C55  1  0.02586300  0.01587300  0.81990700  1
  C  C56  1  0.01314100  0.38177600  0.86185500  1
  C  C57  1  0.51426500  0.86122300  0.45290600  1
  C  C58  1  0.06657100  0.07266000  0.38145100  1
  C  C59  1  0.47413700  0.51587300  0.81990700  1
  C  C60  1  0.97413700  0.98412700  0.18009300  1
  C  C61  1  0.48573500  0.13877700  0.54709400  1
  C  C62  1  0.98573500  0.36122300  0.45290600  1
  C  C63  1  0.93342900  0.92734000  0.61854900  1
  C  C64  1  0.98685900  0.61822400  0.13814500  1
  C  C65  1  0.40593800  0.77820500  0.66657000  1
  C  C66  1  0.52586300  0.48412700  0.18009300  1
  C  C67  1  0.59406200  0.22179500  0.33343000  1
