# generated using pymatgen
data_Cu9Ni6C
_symmetry_space_group_name_H-M   'P 1'
_cell_length_a   7.10072599
_cell_length_b   7.10072599
_cell_length_c   10.59271700
_cell_angle_alpha   90.00000000
_cell_angle_beta   90.00000000
_cell_angle_gamma   113.80041197
_symmetry_Int_Tables_number   1
_chemical_formula_structural   Cu9Ni6C
_chemical_formula_sum   'Cu18 Ni12 C2'
_cell_volume   488.66749320
_cell_formula_units_Z   2
loop_
 _symmetry_equiv_pos_site_id
 _symmetry_equiv_pos_as_xyz
  1  'x, y, z'
loop_
 _atom_site_type_symbol
 _atom_site_label
 _atom_site_symmetry_multiplicity
 _atom_site_fract_x
 _atom_site_fract_y
 _atom_site_fract_z
 _atom_site_occupancy
  C  C0  1  0.28366600  0.71633400  0.75000000  1
  C  C1  1  0.71633400  0.28366600  0.25000000  1
  Ni  Ni2  1  0.26784700  0.44170500  0.25000000  1
  Ni  Ni3  1  0.55829500  0.73215300  0.25000000  1
  Ni  Ni4  1  0.99980700  0.70794500  0.05403800  1
  Ni  Ni5  1  0.70794500  0.99980700  0.55403800  1
  Ni  Ni6  1  0.44170500  0.26784700  0.75000000  1
  Ni  Ni7  1  0.00019300  0.29205500  0.94596200  1
  Ni  Ni8  1  0.99980700  0.70794500  0.44596200  1
  Ni  Ni9  1  0.73215300  0.55829500  0.75000000  1
  Ni  Ni10  1  0.00019300  0.29205500  0.55403800  1
  Ni  Ni11  1  0.70794500  0.99980700  0.94596200  1
  Ni  Ni12  1  0.29205500  0.00019300  0.05403800  1
  Ni  Ni13  1  0.29205500  0.00019300  0.44596200  1
  Cu  Cu14  1  0.85782700  0.57487100  0.10084200  1
  Cu  Cu15  1  0.08756400  0.35202700  0.25000000  1
  Cu  Cu16  1  0.14217300  0.42512900  0.89915800  1
  Cu  Cu17  1  0.85782700  0.57487100  0.39915800  1
  Cu  Cu18  1  0.15413800  0.84586200  0.50544100  1
  Cu  Cu19  1  0.46801600  0.53198400  0.25000000  1
  Cu  Cu20  1  0.14217300  0.42512900  0.60084200  1
  Cu  Cu21  1  0.91243600  0.64797300  0.75000000  1
  Cu  Cu22  1  0.64797300  0.91243600  0.25000000  1
  Cu  Cu23  1  0.35202700  0.08756400  0.75000000  1
  Cu  Cu24  1  0.42512900  0.14217300  0.10084200  1
  Cu  Cu25  1  0.84586200  0.15413800  0.00544100  1
  Cu  Cu26  1  0.15413800  0.84586200  0.99455900  1
  Cu  Cu27  1  0.42512900  0.14217300  0.39915800  1
  Cu  Cu28  1  0.84586200  0.15413800  0.49455900  1
  Cu  Cu29  1  0.53198400  0.46801600  0.75000000  1
  Cu  Cu30  1  0.57487100  0.85782700  0.60084200  1
  Cu  Cu31  1  0.57487100  0.85782700  0.89915800  1
