# generated using pymatgen
data_Cu4Ni5C6
_symmetry_space_group_name_H-M   'P 1'
_cell_length_a   12.26711400
_cell_length_b   5.65395600
_cell_length_c   10.83117327
_cell_angle_alpha   81.42204272
_cell_angle_beta   90.00000000
_cell_angle_gamma   90.00000000
_symmetry_Int_Tables_number   1
_chemical_formula_structural   Cu4Ni5C6
_chemical_formula_sum   'Cu8 Ni10 C12'
_cell_volume   742.82218223
_cell_formula_units_Z   2
loop_
 _symmetry_equiv_pos_site_id
 _symmetry_equiv_pos_as_xyz
  1  'x, y, z'
loop_
 _atom_site_type_symbol
 _atom_site_label
 _atom_site_symmetry_multiplicity
 _atom_site_fract_x
 _atom_site_fract_y
 _atom_site_fract_z
 _atom_site_occupancy
  C  C0  1  0.75000000  0.15743800  0.70470100  1
  C  C1  1  0.25000000  0.84256200  0.29529900  1
  Ni  Ni2  1  0.75000000  0.35582700  0.04190500  1
  Ni  Ni3  1  0.93527800  0.58779100  0.17124700  1
  Ni  Ni4  1  0.63065700  0.91262900  0.34764500  1
  Ni  Ni5  1  0.25000000  0.64417300  0.95809500  1
  Ni  Ni6  1  0.43527800  0.41220900  0.82875300  1
  Ni  Ni7  1  0.36934300  0.08737100  0.65235500  1
  Ni  Ni8  1  0.86934300  0.91262900  0.34764500  1
  Ni  Ni9  1  0.56472200  0.58779100  0.17124700  1
  Ni  Ni10  1  0.06472200  0.41220900  0.82875300  1
  Ni  Ni11  1  0.13065700  0.08737100  0.65235500  1
  C  C12  1  0.13652100  0.56201900  0.91035700  1
  C  C13  1  0.13827100  0.26255800  0.75172000  1
  C  C14  1  0.75000000  0.98669200  0.38355900  1
  C  C15  1  0.36172900  0.26255800  0.75172000  1
  C  C16  1  0.63827100  0.73744200  0.24828000  1
  C  C17  1  0.63652100  0.43798100  0.08964300  1
  C  C18  1  0.86172900  0.73744200  0.24828000  1
  C  C19  1  0.86347900  0.43798100  0.08964300  1
  C  C20  1  0.25000000  0.01330800  0.61644100  1
  C  C21  1  0.36347900  0.56201900  0.91035700  1
  Cu  Cu22  1  0.61585100  0.37299900  0.58559200  1
  Cu  Cu23  1  0.38414900  0.62700100  0.41440800  1
  Cu  Cu24  1  0.11616400  0.05614600  0.17438200  1
  Cu  Cu25  1  0.61616400  0.94385400  0.82561800  1
  Cu  Cu26  1  0.88414900  0.37299900  0.58559200  1
  Cu  Cu27  1  0.88383600  0.94385400  0.82561800  1
  Cu  Cu28  1  0.38383600  0.05614600  0.17438200  1
  Cu  Cu29  1  0.11585100  0.62700100  0.41440800  1
