# generated using pymatgen
data_Cu8NiC6
_symmetry_space_group_name_H-M   'P 1'
_cell_length_a   6.37011600
_cell_length_b   7.06369700
_cell_length_c   9.56992200
_cell_angle_alpha   90.00000000
_cell_angle_beta   90.00000000
_cell_angle_gamma   90.00000000
_symmetry_Int_Tables_number   1
_chemical_formula_structural   Cu8NiC6
_chemical_formula_sum   'Cu16 Ni2 C12'
_cell_volume   430.61365827
_cell_formula_units_Z   2
loop_
 _symmetry_equiv_pos_site_id
 _symmetry_equiv_pos_as_xyz
  1  'x, y, z'
loop_
 _atom_site_type_symbol
 _atom_site_label
 _atom_site_symmetry_multiplicity
 _atom_site_fract_x
 _atom_site_fract_y
 _atom_site_fract_z
 _atom_site_occupancy
  C  C0  1  0.00000000  0.73411300  0.00000000  1
  C  C1  1  0.50000000  0.26588700  0.50000000  1
  C  C2  1  0.25000000  0.00000000  0.75000000  1
  C  C3  1  0.25000000  0.00000000  0.25000000  1
  C  C4  1  0.75000000  0.00000000  0.75000000  1
  C  C5  1  0.50000000  0.79481200  0.50000000  1
  C  C6  1  0.00000000  0.20518800  0.00000000  1
  C  C7  1  0.75000000  0.00000000  0.25000000  1
  C  C8  1  0.50000000  0.59006100  0.81037300  1
  C  C9  1  0.00000000  0.40993900  0.68962700  1
  C  C10  1  0.50000000  0.59006100  0.18962700  1
  C  C11  1  0.00000000  0.40993900  0.31037300  1
  Ni  Ni12  1  0.00000000  0.85150800  0.50000000  1
  Ni  Ni13  1  0.50000000  0.14849200  0.00000000  1
  Cu  Cu14  1  0.00000000  0.00300300  0.86187100  1
  Cu  Cu15  1  0.00000000  0.42599500  0.87052500  1
  Cu  Cu16  1  0.50000000  0.57400500  0.37052500  1
  Cu  Cu17  1  0.28731900  0.73934100  0.83800600  1
  Cu  Cu18  1  0.21268100  0.26065900  0.33800600  1
  Cu  Cu19  1  0.78731900  0.26065900  0.33800600  1
  Cu  Cu20  1  0.50000000  0.99699700  0.63812900  1
  Cu  Cu21  1  0.71268100  0.73934100  0.83800600  1
  Cu  Cu22  1  0.71268100  0.73934100  0.16199400  1
  Cu  Cu23  1  0.78731900  0.26065900  0.66199400  1
  Cu  Cu24  1  0.00000000  0.00300300  0.13812900  1
  Cu  Cu25  1  0.50000000  0.99699700  0.36187100  1
  Cu  Cu26  1  0.21268100  0.26065900  0.66199400  1
  Cu  Cu27  1  0.28731900  0.73934100  0.16199400  1
  Cu  Cu28  1  0.50000000  0.57400500  0.62947500  1
  Cu  Cu29  1  0.00000000  0.42599500  0.12947500  1
