# generated using pymatgen
data_Cu9(NiC2)2
_symmetry_space_group_name_H-M   'P 1'
_cell_length_a   8.75344200
_cell_length_b   12.12112600
_cell_length_c   16.36044000
_cell_angle_alpha   90.00000000
_cell_angle_beta   90.00000000
_cell_angle_gamma   90.00000000
_symmetry_Int_Tables_number   1
_chemical_formula_structural   Cu9(NiC2)2
_chemical_formula_sum   'Cu36 Ni8 C16'
_cell_volume   1735.86842577
_cell_formula_units_Z   4
loop_
 _symmetry_equiv_pos_site_id
 _symmetry_equiv_pos_as_xyz
  1  'x, y, z'
loop_
 _atom_site_type_symbol
 _atom_site_label
 _atom_site_symmetry_multiplicity
 _atom_site_fract_x
 _atom_site_fract_y
 _atom_site_fract_z
 _atom_site_occupancy
  C  C0  1  0.74708200  0.11228400  0.67370300  1
  C  C1  1  0.24892900  0.25414400  0.92770900  1
  C  C2  1  0.74708200  0.61228400  0.82629700  1
  C  C3  1  0.25291800  0.11228400  0.67370300  1
  C  C4  1  0.25291800  0.88771600  0.32629700  1
  C  C5  1  0.25291800  0.61228400  0.82629700  1
  C  C6  1  0.24892900  0.75414400  0.57229100  1
  C  C7  1  0.75107100  0.25414400  0.92770900  1
  C  C8  1  0.74708200  0.38771600  0.17370300  1
  C  C9  1  0.25291800  0.38771600  0.17370300  1
  C  C10  1  0.24892900  0.24585600  0.42770900  1
  C  C11  1  0.75107100  0.75414400  0.57229100  1
  C  C12  1  0.75107100  0.24585600  0.42770900  1
  C  C13  1  0.75107100  0.74585600  0.07229100  1
  C  C14  1  0.24892900  0.74585600  0.07229100  1
  C  C15  1  0.74708200  0.88771600  0.32629700  1
  Ni  Ni16  1  0.50000000  0.91003500  0.82153500  1
  Ni  Ni17  1  0.50000000  0.08996500  0.17846500  1
  Ni  Ni18  1  0.50000000  0.58996500  0.32153500  1
  Ni  Ni19  1  0.50000000  0.41003500  0.67846500  1
  Ni  Ni20  1  0.00000000  0.95076900  0.89563800  1
  Ni  Ni21  1  0.00000000  0.45076900  0.60436200  1
  Ni  Ni22  1  0.00000000  0.54923100  0.39563800  1
  Ni  Ni23  1  0.00000000  0.04923100  0.10436200  1
  Cu  Cu24  1  0.50000000  0.74200700  0.43087800  1
  Cu  Cu25  1  0.50000000  0.75799300  0.93087800  1
  Cu  Cu26  1  0.75668100  0.13043400  0.24946000  1
  Cu  Cu27  1  0.24331900  0.13043400  0.24946000  1
  Cu  Cu28  1  0.00000000  0.13381100  0.81392600  1
  Cu  Cu29  1  0.22611800  0.00000000  0.00000000  1
  Cu  Cu30  1  0.22611800  0.50000000  0.50000000  1
  Cu  Cu31  1  0.77388200  0.00000000  0.00000000  1
  Cu  Cu32  1  0.00000000  0.46359500  0.92985400  1
  Cu  Cu33  1  0.77388200  0.50000000  0.50000000  1
  Cu  Cu34  1  0.00000000  0.24243200  0.57386900  1
  Cu  Cu35  1  0.00000000  0.36618900  0.31392600  1
  Cu  Cu36  1  0.00000000  0.53640500  0.07014600  1
  Cu  Cu37  1  0.50000000  0.54078700  0.06866400  1
  Cu  Cu38  1  0.00000000  0.25756800  0.07386900  1
  Cu  Cu39  1  0.50000000  0.62342200  0.67972400  1
  Cu  Cu40  1  0.24331900  0.86956600  0.75054000  1
  Cu  Cu41  1  0.00000000  0.86618900  0.18607400  1
  Cu  Cu42  1  0.50000000  0.12342200  0.82027600  1
  Cu  Cu43  1  0.24331900  0.36956600  0.74946000  1
  Cu  Cu44  1  0.75668100  0.63043400  0.25054000  1
  Cu  Cu45  1  0.50000000  0.25799300  0.56912200  1
  Cu  Cu46  1  0.00000000  0.74243200  0.92613100  1
  Cu  Cu47  1  0.50000000  0.95921300  0.56866400  1
  Cu  Cu48  1  0.50000000  0.24200700  0.06912200  1
  Cu  Cu49  1  0.50000000  0.87657800  0.17972400  1
  Cu  Cu50  1  0.75668100  0.86956600  0.75054000  1
  Cu  Cu51  1  0.50000000  0.04078700  0.43133600  1
  Cu  Cu52  1  0.50000000  0.45921300  0.93133600  1
  Cu  Cu53  1  0.75668100  0.36956600  0.74946000  1
  Cu  Cu54  1  0.00000000  0.75756800  0.42613100  1
  Cu  Cu55  1  0.50000000  0.37657800  0.32027600  1
  Cu  Cu56  1  0.00000000  0.03640500  0.42985400  1
  Cu  Cu57  1  0.00000000  0.63381100  0.68607400  1
  Cu  Cu58  1  0.00000000  0.96359500  0.57014600  1
  Cu  Cu59  1  0.24331900  0.63043400  0.25054000  1
