# generated using pymatgen
data_CuNi3C5
_symmetry_space_group_name_H-M   'P 1'
_cell_length_a   6.43546600
_cell_length_b   12.58444600
_cell_length_c   12.73337000
_cell_angle_alpha   90.00000000
_cell_angle_beta   90.00000000
_cell_angle_gamma   90.00000000
_symmetry_Int_Tables_number   1
_chemical_formula_structural   CuNi3C5
_chemical_formula_sum   'Cu4 Ni12 C20'
_cell_volume   1031.23456306
_cell_formula_units_Z   4
loop_
 _symmetry_equiv_pos_site_id
 _symmetry_equiv_pos_as_xyz
  1  'x, y, z'
loop_
 _atom_site_type_symbol
 _atom_site_label
 _atom_site_symmetry_multiplicity
 _atom_site_fract_x
 _atom_site_fract_y
 _atom_site_fract_z
 _atom_site_occupancy
  C  C0  1  0.60268100  0.75991500  0.73547400  1
  C  C1  1  0.03857100  0.00173300  0.70362400  1
  C  C2  1  0.03857100  0.50173300  0.79637600  1
  C  C3  1  0.39731900  0.25991500  0.26452600  1
  C  C4  1  0.96142900  0.50173300  0.29637600  1
  C  C5  1  0.96142900  0.00173300  0.20362400  1
  C  C6  1  0.58468300  0.99901800  0.48041800  1
  C  C7  1  0.58468300  0.49901800  0.01958200  1
  C  C8  1  0.39731900  0.75991500  0.23547400  1
  C  C9  1  0.41531700  0.49901800  0.51958200  1
  C  C10  1  0.41531700  0.99901800  0.98041800  1
  C  C11  1  0.60268100  0.25991500  0.76452600  1
  C  C12  1  0.99722200  0.75044400  0.49436400  1
  C  C13  1  0.00277800  0.75044400  0.99436400  1
  C  C14  1  0.99722200  0.25044400  0.00563600  1
  C  C15  1  0.00277800  0.25044400  0.50563600  1
  Ni  Ni16  1  0.65742700  0.76903500  0.00509100  1
  Ni  Ni17  1  0.10097300  0.27023600  0.67335700  1
  Ni  Ni18  1  0.91341900  0.08666700  0.95124900  1
  Ni  Ni19  1  0.34257300  0.26903500  0.99490900  1
  Ni  Ni20  1  0.34257300  0.76903500  0.50509100  1
  Ni  Ni21  1  0.89902700  0.77023600  0.32664300  1
  Ni  Ni22  1  0.08658100  0.08666700  0.45124900  1
  Ni  Ni23  1  0.10097300  0.77023600  0.82664300  1
  Ni  Ni24  1  0.89902700  0.27023600  0.17335700  1
  Ni  Ni25  1  0.08658100  0.58666700  0.04875100  1
  Ni  Ni26  1  0.91341900  0.58666700  0.54875100  1
  Ni  Ni27  1  0.65742700  0.26903500  0.49490900  1
  Cu  Cu28  1  0.47465600  0.01207800  0.23203800  1
  Cu  Cu29  1  0.52534400  0.01207800  0.73203800  1
  Cu  Cu30  1  0.47465600  0.51207800  0.26796200  1
  Cu  Cu31  1  0.52534400  0.51207800  0.76796200  1
  C  C32  1  0.86772100  0.34677400  0.92519300  1
  C  C33  1  0.86772100  0.84677400  0.57480700  1
  C  C34  1  0.13227900  0.84677400  0.07480700  1
  C  C35  1  0.13227900  0.34677400  0.42519300  1
