# generated using pymatgen
data_Cu2Ni3C16
_symmetry_space_group_name_H-M   'P 1'
_cell_length_a   9.62934055
_cell_length_b   9.62934055
_cell_length_c   9.62934055
_cell_angle_alpha   60.00000000
_cell_angle_beta   60.00000000
_cell_angle_gamma   60.00000000
_symmetry_Int_Tables_number   1
_chemical_formula_structural   Cu2Ni3C16
_chemical_formula_sum   'Cu4 Ni6 C32'
_cell_volume   631.35647739
_cell_formula_units_Z   2
loop_
 _symmetry_equiv_pos_site_id
 _symmetry_equiv_pos_as_xyz
  1  'x, y, z'
loop_
 _atom_site_type_symbol
 _atom_site_label
 _atom_site_symmetry_multiplicity
 _atom_site_fract_x
 _atom_site_fract_y
 _atom_site_fract_z
 _atom_site_occupancy
  Ni  Ni0  1  0.54360000  0.54360000  0.95640000  1
  Ni  Ni1  1  0.95640000  0.54360000  0.95640000  1
  Ni  Ni2  1  0.54360000  0.95640000  0.54360000  1
  Ni  Ni3  1  0.95640000  0.95640000  0.54360000  1
  Ni  Ni4  1  0.54360000  0.95640000  0.95640000  1
  Ni  Ni5  1  0.95640000  0.54360000  0.54360000  1
  Cu  Cu6  1  0.74314100  0.08562000  0.08562000  1
  Cu  Cu7  1  0.08562000  0.74314100  0.08562000  1
  Cu  Cu8  1  0.08562000  0.08562000  0.08562000  1
  Cu  Cu9  1  0.08562000  0.08562000  0.74314100  1
  C  C10  1  0.66754400  0.33245600  0.66754400  1
  C  C11  1  0.99901200  0.33366300  0.33366300  1
  C  C12  1  0.66754400  0.66754400  0.33245600  1
  C  C13  1  0.33366300  0.33366300  0.99901200  1
  C  C14  1  0.33245600  0.66754400  0.66754400  1
  C  C15  1  0.33366300  0.33366300  0.33366300  1
  C  C16  1  0.33245600  0.33245600  0.66754400  1
  C  C17  1  0.33366300  0.99901200  0.33366300  1
  C  C18  1  0.33245600  0.66754400  0.33245600  1
  C  C19  1  0.66754400  0.33245600  0.33245600  1
  C  C20  1  0.58354100  0.24809600  0.24809600  1
  C  C21  1  0.58354100  0.24809600  0.92026700  1
  C  C22  1  0.23742900  0.92085700  0.92085700  1
  C  C23  1  0.22425500  0.59191500  0.59191500  1
  C  C24  1  0.92026700  0.24809600  0.58354100  1
  C  C25  1  0.58354100  0.92026700  0.24809600  1
  C  C26  1  0.59191500  0.59191500  0.22425500  1
  C  C27  1  0.24809600  0.24809600  0.58354100  1
  C  C28  1  0.24809600  0.58354100  0.24809600  1
  C  C29  1  0.24809600  0.92026700  0.24809600  1
  C  C30  1  0.59191500  0.22425500  0.59191500  1
  C  C31  1  0.25000000  0.25000000  0.25000000  1
  C  C32  1  0.92085700  0.92085700  0.92085700  1
  C  C33  1  0.24809600  0.24809600  0.92026700  1
  C  C34  1  0.92085700  0.92085700  0.23742900  1
  C  C35  1  0.92085700  0.23742900  0.92085700  1
  C  C36  1  0.92026700  0.58354100  0.24809600  1
  C  C37  1  0.24809600  0.58354100  0.92026700  1
  C  C38  1  0.59191500  0.59191500  0.59191500  1
  C  C39  1  0.24809600  0.92026700  0.58354100  1
  C  C40  1  0.75000000  0.75000000  0.75000000  1
  C  C41  1  0.92026700  0.24809600  0.24809600  1
