# generated using pymatgen
data_Cu4NiC7
_symmetry_space_group_name_H-M   'P 1'
_cell_length_a   8.78468200
_cell_length_b   9.96134700
_cell_length_c   10.35889400
_cell_angle_alpha   90.00000000
_cell_angle_beta   90.00000000
_cell_angle_gamma   90.00000000
_symmetry_Int_Tables_number   1
_chemical_formula_structural   Cu4NiC7
_chemical_formula_sum   'Cu32 Ni8 C56'
_cell_volume   906.47848948
_cell_formula_units_Z   8
loop_
 _symmetry_equiv_pos_site_id
 _symmetry_equiv_pos_as_xyz
  1  'x, y, z'
loop_
 _atom_site_type_symbol
 _atom_site_label
 _atom_site_symmetry_multiplicity
 _atom_site_fract_x
 _atom_site_fract_y
 _atom_site_fract_z
 _atom_site_occupancy
  C  C0  1  0.15192900  0.32825600  0.13274900  1
  C  C1  1  0.65192900  0.17174400  0.86725100  1
  C  C2  1  0.84807100  0.82825600  0.36725100  1
  C  C3  1  0.34807100  0.67174400  0.63274900  1
  C  C4  1  0.84807100  0.67174400  0.86725100  1
  C  C5  1  0.34807100  0.82825600  0.13274900  1
  C  C6  1  0.15192900  0.17174400  0.63274900  1
  C  C7  1  0.65192900  0.32825600  0.36725100  1
  Ni  Ni8  1  0.02848200  0.64438600  0.14752300  1
  Ni  Ni9  1  0.52848200  0.85561400  0.85247700  1
  Ni  Ni10  1  0.97151800  0.14438600  0.35247700  1
  Ni  Ni11  1  0.47151800  0.35561400  0.64752300  1
  Ni  Ni12  1  0.97151800  0.35561400  0.85247700  1
  Ni  Ni13  1  0.47151800  0.14438600  0.14752300  1
  Ni  Ni14  1  0.02848200  0.85561400  0.64752300  1
  Ni  Ni15  1  0.52848200  0.64438600  0.35247700  1
  Cu  Cu16  1  0.15955500  0.91705300  0.32418800  1
  Cu  Cu17  1  0.65955500  0.58294700  0.67581200  1
  Cu  Cu18  1  0.84044500  0.41705300  0.17581200  1
  Cu  Cu19  1  0.34044500  0.08294700  0.82418800  1
  Cu  Cu20  1  0.84044500  0.08294700  0.67581200  1
  Cu  Cu21  1  0.34044500  0.41705300  0.32418800  1
  Cu  Cu22  1  0.15955500  0.58294700  0.82418800  1
  Cu  Cu23  1  0.65955500  0.91705300  0.17581200  1
  Cu  Cu24  1  0.35717800  0.43621100  0.97161200  1
  Cu  Cu25  1  0.85717800  0.06378900  0.02838800  1
  Cu  Cu26  1  0.64282200  0.93621100  0.52838800  1
  Cu  Cu27  1  0.14282200  0.56378900  0.47161200  1
  Cu  Cu28  1  0.64282200  0.56378900  0.02838800  1
  Cu  Cu29  1  0.14282200  0.93621100  0.97161200  1
  Cu  Cu30  1  0.35717800  0.06378900  0.47161200  1
  Cu  Cu31  1  0.85717800  0.43621100  0.52838800  1
  Cu  Cu32  1  0.30069600  0.82217900  0.37727300  1
  Cu  Cu33  1  0.80069600  0.67782100  0.62272700  1
  Cu  Cu34  1  0.69930400  0.32217900  0.12272700  1
  Cu  Cu35  1  0.19930400  0.17782100  0.87727300  1
  Cu  Cu36  1  0.69930400  0.17782100  0.62272700  1
  Cu  Cu37  1  0.19930400  0.32217900  0.37727300  1
  Cu  Cu38  1  0.30069600  0.67782100  0.87727300  1
  Cu  Cu39  1  0.80069600  0.82217900  0.12272700  1
  Cu  Cu40  1  0.29378500  0.54458300  0.07321400  1
  Cu  Cu41  1  0.79378500  0.95541700  0.92678600  1
  Cu  Cu42  1  0.70621500  0.04458300  0.42678600  1
  Cu  Cu43  1  0.20621500  0.45541700  0.57321400  1
  Cu  Cu44  1  0.70621500  0.45541700  0.92678600  1
  Cu  Cu45  1  0.20621500  0.04458300  0.07321400  1
  Cu  Cu46  1  0.29378500  0.95541700  0.57321400  1
  Cu  Cu47  1  0.79378500  0.54458300  0.42678600  1
  C  C48  1  0.00799900  0.20367700  0.21820100  1
  C  C49  1  0.50799900  0.29632300  0.78179900  1
  C  C50  1  0.99200100  0.70367700  0.28179900  1
  C  C51  1  0.49200100  0.79632300  0.71820100  1
  C  C52  1  0.99200100  0.79632300  0.78179900  1
  C  C53  1  0.49200100  0.70367700  0.21820100  1
  C  C54  1  0.00799900  0.29632300  0.71820100  1
  C  C55  1  0.50799900  0.20367700  0.28179900  1
  C  C56  1  0.01011300  0.48919200  0.14641100  1
  C  C57  1  0.51011300  0.01080800  0.85358900  1
  C  C58  1  0.98988700  0.98919200  0.35358900  1
  C  C59  1  0.48988700  0.51080800  0.64641100  1
  C  C60  1  0.98988700  0.51080800  0.85358900  1
  C  C61  1  0.48988700  0.98919200  0.14641100  1
  C  C62  1  0.01011300  0.01080800  0.64641100  1
  C  C63  1  0.51011300  0.48919200  0.35358900  1
  C  C64  1  0.30338400  0.17619200  0.11054300  1
  C  C65  1  0.80338400  0.32380800  0.88945700  1
  C  C66  1  0.69661600  0.67619200  0.38945700  1
  C  C67  1  0.19661600  0.82380800  0.61054300  1
  C  C68  1  0.69661600  0.82380800  0.88945700  1
  C  C69  1  0.19661600  0.67619200  0.11054300  1
  C  C70  1  0.30338400  0.32380800  0.61054300  1
  C  C71  1  0.80338400  0.17619200  0.38945700  1
  C  C72  1  0.08339100  0.29197800  0.95220900  1
  C  C73  1  0.58339100  0.20802200  0.04779100  1
  C  C74  1  0.91660900  0.79197800  0.54779100  1
  C  C75  1  0.41660900  0.70802200  0.45220900  1
  C  C76  1  0.91660900  0.70802200  0.04779100  1
  C  C77  1  0.41660900  0.79197800  0.95220900  1
  C  C78  1  0.08339100  0.20802200  0.45220900  1
  C  C79  1  0.58339100  0.29197800  0.54779100  1
  C  C80  1  0.26794600  0.88893300  0.31093100  1
  C  C81  1  0.76794600  0.61106700  0.68906900  1
  C  C82  1  0.73205400  0.38893300  0.18906900  1
  C  C83  1  0.23205400  0.11106700  0.81093100  1
  C  C84  1  0.73205400  0.11106700  0.68906900  1
  C  C85  1  0.23205400  0.38893300  0.31093100  1
  C  C86  1  0.26794600  0.61106700  0.81093100  1
  C  C87  1  0.76794600  0.88893300  0.18906900  1
  C  C88  1  0.33042800  0.44918900  0.06237600  1
  C  C89  1  0.83042800  0.05081100  0.93762400  1
  C  C90  1  0.66957200  0.94918900  0.43762400  1
  C  C91  1  0.16957200  0.55081100  0.56237600  1
  C  C92  1  0.66957200  0.55081100  0.93762400  1
  C  C93  1  0.16957200  0.94918900  0.06237600  1
  C  C94  1  0.33042800  0.05081100  0.56237600  1
  C  C95  1  0.83042800  0.44918900  0.43762400  1
