# generated using pymatgen
data_Cu6Ni2C21
_symmetry_space_group_name_H-M   'P 1'
_cell_length_a   7.85102922
_cell_length_b   7.85102922
_cell_length_c   7.85102922
_cell_angle_alpha   60.00000000
_cell_angle_beta   60.00000000
_cell_angle_gamma   60.00000000
_symmetry_Int_Tables_number   1
_chemical_formula_structural   Cu6Ni2C21
_chemical_formula_sum   'Cu6 Ni2 C21'
_cell_volume   342.18800608
_cell_formula_units_Z   1
loop_
 _symmetry_equiv_pos_site_id
 _symmetry_equiv_pos_as_xyz
  1  'x, y, z'
loop_
 _atom_site_type_symbol
 _atom_site_label
 _atom_site_symmetry_multiplicity
 _atom_site_fract_x
 _atom_site_fract_y
 _atom_site_fract_z
 _atom_site_occupancy
  C  C0  1  0.00000000  0.65193700  0.00000000  1
  C  C1  1  0.15151100  0.61616300  0.61616300  1
  C  C2  1  0.00000000  0.00000000  0.65193700  1
  C  C3  1  0.00000000  0.00000000  0.34806300  1
  C  C4  1  0.65193700  0.00000000  0.34806300  1
  C  C5  1  0.34806300  0.00000000  0.00000000  1
  C  C6  1  0.84848900  0.38383700  0.38383700  1
  C  C7  1  0.00000000  0.65193700  0.34806300  1
  C  C8  1  0.61616300  0.61616300  0.61616300  1
  C  C9  1  0.38383700  0.84848900  0.38383700  1
  C  C10  1  0.65193700  0.34806300  0.00000000  1
  C  C11  1  0.00000000  0.34806300  0.65193700  1
  C  C12  1  0.34806300  0.65193700  0.00000000  1
  C  C13  1  0.34806300  0.00000000  0.65193700  1
  C  C14  1  0.38383700  0.38383700  0.38383700  1
  C  C15  1  0.65193700  0.00000000  0.00000000  1
  C  C16  1  0.00000000  0.34806300  0.00000000  1
  C  C17  1  0.61616300  0.61616300  0.15151100  1
  C  C18  1  0.38383700  0.38383700  0.84848900  1
  C  C19  1  0.61616300  0.15151100  0.61616300  1
  C  C20  1  0.00000000  0.00000000  0.00000000  1
  Ni  Ni21  1  0.75000000  0.75000000  0.75000000  1
  Ni  Ni22  1  0.25000000  0.25000000  0.25000000  1
  Cu  Cu23  1  0.26189500  0.73810500  0.26189500  1
  Cu  Cu24  1  0.73810500  0.73810500  0.26189500  1
  Cu  Cu25  1  0.73810500  0.26189500  0.26189500  1
  Cu  Cu26  1  0.26189500  0.73810500  0.73810500  1
  Cu  Cu27  1  0.26189500  0.26189500  0.73810500  1
  Cu  Cu28  1  0.73810500  0.26189500  0.73810500  1
