# generated using pymatgen
data_CuNi6C11
_symmetry_space_group_name_H-M   'P 1'
_cell_length_a   13.39019800
_cell_length_b   13.39019800
_cell_length_c   13.39019800
_cell_angle_alpha   90.00000000
_cell_angle_beta   90.00000000
_cell_angle_gamma   90.00000000
_symmetry_Int_Tables_number   1
_chemical_formula_structural   CuNi6C11
_chemical_formula_sum   'Cu4 Ni24 C44'
_cell_volume   2400.82772008
_cell_formula_units_Z   4
loop_
 _symmetry_equiv_pos_site_id
 _symmetry_equiv_pos_as_xyz
  1  'x, y, z'
loop_
 _atom_site_type_symbol
 _atom_site_label
 _atom_site_symmetry_multiplicity
 _atom_site_fract_x
 _atom_site_fract_y
 _atom_site_fract_z
 _atom_site_occupancy
  Ni  Ni0  1  0.18585200  0.30045000  0.44746000  1
  Ni  Ni1  1  0.31414800  0.69955000  0.94746000  1
  Ni  Ni2  1  0.19955000  0.55254000  0.68585200  1
  Ni  Ni3  1  0.80045000  0.05254000  0.81414800  1
  Ni  Ni4  1  0.44746000  0.18585200  0.30045000  1
  Ni  Ni5  1  0.55254000  0.81414800  0.69955000  1
  Ni  Ni6  1  0.94746000  0.18585200  0.19955000  1
  Ni  Ni7  1  0.30045000  0.44746000  0.18585200  1
  Ni  Ni8  1  0.81414800  0.69955000  0.55254000  1
  Ni  Ni9  1  0.05254000  0.68585200  0.30045000  1
  Ni  Ni10  1  0.68585200  0.19955000  0.55254000  1
  Ni  Ni11  1  0.94746000  0.31414800  0.69955000  1
  Ni  Ni12  1  0.81414800  0.80045000  0.05254000  1
  Ni  Ni13  1  0.68585200  0.30045000  0.05254000  1
  Ni  Ni14  1  0.80045000  0.44746000  0.31414800  1
  Ni  Ni15  1  0.18585200  0.19955000  0.94746000  1
  Ni  Ni16  1  0.30045000  0.05254000  0.68585200  1
  Ni  Ni17  1  0.69955000  0.55254000  0.81414800  1
  Ni  Ni18  1  0.05254000  0.81414800  0.80045000  1
  Ni  Ni19  1  0.44746000  0.31414800  0.80045000  1
  Ni  Ni20  1  0.55254000  0.68585200  0.19955000  1
  Ni  Ni21  1  0.31414800  0.80045000  0.44746000  1
  Ni  Ni22  1  0.69955000  0.94746000  0.31414800  1
  Ni  Ni23  1  0.19955000  0.94746000  0.18585200  1
  Cu  Cu24  1  0.00000000  0.50000000  0.00000000  1
  Cu  Cu25  1  0.50000000  0.50000000  0.50000000  1
  Cu  Cu26  1  0.00000000  0.00000000  0.50000000  1
  Cu  Cu27  1  0.50000000  0.00000000  0.00000000  1
  C  C28  1  0.26184200  0.23815800  0.76184200  1
  C  C29  1  0.86424900  0.63575100  0.36424900  1
  C  C30  1  0.23815800  0.76184200  0.26184200  1
  C  C31  1  0.73815800  0.73815800  0.73815800  1
  C  C32  1  0.13575100  0.36424900  0.63575100  1
  C  C33  1  0.63575100  0.36424900  0.86424900  1
  C  C34  1  0.36424900  0.86424900  0.63575100  1
  C  C35  1  0.63575100  0.13575100  0.36424900  1
  C  C36  1  0.36424900  0.63575100  0.13575100  1
  C  C37  1  0.73815800  0.76184200  0.23815800  1
  C  C38  1  0.23815800  0.73815800  0.76184200  1
  C  C39  1  0.76184200  0.23815800  0.73815800  1
  C  C40  1  0.86424900  0.86424900  0.86424900  1
  C  C41  1  0.13575100  0.13575100  0.13575100  1
  C  C42  1  0.76184200  0.26184200  0.23815800  1
  C  C43  1  0.26184200  0.26184200  0.26184200  1
  C  C44  1  0.70599200  0.45548400  0.55012400  1
  C  C45  1  0.45548400  0.55012400  0.70599200  1
  C  C46  1  0.54451600  0.05012400  0.79400800  1
  C  C47  1  0.44987600  0.20599200  0.04451600  1
  C  C48  1  0.54451600  0.44987600  0.29400800  1
  C  C49  1  0.00000000  0.00000000  0.00000000  1
  C  C50  1  0.45548400  0.94987600  0.20599200  1
  C  C51  1  0.70599200  0.04451600  0.05012400  1
  C  C52  1  0.29400800  0.95548400  0.94987600  1
  C  C53  1  0.95548400  0.94987600  0.29400800  1
  C  C54  1  0.05012400  0.70599200  0.04451600  1
  C  C55  1  0.50000000  0.00000000  0.50000000  1
  C  C56  1  0.44987600  0.29400800  0.54451600  1
  C  C57  1  0.00000000  0.50000000  0.50000000  1
  C  C58  1  0.05012400  0.79400800  0.54451600  1
  C  C59  1  0.04451600  0.05012400  0.70599200  1
  C  C60  1  0.29400800  0.54451600  0.44987600  1
  C  C61  1  0.20599200  0.04451600  0.44987600  1
  C  C62  1  0.20599200  0.45548400  0.94987600  1
  C  C63  1  0.94987600  0.29400800  0.95548400  1
  C  C64  1  0.79400800  0.54451600  0.05012400  1
  C  C65  1  0.04451600  0.44987600  0.20599200  1
  C  C66  1  0.55012400  0.70599200  0.45548400  1
  C  C67  1  0.95548400  0.55012400  0.79400800  1
  C  C68  1  0.79400800  0.95548400  0.55012400  1
  C  C69  1  0.55012400  0.79400800  0.95548400  1
  C  C70  1  0.94987600  0.20599200  0.45548400  1
  C  C71  1  0.50000000  0.50000000  0.00000000  1
