# generated using pymatgen
data_Cu2Ni2C7
_symmetry_space_group_name_H-M   'P 1'
_cell_length_a   7.20374300
_cell_length_b   7.20374300
_cell_length_c   8.21894648
_cell_angle_alpha   82.73847391
_cell_angle_beta   82.73847391
_cell_angle_gamma   43.61602880
_symmetry_Int_Tables_number   1
_chemical_formula_structural   Cu2Ni2C7
_chemical_formula_sum   'Cu4 Ni4 C14'
_cell_volume   291.47894543
_cell_formula_units_Z   2
loop_
 _symmetry_equiv_pos_site_id
 _symmetry_equiv_pos_as_xyz
  1  'x, y, z'
loop_
 _atom_site_type_symbol
 _atom_site_label
 _atom_site_symmetry_multiplicity
 _atom_site_fract_x
 _atom_site_fract_y
 _atom_site_fract_z
 _atom_site_occupancy
  Ni  Ni0  1  0.26437400  0.51774600  0.26809800  1
  Ni  Ni1  1  0.73562600  0.48225400  0.73190200  1
  Ni  Ni2  1  0.48225400  0.73562600  0.23190200  1
  Ni  Ni3  1  0.51774600  0.26437400  0.76809800  1
  Cu  Cu4  1  0.00000000  0.50000000  0.00000000  1
  Cu  Cu5  1  0.50000000  0.00000000  0.50000000  1
  Cu  Cu6  1  0.00000000  0.00000000  0.50000000  1
  Cu  Cu7  1  0.00000000  0.00000000  0.00000000  1
  C  C8  1  0.51170300  0.48829700  0.25000000  1
  C  C9  1  0.38572500  0.23599800  0.29049800  1
  C  C10  1  0.48829700  0.51170300  0.75000000  1
  C  C11  1  0.70591500  0.06971800  0.90583400  1
  C  C12  1  0.85849000  0.36547000  0.90774500  1
  C  C13  1  0.93028200  0.29408500  0.59416600  1
  C  C14  1  0.29408500  0.93028200  0.09416600  1
  C  C15  1  0.36547000  0.85849000  0.40774500  1
  C  C16  1  0.14151000  0.63453000  0.09225500  1
  C  C17  1  0.23599800  0.38572500  0.79049800  1
  C  C18  1  0.61427500  0.76400200  0.70950200  1
  C  C19  1  0.63453000  0.14151000  0.59225500  1
  C  C20  1  0.76400200  0.61427500  0.20950200  1
  C  C21  1  0.06971800  0.70591500  0.40583400  1
