# generated using pymatgen
data_Cu7Ni2C5
_symmetry_space_group_name_H-M   'P 1'
_cell_length_a   8.76253943
_cell_length_b   8.76253943
_cell_length_c   9.59227879
_cell_angle_alpha   87.82781095
_cell_angle_beta   87.82781095
_cell_angle_gamma   42.44973512
_symmetry_Int_Tables_number   1
_chemical_formula_structural   Cu7Ni2C5
_chemical_formula_sum   'Cu14 Ni4 C10'
_cell_volume   496.69483529
_cell_formula_units_Z   2
loop_
 _symmetry_equiv_pos_site_id
 _symmetry_equiv_pos_as_xyz
  1  'x, y, z'
loop_
 _atom_site_type_symbol
 _atom_site_label
 _atom_site_symmetry_multiplicity
 _atom_site_fract_x
 _atom_site_fract_y
 _atom_site_fract_z
 _atom_site_occupancy
  C  C0  1  0.78640200  0.45650000  0.29936500  1
  C  C1  1  0.45650000  0.78640200  0.79936500  1
  C  C2  1  0.47866500  0.19323000  0.72658100  1
  C  C3  1  0.19323000  0.47866500  0.22658100  1
  C  C4  1  0.07939500  0.73353500  0.87576200  1
  C  C5  1  0.73353500  0.07939500  0.37576200  1
  C  C6  1  0.23186200  0.87032800  0.16381400  1
  C  C7  1  0.87032800  0.23186200  0.66381400  1
  C  C8  1  0.94319100  0.59265000  0.57914300  1
  C  C9  1  0.59265000  0.94319100  0.07914300  1
  Ni  Ni10  1  0.36758600  0.02397700  0.43507500  1
  Ni  Ni11  1  0.02397700  0.36758600  0.93507500  1
  Ni  Ni12  1  0.64649600  0.31442100  0.00207600  1
  Ni  Ni13  1  0.31442100  0.64649600  0.50207600  1
  Cu  Cu14  1  0.96980200  0.62219700  0.03009600  1
  Cu  Cu15  1  0.62219700  0.96980200  0.53009600  1
  Cu  Cu16  1  0.56626500  0.20244000  0.16124200  1
  Cu  Cu17  1  0.20244000  0.56626500  0.66124200  1
  Cu  Cu18  1  0.83400800  0.49590900  0.74861000  1
  Cu  Cu19  1  0.49590900  0.83400800  0.24861000  1
  Cu  Cu20  1  0.67026600  0.36224400  0.46194100  1
  Cu  Cu21  1  0.36224400  0.67026600  0.96194100  1
  Cu  Cu22  1  0.25504300  0.92033900  0.59031100  1
  Cu  Cu23  1  0.92033900  0.25504300  0.09031100  1
  Cu  Cu24  1  0.11224500  0.77487300  0.32041900  1
  Cu  Cu25  1  0.77487300  0.11224500  0.82041900  1
  Cu  Cu26  1  0.37584100  0.07988900  0.88606600  1
  Cu  Cu27  1  0.07988900  0.37584100  0.38606600  1
