# generated using pymatgen
data_Cu6NiC3
_symmetry_space_group_name_H-M   'P 1'
_cell_length_a   7.47990073
_cell_length_b   7.47990073
_cell_length_c   7.32897958
_cell_angle_alpha   62.51077590
_cell_angle_beta   62.51077590
_cell_angle_gamma   78.24439598
_symmetry_Int_Tables_number   1
_chemical_formula_structural   Cu6NiC3
_chemical_formula_sum   'Cu12 Ni2 C6'
_cell_volume   322.66182527
_cell_formula_units_Z   2
loop_
 _symmetry_equiv_pos_site_id
 _symmetry_equiv_pos_as_xyz
  1  'x, y, z'
loop_
 _atom_site_type_symbol
 _atom_site_label
 _atom_site_symmetry_multiplicity
 _atom_site_fract_x
 _atom_site_fract_y
 _atom_site_fract_z
 _atom_site_occupancy
  C  C0  1  0.17719800  0.41924800  0.15622100  1
  C  C1  1  0.17328200  0.82743000  0.50068100  1
  C  C2  1  0.82743000  0.17328200  0.00068100  1
  C  C3  1  0.41924800  0.17719800  0.65622100  1
  C  C4  1  0.68009600  0.66723600  0.08620300  1
  C  C5  1  0.66723600  0.68009600  0.58620300  1
  Ni  Ni6  1  0.60641200  0.73121100  0.36429700  1
  Ni  Ni7  1  0.73121100  0.60641200  0.86429700  1
  Cu  Cu8  1  0.15555600  0.07302900  0.10812700  1
  Cu  Cu9  1  0.57338900  0.39916300  0.76400900  1
  Cu  Cu10  1  0.60502200  0.94160400  0.94935200  1
  Cu  Cu11  1  0.39742100  0.76150300  0.76450600  1
  Cu  Cu12  1  0.94798700  0.76099100  0.97986700  1
  Cu  Cu13  1  0.44565300  0.15476900  0.28363700  1
  Cu  Cu14  1  0.15476900  0.44565300  0.78363700  1
  Cu  Cu15  1  0.94160400  0.60502200  0.44935200  1
  Cu  Cu16  1  0.76150300  0.39742100  0.26450600  1
  Cu  Cu17  1  0.39916300  0.57338900  0.26400900  1
  Cu  Cu18  1  0.07302900  0.15555600  0.60812700  1
  Cu  Cu19  1  0.76099100  0.94798700  0.47986700  1
