# generated using pymatgen
data_Cu4Ni4C3
_symmetry_space_group_name_H-M   'P 1'
_cell_length_a   8.57456915
_cell_length_b   8.57456915
_cell_length_c   8.57456915
_cell_angle_alpha   148.70425791
_cell_angle_beta   132.03150089
_cell_angle_gamma   58.39659529
_symmetry_Int_Tables_number   1
_chemical_formula_structural   Cu4Ni4C3
_chemical_formula_sum   'Cu4 Ni4 C3'
_cell_volume   241.34871009
_cell_formula_units_Z   1
loop_
 _symmetry_equiv_pos_site_id
 _symmetry_equiv_pos_as_xyz
  1  'x, y, z'
loop_
 _atom_site_type_symbol
 _atom_site_label
 _atom_site_symmetry_multiplicity
 _atom_site_fract_x
 _atom_site_fract_y
 _atom_site_fract_z
 _atom_site_occupancy
  C  C0  1  0.13301900  0.13301900  0.00000000  1
  C  C1  1  0.86698100  0.86698100  0.00000000  1
  C  C2  1  0.50000000  0.00000000  0.50000000  1
  Ni  Ni3  1  0.51566500  0.33232500  0.18334000  1
  Ni  Ni4  1  0.48433500  0.66767500  0.81666000  1
  Ni  Ni5  1  0.85101600  0.66767500  0.18334000  1
  Ni  Ni6  1  0.14898400  0.33232500  0.81666000  1
  Cu  Cu7  1  0.71648800  0.21648800  0.50000000  1
  Cu  Cu8  1  0.28351200  0.78351200  0.50000000  1
  Cu  Cu9  1  0.20236600  0.50000000  0.70236600  1
  Cu  Cu10  1  0.79763400  0.50000000  0.29763400  1
