# generated using pymatgen
data_Cu5Ni2C5
_symmetry_space_group_name_H-M   'P 1'
_cell_length_a   4.32673600
_cell_length_b   4.32673600
_cell_length_c   13.60382163
_cell_angle_alpha   99.15039473
_cell_angle_beta   99.15039473
_cell_angle_gamma   90.00000000
_symmetry_Int_Tables_number   1
_chemical_formula_structural   Cu5Ni2C5
_chemical_formula_sum   'Cu5 Ni2 C5'
_cell_volume   248.14822591
_cell_formula_units_Z   1
loop_
 _symmetry_equiv_pos_site_id
 _symmetry_equiv_pos_as_xyz
  1  'x, y, z'
loop_
 _atom_site_type_symbol
 _atom_site_label
 _atom_site_symmetry_multiplicity
 _atom_site_fract_x
 _atom_site_fract_y
 _atom_site_fract_z
 _atom_site_occupancy
  C  C0  1  0.65429500  0.65429500  0.30859000  1
  C  C1  1  0.34570500  0.34570500  0.69141000  1
  C  C2  1  0.50000000  0.50000000  0.00000000  1
  C  C3  1  0.92091600  0.92091600  0.84183200  1
  C  C4  1  0.07908400  0.07908400  0.15816800  1
  Ni  Ni5  1  0.79555200  0.79555200  0.59110400  1
  Ni  Ni6  1  0.20444800  0.20444800  0.40889600  1
  Cu  Cu7  1  0.91004300  0.41004300  0.82008600  1
  Cu  Cu8  1  0.58995700  0.08995700  0.17991400  1
  Cu  Cu9  1  0.41004300  0.91004300  0.82008600  1
  Cu  Cu10  1  0.08995700  0.58995700  0.17991400  1
  Cu  Cu11  1  0.00000000  0.00000000  0.00000000  1
