# generated using pymatgen
data_Cu(NiC3)3
_symmetry_space_group_name_H-M   'P 1'
_cell_length_a   9.51488687
_cell_length_b   9.51488687
_cell_length_c   5.61087500
_cell_angle_alpha   90.00000000
_cell_angle_beta   90.00000000
_cell_angle_gamma   120.00000608
_symmetry_Int_Tables_number   1
_chemical_formula_structural   Cu(NiC3)3
_chemical_formula_sum   'Cu2 Ni6 C18'
_cell_volume   439.91468235
_cell_formula_units_Z   2
loop_
 _symmetry_equiv_pos_site_id
 _symmetry_equiv_pos_as_xyz
  1  'x, y, z'
loop_
 _atom_site_type_symbol
 _atom_site_label
 _atom_site_symmetry_multiplicity
 _atom_site_fract_x
 _atom_site_fract_y
 _atom_site_fract_z
 _atom_site_occupancy
  Ni  Ni0  1  0.09082700  0.68609800  0.75000000  1
  Ni  Ni1  1  0.90917300  0.31390200  0.25000000  1
  Ni  Ni2  1  0.40472900  0.09082700  0.25000000  1
  Ni  Ni3  1  0.31390200  0.40472900  0.75000000  1
  Ni  Ni4  1  0.68609800  0.59527100  0.25000000  1
  Ni  Ni5  1  0.59527100  0.90917300  0.75000000  1
  Cu  Cu6  1  0.33333300  0.66666700  0.25000000  1
  Cu  Cu7  1  0.66666700  0.33333300  0.75000000  1
  C  C8  1  0.81142000  0.75244300  0.75000000  1
  C  C9  1  0.75244300  0.94102300  0.25000000  1
  C  C10  1  0.18858000  0.24755700  0.25000000  1
  C  C11  1  0.24755700  0.05897700  0.75000000  1
  C  C12  1  0.94102300  0.18858000  0.75000000  1
  C  C13  1  0.05897700  0.81142000  0.25000000  1
  C  C14  1  0.48309700  0.63475800  0.00686100  1
  C  C15  1  0.51690300  0.36524200  0.99313900  1
  C  C16  1  0.84833800  0.48309700  0.50686100  1
  C  C17  1  0.48309700  0.63475800  0.49313900  1
  C  C18  1  0.63475800  0.15166200  0.99313900  1
  C  C19  1  0.63475800  0.15166200  0.50686100  1
  C  C20  1  0.15166200  0.51690300  0.49313900  1
  C  C21  1  0.36524200  0.84833800  0.00686100  1
  C  C22  1  0.84833800  0.48309700  0.99313900  1
  C  C23  1  0.51690300  0.36524200  0.50686100  1
  C  C24  1  0.15166200  0.51690300  0.00686100  1
  C  C25  1  0.36524200  0.84833800  0.49313900  1
