# generated using pymatgen
data_Cu2Ni2C9
_symmetry_space_group_name_H-M   'P 1'
_cell_length_a   6.37159600
_cell_length_b   10.43595500
_cell_length_c   10.75874359
_cell_angle_alpha   62.10301829
_cell_angle_beta   90.00000000
_cell_angle_gamma   90.00000000
_symmetry_Int_Tables_number   1
_chemical_formula_structural   Cu2Ni2C9
_chemical_formula_sum   'Cu8 Ni8 C36'
_cell_volume   632.25344780
_cell_formula_units_Z   4
loop_
 _symmetry_equiv_pos_site_id
 _symmetry_equiv_pos_as_xyz
  1  'x, y, z'
loop_
 _atom_site_type_symbol
 _atom_site_label
 _atom_site_symmetry_multiplicity
 _atom_site_fract_x
 _atom_site_fract_y
 _atom_site_fract_z
 _atom_site_occupancy
  Ni  Ni0  1  0.44194800  0.24075900  0.52339800  1
  Ni  Ni1  1  0.94194800  0.25924100  0.47660200  1
  Ni  Ni2  1  0.77571700  0.45200000  0.61008500  1
  Ni  Ni3  1  0.05805200  0.74075900  0.52339800  1
  Ni  Ni4  1  0.27571700  0.04800000  0.38991500  1
  Ni  Ni5  1  0.72428300  0.95200000  0.61008500  1
  Ni  Ni6  1  0.22428300  0.54800000  0.38991500  1
  Ni  Ni7  1  0.55805200  0.75924100  0.47660200  1
  Cu  Cu8  1  0.95747600  0.31838800  0.98320800  1
  Cu  Cu9  1  0.41899600  0.58817800  0.81513900  1
  Cu  Cu10  1  0.54252400  0.81838800  0.98320800  1
  Cu  Cu11  1  0.91899600  0.91182200  0.18486100  1
  Cu  Cu12  1  0.04252400  0.68161200  0.01679200  1
  Cu  Cu13  1  0.45747600  0.18161200  0.01679200  1
  Cu  Cu14  1  0.58100400  0.41182200  0.18486100  1
  Cu  Cu15  1  0.08100400  0.08817800  0.81513900  1
  C  C16  1  0.24636000  0.42199400  0.68280000  1
  C  C17  1  0.15173500  0.34981400  0.20953900  1
  C  C18  1  0.84826500  0.65018600  0.79046100  1
  C  C19  1  0.25364000  0.92199400  0.68280000  1
  C  C20  1  0.34826500  0.84981400  0.20953900  1
  C  C21  1  0.65173500  0.15018600  0.79046100  1
  C  C22  1  0.75364000  0.57800600  0.31720000  1
  C  C23  1  0.74636000  0.07800600  0.31720000  1
  C  C24  1  0.37807000  0.59812400  0.02478400  1
  C  C25  1  0.73639200  0.63157300  0.16955300  1
  C  C26  1  0.45920100  0.08841800  0.84949800  1
  C  C27  1  0.25482200  0.26955000  0.15335500  1
  C  C28  1  0.35364200  0.84072500  0.62990900  1
  C  C29  1  0.85364200  0.65927500  0.37009100  1
  C  C30  1  0.87807000  0.90187600  0.97521600  1
  C  C31  1  0.82995100  0.94207300  0.39928300  1
  C  C32  1  0.23639200  0.86842700  0.83044700  1
  C  C33  1  0.75482200  0.23045000  0.84664500  1
  C  C34  1  0.75634200  0.63385100  0.68393700  1
  C  C35  1  0.12193000  0.09812400  0.02478400  1
  C  C36  1  0.62193000  0.40187600  0.97521600  1
  C  C37  1  0.24517800  0.76955000  0.15335500  1
  C  C38  1  0.64635800  0.15927500  0.37009100  1
  C  C39  1  0.74365800  0.13385100  0.68393700  1
  C  C40  1  0.76360800  0.13157300  0.16955300  1
  C  C41  1  0.54079900  0.91158200  0.15050200  1
  C  C42  1  0.24365800  0.36614900  0.31606300  1
  C  C43  1  0.17004900  0.05792700  0.60071700  1
  C  C44  1  0.95920100  0.41158200  0.15050200  1
  C  C45  1  0.25634200  0.86614900  0.31606300  1
  C  C46  1  0.04079900  0.58841800  0.84949800  1
  C  C47  1  0.32995100  0.55792700  0.60071700  1
  C  C48  1  0.67004900  0.44207300  0.39928300  1
  C  C49  1  0.74517800  0.73045000  0.84664500  1
  C  C50  1  0.14635800  0.34072500  0.62990900  1
  C  C51  1  0.26360800  0.36842700  0.83044700  1
