# generated using pymatgen
data_Cu4NiC4
_symmetry_space_group_name_H-M   'P 1'
_cell_length_a   7.62016121
_cell_length_b   7.62016121
_cell_length_c   10.72694516
_cell_angle_alpha   77.41283103
_cell_angle_beta   77.41283103
_cell_angle_gamma   49.37364236
_symmetry_Int_Tables_number   1
_chemical_formula_structural   Cu4NiC4
_chemical_formula_sum   'Cu16 Ni4 C16'
_cell_volume   458.94935491
_cell_formula_units_Z   4
loop_
 _symmetry_equiv_pos_site_id
 _symmetry_equiv_pos_as_xyz
  1  'x, y, z'
loop_
 _atom_site_type_symbol
 _atom_site_label
 _atom_site_symmetry_multiplicity
 _atom_site_fract_x
 _atom_site_fract_y
 _atom_site_fract_z
 _atom_site_occupancy
  C  C0  1  0.18119800  0.66088000  0.44383200  1
  C  C1  1  0.33912000  0.81880200  0.05616800  1
  C  C2  1  0.81880200  0.33912000  0.55616800  1
  C  C3  1  0.66088000  0.18119800  0.94383200  1
  C  C4  1  0.50000000  0.00000000  0.50000000  1
  C  C5  1  0.00000000  0.50000000  0.00000000  1
  C  C6  1  0.75680500  0.24319500  0.25000000  1
  C  C7  1  0.24319500  0.75680500  0.75000000  1
  C  C8  1  0.26653100  0.09214000  0.30491400  1
  C  C9  1  0.90786000  0.73346900  0.19508600  1
  C  C10  1  0.73346900  0.90786000  0.69508600  1
  C  C11  1  0.09214000  0.26653100  0.80491400  1
  C  C12  1  0.40079700  0.19272100  0.25553800  1
  C  C13  1  0.80727900  0.59920300  0.24446200  1
  C  C14  1  0.59920300  0.80727900  0.74446200  1
  C  C15  1  0.19272100  0.40079700  0.75553800  1
  Ni  Ni16  1  0.41274200  0.06242800  0.30869000  1
  Ni  Ni17  1  0.93757200  0.58725800  0.19131000  1
  Ni  Ni18  1  0.58725800  0.93757200  0.69131000  1
  Ni  Ni19  1  0.06242800  0.41274200  0.80869000  1
  Cu  Cu20  1  0.64491400  0.15429400  0.43769900  1
  Cu  Cu21  1  0.84570600  0.35508600  0.06230100  1
  Cu  Cu22  1  0.35508600  0.84570600  0.56230100  1
  Cu  Cu23  1  0.15429400  0.64491400  0.93769900  1
  Cu  Cu24  1  0.78354300  0.71794800  0.46228700  1
  Cu  Cu25  1  0.28205200  0.21645700  0.03771300  1
  Cu  Cu26  1  0.21645700  0.28205200  0.53771300  1
  Cu  Cu27  1  0.71794800  0.78354300  0.96228700  1
  Cu  Cu28  1  0.90164900  0.96045300  0.18356600  1
  Cu  Cu29  1  0.03954700  0.09835100  0.31643400  1
  Cu  Cu30  1  0.09835100  0.03954700  0.81643400  1
  Cu  Cu31  1  0.96045300  0.90164900  0.68356600  1
  Cu  Cu32  1  0.47128700  0.37972200  0.19137500  1
  Cu  Cu33  1  0.62027800  0.52871300  0.30862500  1
  Cu  Cu34  1  0.52871300  0.62027800  0.80862500  1
  Cu  Cu35  1  0.37972200  0.47128700  0.69137500  1
