# generated using pymatgen
data_CuNiC6
_symmetry_space_group_name_H-M   'P 1'
_cell_length_a   4.57962200
_cell_length_b   11.97738700
_cell_length_c   19.72718090
_cell_angle_alpha   54.30147007
_cell_angle_beta   90.00000000
_cell_angle_gamma   90.00000000
_symmetry_Int_Tables_number   1
_chemical_formula_structural   CuNiC6
_chemical_formula_sum   'Cu4 Ni4 C24'
_cell_volume   878.75022691
_cell_formula_units_Z   4
loop_
 _symmetry_equiv_pos_site_id
 _symmetry_equiv_pos_as_xyz
  1  'x, y, z'
loop_
 _atom_site_type_symbol
 _atom_site_label
 _atom_site_symmetry_multiplicity
 _atom_site_fract_x
 _atom_site_fract_y
 _atom_site_fract_z
 _atom_site_occupancy
  C  C0  1  0.73209500  0.94238000  0.42390200  1
  C  C1  1  0.87631500  0.70103400  0.17936600  1
  C  C2  1  0.62368500  0.70103400  0.67936600  1
  C  C3  1  0.77872200  0.20644900  0.68771300  1
  C  C4  1  0.23209500  0.05762000  0.07609800  1
  C  C5  1  0.22127800  0.79355100  0.31228700  1
  C  C6  1  0.37631500  0.29896600  0.32063400  1
  C  C7  1  0.76790500  0.94238000  0.92390200  1
  C  C8  1  0.26790500  0.05762000  0.57609800  1
  C  C9  1  0.12368500  0.29896600  0.82063400  1
  C  C10  1  0.72127800  0.20644900  0.18771300  1
  C  C11  1  0.27872200  0.79355100  0.81228700  1
  Ni  Ni12  1  0.69177400  0.40376800  0.95034900  1
  Ni  Ni13  1  0.80822600  0.40376800  0.45034900  1
  Ni  Ni14  1  0.30822600  0.59623200  0.04965100  1
  Ni  Ni15  1  0.19177400  0.59623200  0.54965100  1
  Cu  Cu16  1  0.36255000  0.09839700  0.30823700  1
  Cu  Cu17  1  0.13745000  0.09839700  0.80823700  1
  Cu  Cu18  1  0.63745000  0.90160300  0.69176300  1
  Cu  Cu19  1  0.86255000  0.90160300  0.19176300  1
  C  C20  1  0.60347700  0.18384600  0.96548900  1
  C  C21  1  0.44229100  0.31003200  0.56925300  1
  C  C22  1  0.10347700  0.81615400  0.53451100  1
  C  C23  1  0.54367200  0.51087000  0.66558700  1
  C  C24  1  0.89652300  0.18384600  0.46548900  1
  C  C25  1  0.55770900  0.68996800  0.43074700  1
  C  C26  1  0.04367200  0.48913000  0.83441300  1
  C  C27  1  0.94229100  0.68996800  0.93074700  1
  C  C28  1  0.05770900  0.31003200  0.06925300  1
  C  C29  1  0.95632800  0.51087000  0.16558700  1
  C  C30  1  0.45632800  0.48913000  0.33441300  1
  C  C31  1  0.39652300  0.81615400  0.03451100  1
