# generated using pymatgen
data_Cu2NiC4
_symmetry_space_group_name_H-M   'P 1'
_cell_length_a   19.17583927
_cell_length_b   19.17583927
_cell_length_c   19.17583866
_cell_angle_alpha   17.31770803
_cell_angle_beta   17.31770803
_cell_angle_gamma   17.31770756
_symmetry_Int_Tables_number   1
_chemical_formula_structural   Cu2NiC4
_chemical_formula_sum   'Cu16 Ni8 C32'
_cell_volume   545.20139821
_cell_formula_units_Z   8
loop_
 _symmetry_equiv_pos_site_id
 _symmetry_equiv_pos_as_xyz
  1  'x, y, z'
loop_
 _atom_site_type_symbol
 _atom_site_label
 _atom_site_symmetry_multiplicity
 _atom_site_fract_x
 _atom_site_fract_y
 _atom_site_fract_z
 _atom_site_occupancy
  Ni  Ni0  1  0.15528800  0.15528800  0.15528800  1
  Ni  Ni1  1  0.49927100  0.49927100  0.49927100  1
  Ni  Ni2  1  0.40576000  0.40576000  0.40576000  1
  Ni  Ni3  1  0.65644300  0.65644300  0.65644300  1
  Ni  Ni4  1  0.09445400  0.09445400  0.09445400  1
  Ni  Ni5  1  0.90631600  0.90631600  0.90631600  1
  Ni  Ni6  1  0.34384300  0.34384300  0.34384300  1
  Ni  Ni7  1  0.59353400  0.59353400  0.59353400  1
  Cu  Cu8  1  0.62194200  0.13012300  0.62194200  1
  Cu  Cu9  1  0.74991100  0.74991100  0.74991100  1
  Cu  Cu10  1  0.13012300  0.62194200  0.62194200  1
  Cu  Cu11  1  0.87504600  0.37525200  0.87504600  1
  Cu  Cu12  1  0.62194200  0.62194200  0.13012300  1
  Cu  Cu13  1  0.00023500  0.00023500  0.00023500  1
  Cu  Cu14  1  0.37525200  0.87504600  0.87504600  1
  Cu  Cu15  1  0.12478900  0.62587500  0.12478900  1
  Cu  Cu16  1  0.87504600  0.87504600  0.37525200  1
  Cu  Cu17  1  0.25049500  0.25049500  0.25049500  1
  Cu  Cu18  1  0.62587500  0.12478900  0.12478900  1
  Cu  Cu19  1  0.12478900  0.12478900  0.62587500  1
  Cu  Cu20  1  0.37284800  0.88006400  0.37284800  1
  Cu  Cu21  1  0.88006400  0.37284800  0.37284800  1
  Cu  Cu22  1  0.37284800  0.37284800  0.88006400  1
  Cu  Cu23  1  0.84441300  0.84441300  0.84441300  1
  C  C24  1  0.32246100  0.78344400  0.32246100  1
  C  C25  1  0.44004300  0.44004300  0.44004300  1
  C  C26  1  0.78344400  0.32246100  0.32246100  1
  C  C27  1  0.32246100  0.32246100  0.78344400  1
  C  C28  1  0.91815500  0.91815500  0.48037800  1
  C  C29  1  0.57965500  0.02470000  0.57965500  1
  C  C30  1  0.48037800  0.91815500  0.91815500  1
  C  C31  1  0.69090600  0.69090600  0.69090600  1
  C  C32  1  0.81220600  0.81220600  0.81220600  1
  C  C33  1  0.02470000  0.57965500  0.57965500  1
  C  C34  1  0.57965500  0.57965500  0.02470000  1
  C  C35  1  0.91815500  0.48037800  0.91815500  1
  C  C36  1  0.82937600  0.27514200  0.82937600  1
  C  C37  1  0.17041900  0.17041900  0.72506200  1
  C  C38  1  0.05940000  0.05940000  0.05940000  1
  C  C39  1  0.72506200  0.17041900  0.17041900  1
  C  C40  1  0.94084600  0.94084600  0.94084600  1
  C  C41  1  0.27514200  0.82937600  0.82937600  1
  C  C42  1  0.82937600  0.82937600  0.27514200  1
  C  C43  1  0.17041900  0.72506200  0.17041900  1
  C  C44  1  0.08078700  0.52349400  0.08078700  1
  C  C45  1  0.42078200  0.42078200  0.97415800  1
  C  C46  1  0.97415800  0.42078200  0.42078200  1
  C  C47  1  0.30900900  0.30900900  0.30900900  1
  C  C48  1  0.19070500  0.19070500  0.19070500  1
  C  C49  1  0.52349400  0.08078700  0.08078700  1
  C  C50  1  0.08078700  0.08078700  0.52349400  1
  C  C51  1  0.42078200  0.97415800  0.42078200  1
  C  C52  1  0.68607200  0.68607200  0.19648400  1
  C  C53  1  0.55807900  0.55807900  0.55807900  1
  C  C54  1  0.19648400  0.68607200  0.68607200  1
  C  C55  1  0.68607200  0.19648400  0.68607200  1
