# generated using pymatgen
data_Cu4Ni4C3
_symmetry_space_group_name_H-M   'P 1'
_cell_length_a   8.94998500
_cell_length_b   8.09283800
_cell_length_c   15.43177377
_cell_angle_alpha   87.03682795
_cell_angle_beta   90.00000000
_cell_angle_gamma   90.00000000
_symmetry_Int_Tables_number   1
_chemical_formula_structural   Cu4Ni4C3
_chemical_formula_sum   'Cu24 Ni24 C18'
_cell_volume   1116.24094340
_cell_formula_units_Z   6
loop_
 _symmetry_equiv_pos_site_id
 _symmetry_equiv_pos_as_xyz
  1  'x, y, z'
loop_
 _atom_site_type_symbol
 _atom_site_label
 _atom_site_symmetry_multiplicity
 _atom_site_fract_x
 _atom_site_fract_y
 _atom_site_fract_z
 _atom_site_occupancy
  C  C0  1  0.00000000  0.00000000  0.00000000  1
  C  C1  1  0.50000000  0.00000000  0.50000000  1
  C  C2  1  0.99621400  0.25856100  0.35769500  1
  C  C3  1  0.00378600  0.74143900  0.64230500  1
  C  C4  1  0.50378600  0.25856100  0.85769500  1
  C  C5  1  0.49621400  0.74143900  0.14230500  1
  C  C6  1  0.75572500  0.75906200  0.40498900  1
  C  C7  1  0.25572500  0.24093800  0.09501100  1
  C  C8  1  0.24228200  0.77613100  0.88413900  1
  C  C9  1  0.75771800  0.22386900  0.11586100  1
  C  C10  1  0.50553400  0.29735100  0.34189000  1
  C  C11  1  0.74228200  0.22386900  0.61586100  1
  C  C12  1  0.24427500  0.24093800  0.59501100  1
  C  C13  1  0.74427500  0.75906200  0.90498900  1
  C  C14  1  0.49446600  0.70264900  0.65811000  1
  C  C15  1  0.25771800  0.77613100  0.38413900  1
  C  C16  1  0.99446600  0.29735100  0.84189000  1
  C  C17  1  0.00553400  0.70264900  0.15811000  1
  Ni  Ni18  1  0.83164200  0.38106900  0.10402900  1
  Ni  Ni19  1  0.32612600  0.09183200  0.57203300  1
  Ni  Ni20  1  0.31622200  0.39767600  0.57702000  1
  Ni  Ni21  1  0.17387400  0.09183200  0.07203300  1
  Ni  Ni22  1  0.33426000  0.92044000  0.41739700  1
  Ni  Ni23  1  0.53568200  0.81329800  0.72418100  1
  Ni  Ni24  1  0.16835800  0.61893100  0.89597100  1
  Ni  Ni25  1  0.16574000  0.92044000  0.91739700  1
  Ni  Ni26  1  0.01872200  0.77554700  0.06924200  1
  Ni  Ni27  1  0.81622200  0.60232400  0.92298000  1
  Ni  Ni28  1  0.67387400  0.90816800  0.42796700  1
  Ni  Ni29  1  0.98127800  0.22445300  0.93075800  1
  Ni  Ni30  1  0.82612600  0.90816800  0.92796700  1
  Ni  Ni31  1  0.48127800  0.77554700  0.56924200  1
  Ni  Ni32  1  0.33164200  0.61893100  0.39597100  1
  Ni  Ni33  1  0.51872200  0.22445300  0.43075800  1
  Ni  Ni34  1  0.18377800  0.39767600  0.07702000  1
  Ni  Ni35  1  0.46431800  0.18670200  0.27581900  1
  Ni  Ni36  1  0.03568200  0.18670200  0.77581900  1
  Ni  Ni37  1  0.96431800  0.81329800  0.22418100  1
  Ni  Ni38  1  0.66574000  0.07956000  0.58260300  1
  Ni  Ni39  1  0.83426000  0.07956000  0.08260300  1
  Ni  Ni40  1  0.68377800  0.60232400  0.42298000  1
  Ni  Ni41  1  0.66835800  0.38106900  0.60402900  1
  Cu  Cu42  1  0.17613400  0.27443400  0.40555800  1
  Cu  Cu43  1  0.49443600  0.52499400  0.16667600  1
  Cu  Cu44  1  0.57958300  0.77207200  0.24481700  1
  Cu  Cu45  1  0.00309600  0.95746400  0.61858100  1
  Cu  Cu46  1  0.50556400  0.47500600  0.83332400  1
  Cu  Cu47  1  0.42041700  0.22792800  0.75518300  1
  Cu  Cu48  1  0.67613400  0.72556600  0.09444200  1
  Cu  Cu49  1  0.92041700  0.77207200  0.74481700  1
  Cu  Cu50  1  0.81509900  0.24281100  0.30890700  1
  Cu  Cu51  1  0.31509900  0.75718900  0.19109300  1
  Cu  Cu52  1  0.07958300  0.22792800  0.25518300  1
  Cu  Cu53  1  0.18490100  0.75718900  0.69109300  1
  Cu  Cu54  1  0.58801200  0.28928300  0.95991500  1
  Cu  Cu55  1  0.08801200  0.71071700  0.54008500  1
  Cu  Cu56  1  0.68490100  0.24281100  0.80890700  1
  Cu  Cu57  1  0.41198800  0.71071700  0.04008500  1
  Cu  Cu58  1  0.99690400  0.04253600  0.38141900  1
  Cu  Cu59  1  0.99443600  0.47500600  0.33332400  1
  Cu  Cu60  1  0.91198800  0.28928300  0.45991500  1
  Cu  Cu61  1  0.50309600  0.04253600  0.88141900  1
  Cu  Cu62  1  0.49690400  0.95746400  0.11858100  1
  Cu  Cu63  1  0.32386600  0.27443400  0.90555800  1
  Cu  Cu64  1  0.82386600  0.72556600  0.59444200  1
  Cu  Cu65  1  0.00556400  0.52499400  0.66667600  1
