# generated using pymatgen
data_Cu(Ni3C2)2
_symmetry_space_group_name_H-M   'P 1'
_cell_length_a   10.37551700
_cell_length_b   12.48409000
_cell_length_c   16.23512900
_cell_angle_alpha   90.00000000
_cell_angle_beta   90.00000000
_cell_angle_gamma   90.00000000
_symmetry_Int_Tables_number   1
_chemical_formula_structural   Cu(Ni3C2)2
_chemical_formula_sum   'Cu8 Ni48 C32'
_cell_volume   2102.91820630
_cell_formula_units_Z   8
loop_
 _symmetry_equiv_pos_site_id
 _symmetry_equiv_pos_as_xyz
  1  'x, y, z'
loop_
 _atom_site_type_symbol
 _atom_site_label
 _atom_site_symmetry_multiplicity
 _atom_site_fract_x
 _atom_site_fract_y
 _atom_site_fract_z
 _atom_site_occupancy
  C  C0  1  0.75000000  0.88404100  0.12351700  1
  C  C1  1  0.75000000  0.38404100  0.37648300  1
  C  C2  1  0.95635200  0.31247100  0.59527200  1
  C  C3  1  0.96403200  0.61835400  0.11171700  1
  C  C4  1  0.75000000  0.12318900  0.86175000  1
  C  C5  1  0.25000000  0.11595900  0.87648300  1
  C  C6  1  0.45635200  0.18752900  0.09527200  1
  C  C7  1  0.53596800  0.11835400  0.38828300  1
  C  C8  1  0.04364800  0.68752900  0.40472800  1
  C  C9  1  0.45635200  0.68752900  0.40472800  1
  C  C10  1  0.54364800  0.31247100  0.59527200  1
  C  C11  1  0.03596800  0.88164600  0.61171700  1
  C  C12  1  0.54364800  0.81247100  0.90472800  1
  C  C13  1  0.95635200  0.81247100  0.90472800  1
  C  C14  1  0.04364800  0.18752900  0.09527200  1
  C  C15  1  0.53596800  0.61835400  0.11171700  1
  C  C16  1  0.96403200  0.11835400  0.38828300  1
  C  C17  1  0.03596800  0.38164600  0.88828300  1
  C  C18  1  0.75000000  0.62318900  0.63825000  1
  C  C19  1  0.25000000  0.37681100  0.36175000  1
  C  C20  1  0.46403200  0.88164600  0.61171700  1
  C  C21  1  0.46403200  0.38164600  0.88828300  1
  C  C22  1  0.25000000  0.61595900  0.62351700  1
  C  C23  1  0.25000000  0.87681100  0.13825000  1
  C  C24  1  0.25000000  0.11636200  0.25936200  1
  C  C25  1  0.25000000  0.61636200  0.24063800  1
  C  C26  1  0.75000000  0.88363800  0.74063800  1
  C  C27  1  0.25000000  0.33607900  0.72280000  1
  C  C28  1  0.75000000  0.66392100  0.27720000  1
  C  C29  1  0.25000000  0.83607900  0.77720000  1
  C  C30  1  0.75000000  0.16392100  0.22280000  1
  C  C31  1  0.75000000  0.38363800  0.75936200  1
  Ni  Ni32  1  0.25000000  0.38193000  0.59699600  1
  Ni  Ni33  1  0.41863800  0.02788900  0.22946100  1
  Ni  Ni34  1  0.98997400  0.65763400  0.56839300  1
  Ni  Ni35  1  0.51002600  0.65763400  0.56839300  1
  Ni  Ni36  1  0.75000000  0.72949600  0.80136200  1
  Ni  Ni37  1  0.75000000  0.11807000  0.09699600  1
  Ni  Ni38  1  0.91045100  0.76134300  0.24564400  1
  Ni  Ni39  1  0.25000000  0.47946200  0.79289300  1
  Ni  Ni40  1  0.48997400  0.34236600  0.43160700  1
  Ni  Ni41  1  0.08136200  0.52788900  0.27053900  1
  Ni  Ni42  1  0.25000000  0.64442400  0.11154900  1
  Ni  Ni43  1  0.25000000  0.14442400  0.38845100  1
  Ni  Ni44  1  0.01002600  0.34236600  0.43160700  1
  Ni  Ni45  1  0.41045100  0.23865700  0.75435600  1
  Ni  Ni46  1  0.08954900  0.73865700  0.74564400  1
  Ni  Ni47  1  0.75000000  0.52053800  0.20710700  1
  Ni  Ni48  1  0.75000000  0.85557600  0.61154900  1
  Ni  Ni49  1  0.08136200  0.02788900  0.22946100  1
  Ni  Ni50  1  0.75000000  0.68610200  0.02859500  1
  Ni  Ni51  1  0.25000000  0.97946200  0.70710700  1
  Ni  Ni52  1  0.41863800  0.52788900  0.27053900  1
  Ni  Ni53  1  0.58954900  0.26134300  0.25435600  1
  Ni  Ni54  1  0.58954900  0.76134300  0.24564400  1
  Ni  Ni55  1  0.58136200  0.47211100  0.72946100  1
  Ni  Ni56  1  0.25000000  0.56341800  0.45286400  1
  Ni  Ni57  1  0.75000000  0.18610200  0.47140500  1
  Ni  Ni58  1  0.08954900  0.23865700  0.75435600  1
  Ni  Ni59  1  0.75000000  0.93658200  0.95286400  1
  Ni  Ni60  1  0.75000000  0.35557600  0.88845100  1
  Ni  Ni61  1  0.48997400  0.84236600  0.06839300  1
  Ni  Ni62  1  0.41045100  0.73865700  0.74564400  1
  Ni  Ni63  1  0.25000000  0.27050400  0.19863800  1
  Ni  Ni64  1  0.75000000  0.02053800  0.29289300  1
  Ni  Ni65  1  0.75000000  0.43658200  0.54713600  1
  Ni  Ni66  1  0.98997400  0.15763400  0.93160700  1
  Ni  Ni67  1  0.25000000  0.81389800  0.52859500  1
  Ni  Ni68  1  0.75000000  0.61807000  0.40300400  1
  Ni  Ni69  1  0.25000000  0.31389800  0.97140500  1
  Ni  Ni70  1  0.01002600  0.84236600  0.06839300  1
  Ni  Ni71  1  0.91863800  0.97211100  0.77053900  1
  Ni  Ni72  1  0.58136200  0.97211100  0.77053900  1
  Ni  Ni73  1  0.91863800  0.47211100  0.72946100  1
  Ni  Ni74  1  0.25000000  0.06341800  0.04713600  1
  Ni  Ni75  1  0.75000000  0.22949600  0.69863800  1
  Ni  Ni76  1  0.25000000  0.77050400  0.30136200  1
  Ni  Ni77  1  0.25000000  0.88193000  0.90300400  1
  Ni  Ni78  1  0.51002600  0.15763400  0.93160700  1
  Ni  Ni79  1  0.91045100  0.26134300  0.25435600  1
  Cu  Cu80  1  0.45719500  0.10351200  0.56003200  1
  Cu  Cu81  1  0.45719500  0.60351200  0.93996800  1
  Cu  Cu82  1  0.95719500  0.39648800  0.06003200  1
  Cu  Cu83  1  0.04280500  0.60351200  0.93996800  1
  Cu  Cu84  1  0.95719500  0.89648800  0.43996800  1
  Cu  Cu85  1  0.54280500  0.89648800  0.43996800  1
  Cu  Cu86  1  0.54280500  0.39648800  0.06003200  1
  Cu  Cu87  1  0.04280500  0.10351200  0.56003200  1
