# generated using pymatgen
data_Cu2NiC7
_symmetry_space_group_name_H-M   'P 1'
_cell_length_a   7.81037200
_cell_length_b   11.86578700
_cell_length_c   13.33657800
_cell_angle_alpha   90.00000000
_cell_angle_beta   90.00000000
_cell_angle_gamma   90.00000000
_symmetry_Int_Tables_number   1
_chemical_formula_structural   Cu2NiC7
_chemical_formula_sum   'Cu16 Ni8 C56'
_cell_volume   1235.98351065
_cell_formula_units_Z   8
loop_
 _symmetry_equiv_pos_site_id
 _symmetry_equiv_pos_as_xyz
  1  'x, y, z'
loop_
 _atom_site_type_symbol
 _atom_site_label
 _atom_site_symmetry_multiplicity
 _atom_site_fract_x
 _atom_site_fract_y
 _atom_site_fract_z
 _atom_site_occupancy
  Ni  Ni0  1  0.25000000  0.91500500  0.90511500  1
  Ni  Ni1  1  0.75000000  0.43426400  0.06773000  1
  Ni  Ni2  1  0.75000000  0.58499500  0.40511500  1
  Ni  Ni3  1  0.25000000  0.41500500  0.59488500  1
  Ni  Ni4  1  0.25000000  0.56573600  0.93227000  1
  Ni  Ni5  1  0.25000000  0.06573600  0.56773000  1
  Ni  Ni6  1  0.75000000  0.93426400  0.43227000  1
  Ni  Ni7  1  0.75000000  0.08499500  0.09488500  1
  Cu  Cu8  1  0.47641300  0.74378700  0.66258100  1
  Cu  Cu9  1  0.25000000  0.50672300  0.24141400  1
  Cu  Cu10  1  0.75000000  0.49327700  0.75858600  1
  Cu  Cu11  1  0.97641300  0.25621300  0.33741900  1
  Cu  Cu12  1  0.25000000  0.20995700  0.06293700  1
  Cu  Cu13  1  0.75000000  0.99327700  0.74141400  1
  Cu  Cu14  1  0.52358700  0.25621300  0.33741900  1
  Cu  Cu15  1  0.52358700  0.75621300  0.16258100  1
  Cu  Cu16  1  0.75000000  0.29004300  0.56293700  1
  Cu  Cu17  1  0.75000000  0.79004300  0.93706300  1
  Cu  Cu18  1  0.25000000  0.70995700  0.43706300  1
  Cu  Cu19  1  0.47641300  0.24378700  0.83741900  1
  Cu  Cu20  1  0.25000000  0.00672300  0.25858600  1
  Cu  Cu21  1  0.02358700  0.24378700  0.83741900  1
  Cu  Cu22  1  0.97641300  0.75621300  0.16258100  1
  Cu  Cu23  1  0.02358700  0.74378700  0.66258100  1
  C  C24  1  0.98532600  0.21860400  0.00233100  1
  C  C25  1  0.99570100  0.92587700  0.23182700  1
  C  C26  1  0.75000000  0.86639000  0.09527100  1
  C  C27  1  0.75000000  0.19202600  0.83885100  1
  C  C28  1  0.91898200  0.33028200  0.69867100  1
  C  C29  1  0.75000000  0.24211700  0.23528200  1
  C  C30  1  0.42065000  0.58785100  0.12318400  1
  C  C31  1  0.57935000  0.41214900  0.87681600  1
  C  C32  1  0.75000000  0.74211700  0.26471800  1
  C  C33  1  0.49570100  0.57412300  0.73182700  1
  C  C34  1  0.07935000  0.08785100  0.37681600  1
  C  C35  1  0.75000000  0.97358100  0.91084000  1
  C  C36  1  0.51467400  0.21860400  0.00233100  1
  C  C37  1  0.42065000  0.08785100  0.37681600  1
  C  C38  1  0.91898200  0.83028200  0.80132900  1
  C  C39  1  0.01467400  0.28139600  0.50233100  1
  C  C40  1  0.25000000  0.02641900  0.08916000  1
  C  C41  1  0.75000000  0.12384700  0.62543500  1
  C  C42  1  0.25000000  0.80797400  0.16114900  1
  C  C43  1  0.51467400  0.71860400  0.49766900  1
  C  C44  1  0.25000000  0.33679700  0.91998100  1
  C  C45  1  0.25000000  0.63361000  0.59527100  1
  C  C46  1  0.58101800  0.83028200  0.80132900  1
  C  C47  1  0.98532600  0.71860400  0.49766900  1
  C  C48  1  0.41898200  0.66971800  0.30132900  1
  C  C49  1  0.50429900  0.92587700  0.23182700  1
  C  C50  1  0.01467400  0.78139600  0.99766900  1
  C  C51  1  0.48532600  0.28139600  0.50233100  1
  C  C52  1  0.75000000  0.66320300  0.08001900  1
  C  C53  1  0.75000000  0.36639000  0.40472900  1
  C  C54  1  0.48532600  0.78139600  0.99766900  1
  C  C55  1  0.25000000  0.52641900  0.41084000  1
  C  C56  1  0.92065000  0.91214900  0.62318400  1
  C  C57  1  0.08101800  0.66971800  0.30132900  1
  C  C58  1  0.75000000  0.16320300  0.41998100  1
  C  C59  1  0.25000000  0.83679700  0.58001900  1
  C  C60  1  0.25000000  0.75788300  0.76471800  1
  C  C61  1  0.25000000  0.30797400  0.33885100  1
  C  C62  1  0.75000000  0.69202600  0.66114900  1
  C  C63  1  0.25000000  0.13361000  0.90472900  1
  C  C64  1  0.99570100  0.42587700  0.26817300  1
  C  C65  1  0.08101800  0.16971800  0.19867100  1
  C  C66  1  0.41898200  0.16971800  0.19867100  1
  C  C67  1  0.00429900  0.57412300  0.73182700  1
  C  C68  1  0.25000000  0.87615300  0.37456500  1
  C  C69  1  0.07935000  0.58785100  0.12318400  1
  C  C70  1  0.25000000  0.37615300  0.12543500  1
  C  C71  1  0.92065000  0.41214900  0.87681600  1
  C  C72  1  0.50429900  0.42587700  0.26817300  1
  C  C73  1  0.25000000  0.25788300  0.73528200  1
  C  C74  1  0.00429900  0.07412300  0.76817300  1
  C  C75  1  0.49570100  0.07412300  0.76817300  1
  C  C76  1  0.58101800  0.33028200  0.69867100  1
  C  C77  1  0.75000000  0.62384700  0.87456500  1
  C  C78  1  0.57935000  0.91214900  0.62318400  1
  C  C79  1  0.75000000  0.47358100  0.58916000  1
