# generated using pymatgen
data_Cu2Ni3C20
_symmetry_space_group_name_H-M   'P 1'
_cell_length_a   10.42252000
_cell_length_b   12.76390200
_cell_length_c   19.44652400
_cell_angle_alpha   90.00000000
_cell_angle_beta   90.00000000
_cell_angle_gamma   90.00000000
_symmetry_Int_Tables_number   1
_chemical_formula_structural   Cu2Ni3C20
_chemical_formula_sum   'Cu8 Ni12 C80'
_cell_volume   2587.01044502
_cell_formula_units_Z   4
loop_
 _symmetry_equiv_pos_site_id
 _symmetry_equiv_pos_as_xyz
  1  'x, y, z'
loop_
 _atom_site_type_symbol
 _atom_site_label
 _atom_site_symmetry_multiplicity
 _atom_site_fract_x
 _atom_site_fract_y
 _atom_site_fract_z
 _atom_site_occupancy
  Ni  Ni0  1  0.21045800  0.60824200  0.22723300  1
  Ni  Ni1  1  0.11691500  0.25000000  0.00000000  1
  Ni  Ni2  1  0.61691500  0.25000000  0.50000000  1
  Ni  Ni3  1  0.21045800  0.89175800  0.77276700  1
  Ni  Ni4  1  0.28954200  0.10824200  0.27276700  1
  Ni  Ni5  1  0.28954200  0.39175800  0.72723300  1
  Ni  Ni6  1  0.71045800  0.60824200  0.27276700  1
  Ni  Ni7  1  0.71045800  0.89175800  0.72723300  1
  Ni  Ni8  1  0.38308500  0.75000000  0.50000000  1
  Ni  Ni9  1  0.88308500  0.75000000  0.00000000  1
  Ni  Ni10  1  0.78954200  0.10824200  0.22723300  1
  Ni  Ni11  1  0.78954200  0.39175800  0.77276700  1
  Cu  Cu12  1  0.62858100  0.38739200  0.07346200  1
  Cu  Cu13  1  0.87141900  0.88739200  0.42653800  1
  Cu  Cu14  1  0.12858100  0.38739200  0.42653800  1
  Cu  Cu15  1  0.37141900  0.61260800  0.92653800  1
  Cu  Cu16  1  0.62858100  0.11260800  0.92653800  1
  Cu  Cu17  1  0.12858100  0.11260800  0.57346200  1
  Cu  Cu18  1  0.37141900  0.88739200  0.07346200  1
  Cu  Cu19  1  0.87141900  0.61260800  0.57346200  1
  C  C20  1  0.99581600  0.13983200  0.39788800  1
  C  C21  1  0.43699700  0.04849800  0.63100000  1
  C  C22  1  0.06300300  0.95150200  0.13100000  1
  C  C23  1  0.49581600  0.13983200  0.10211200  1
  C  C24  1  0.93699700  0.45150200  0.13100000  1
  C  C25  1  0.00418400  0.86016800  0.60211200  1
  C  C26  1  0.49581600  0.36016800  0.89788800  1
  C  C27  1  0.06300300  0.54849800  0.86900000  1
  C  C28  1  0.50418400  0.63983200  0.10211200  1
  C  C29  1  0.56300300  0.95150200  0.36900000  1
  C  C30  1  0.43699700  0.45150200  0.36900000  1
  C  C31  1  0.99581600  0.36016800  0.60211200  1
  C  C32  1  0.00418400  0.63983200  0.39788800  1
  C  C33  1  0.93699700  0.04849800  0.86900000  1
  C  C34  1  0.50418400  0.86016800  0.89788800  1
  C  C35  1  0.56300300  0.54849800  0.63100000  1
  C  C36  1  0.99553300  0.51443900  0.33312600  1
  C  C37  1  0.67951500  0.16945300  0.06801300  1
  C  C38  1  0.38849900  0.09870400  0.01677100  1
  C  C39  1  0.11449000  0.10569900  0.85029500  1
  C  C40  1  0.38551000  0.89430100  0.35029500  1
  C  C41  1  0.11150100  0.59870400  0.48322900  1
  C  C42  1  0.61449000  0.10569900  0.64970500  1
  C  C43  1  0.56932700  0.38799600  0.64704800  1
  C  C44  1  0.61150100  0.59870400  0.01677100  1
  C  C45  1  0.82048500  0.66945300  0.43198700  1
  C  C46  1  0.29124000  0.38666000  0.30883900  1
  C  C47  1  0.00446700  0.48556100  0.66687400  1
  C  C48  1  0.93067300  0.61200400  0.14704800  1
  C  C49  1  0.12014300  0.91449000  0.03259900  1
  C  C50  1  0.70876000  0.61334000  0.69116100  1
  C  C51  1  0.79124000  0.38666000  0.19116100  1
  C  C52  1  0.87985700  0.08551000  0.96740100  1
  C  C53  1  0.56421000  0.76986200  0.15103500  1
  C  C54  1  0.79124000  0.11334000  0.80883900  1
  C  C55  1  0.93579000  0.23013800  0.65103500  1
  C  C56  1  0.38849900  0.40129600  0.98322900  1
  C  C57  1  0.29124000  0.11334000  0.69116100  1
  C  C58  1  0.88551000  0.60569900  0.85029500  1
  C  C59  1  0.88849900  0.40129600  0.51677100  1
  C  C60  1  0.99553300  0.98556100  0.66687400  1
  C  C61  1  0.49553300  0.51443900  0.16687400  1
  C  C62  1  0.88551000  0.89430100  0.14970500  1
  C  C63  1  0.17951500  0.16945300  0.43198700  1
  C  C64  1  0.43579000  0.26986200  0.15103500  1
  C  C65  1  0.37985700  0.08551000  0.53259900  1
  C  C66  1  0.00446700  0.01443900  0.33312600  1
  C  C67  1  0.43579000  0.23013800  0.84896500  1
  C  C68  1  0.61449000  0.39430100  0.35029500  1
  C  C69  1  0.87985700  0.41449000  0.03259900  1
  C  C70  1  0.20876000  0.88666000  0.19116100  1
  C  C71  1  0.62014300  0.91449000  0.46740100  1
  C  C72  1  0.62014300  0.58551000  0.53259900  1
  C  C73  1  0.50446700  0.01443900  0.16687400  1
  C  C74  1  0.11449000  0.39430100  0.14970500  1
  C  C75  1  0.88849900  0.09870400  0.48322900  1
  C  C76  1  0.37985700  0.41449000  0.46740100  1
  C  C77  1  0.06932700  0.38799600  0.85295200  1
  C  C78  1  0.06932700  0.11200400  0.14704800  1
  C  C79  1  0.56421000  0.73013800  0.84896500  1
  C  C80  1  0.93067300  0.88799600  0.85295200  1
  C  C81  1  0.49553300  0.98556100  0.83312600  1
  C  C82  1  0.50446700  0.48556100  0.83312600  1
  C  C83  1  0.43067300  0.88799600  0.64704800  1
  C  C84  1  0.61150100  0.90129600  0.98322900  1
  C  C85  1  0.32048500  0.66945300  0.06801300  1
  C  C86  1  0.06421000  0.76986200  0.34896500  1
  C  C87  1  0.38551000  0.60569900  0.64970500  1
  C  C88  1  0.43067300  0.61200400  0.35295200  1
  C  C89  1  0.82048500  0.83054700  0.56801300  1
  C  C90  1  0.32048500  0.83054700  0.93198700  1
  C  C91  1  0.17951500  0.33054700  0.56801300  1
  C  C92  1  0.12014300  0.58551000  0.96740100  1
  C  C93  1  0.06421000  0.73013800  0.65103500  1
  C  C94  1  0.93579000  0.26986200  0.34896500  1
  C  C95  1  0.67951500  0.33054700  0.93198700  1
  C  C96  1  0.20876000  0.61334000  0.80883900  1
  C  C97  1  0.70876000  0.88666000  0.30883900  1
  C  C98  1  0.56932700  0.11200400  0.35295200  1
  C  C99  1  0.11150100  0.90129600  0.51677100  1
