# generated using pymatgen
data_Cu4NiC
_symmetry_space_group_name_H-M   'P 1'
_cell_length_a   11.73639300
_cell_length_b   9.45279600
_cell_length_c   20.80231633
_cell_angle_alpha   77.20587749
_cell_angle_beta   90.00000000
_cell_angle_gamma   90.00000000
_symmetry_Int_Tables_number   1
_chemical_formula_structural   Cu4NiC
_chemical_formula_sum   'Cu80 Ni20 C20'
_cell_volume   2250.54593797
_cell_formula_units_Z   20
loop_
 _symmetry_equiv_pos_site_id
 _symmetry_equiv_pos_as_xyz
  1  'x, y, z'
loop_
 _atom_site_type_symbol
 _atom_site_label
 _atom_site_symmetry_multiplicity
 _atom_site_fract_x
 _atom_site_fract_y
 _atom_site_fract_z
 _atom_site_occupancy
  C  C0  1  0.86749200  0.30225900  0.95838200  1
  C  C1  1  0.53089400  0.47176800  0.76826300  1
  C  C2  1  0.86633300  0.78554200  0.46159100  1
  C  C3  1  0.13366700  0.21445800  0.53840900  1
  C  C4  1  0.03089400  0.52823200  0.73173700  1
  C  C5  1  0.46910600  0.52823200  0.23173700  1
  C  C6  1  0.13250800  0.69774100  0.04161800  1
  C  C7  1  0.74153300  0.98034400  0.20668200  1
  C  C8  1  0.24153300  0.01965600  0.29331800  1
  C  C9  1  0.63250800  0.30225900  0.45838200  1
  C  C10  1  0.36633300  0.21445800  0.03840900  1
  C  C11  1  0.63366700  0.78554200  0.96159100  1
  C  C12  1  0.96910600  0.47176800  0.26826300  1
  C  C13  1  0.25846700  0.01965600  0.79331800  1
  C  C14  1  0.75846700  0.98034400  0.70668200  1
  C  C15  1  0.36749200  0.69774100  0.54161800  1
  C  C16  1  0.33558100  0.32956300  0.65864900  1
  C  C17  1  0.16441900  0.32956300  0.15864900  1
  C  C18  1  0.83558100  0.67043700  0.84135100  1
  C  C19  1  0.66441900  0.67043700  0.34135100  1
  Ni  Ni20  1  0.35504600  0.50679400  0.59345300  1
  Ni  Ni21  1  0.59898300  0.56802700  0.27711600  1
  Ni  Ni22  1  0.73478100  0.79638400  0.26618900  1
  Ni  Ni23  1  0.78256700  0.72430000  0.39472500  1
  Ni  Ni24  1  0.85504600  0.49320600  0.90654700  1
  Ni  Ni25  1  0.76521900  0.79638400  0.76618900  1
  Ni  Ni26  1  0.90101700  0.56802700  0.77711600  1
  Ni  Ni27  1  0.09898300  0.43197300  0.22288400  1
  Ni  Ni28  1  0.64495400  0.49320600  0.40654700  1
  Ni  Ni29  1  0.44725800  0.23073100  0.64266900  1
  Ni  Ni30  1  0.14495400  0.50679400  0.09345300  1
  Ni  Ni31  1  0.40101700  0.43197300  0.72288400  1
  Ni  Ni32  1  0.26521900  0.20361600  0.73381100  1
  Ni  Ni33  1  0.05274200  0.23073100  0.14266900  1
  Ni  Ni34  1  0.21743300  0.27570000  0.60527500  1
  Ni  Ni35  1  0.71743300  0.72430000  0.89472500  1
  Ni  Ni36  1  0.28256700  0.27570000  0.10527500  1
  Ni  Ni37  1  0.55274200  0.76926900  0.35733100  1
  Ni  Ni38  1  0.23478100  0.20361600  0.23381100  1
  Ni  Ni39  1  0.94725800  0.76926900  0.85733100  1
  Cu  Cu40  1  0.05024900  0.44766800  0.34707700  1
  Cu  Cu41  1  0.24847400  0.84011400  0.85265000  1
  Cu  Cu42  1  0.37827300  0.62235300  0.46593800  1
  Cu  Cu43  1  0.87547900  0.50054900  0.19354800  1
  Cu  Cu44  1  0.69748900  0.07580100  0.27260200  1
  Cu  Cu45  1  0.52600000  0.68867200  0.55061400  1
  Cu  Cu46  1  0.35743600  0.77737000  0.61613200  1
  Cu  Cu47  1  0.37547900  0.49945100  0.30645200  1
  Cu  Cu48  1  0.55024900  0.55233200  0.15292300  1
  Cu  Cu49  1  0.12767200  0.02573000  0.59017300  1
  Cu  Cu50  1  0.63880900  0.59764100  0.01434500  1
  Cu  Cu51  1  0.29068000  0.71221000  0.03157800  1
  Cu  Cu52  1  0.11777700  0.88431300  0.98887300  1
  Cu  Cu53  1  0.61777700  0.11568700  0.51112700  1
  Cu  Cu54  1  0.58873600  0.96759400  0.18290600  1
  Cu  Cu55  1  0.95009300  0.84538700  0.52710900  1
  Cu  Cu56  1  0.66071400  0.51356000  0.81615900  1
  Cu  Cu57  1  0.91126400  0.96759400  0.68290600  1
  Cu  Cu58  1  0.41126400  0.03240600  0.81709400  1
  Cu  Cu59  1  0.08873600  0.03240600  0.31709400  1
  Cu  Cu60  1  0.54990700  0.84538700  0.02710900  1
  Cu  Cu61  1  0.14256400  0.77737000  0.11613200  1
  Cu  Cu62  1  0.25152600  0.84011400  0.35265000  1
  Cu  Cu63  1  0.71475000  0.88898300  0.63962400  1
  Cu  Cu64  1  0.49810600  0.67001700  0.74993200  1
  Cu  Cu65  1  0.88222300  0.11568700  0.01112700  1
  Cu  Cu66  1  0.16071400  0.48644000  0.68384100  1
  Cu  Cu67  1  0.76796500  0.83217000  0.00053600  1
  Cu  Cu68  1  0.30251100  0.92419900  0.72739800  1
  Cu  Cu69  1  0.62452100  0.50054900  0.69354800  1
  Cu  Cu70  1  0.12452100  0.49945100  0.80645200  1
  Cu  Cu71  1  0.07769800  0.72200600  0.70893500  1
  Cu  Cu72  1  0.47400000  0.31132800  0.44938600  1
  Cu  Cu73  1  0.87232800  0.97427000  0.40982700  1
  Cu  Cu74  1  0.44975100  0.44766800  0.84707700  1
  Cu  Cu75  1  0.85743600  0.22263000  0.88386800  1
  Cu  Cu76  1  0.80251100  0.07580100  0.77260200  1
  Cu  Cu77  1  0.75152600  0.15988600  0.14735000  1
  Cu  Cu78  1  0.20932000  0.71221000  0.53157800  1
  Cu  Cu79  1  0.04990700  0.15461300  0.47289100  1
  Cu  Cu80  1  0.87827300  0.37764700  0.03406200  1
  Cu  Cu81  1  0.99810600  0.32998300  0.75006800  1
  Cu  Cu82  1  0.02600000  0.31132800  0.94938600  1
  Cu  Cu83  1  0.73203500  0.83217000  0.50053600  1
  Cu  Cu84  1  0.83928600  0.51356000  0.31615900  1
  Cu  Cu85  1  0.74847400  0.15988600  0.64735000  1
  Cu  Cu86  1  0.10548200  0.00239700  0.77129800  1
  Cu  Cu87  1  0.97400000  0.68867200  0.05061400  1
  Cu  Cu88  1  0.94975100  0.55233200  0.65292300  1
  Cu  Cu89  1  0.45009300  0.15461300  0.97289100  1
  Cu  Cu90  1  0.23203500  0.16783000  0.99946400  1
  Cu  Cu91  1  0.38222300  0.88431300  0.48887300  1
  Cu  Cu92  1  0.26796500  0.16783000  0.49946400  1
  Cu  Cu93  1  0.33928600  0.48644000  0.18384100  1
  Cu  Cu94  1  0.42230200  0.72200600  0.20893500  1
  Cu  Cu95  1  0.19748900  0.92419900  0.22739800  1
  Cu  Cu96  1  0.89451800  0.99760300  0.22870200  1
  Cu  Cu97  1  0.86119100  0.59764100  0.51434500  1
  Cu  Cu98  1  0.00189400  0.67001700  0.24993200  1
  Cu  Cu99  1  0.49768600  0.74070100  0.92385800  1
  Cu  Cu100  1  0.79068000  0.28779000  0.46842200  1
  Cu  Cu101  1  0.50189400  0.32998300  0.25006800  1
  Cu  Cu102  1  0.57769800  0.27799400  0.79106500  1
  Cu  Cu103  1  0.92230200  0.27799400  0.29106500  1
  Cu  Cu104  1  0.37232800  0.02573000  0.09017300  1
  Cu  Cu105  1  0.64256400  0.22263000  0.38386800  1
  Cu  Cu106  1  0.13880900  0.40235900  0.48565500  1
  Cu  Cu107  1  0.99768600  0.25929900  0.57614200  1
  Cu  Cu108  1  0.62172700  0.37764700  0.53406200  1
  Cu  Cu109  1  0.21475000  0.11101700  0.86037600  1
  Cu  Cu110  1  0.28525000  0.11101700  0.36037600  1
  Cu  Cu111  1  0.36119100  0.40235900  0.98565500  1
  Cu  Cu112  1  0.12172700  0.62235300  0.96593800  1
  Cu  Cu113  1  0.00231400  0.74070100  0.42385800  1
  Cu  Cu114  1  0.60548200  0.99760300  0.72870200  1
  Cu  Cu115  1  0.70932000  0.28779000  0.96842200  1
  Cu  Cu116  1  0.50231400  0.25929900  0.07614200  1
  Cu  Cu117  1  0.78525000  0.88898300  0.13962400  1
  Cu  Cu118  1  0.62767200  0.97427000  0.90982700  1
  Cu  Cu119  1  0.39451800  0.00239700  0.27129800  1
