# generated using pymatgen
data_CuNiC
_symmetry_space_group_name_H-M   'P 1'
_cell_length_a   10.36980685
_cell_length_b   10.36980685
_cell_length_c   13.88256696
_cell_angle_alpha   75.13750946
_cell_angle_beta   75.13750946
_cell_angle_gamma   53.48630272
_symmetry_Int_Tables_number   1
_chemical_formula_structural   CuNiC
_chemical_formula_sum   'Cu16 Ni16 C16'
_cell_volume   1149.25563135
_cell_formula_units_Z   16
loop_
 _symmetry_equiv_pos_site_id
 _symmetry_equiv_pos_as_xyz
  1  'x, y, z'
loop_
 _atom_site_type_symbol
 _atom_site_label
 _atom_site_symmetry_multiplicity
 _atom_site_fract_x
 _atom_site_fract_y
 _atom_site_fract_z
 _atom_site_occupancy
  C  C0  1  0.42230800  0.22790800  0.98269500  1
  C  C1  1  0.77209200  0.57769200  0.51730500  1
  C  C2  1  0.22790800  0.42230800  0.48269500  1
  C  C3  1  0.48383700  0.01064100  0.31629000  1
  C  C4  1  0.57769200  0.77209200  0.01730500  1
  C  C5  1  0.51616300  0.98935900  0.68371000  1
  C  C6  1  0.98935900  0.51616300  0.18371000  1
  C  C7  1  0.01064100  0.48383700  0.81629000  1
  C  C8  1  0.51300700  0.48699300  0.75000000  1
  C  C9  1  0.13523900  0.83218400  0.57698300  1
  C  C10  1  0.86476100  0.16781600  0.42301700  1
  C  C11  1  0.83218400  0.13523900  0.07698300  1
  C  C12  1  0.09971800  0.90028200  0.25000000  1
  C  C13  1  0.48699300  0.51300700  0.25000000  1
  C  C14  1  0.90028200  0.09971800  0.75000000  1
  C  C15  1  0.16781600  0.86476100  0.92301700  1
  Ni  Ni16  1  0.60083700  0.58429200  0.79484700  1
  Ni  Ni17  1  0.02293800  0.22500600  0.40467400  1
  Ni  Ni18  1  0.58429200  0.60083700  0.29484700  1
  Ni  Ni19  1  0.31448000  0.86063400  0.55815300  1
  Ni  Ni20  1  0.00301000  0.21940000  0.68773200  1
  Ni  Ni21  1  0.13936600  0.68552000  0.94184700  1
  Ni  Ni22  1  0.97706200  0.77499400  0.59532600  1
  Ni  Ni23  1  0.86063400  0.31448000  0.05815300  1
  Ni  Ni24  1  0.21940000  0.00301000  0.18773200  1
  Ni  Ni25  1  0.68552000  0.13936600  0.44184700  1
  Ni  Ni26  1  0.41570800  0.39916300  0.70515300  1
  Ni  Ni27  1  0.99699000  0.78060000  0.31226800  1
  Ni  Ni28  1  0.22500600  0.02293800  0.90467400  1
  Ni  Ni29  1  0.77499400  0.97706200  0.09532600  1
  Ni  Ni30  1  0.39916300  0.41570800  0.20515300  1
  Ni  Ni31  1  0.78060000  0.99699000  0.81226800  1
  Cu  Cu32  1  0.73026400  0.89278100  0.10605400  1
  Cu  Cu33  1  0.29785700  0.05483600  0.15039300  1
  Cu  Cu34  1  0.64579500  0.64908900  0.32085900  1
  Cu  Cu35  1  0.89278100  0.73026400  0.60605400  1
  Cu  Cu36  1  0.35091100  0.35420500  0.17914100  1
  Cu  Cu37  1  0.64908900  0.64579500  0.82085900  1
  Cu  Cu38  1  0.86714000  0.42673400  0.04747100  1
  Cu  Cu39  1  0.42673400  0.86714000  0.54747100  1
  Cu  Cu40  1  0.57326600  0.13286000  0.45252900  1
  Cu  Cu41  1  0.26973600  0.10721900  0.89394600  1
  Cu  Cu42  1  0.70214300  0.94516400  0.84960700  1
  Cu  Cu43  1  0.10721900  0.26973600  0.39394600  1
  Cu  Cu44  1  0.35420500  0.35091100  0.67914100  1
  Cu  Cu45  1  0.94516400  0.70214300  0.34960700  1
  Cu  Cu46  1  0.05483600  0.29785700  0.65039300  1
  Cu  Cu47  1  0.13286000  0.57326600  0.95252900  1
