# generated using pymatgen
data_Cu2Ni4C9
_symmetry_space_group_name_H-M   'P 1'
_cell_length_a   9.70138100
_cell_length_b   7.52412300
_cell_length_c   14.92559846
_cell_angle_alpha   69.34321205
_cell_angle_beta   90.00000000
_cell_angle_gamma   90.00000000
_symmetry_Int_Tables_number   1
_chemical_formula_structural   Cu2Ni4C9
_chemical_formula_sum   'Cu8 Ni16 C36'
_cell_volume   1019.44226653
_cell_formula_units_Z   4
loop_
 _symmetry_equiv_pos_site_id
 _symmetry_equiv_pos_as_xyz
  1  'x, y, z'
loop_
 _atom_site_type_symbol
 _atom_site_label
 _atom_site_symmetry_multiplicity
 _atom_site_fract_x
 _atom_site_fract_y
 _atom_site_fract_z
 _atom_site_occupancy
  Ni  Ni0  1  0.97999500  0.34699200  0.38253000  1
  Ni  Ni1  1  0.83785900  0.64359100  0.90589100  1
  Ni  Ni2  1  0.12065600  0.83229600  0.17181300  1
  Ni  Ni3  1  0.16214100  0.35640900  0.09410900  1
  Ni  Ni4  1  0.52000500  0.34699200  0.88253000  1
  Ni  Ni5  1  0.47999500  0.65300800  0.11747000  1
  Ni  Ni6  1  0.33785900  0.35640900  0.59410900  1
  Ni  Ni7  1  0.17923200  0.90067300  0.89645200  1
  Ni  Ni8  1  0.87934400  0.16770400  0.82818700  1
  Ni  Ni9  1  0.82076800  0.09932700  0.10354800  1
  Ni  Ni10  1  0.37934400  0.83229600  0.67181300  1
  Ni  Ni11  1  0.62065600  0.16770400  0.32818700  1
  Ni  Ni12  1  0.66214100  0.64359100  0.40589100  1
  Ni  Ni13  1  0.67923200  0.09932700  0.60354800  1
  Ni  Ni14  1  0.02000500  0.65300800  0.61747000  1
  Ni  Ni15  1  0.32076800  0.90067300  0.39645200  1
  Cu  Cu16  1  0.57337800  0.92632000  0.84024200  1
  Cu  Cu17  1  0.07337800  0.07368000  0.65975800  1
  Cu  Cu18  1  0.92662200  0.92632000  0.34024200  1
  Cu  Cu19  1  0.33856900  0.40825600  0.35269300  1
  Cu  Cu20  1  0.42662200  0.07368000  0.15975800  1
  Cu  Cu21  1  0.16143100  0.40825600  0.85269300  1
  Cu  Cu22  1  0.66143100  0.59174400  0.64730700  1
  Cu  Cu23  1  0.83856900  0.59174400  0.14730700  1
  C  C24  1  0.47660900  0.79506300  0.80822000  1
  C  C25  1  0.02339100  0.79506300  0.30822000  1
  C  C26  1  0.97660900  0.20493700  0.69178000  1
  C  C27  1  0.18381700  0.42539900  0.32863800  1
  C  C28  1  0.68381700  0.57460100  0.17136200  1
  C  C29  1  0.68692800  0.01838900  0.76067500  1
  C  C30  1  0.11140000  0.19777800  0.87612800  1
  C  C31  1  0.88860000  0.80222200  0.12387200  1
  C  C32  1  0.81618300  0.57460100  0.67136200  1
  C  C33  1  0.01457600  0.07924500  0.36029600  1
  C  C34  1  0.37238800  0.47138700  0.43925700  1
  C  C35  1  0.62761200  0.52861300  0.56074300  1
  C  C36  1  0.87238800  0.52861300  0.06074300  1
  C  C37  1  0.51457600  0.92075500  0.13970400  1
  C  C38  1  0.98542400  0.92075500  0.63970400  1
  C  C39  1  0.65580500  0.80728800  0.93096200  1
  C  C40  1  0.42405700  0.53740200  0.26789400  1
  C  C41  1  0.07594300  0.53740200  0.76789400  1
  C  C42  1  0.12761200  0.47138700  0.93925700  1
  C  C43  1  0.31307200  0.98161100  0.23932500  1
  C  C44  1  0.81307200  0.01838900  0.26067500  1
  C  C45  1  0.18692800  0.98161100  0.73932500  1
  C  C46  1  0.31618300  0.42539900  0.82863800  1
  C  C47  1  0.34419500  0.19271200  0.06903800  1
  C  C48  1  0.15580500  0.19271200  0.56903800  1
  C  C49  1  0.53898700  0.88604200  0.38597800  1
  C  C50  1  0.52339100  0.20493700  0.19178000  1
  C  C51  1  0.84419500  0.80728800  0.43096200  1
  C  C52  1  0.57594300  0.46259800  0.73210600  1
  C  C53  1  0.96101300  0.88604200  0.88597800  1
  C  C54  1  0.92405700  0.46259800  0.23210600  1
  C  C55  1  0.38860000  0.19777800  0.37612800  1
  C  C56  1  0.48542400  0.07924500  0.86029600  1
  C  C57  1  0.61140000  0.80222200  0.62387200  1
  C  C58  1  0.03898700  0.11395800  0.11402200  1
  C  C59  1  0.46101300  0.11395800  0.61402200  1
