# generated using pymatgen
data_Cu5Ni
_symmetry_space_group_name_H-M   'P 1'
_cell_length_a   8.78962488
_cell_length_b   8.78962488
_cell_length_c   9.24075404
_cell_angle_alpha   61.54518196
_cell_angle_beta   61.54518196
_cell_angle_gamma   59.15504242
_symmetry_Int_Tables_number   1
_chemical_formula_structural   Cu5Ni
_chemical_formula_sum   'Cu15 Ni3'
_cell_volume   512.76780947
_cell_formula_units_Z   3
loop_
 _symmetry_equiv_pos_site_id
 _symmetry_equiv_pos_as_xyz
  1  'x, y, z'
loop_
 _atom_site_type_symbol
 _atom_site_label
 _atom_site_symmetry_multiplicity
 _atom_site_fract_x
 _atom_site_fract_y
 _atom_site_fract_z
 _atom_site_occupancy
  Ni  Ni0  1  0.26014900  0.26014900  0.22380500  1
  Ni  Ni1  1  0.73985100  0.73985100  0.77619500  1
  Ni  Ni2  1  0.50000000  0.50000000  0.50000000  1
  Cu  Cu3  1  0.33871700  0.33871700  0.57420100  1
  Cu  Cu4  1  0.63951100  0.28684700  0.69152700  1
  Cu  Cu5  1  0.14822000  0.14822000  0.47116900  1
  Cu  Cu6  1  0.53330100  0.16112300  0.16699500  1
  Cu  Cu7  1  0.66128300  0.66128300  0.42579900  1
  Cu  Cu8  1  0.71315300  0.36048900  0.30847300  1
  Cu  Cu9  1  0.28684700  0.63951100  0.69152700  1
  Cu  Cu10  1  0.80483300  0.80483300  0.91067600  1
  Cu  Cu11  1  0.46669900  0.83887700  0.83300500  1
  Cu  Cu12  1  0.19516700  0.19516700  0.08932400  1
  Cu  Cu13  1  0.85178000  0.85178000  0.52883100  1
  Cu  Cu14  1  0.36048900  0.71315300  0.30847300  1
  Cu  Cu15  1  0.16112300  0.53330100  0.16699500  1
  Cu  Cu16  1  0.00000000  0.00000000  0.00000000  1
  Cu  Cu17  1  0.83887700  0.46669900  0.83300500  1
