# generated using pymatgen
data_Cu2NiC2
_symmetry_space_group_name_H-M   'P 1'
_cell_length_a   4.80140634
_cell_length_b   4.80140634
_cell_length_c   7.86634900
_cell_angle_alpha   90.00000000
_cell_angle_beta   90.00000000
_cell_angle_gamma   132.10196860
_symmetry_Int_Tables_number   1
_chemical_formula_structural   Cu2NiC2
_chemical_formula_sum   'Cu4 Ni2 C4'
_cell_volume   134.55084063
_cell_formula_units_Z   2
loop_
 _symmetry_equiv_pos_site_id
 _symmetry_equiv_pos_as_xyz
  1  'x, y, z'
loop_
 _atom_site_type_symbol
 _atom_site_label
 _atom_site_symmetry_multiplicity
 _atom_site_fract_x
 _atom_site_fract_y
 _atom_site_fract_z
 _atom_site_occupancy
  C  C0  1  0.22218400  0.77781600  0.25000000  1
  C  C1  1  0.77781600  0.22218400  0.75000000  1
  Ni  Ni2  1  0.50000000  0.50000000  0.50000000  1
  Ni  Ni3  1  0.50000000  0.50000000  0.00000000  1
  Cu  Cu4  1  0.63207600  0.36792400  0.05261900  1
  Cu  Cu5  1  0.36792400  0.63207600  0.55261900  1
  Cu  Cu6  1  0.63207600  0.36792400  0.44738100  1
  Cu  Cu7  1  0.36792400  0.63207600  0.94738100  1
  C  C8  1  0.08119000  0.91881000  0.75000000  1
  C  C9  1  0.91881000  0.08119000  0.25000000  1
