# generated using pymatgen
data_CuNi3C10
_symmetry_space_group_name_H-M   'P 1'
_cell_length_a   4.06621800
_cell_length_b   11.87080600
_cell_length_c   26.94832000
_cell_angle_alpha   90.00000000
_cell_angle_beta   90.00000000
_cell_angle_gamma   90.00000000
_symmetry_Int_Tables_number   1
_chemical_formula_structural   CuNi3C10
_chemical_formula_sum   'Cu4 Ni12 C40'
_cell_volume   1300.77613921
_cell_formula_units_Z   4
loop_
 _symmetry_equiv_pos_site_id
 _symmetry_equiv_pos_as_xyz
  1  'x, y, z'
loop_
 _atom_site_type_symbol
 _atom_site_label
 _atom_site_symmetry_multiplicity
 _atom_site_fract_x
 _atom_site_fract_y
 _atom_site_fract_z
 _atom_site_occupancy
  C  C0  1  0.75000000  0.76464600  0.33085400  1
  C  C1  1  0.25000000  0.73535400  0.83085400  1
  C  C2  1  0.25000000  0.73463100  0.56549600  1
  C  C3  1  0.25000000  0.41156900  0.54043500  1
  C  C4  1  0.25000000  0.94533300  0.69070300  1
  C  C5  1  0.75000000  0.55466700  0.19070300  1
  C  C6  1  0.25000000  0.91156900  0.95956500  1
  C  C7  1  0.75000000  0.58843100  0.45956500  1
  C  C8  1  0.75000000  0.08843100  0.04043500  1
  C  C9  1  0.25000000  0.38304900  0.29473800  1
  C  C10  1  0.75000000  0.11695100  0.79473800  1
  C  C11  1  0.75000000  0.26536900  0.43450400  1
  C  C12  1  0.75000000  0.05836900  0.57382800  1
  C  C13  1  0.75000000  0.55836900  0.92617200  1
  C  C14  1  0.75000000  0.26464600  0.16914600  1
  C  C15  1  0.75000000  0.76536900  0.06549600  1
  C  C16  1  0.25000000  0.23535400  0.66914600  1
  C  C17  1  0.25000000  0.23463100  0.93450400  1
  C  C18  1  0.25000000  0.88304900  0.20526200  1
  C  C19  1  0.25000000  0.44533300  0.80929700  1
  C  C20  1  0.75000000  0.61695100  0.70526200  1
  C  C21  1  0.75000000  0.05466700  0.30929700  1
  C  C22  1  0.25000000  0.44163100  0.07382800  1
  C  C23  1  0.25000000  0.94163100  0.42617200  1
  C  C24  1  0.75000000  0.95481200  0.13472600  1
  C  C25  1  0.75000000  0.45481200  0.36527400  1
  C  C26  1  0.75000000  0.28622100  0.60374600  1
  C  C27  1  0.25000000  0.64593600  0.00722700  1
  C  C28  1  0.75000000  0.85406400  0.50722700  1
  C  C29  1  0.25000000  0.18194900  0.35909300  1
  C  C30  1  0.75000000  0.81805100  0.64090700  1
  C  C31  1  0.25000000  0.04518800  0.86527400  1
  C  C32  1  0.75000000  0.78622100  0.89625400  1
  C  C33  1  0.25000000  0.14593600  0.49277300  1
  C  C34  1  0.25000000  0.54518800  0.63472600  1
  C  C35  1  0.25000000  0.68194900  0.14090700  1
  C  C36  1  0.25000000  0.21377900  0.10374600  1
  C  C37  1  0.75000000  0.31805100  0.85909300  1
  C  C38  1  0.25000000  0.71377900  0.39625400  1
  C  C39  1  0.75000000  0.35406400  0.99277300  1
  Ni  Ni40  1  0.25000000  0.11193600  0.73963600  1
  Ni  Ni41  1  0.75000000  0.38806400  0.23963600  1
  Ni  Ni42  1  0.25000000  0.06204500  0.62378500  1
  Ni  Ni43  1  0.75000000  0.88806400  0.26036400  1
  Ni  Ni44  1  0.25000000  0.56204500  0.87621500  1
  Ni  Ni45  1  0.25000000  0.59772400  0.50951800  1
  Ni  Ni46  1  0.25000000  0.61193600  0.76036400  1
  Ni  Ni47  1  0.75000000  0.90227600  0.00951800  1
  Ni  Ni48  1  0.75000000  0.93795500  0.37621500  1
  Ni  Ni49  1  0.75000000  0.40227600  0.49048200  1
  Ni  Ni50  1  0.25000000  0.09772400  0.99048200  1
  Ni  Ni51  1  0.75000000  0.43795500  0.12378500  1
  Cu  Cu52  1  0.75000000  0.36790500  0.73279100  1
  Cu  Cu53  1  0.25000000  0.13209500  0.23279100  1
  Cu  Cu54  1  0.75000000  0.86790500  0.76720900  1
  Cu  Cu55  1  0.25000000  0.63209500  0.26720900  1
