# generated using pymatgen
data_Cu7Ni4C27
_symmetry_space_group_name_H-M   'P 1'
_cell_length_a   18.57689500
_cell_length_b   6.31748400
_cell_length_c   6.38107669
_cell_angle_alpha   88.11591712
_cell_angle_beta   90.00000000
_cell_angle_gamma   90.00000000
_symmetry_Int_Tables_number   1
_chemical_formula_structural   Cu7Ni4C27
_chemical_formula_sum   'Cu14 Ni8 C54'
_cell_volume   748.47343816
_cell_formula_units_Z   2
loop_
 _symmetry_equiv_pos_site_id
 _symmetry_equiv_pos_as_xyz
  1  'x, y, z'
loop_
 _atom_site_type_symbol
 _atom_site_label
 _atom_site_symmetry_multiplicity
 _atom_site_fract_x
 _atom_site_fract_y
 _atom_site_fract_z
 _atom_site_occupancy
  C  C0  1  0.50000000  0.50000000  0.50000000  1
  C  C1  1  0.00000000  0.50000000  0.50000000  1
  C  C2  1  0.68464900  0.79521200  0.11633800  1
  C  C3  1  0.20183800  0.85306700  0.79122300  1
  C  C4  1  0.01413600  0.14955600  0.32966100  1
  C  C5  1  0.81394500  0.75481800  0.83818000  1
  C  C6  1  0.79814700  0.07055300  0.63670800  1
  C  C7  1  0.79816200  0.14693300  0.20877700  1
  C  C8  1  0.86374900  0.97185100  0.93872600  1
  C  C9  1  0.29816200  0.85306700  0.79122300  1
  C  C10  1  0.20185300  0.92944700  0.36329200  1
  C  C11  1  0.57057400  0.18146000  0.39456900  1
  C  C12  1  0.63625100  0.97185100  0.93872600  1
  C  C13  1  0.70183800  0.14693300  0.20877700  1
  C  C14  1  0.96069000  0.30418700  0.17963300  1
  C  C15  1  0.98586400  0.85044400  0.67033900  1
  C  C16  1  0.13625100  0.02814900  0.06127400  1
  C  C17  1  0.25000000  0.66802100  0.95378300  1
  C  C18  1  0.18464900  0.20478800  0.88366200  1
  C  C19  1  0.68605500  0.75481800  0.83818000  1
  C  C20  1  0.36374900  0.02814900  0.06127400  1
  C  C21  1  0.25000000  0.70871300  0.26537100  1
  C  C22  1  0.81535100  0.79521200  0.11633800  1
  C  C23  1  0.18605500  0.24518200  0.16182000  1
  C  C24  1  0.31535100  0.20478800  0.88366200  1
  C  C25  1  0.51413600  0.85044400  0.67033900  1
  C  C26  1  0.53931000  0.30418700  0.17963300  1
  C  C27  1  0.31394500  0.24518200  0.16182000  1
  C  C28  1  0.92942600  0.18146000  0.39456900  1
  C  C29  1  0.42942600  0.81854000  0.60543100  1
  C  C30  1  0.03931000  0.69581300  0.82036700  1
  C  C31  1  0.07057400  0.81854000  0.60543100  1
  C  C32  1  0.75000000  0.33197900  0.04621700  1
  C  C33  1  0.46069000  0.69581300  0.82036700  1
  C  C34  1  0.70185300  0.07055300  0.63670800  1
  C  C35  1  0.48586400  0.14955600  0.32966100  1
  C  C36  1  0.75000000  0.29128700  0.73462900  1
  C  C37  1  0.29814700  0.92944700  0.36329200  1
  Ni  Ni38  1  0.68425500  0.87258600  0.96015700  1
  Ni  Ni39  1  0.31574500  0.12741400  0.03984300  1
  Ni  Ni40  1  0.25000000  0.88052100  0.27896400  1
  Ni  Ni41  1  0.18425500  0.12741400  0.03984300  1
  Ni  Ni42  1  0.75000000  0.17066200  0.11256200  1
  Ni  Ni43  1  0.25000000  0.82933800  0.88743800  1
  Ni  Ni44  1  0.75000000  0.11947900  0.72103600  1
  Ni  Ni45  1  0.81574500  0.87258600  0.96015700  1
  Cu  Cu46  1  0.95654800  0.36498400  0.75126700  1
  Cu  Cu47  1  0.04345200  0.63501600  0.24873300  1
  Cu  Cu48  1  0.52690700  0.25801000  0.33118100  1
  Cu  Cu49  1  0.90407400  0.62494200  0.44095100  1
  Cu  Cu50  1  0.75000000  0.01141500  0.93820900  1
  Cu  Cu51  1  0.40407400  0.37505800  0.55904900  1
  Cu  Cu52  1  0.02690700  0.74199000  0.66881900  1
  Cu  Cu53  1  0.59592600  0.62494200  0.44095100  1
  Cu  Cu54  1  0.97309300  0.25801000  0.33118100  1
  Cu  Cu55  1  0.47309300  0.74199000  0.66881900  1
  Cu  Cu56  1  0.09592600  0.37505800  0.55904900  1
  Cu  Cu57  1  0.54345200  0.36498400  0.75126700  1
  Cu  Cu58  1  0.45654800  0.63501600  0.24873300  1
  Cu  Cu59  1  0.25000000  0.98858500  0.06179100  1
  C  C60  1  0.10550900  0.17964000  0.54643700  1
  C  C61  1  0.42835000  0.52258100  0.11306400  1
  C  C62  1  0.89449100  0.82036000  0.45356300  1
  C  C63  1  0.85265600  0.50695700  0.39731800  1
  C  C64  1  0.39449100  0.17964000  0.54643700  1
  C  C65  1  0.92835000  0.47741900  0.88693600  1
  C  C66  1  0.95589500  0.16792800  0.77466800  1
  C  C67  1  0.60550900  0.82036000  0.45356300  1
  C  C68  1  0.57165000  0.47741900  0.88693600  1
  C  C69  1  0.14734400  0.49304300  0.60268200  1
  C  C70  1  0.07165000  0.52258100  0.11306400  1
  C  C71  1  0.54410500  0.16792800  0.77466800  1
  C  C72  1  0.64734400  0.50695700  0.39731800  1
  C  C73  1  0.04410500  0.83207200  0.22533200  1
  C  C74  1  0.45589500  0.83207200  0.22533200  1
  C  C75  1  0.35265600  0.49304300  0.60268200  1
