# generated using pymatgen
data_CuNiC7
_symmetry_space_group_name_H-M   'P 1'
_cell_length_a   5.99256900
_cell_length_b   9.69183100
_cell_length_c   10.41232900
_cell_angle_alpha   90.00000000
_cell_angle_beta   90.00000000
_cell_angle_gamma   90.00000000
_symmetry_Int_Tables_number   1
_chemical_formula_structural   CuNiC7
_chemical_formula_sum   'Cu4 Ni4 C28'
_cell_volume   604.73730201
_cell_formula_units_Z   4
loop_
 _symmetry_equiv_pos_site_id
 _symmetry_equiv_pos_as_xyz
  1  'x, y, z'
loop_
 _atom_site_type_symbol
 _atom_site_label
 _atom_site_symmetry_multiplicity
 _atom_site_fract_x
 _atom_site_fract_y
 _atom_site_fract_z
 _atom_site_occupancy
  C  C0  1  0.75000000  0.40727800  0.00000000  1
  C  C1  1  0.11257800  0.90971100  0.84685200  1
  C  C2  1  0.38742200  0.59028900  0.34685200  1
  C  C3  1  0.88742200  0.09028900  0.15314800  1
  C  C4  1  0.88742200  0.40971100  0.34685200  1
  C  C5  1  0.75000000  0.09272200  0.50000000  1
  C  C6  1  0.38742200  0.90971100  0.15314800  1
  C  C7  1  0.61257800  0.40971100  0.65314800  1
  C  C8  1  0.25000000  0.59272200  0.00000000  1
  C  C9  1  0.11257800  0.59028900  0.65314800  1
  C  C10  1  0.61257800  0.09028900  0.84685200  1
  C  C11  1  0.25000000  0.90727800  0.50000000  1
  Ni  Ni12  1  0.15695900  0.25000000  0.75000000  1
  Ni  Ni13  1  0.84304100  0.75000000  0.25000000  1
  Ni  Ni14  1  0.34304100  0.25000000  0.25000000  1
  Ni  Ni15  1  0.65695900  0.75000000  0.75000000  1
  Cu  Cu16  1  0.75000000  0.76841200  0.50000000  1
  Cu  Cu17  1  0.75000000  0.73158800  0.00000000  1
  Cu  Cu18  1  0.25000000  0.26841200  0.00000000  1
  Cu  Cu19  1  0.25000000  0.23158800  0.50000000  1
  C  C20  1  0.98560200  0.66358300  0.41612700  1
  C  C21  1  0.38327100  0.37221000  0.86355100  1
  C  C22  1  0.88327100  0.87221000  0.63644900  1
  C  C23  1  0.01439800  0.16358300  0.91612700  1
  C  C24  1  0.48560200  0.16358300  0.08387300  1
  C  C25  1  0.48560200  0.33641700  0.41612700  1
  C  C26  1  0.98560200  0.83641700  0.08387300  1
  C  C27  1  0.01439800  0.33641700  0.58387300  1
  C  C28  1  0.88327100  0.62779000  0.86355100  1
  C  C29  1  0.51439800  0.66358300  0.58387300  1
  C  C30  1  0.61672900  0.62779000  0.13644900  1
  C  C31  1  0.38327100  0.12779000  0.63644900  1
  C  C32  1  0.61672900  0.87221000  0.36355100  1
  C  C33  1  0.11672900  0.37221000  0.13644900  1
  C  C34  1  0.11672900  0.12779000  0.36355100  1
  C  C35  1  0.51439800  0.83641700  0.91612700  1
