# generated using pymatgen
data_Cu2(NiC)3
_symmetry_space_group_name_H-M   'P 1'
_cell_length_a   9.22536823
_cell_length_b   9.22536823
_cell_length_c   12.17178245
_cell_angle_alpha   82.04850362
_cell_angle_beta   82.04850362
_cell_angle_gamma   114.43551699
_symmetry_Int_Tables_number   1
_chemical_formula_structural   Cu2(NiC)3
_chemical_formula_sum   'Cu8 Ni12 C12'
_cell_volume   911.81925712
_cell_formula_units_Z   4
loop_
 _symmetry_equiv_pos_site_id
 _symmetry_equiv_pos_as_xyz
  1  'x, y, z'
loop_
 _atom_site_type_symbol
 _atom_site_label
 _atom_site_symmetry_multiplicity
 _atom_site_fract_x
 _atom_site_fract_y
 _atom_site_fract_z
 _atom_site_occupancy
  C  C0  1  0.56634300  0.32374400  0.98322200  1
  C  C1  1  0.79015100  0.20984900  0.25000000  1
  C  C2  1  0.91224900  0.75810500  0.13614200  1
  C  C3  1  0.08775100  0.24189500  0.86385800  1
  C  C4  1  0.32374400  0.56634300  0.48322200  1
  C  C5  1  0.24189500  0.08775100  0.36385800  1
  C  C6  1  0.20984900  0.79015100  0.75000000  1
  C  C7  1  0.43365700  0.67625600  0.01677800  1
  C  C8  1  0.75810500  0.91224900  0.63614200  1
  C  C9  1  0.67625600  0.43365700  0.51677800  1
  C  C10  1  0.57540100  0.42459900  0.25000000  1
  C  C11  1  0.42459900  0.57540100  0.75000000  1
  Ni  Ni12  1  0.75569600  0.24430400  0.75000000  1
  Ni  Ni13  1  0.71973300  0.01848300  0.04886700  1
  Ni  Ni14  1  0.84844400  0.78288200  0.86652600  1
  Ni  Ni15  1  0.78288200  0.84844400  0.36652600  1
  Ni  Ni16  1  0.98151700  0.28026700  0.45113300  1
  Ni  Ni17  1  0.28026700  0.98151700  0.95113300  1
  Ni  Ni18  1  0.15155600  0.21711800  0.13347400  1
  Ni  Ni19  1  0.24430400  0.75569600  0.25000000  1
  Ni  Ni20  1  0.50000000  0.00000000  0.50000000  1
  Ni  Ni21  1  0.01848300  0.71973300  0.54886700  1
  Ni  Ni22  1  0.21711800  0.15155600  0.63347400  1
  Ni  Ni23  1  0.00000000  0.50000000  0.00000000  1
  Cu  Cu24  1  0.24399800  0.52369900  0.71492300  1
  Cu  Cu25  1  0.55526400  0.59608300  0.63441100  1
  Cu  Cu26  1  0.52369900  0.24399800  0.21492300  1
  Cu  Cu27  1  0.59608300  0.55526400  0.13441100  1
  Cu  Cu28  1  0.44473600  0.40391700  0.36558900  1
  Cu  Cu29  1  0.75600200  0.47630100  0.28507700  1
  Cu  Cu30  1  0.40391700  0.44473600  0.86558900  1
  Cu  Cu31  1  0.47630100  0.75600200  0.78507700  1
