# generated using pymatgen
data_Cu8(NiC)3
_symmetry_space_group_name_H-M   'P 1'
_cell_length_a   16.69256600
_cell_length_b   7.67620100
_cell_length_c   12.98956970
_cell_angle_alpha   66.63816147
_cell_angle_beta   90.00000000
_cell_angle_gamma   90.00000000
_symmetry_Int_Tables_number   1
_chemical_formula_structural   Cu8(NiC)3
_chemical_formula_sum   'Cu32 Ni12 C12'
_cell_volume   1527.97358340
_cell_formula_units_Z   4
loop_
 _symmetry_equiv_pos_site_id
 _symmetry_equiv_pos_as_xyz
  1  'x, y, z'
loop_
 _atom_site_type_symbol
 _atom_site_label
 _atom_site_symmetry_multiplicity
 _atom_site_fract_x
 _atom_site_fract_y
 _atom_site_fract_z
 _atom_site_occupancy
  C  C0  1  0.82263600  0.06232400  0.78997900  1
  C  C1  1  0.32263600  0.93767600  0.71002100  1
  C  C2  1  0.67736400  0.06232400  0.28997900  1
  C  C3  1  0.17736400  0.93767600  0.21002100  1
  Ni  Ni4  1  0.34438000  0.86308000  0.47395400  1
  Ni  Ni5  1  0.12635400  0.46781600  0.77196500  1
  Ni  Ni6  1  0.62635400  0.53218400  0.72803500  1
  Ni  Ni7  1  0.46487600  0.34883500  0.79856200  1
  Ni  Ni8  1  0.15562000  0.86308000  0.97395400  1
  Ni  Ni9  1  0.37364600  0.46781600  0.27196500  1
  Ni  Ni10  1  0.65562000  0.13692000  0.52604600  1
  Ni  Ni11  1  0.84438000  0.13692000  0.02604600  1
  Ni  Ni12  1  0.96487600  0.65116500  0.70143800  1
  Ni  Ni13  1  0.03512400  0.34883500  0.29856200  1
  Ni  Ni14  1  0.87364600  0.53218400  0.22803500  1
  Ni  Ni15  1  0.53512400  0.65116500  0.20143800  1
  C  C16  1  0.16634800  0.88254500  0.08842300  1
  C  C17  1  0.33365200  0.88254500  0.58842300  1
  C  C18  1  0.04048400  0.54629700  0.76444400  1
  C  C19  1  0.95951600  0.45370300  0.23555600  1
  C  C20  1  0.83365200  0.11745500  0.91157700  1
  C  C21  1  0.66634800  0.11745500  0.41157700  1
  C  C22  1  0.54048400  0.45370300  0.73555600  1
  C  C23  1  0.45951600  0.54629700  0.26444400  1
  Cu  Cu24  1  0.18743900  0.04223600  0.36917600  1
  Cu  Cu25  1  0.95833300  0.12328600  0.73747200  1
  Cu  Cu26  1  0.68392800  0.01992400  0.80821700  1
  Cu  Cu27  1  0.81607200  0.01992400  0.30821700  1
  Cu  Cu28  1  0.54166700  0.12328600  0.23747200  1
  Cu  Cu29  1  0.83069300  0.48836800  0.38168800  1
  Cu  Cu30  1  0.98087300  0.73686800  0.53381300  1
  Cu  Cu31  1  0.64998300  0.73870700  0.40136300  1
  Cu  Cu32  1  0.95990100  0.25018500  0.01689000  1
  Cu  Cu33  1  0.79766300  0.38643400  0.66043300  1
  Cu  Cu34  1  0.51912700  0.73686800  0.03381300  1
  Cu  Cu35  1  0.04166700  0.87671400  0.26252800  1
  Cu  Cu36  1  0.29766300  0.61356600  0.83956700  1
  Cu  Cu37  1  0.70233700  0.38643400  0.16043300  1
  Cu  Cu38  1  0.45990100  0.74981500  0.48311000  1
  Cu  Cu39  1  0.48087300  0.26313200  0.96618700  1
  Cu  Cu40  1  0.20233700  0.61356600  0.33956700  1
  Cu  Cu41  1  0.14998300  0.26129300  0.09863700  1
  Cu  Cu42  1  0.31256100  0.04223600  0.86917600  1
  Cu  Cu43  1  0.66930700  0.48836800  0.88168800  1
  Cu  Cu44  1  0.45833300  0.87671400  0.76252800  1
  Cu  Cu45  1  0.35001700  0.26129300  0.59863700  1
  Cu  Cu46  1  0.18392800  0.98007600  0.69178300  1
  Cu  Cu47  1  0.85001700  0.73870700  0.90136300  1
  Cu  Cu48  1  0.81256100  0.95776400  0.63082400  1
  Cu  Cu49  1  0.01912700  0.26313200  0.46618700  1
  Cu  Cu50  1  0.54009900  0.25018500  0.51689000  1
  Cu  Cu51  1  0.04009900  0.74981500  0.98311000  1
  Cu  Cu52  1  0.68743900  0.95776400  0.13082400  1
  Cu  Cu53  1  0.16930700  0.51163200  0.61831200  1
  Cu  Cu54  1  0.31607200  0.98007600  0.19178300  1
  Cu  Cu55  1  0.33069300  0.51163200  0.11831200  1
