# generated using pymatgen
data_Cu4Ni5C6
_symmetry_space_group_name_H-M   'P 1'
_cell_length_a   5.82966200
_cell_length_b   18.59545000
_cell_length_c   22.90048400
_cell_angle_alpha   90.00000000
_cell_angle_beta   90.00000000
_cell_angle_gamma   90.00000000
_symmetry_Int_Tables_number   1
_chemical_formula_structural   Cu4Ni5C6
_chemical_formula_sum   'Cu32 Ni40 C48'
_cell_volume   2482.53127876
_cell_formula_units_Z   8
loop_
 _symmetry_equiv_pos_site_id
 _symmetry_equiv_pos_as_xyz
  1  'x, y, z'
loop_
 _atom_site_type_symbol
 _atom_site_label
 _atom_site_symmetry_multiplicity
 _atom_site_fract_x
 _atom_site_fract_y
 _atom_site_fract_z
 _atom_site_occupancy
  C  C0  1  0.48372500  0.44787900  0.92983100  1
  C  C1  1  0.51627500  0.55212100  0.07016900  1
  C  C2  1  0.97483700  0.46359600  0.81071000  1
  C  C3  1  0.53086100  0.41167100  0.18380400  1
  C  C4  1  0.02516300  0.96359600  0.68929000  1
  C  C5  1  0.98596800  0.92792700  0.44760300  1
  C  C6  1  0.98596800  0.57207300  0.94760300  1
  C  C7  1  0.48372500  0.05212100  0.42983100  1
  C  C8  1  0.47483700  0.46359600  0.68929000  1
  C  C9  1  0.46913900  0.91167100  0.31619600  1
  C  C10  1  0.51403200  0.42792700  0.44760300  1
  C  C11  1  0.01627500  0.55212100  0.42983100  1
  C  C12  1  0.98372500  0.44787900  0.57016900  1
  C  C13  1  0.51403200  0.07207300  0.94760300  1
  C  C14  1  0.96913900  0.58832900  0.68380400  1
  C  C15  1  0.51627500  0.94787900  0.57016900  1
  C  C16  1  0.02516300  0.53640400  0.18929000  1
  C  C17  1  0.03086100  0.08832900  0.81619600  1
  C  C18  1  0.03086100  0.41167100  0.31619600  1
  C  C19  1  0.52516300  0.96359600  0.81071000  1
  C  C20  1  0.47483700  0.03640400  0.18929000  1
  C  C21  1  0.52516300  0.53640400  0.31071000  1
  C  C22  1  0.53086100  0.08832900  0.68380400  1
  C  C23  1  0.01403200  0.07207300  0.55239700  1
  C  C24  1  0.01627500  0.94787900  0.92983100  1
  C  C25  1  0.48596800  0.92792700  0.05239700  1
  C  C26  1  0.01403200  0.42792700  0.05239700  1
  C  C27  1  0.48596800  0.57207300  0.55239700  1
  C  C28  1  0.97483700  0.03640400  0.31071000  1
  C  C29  1  0.46913900  0.58832900  0.81619600  1
  C  C30  1  0.96913900  0.91167100  0.18380400  1
  C  C31  1  0.98372500  0.05212100  0.07016900  1
  C  C32  1  0.53019600  0.73118300  0.20088100  1
  C  C33  1  0.96980400  0.26881700  0.70088100  1
  C  C34  1  0.03019600  0.73118300  0.29911900  1
  C  C35  1  0.03019600  0.76881700  0.79911900  1
  C  C36  1  0.36411200  0.76761000  0.94603900  1
  C  C37  1  0.46980400  0.26881700  0.79911900  1
  C  C38  1  0.86411200  0.76761000  0.55396100  1
  C  C39  1  0.13588800  0.26761000  0.94603900  1
  C  C40  1  0.63588800  0.23239000  0.05396100  1
  C  C41  1  0.36411200  0.73239000  0.44603900  1
  C  C42  1  0.63588800  0.26761000  0.55396100  1
  C  C43  1  0.53019600  0.76881700  0.70088100  1
  C  C44  1  0.96980400  0.23118300  0.20088100  1
  C  C45  1  0.46980400  0.23118300  0.29911900  1
  C  C46  1  0.13588800  0.23239000  0.44603900  1
  C  C47  1  0.86411200  0.73239000  0.05396100  1
  Ni  Ni48  1  0.04423800  0.88891500  0.80785300  1
  Ni  Ni49  1  0.45576200  0.38891500  0.80785300  1
  Ni  Ni50  1  0.39628900  0.18197100  0.51317300  1
  Ni  Ni51  1  0.89628900  0.31802900  0.48682700  1
  Ni  Ni52  1  0.52741800  0.62697900  0.42346900  1
  Ni  Ni53  1  0.97258200  0.37302100  0.92346900  1
  Ni  Ni54  1  0.83735700  0.27001300  0.28962600  1
  Ni  Ni55  1  0.16247800  0.70113400  0.87826900  1
  Ni  Ni56  1  0.60371100  0.68197100  0.98682700  1
  Ni  Ni57  1  0.83735700  0.22998700  0.78962600  1
  Ni  Ni58  1  0.83752200  0.29886600  0.12173100  1
  Ni  Ni59  1  0.33752200  0.20113400  0.87826900  1
  Ni  Ni60  1  0.47258200  0.37302100  0.57653100  1
  Ni  Ni61  1  0.33735700  0.22998700  0.71037400  1
  Ni  Ni62  1  0.52741800  0.87302100  0.92346900  1
  Ni  Ni63  1  0.16264300  0.72998700  0.71037400  1
  Ni  Ni64  1  0.45576200  0.11108500  0.30785300  1
  Ni  Ni65  1  0.04423800  0.61108500  0.30785300  1
  Ni  Ni66  1  0.02741800  0.87302100  0.57653100  1
  Ni  Ni67  1  0.16247800  0.79886600  0.37826900  1
  Ni  Ni68  1  0.10371100  0.81802900  0.01317300  1
  Ni  Ni69  1  0.54423800  0.88891500  0.69214700  1
  Ni  Ni70  1  0.33752200  0.29886600  0.37826900  1
  Ni  Ni71  1  0.95576200  0.11108500  0.19214700  1
  Ni  Ni72  1  0.66264300  0.77001300  0.28962600  1
  Ni  Ni73  1  0.89628900  0.18197100  0.98682700  1
  Ni  Ni74  1  0.60371100  0.81802900  0.48682700  1
  Ni  Ni75  1  0.16264300  0.77001300  0.21037400  1
  Ni  Ni76  1  0.66247800  0.70113400  0.62173100  1
  Ni  Ni77  1  0.54423800  0.61108500  0.19214700  1
  Ni  Ni78  1  0.33735700  0.27001300  0.21037400  1
  Ni  Ni79  1  0.47258200  0.12697900  0.07653100  1
  Ni  Ni80  1  0.83752200  0.20113400  0.62173100  1
  Ni  Ni81  1  0.95576200  0.38891500  0.69214700  1
  Ni  Ni82  1  0.66247800  0.79886600  0.12173100  1
  Ni  Ni83  1  0.02741800  0.62697900  0.07653100  1
  Ni  Ni84  1  0.66264300  0.72998700  0.78962600  1
  Ni  Ni85  1  0.97258200  0.12697900  0.42346900  1
  Ni  Ni86  1  0.39628900  0.31802900  0.01317300  1
  Ni  Ni87  1  0.10371100  0.68197100  0.51317300  1
  Cu  Cu88  1  0.72690500  0.52350300  0.62335500  1
  Cu  Cu89  1  0.72833200  0.52820300  0.87631400  1
  Cu  Cu90  1  0.22106800  0.96557900  0.25064800  1
  Cu  Cu91  1  0.77893200  0.03442100  0.74935200  1
  Cu  Cu92  1  0.77309500  0.02350300  0.62335500  1
  Cu  Cu93  1  0.75635800  0.50385400  0.49995600  1
  Cu  Cu94  1  0.27166800  0.47179700  0.12368600  1
  Cu  Cu95  1  0.72690500  0.97649700  0.12335500  1
  Cu  Cu96  1  0.74364200  0.00385400  0.49995600  1
  Cu  Cu97  1  0.74364200  0.49614600  0.99995600  1
  Cu  Cu98  1  0.27309500  0.02350300  0.87664500  1
  Cu  Cu99  1  0.22833200  0.97179700  0.12368600  1
  Cu  Cu100  1  0.24364200  0.49614600  0.50004400  1
  Cu  Cu101  1  0.72106800  0.53442100  0.74935200  1
  Cu  Cu102  1  0.22690500  0.97649700  0.37664500  1
  Cu  Cu103  1  0.77309500  0.47649700  0.12335500  1
  Cu  Cu104  1  0.25635800  0.50385400  0.00004400  1
  Cu  Cu105  1  0.75635800  0.99614600  0.99995600  1
  Cu  Cu106  1  0.27166800  0.02820300  0.62368600  1
  Cu  Cu107  1  0.25635800  0.99614600  0.50004400  1
  Cu  Cu108  1  0.77893200  0.46557900  0.24935200  1
  Cu  Cu109  1  0.77166800  0.02820300  0.87631400  1
  Cu  Cu110  1  0.22833200  0.52820300  0.62368600  1
  Cu  Cu111  1  0.72106800  0.96557900  0.24935200  1
  Cu  Cu112  1  0.27309500  0.47649700  0.37664500  1
  Cu  Cu113  1  0.72833200  0.97179700  0.37631400  1
  Cu  Cu114  1  0.27893200  0.03442100  0.75064800  1
  Cu  Cu115  1  0.22106800  0.53442100  0.75064800  1
  Cu  Cu116  1  0.27893200  0.46557900  0.25064800  1
  Cu  Cu117  1  0.22690500  0.52350300  0.87664500  1
  Cu  Cu118  1  0.24364200  0.00385400  0.00004400  1
  Cu  Cu119  1  0.77166800  0.47179700  0.37631400  1
