# generated using pymatgen
data_Cu2NiC16
_symmetry_space_group_name_H-M   'P 1'
_cell_length_a   7.46305300
_cell_length_b   8.18020900
_cell_length_c   10.83381155
_cell_angle_alpha   69.39037298
_cell_angle_beta   90.00000000
_cell_angle_gamma   90.00000000
_symmetry_Int_Tables_number   1
_chemical_formula_structural   Cu2NiC16
_chemical_formula_sum   'Cu4 Ni2 C32'
_cell_volume   619.06783414
_cell_formula_units_Z   2
loop_
 _symmetry_equiv_pos_site_id
 _symmetry_equiv_pos_as_xyz
  1  'x, y, z'
loop_
 _atom_site_type_symbol
 _atom_site_label
 _atom_site_symmetry_multiplicity
 _atom_site_fract_x
 _atom_site_fract_y
 _atom_site_fract_z
 _atom_site_occupancy
  Ni  Ni0  1  0.00000000  0.00000000  0.00000000  1
  Ni  Ni1  1  0.50000000  0.50000000  0.00000000  1
  Cu  Cu2  1  0.88484100  0.74793200  0.39887600  1
  Cu  Cu3  1  0.38484100  0.75206800  0.60112400  1
  Cu  Cu4  1  0.11515900  0.25206800  0.60112400  1
  Cu  Cu5  1  0.61515900  0.24793200  0.39887600  1
  C  C6  1  0.82791800  0.85543400  0.68666600  1
  C  C7  1  0.16582800  0.38912200  0.86903600  1
  C  C8  1  0.67208200  0.35543400  0.68666600  1
  C  C9  1  0.33417200  0.88912200  0.86903600  1
  C  C10  1  0.32791800  0.64456600  0.31333400  1
  C  C11  1  0.17208200  0.14456600  0.31333400  1
  C  C12  1  0.83417200  0.61087800  0.13096400  1
  C  C13  1  0.66582800  0.11087800  0.13096400  1
  C  C14  1  0.72581100  0.02159400  0.29493100  1
  C  C15  1  0.85519900  0.42038200  0.57692100  1
  C  C16  1  0.14480100  0.57961800  0.42307900  1
  C  C17  1  0.51678000  0.30568500  0.58759500  1
  C  C18  1  0.22581100  0.47840600  0.70506900  1
  C  C19  1  0.77418900  0.52159400  0.29493100  1
  C  C20  1  0.64480100  0.92038200  0.57692100  1
  C  C21  1  0.89029500  0.81266000  0.14673300  1
  C  C22  1  0.11497600  0.94038700  0.31148400  1
  C  C23  1  0.27418900  0.97840600  0.70506900  1
  C  C24  1  0.13781100  0.82548900  0.95747000  1
  C  C25  1  0.36218900  0.32548900  0.95747000  1
  C  C26  1  0.88502400  0.05961300  0.68851600  1
  C  C27  1  0.10970500  0.18734000  0.85326700  1
  C  C28  1  0.39029500  0.68734000  0.85326700  1
  C  C29  1  0.35519900  0.07961800  0.42307900  1
  C  C30  1  0.60970500  0.31266000  0.14673300  1
  C  C31  1  0.48322000  0.69431500  0.41240500  1
  C  C32  1  0.01678000  0.19431500  0.41240500  1
  C  C33  1  0.98322000  0.80568500  0.58759500  1
  C  C34  1  0.61497600  0.55961300  0.68851600  1
  C  C35  1  0.63781100  0.67451100  0.04253000  1
  C  C36  1  0.86218900  0.17451100  0.04253000  1
  C  C37  1  0.38502400  0.44038700  0.31148400  1
