# generated using pymatgen
data_Cu9Ni9C4
_symmetry_space_group_name_H-M   'P 1'
_cell_length_a   11.28500524
_cell_length_b   11.28500524
_cell_length_c   7.62511300
_cell_angle_alpha   90.00000000
_cell_angle_beta   90.00000000
_cell_angle_gamma   119.99999554
_symmetry_Int_Tables_number   1
_chemical_formula_structural   Cu9Ni9C4
_chemical_formula_sum   'Cu18 Ni18 C8'
_cell_volume   840.96992632
_cell_formula_units_Z   2
loop_
 _symmetry_equiv_pos_site_id
 _symmetry_equiv_pos_as_xyz
  1  'x, y, z'
loop_
 _atom_site_type_symbol
 _atom_site_label
 _atom_site_symmetry_multiplicity
 _atom_site_fract_x
 _atom_site_fract_y
 _atom_site_fract_z
 _atom_site_occupancy
  C  C0  1  0.25757000  0.51513900  0.31440900  1
  C  C1  1  0.74243000  0.48486100  0.81440900  1
  C  C2  1  0.51513900  0.25757000  0.81440900  1
  C  C3  1  0.74243000  0.25757000  0.81440900  1
  C  C4  1  0.25757000  0.74243000  0.31440900  1
  C  C5  1  0.48486100  0.74243000  0.31440900  1
  C  C6  1  0.66666700  0.33333300  0.52817100  1
  C  C7  1  0.33333300  0.66666700  0.02817100  1
  Ni  Ni8  1  0.44436100  0.55563900  0.32872400  1
  Ni  Ni9  1  0.18729000  0.81271000  0.17300700  1
  Ni  Ni10  1  0.43712300  0.21856100  0.02221500  1
  Ni  Ni11  1  0.81271000  0.62542000  0.67300700  1
  Ni  Ni12  1  0.21856100  0.78143900  0.52221500  1
  Ni  Ni13  1  0.78143900  0.56287700  0.02221500  1
  Ni  Ni14  1  0.62542000  0.81271000  0.17300700  1
  Ni  Ni15  1  0.88872100  0.44436100  0.82872400  1
  Ni  Ni16  1  0.78143900  0.21856100  0.02221500  1
  Ni  Ni17  1  0.18729000  0.37458000  0.17300700  1
  Ni  Ni18  1  0.37458000  0.18729000  0.67300700  1
  Ni  Ni19  1  0.11127900  0.55563900  0.32872400  1
  Ni  Ni20  1  0.81271000  0.18729000  0.67300700  1
  Ni  Ni21  1  0.55563900  0.44436100  0.82872400  1
  Ni  Ni22  1  0.55563900  0.11127900  0.82872400  1
  Ni  Ni23  1  0.21856100  0.43712300  0.52221500  1
  Ni  Ni24  1  0.56287700  0.78143900  0.52221500  1
  Ni  Ni25  1  0.44436100  0.88872100  0.32872400  1
  Cu  Cu26  1  0.86309900  0.72619800  0.59235500  1
  Cu  Cu27  1  0.49552800  0.99105600  0.84350500  1
  Cu  Cu28  1  0.13690100  0.86309900  0.09235500  1
  Cu  Cu29  1  0.27380200  0.13690100  0.59235500  1
  Cu  Cu30  1  0.00894400  0.50447200  0.84350500  1
  Cu  Cu31  1  0.61662500  0.80831200  0.65759500  1
  Cu  Cu32  1  0.50447200  0.49552800  0.34350500  1
  Cu  Cu33  1  0.86309900  0.13690100  0.59235500  1
  Cu  Cu34  1  0.49552800  0.50447200  0.84350500  1
  Cu  Cu35  1  0.19168800  0.80831200  0.65759500  1
  Cu  Cu36  1  0.13690100  0.27380200  0.09235500  1
  Cu  Cu37  1  0.72619800  0.86309900  0.09235500  1
  Cu  Cu38  1  0.19168800  0.38337500  0.65759500  1
  Cu  Cu39  1  0.50447200  0.00894400  0.34350500  1
  Cu  Cu40  1  0.38337500  0.19168800  0.15759500  1
  Cu  Cu41  1  0.80831200  0.19168800  0.15759500  1
  Cu  Cu42  1  0.80831200  0.61662500  0.15759500  1
  Cu  Cu43  1  0.99105600  0.49552800  0.34350500  1
