# generated using pymatgen
data_Cu2Ni5C11
_symmetry_space_group_name_H-M   'P 1'
_cell_length_a   8.23053700
_cell_length_b   9.50468500
_cell_length_c   12.19345400
_cell_angle_alpha   90.00000000
_cell_angle_beta   90.00000000
_cell_angle_gamma   90.00000000
_symmetry_Int_Tables_number   1
_chemical_formula_structural   Cu2Ni5C11
_chemical_formula_sum   'Cu8 Ni20 C44'
_cell_volume   953.87758628
_cell_formula_units_Z   4
loop_
 _symmetry_equiv_pos_site_id
 _symmetry_equiv_pos_as_xyz
  1  'x, y, z'
loop_
 _atom_site_type_symbol
 _atom_site_label
 _atom_site_symmetry_multiplicity
 _atom_site_fract_x
 _atom_site_fract_y
 _atom_site_fract_z
 _atom_site_occupancy
  C  C0  1  0.48920600  0.77849000  0.10801900  1
  C  C1  1  0.98920600  0.22151000  0.89198100  1
  C  C2  1  0.01079400  0.27849000  0.39198100  1
  C  C3  1  0.51079400  0.72151000  0.60801900  1
  C  C4  1  0.51079400  0.22151000  0.89198100  1
  C  C5  1  0.01079400  0.77849000  0.10801900  1
  C  C6  1  0.98920600  0.72151000  0.60801900  1
  C  C7  1  0.48920600  0.27849000  0.39198100  1
  C  C8  1  0.75000000  0.93926600  0.31618400  1
  C  C9  1  0.25000000  0.06073400  0.68381600  1
  C  C10  1  0.75000000  0.43926600  0.18381600  1
  C  C11  1  0.25000000  0.56073400  0.81618400  1
  Ni  Ni12  1  0.75000000  0.49605100  0.47128400  1
  Ni  Ni13  1  0.25000000  0.50394900  0.52871600  1
  Ni  Ni14  1  0.75000000  0.99605100  0.02871600  1
  Ni  Ni15  1  0.25000000  0.00394900  0.97128400  1
  Ni  Ni16  1  0.88991000  0.61710500  0.86636800  1
  Ni  Ni17  1  0.38991000  0.38289500  0.13363200  1
  Ni  Ni18  1  0.61009000  0.11710500  0.63363200  1
  Ni  Ni19  1  0.11009000  0.88289500  0.36636800  1
  Ni  Ni20  1  0.11009000  0.38289500  0.13363200  1
  Ni  Ni21  1  0.61009000  0.61710500  0.86636800  1
  Ni  Ni22  1  0.38991000  0.88289500  0.36636800  1
  Ni  Ni23  1  0.88991000  0.11710500  0.63363200  1
  Ni  Ni24  1  0.88296500  0.48323300  0.79087900  1
  Ni  Ni25  1  0.38296500  0.51676700  0.20912100  1
  Ni  Ni26  1  0.61703500  0.98323300  0.70912100  1
  Ni  Ni27  1  0.11703500  0.01676700  0.29087900  1
  Ni  Ni28  1  0.11703500  0.51676700  0.20912100  1
  Ni  Ni29  1  0.61703500  0.48323300  0.79087900  1
  Ni  Ni30  1  0.38296500  0.01676700  0.29087900  1
  Ni  Ni31  1  0.88296500  0.98323300  0.70912100  1
  Cu  Cu32  1  0.75000000  0.65013100  0.35613300  1
  Cu  Cu33  1  0.25000000  0.34986900  0.64386700  1
  Cu  Cu34  1  0.75000000  0.15013100  0.14386700  1
  Cu  Cu35  1  0.25000000  0.84986900  0.85613300  1
  Cu  Cu36  1  0.75000000  0.35969600  0.63164800  1
  Cu  Cu37  1  0.25000000  0.64030400  0.36835200  1
  Cu  Cu38  1  0.75000000  0.85969600  0.86835200  1
  Cu  Cu39  1  0.25000000  0.14030400  0.13164800  1
  C  C40  1  0.75000000  0.74029900  0.43323400  1
  C  C41  1  0.25000000  0.25970100  0.56676600  1
  C  C42  1  0.75000000  0.24029900  0.06676600  1
  C  C43  1  0.25000000  0.75970100  0.93323400  1
  C  C44  1  0.75000000  0.67929700  0.25381400  1
  C  C45  1  0.25000000  0.32070300  0.74618600  1
  C  C46  1  0.75000000  0.17929700  0.24618600  1
  C  C47  1  0.25000000  0.82070300  0.75381400  1
  C  C48  1  0.75000000  0.51043400  0.38220500  1
  C  C49  1  0.25000000  0.48956600  0.61779500  1
  C  C50  1  0.75000000  0.01043400  0.11779500  1
  C  C51  1  0.25000000  0.98956600  0.88220500  1
  C  C52  1  0.75000000  0.48341000  0.58435500  1
  C  C53  1  0.25000000  0.51659000  0.41564500  1
  C  C54  1  0.75000000  0.98341000  0.91564500  1
  C  C55  1  0.25000000  0.01659000  0.08435500  1
  C  C56  1  0.75000000  0.24555400  0.57298100  1
  C  C57  1  0.25000000  0.75444600  0.42701900  1
  C  C58  1  0.75000000  0.74555400  0.92701900  1
  C  C59  1  0.25000000  0.25444600  0.07298100  1
  C  C60  1  0.75000000  0.35467800  0.73831600  1
  C  C61  1  0.25000000  0.64532200  0.26168400  1
  C  C62  1  0.75000000  0.85467800  0.76168400  1
  C  C63  1  0.25000000  0.14532200  0.23831600  1
  C  C64  1  0.96053100  0.54562600  0.83075400  1
  C  C65  1  0.46053100  0.45437400  0.16924600  1
  C  C66  1  0.53946900  0.04562600  0.66924600  1
  C  C67  1  0.03946900  0.95437400  0.33075400  1
  C  C68  1  0.03946900  0.45437400  0.16924600  1
  C  C69  1  0.53946900  0.54562600  0.83075400  1
  C  C70  1  0.46053100  0.95437400  0.33075400  1
  C  C71  1  0.96053100  0.04562600  0.66924600  1
