# generated using pymatgen
data_Cu4Ni2C3
_symmetry_space_group_name_H-M   'P 1'
_cell_length_a   5.13816700
_cell_length_b   5.54059500
_cell_length_c   18.71341500
_cell_angle_alpha   90.00000000
_cell_angle_beta   90.00000000
_cell_angle_gamma   90.00000000
_symmetry_Int_Tables_number   1
_chemical_formula_structural   Cu4Ni2C3
_chemical_formula_sum   'Cu16 Ni8 C12'
_cell_volume   532.74289964
_cell_formula_units_Z   4
loop_
 _symmetry_equiv_pos_site_id
 _symmetry_equiv_pos_as_xyz
  1  'x, y, z'
loop_
 _atom_site_type_symbol
 _atom_site_label
 _atom_site_symmetry_multiplicity
 _atom_site_fract_x
 _atom_site_fract_y
 _atom_site_fract_z
 _atom_site_occupancy
  C  C0  1  0.00000000  0.75000000  0.77064200  1
  C  C1  1  0.50000000  0.25000000  0.72935800  1
  C  C2  1  0.00000000  0.25000000  0.22935800  1
  C  C3  1  0.50000000  0.75000000  0.27064200  1
  C  C4  1  0.00000000  0.75000000  0.44881100  1
  C  C5  1  0.50000000  0.25000000  0.05118900  1
  C  C6  1  0.00000000  0.25000000  0.55118900  1
  C  C7  1  0.50000000  0.75000000  0.94881100  1
  C  C8  1  0.00000000  0.75000000  0.10727100  1
  C  C9  1  0.50000000  0.25000000  0.39272900  1
  C  C10  1  0.00000000  0.25000000  0.89272900  1
  C  C11  1  0.50000000  0.75000000  0.60727100  1
  Ni  Ni12  1  0.77166800  0.88469100  0.04807300  1
  Ni  Ni13  1  0.27166800  0.11530900  0.45192700  1
  Ni  Ni14  1  0.72833200  0.38469100  0.45192700  1
  Ni  Ni15  1  0.22833200  0.61530900  0.04807300  1
  Ni  Ni16  1  0.22833200  0.11530900  0.95192700  1
  Ni  Ni17  1  0.72833200  0.88469100  0.54807300  1
  Ni  Ni18  1  0.27166800  0.61530900  0.54807300  1
  Ni  Ni19  1  0.77166800  0.38469100  0.95192700  1
  Cu  Cu20  1  0.71028200  0.95935000  0.37413800  1
  Cu  Cu21  1  0.21028200  0.04065000  0.12586200  1
  Cu  Cu22  1  0.78971800  0.45935000  0.12586200  1
  Cu  Cu23  1  0.28971800  0.54065000  0.37413800  1
  Cu  Cu24  1  0.28971800  0.04065000  0.62586200  1
  Cu  Cu25  1  0.78971800  0.95935000  0.87413800  1
  Cu  Cu26  1  0.21028200  0.54065000  0.87413800  1
  Cu  Cu27  1  0.71028200  0.45935000  0.62586200  1
  Cu  Cu28  1  0.80164700  0.89427500  0.19423400  1
  Cu  Cu29  1  0.30164700  0.10572500  0.30576600  1
  Cu  Cu30  1  0.69835300  0.39427500  0.30576600  1
  Cu  Cu31  1  0.19835300  0.60572500  0.19423400  1
  Cu  Cu32  1  0.19835300  0.10572500  0.80576600  1
  Cu  Cu33  1  0.69835300  0.89427500  0.69423400  1
  Cu  Cu34  1  0.30164700  0.60572500  0.69423400  1
  Cu  Cu35  1  0.80164700  0.39427500  0.80576600  1
