# generated using pymatgen
data_Cu3NiC2
_symmetry_space_group_name_H-M   'P 1'
_cell_length_a   7.99187600
_cell_length_b   8.40761700
_cell_length_c   9.45615273
_cell_angle_alpha   64.10044740
_cell_angle_beta   90.00000000
_cell_angle_gamma   90.00000000
_symmetry_Int_Tables_number   1
_chemical_formula_structural   Cu3NiC2
_chemical_formula_sum   'Cu12 Ni4 C8'
_cell_volume   571.56660295
_cell_formula_units_Z   4
loop_
 _symmetry_equiv_pos_site_id
 _symmetry_equiv_pos_as_xyz
  1  'x, y, z'
loop_
 _atom_site_type_symbol
 _atom_site_label
 _atom_site_symmetry_multiplicity
 _atom_site_fract_x
 _atom_site_fract_y
 _atom_site_fract_z
 _atom_site_occupancy
  C  C0  1  0.63279200  0.97785000  0.80478200  1
  C  C1  1  0.86720800  0.47785000  0.80478200  1
  C  C2  1  0.36720800  0.02215000  0.19521800  1
  C  C3  1  0.13279200  0.52215000  0.19521800  1
  C  C4  1  0.62693500  0.50314800  0.22632500  1
  C  C5  1  0.37306500  0.49685200  0.77367500  1
  C  C6  1  0.87306500  0.00314800  0.22632500  1
  C  C7  1  0.12693500  0.99685200  0.77367500  1
  Ni  Ni8  1  0.74097100  0.89565300  0.44775800  1
  Ni  Ni9  1  0.25902900  0.10434700  0.55224200  1
  Ni  Ni10  1  0.24097100  0.60434700  0.55224200  1
  Ni  Ni11  1  0.75902900  0.39565300  0.44775800  1
  Cu  Cu12  1  0.50461500  0.68422100  0.20823200  1
  Cu  Cu13  1  0.72611900  0.07247400  0.07245900  1
  Cu  Cu14  1  0.50640100  0.65756900  0.78356000  1
  Cu  Cu15  1  0.00640100  0.84243100  0.21644000  1
  Cu  Cu16  1  0.27388100  0.92752600  0.92754100  1
  Cu  Cu17  1  0.99359900  0.15756900  0.78356000  1
  Cu  Cu18  1  0.22611900  0.42752600  0.92754100  1
  Cu  Cu19  1  0.00461500  0.81577900  0.79176800  1
  Cu  Cu20  1  0.49359900  0.34243100  0.21644000  1
  Cu  Cu21  1  0.49538500  0.31577900  0.79176800  1
  Cu  Cu22  1  0.77388100  0.57247400  0.07245900  1
  Cu  Cu23  1  0.99538500  0.18422100  0.20823200  1
