# generated using pymatgen
data_CuNi4C47
_symmetry_space_group_name_H-M   'P 1'
_cell_length_a   5.92530700
_cell_length_b   11.96990800
_cell_length_c   25.57168778
_cell_angle_alpha   77.14437591
_cell_angle_beta   90.00000000
_cell_angle_gamma   90.00000000
_symmetry_Int_Tables_number   1
_chemical_formula_structural   CuNi4C47
_chemical_formula_sum   'Cu2 Ni8 C94'
_cell_volume   1768.21957551
_cell_formula_units_Z   2
loop_
 _symmetry_equiv_pos_site_id
 _symmetry_equiv_pos_as_xyz
  1  'x, y, z'
loop_
 _atom_site_type_symbol
 _atom_site_label
 _atom_site_symmetry_multiplicity
 _atom_site_fract_x
 _atom_site_fract_y
 _atom_site_fract_z
 _atom_site_occupancy
  C  C0  1  0.50000000  0.50000000  0.50000000  1
  C  C1  1  0.50000000  0.50000000  0.00000000  1
  C  C2  1  0.47363800  0.63853900  0.32149600  1
  C  C3  1  0.52559700  0.26345700  0.84133500  1
  C  C4  1  0.02795600  0.07868300  0.90687700  1
  C  C5  1  0.96591500  0.24501500  0.10244200  1
  C  C6  1  0.52559700  0.73654300  0.65866500  1
  C  C7  1  0.07138100  0.84404700  0.24509000  1
  C  C8  1  0.02795600  0.92131700  0.59312300  1
  C  C9  1  0.03408500  0.75498500  0.89755800  1
  C  C10  1  0.57016000  0.04233200  0.17496100  1
  C  C11  1  0.42984000  0.04233200  0.67496100  1
  C  C12  1  0.96591500  0.75498500  0.39755800  1
  C  C13  1  0.52636200  0.36146100  0.67850400  1
  C  C14  1  0.47363800  0.36146100  0.17850400  1
  C  C15  1  0.47440300  0.73654300  0.15866500  1
  C  C16  1  0.97204400  0.07868300  0.40687700  1
  C  C17  1  0.42984000  0.95766800  0.82503900  1
  C  C18  1  0.97204400  0.92131700  0.09312300  1
  C  C19  1  0.47440300  0.26345700  0.34133500  1
  C  C20  1  0.92861900  0.15595300  0.75491000  1
  C  C21  1  0.07138100  0.15595300  0.25491000  1
  C  C22  1  0.03408500  0.24501500  0.60244200  1
  C  C23  1  0.92861900  0.84404700  0.74509000  1
  C  C24  1  0.57016000  0.95766800  0.32503900  1
  C  C25  1  0.52636200  0.63853900  0.82149600  1
  Ni  Ni26  1  0.52354600  0.84526400  0.98634000  1
  Ni  Ni27  1  0.99168000  0.42327100  0.42007300  1
  Ni  Ni28  1  0.99168000  0.57672900  0.07992700  1
  Ni  Ni29  1  0.00832000  0.42327100  0.92007300  1
  Ni  Ni30  1  0.47645400  0.15473600  0.01366000  1
  Ni  Ni31  1  0.47645400  0.84526400  0.48634000  1
  Ni  Ni32  1  0.00832000  0.57672900  0.57992700  1
  Ni  Ni33  1  0.52354600  0.15473600  0.51366000  1
  Cu  Cu34  1  0.02189200  0.50000000  0.75000000  1
  Cu  Cu35  1  0.97810800  0.50000000  0.25000000  1
  C  C36  1  0.74588600  0.49800100  0.58526400  1
  C  C37  1  0.74588600  0.50199900  0.91473600  1
  C  C38  1  0.41341700  0.26996700  0.54164500  1
  C  C39  1  0.21617400  0.76429400  0.33375200  1
  C  C40  1  0.75611200  0.00000000  0.25000000  1
  C  C41  1  0.62343600  0.26521600  0.75830500  1
  C  C42  1  0.72427400  0.13374000  0.34090000  1
  C  C43  1  0.79017800  0.11352800  0.54719000  1
  C  C44  1  0.76474800  0.12324000  0.84492100  1
  C  C45  1  0.91064700  0.93534700  0.36747500  1
  C  C46  1  0.37656400  0.26521600  0.25830500  1
  C  C47  1  0.23525200  0.12324000  0.34492100  1
  C  C48  1  0.54521500  0.20489100  0.44194400  1
  C  C49  1  0.15831300  0.50689500  0.19215900  1
  C  C50  1  0.32241100  0.95888700  0.96948300  1
  C  C51  1  0.84168700  0.49310500  0.80784100  1
  C  C52  1  0.37656400  0.73478400  0.24169500  1
  C  C53  1  0.25411400  0.49800100  0.08526400  1
  C  C54  1  0.15831300  0.49310500  0.30784100  1
  C  C55  1  0.91064700  0.06465300  0.13252500  1
  C  C56  1  0.25411400  0.50199900  0.41473600  1
  C  C57  1  0.41341700  0.73003300  0.95835500  1
  C  C58  1  0.67758900  0.95888700  0.46948300  1
  C  C59  1  0.07659100  0.37870500  0.98953800  1
  C  C60  1  0.84168700  0.50689500  0.69215900  1
  C  C61  1  0.76474800  0.87676000  0.65507900  1
  C  C62  1  0.58658300  0.26996700  0.04164500  1
  C  C63  1  0.23316500  0.47690400  0.60581000  1
  C  C64  1  0.54521500  0.79510900  0.05805600  1
  C  C65  1  0.92340900  0.37870500  0.48953800  1
  C  C66  1  0.28593900  0.22839000  0.66794400  1
  C  C67  1  0.08935300  0.06465300  0.63252500  1
  C  C68  1  0.79017800  0.88647200  0.95281000  1
  C  C69  1  0.07659100  0.62129500  0.51046200  1
  C  C70  1  0.26824100  0.00000000  0.25000000  1
  C  C71  1  0.01040000  0.70262700  0.10774100  1
  C  C72  1  0.23316500  0.52309600  0.89419000  1
  C  C73  1  0.20323400  0.37364800  0.75896100  1
  C  C74  1  0.92340900  0.62129500  0.01046200  1
  C  C75  1  0.67758900  0.04111300  0.03051700  1
  C  C76  1  0.71406100  0.77161000  0.33205600  1
  C  C77  1  0.76683500  0.52309600  0.39419000  1
  C  C78  1  0.24388800  0.00000000  0.75000000  1
  C  C79  1  0.08935300  0.93534700  0.86747500  1
  C  C80  1  0.20982200  0.11352800  0.04719000  1
  C  C81  1  0.73175900  0.00000000  0.75000000  1
  C  C82  1  0.78382600  0.76429400  0.83375200  1
  C  C83  1  0.72427400  0.86626000  0.15910000  1
  C  C84  1  0.01040000  0.29737300  0.39225900  1
  C  C85  1  0.27572600  0.86626000  0.65910000  1
  C  C86  1  0.45478500  0.20489100  0.94194400  1
  C  C87  1  0.27572600  0.13374000  0.84090000  1
  C  C88  1  0.28593900  0.77161000  0.83205600  1
  C  C89  1  0.21617400  0.23570600  0.16624800  1
  C  C90  1  0.58658300  0.73003300  0.45835500  1
  C  C91  1  0.79676600  0.62635200  0.24103900  1
  C  C92  1  0.45478500  0.79510900  0.55805600  1
  C  C93  1  0.32241100  0.04111300  0.53051700  1
  C  C94  1  0.98960000  0.70262700  0.60774100  1
  C  C95  1  0.78382600  0.23570600  0.66624800  1
  C  C96  1  0.62343600  0.73478400  0.74169500  1
  C  C97  1  0.20982200  0.88647200  0.45281000  1
  C  C98  1  0.20323400  0.62635200  0.74103900  1
  C  C99  1  0.23525200  0.87676000  0.15507900  1
  C  C100  1  0.79676600  0.37364800  0.25896100  1
  C  C101  1  0.98960000  0.29737300  0.89225900  1
  C  C102  1  0.76683500  0.47690400  0.10581000  1
  C  C103  1  0.71406100  0.22839000  0.16794400  1
