# generated using pymatgen
data_Cu2Ni3C7
_symmetry_space_group_name_H-M   'P 1'
_cell_length_a   8.05895700
_cell_length_b   11.51366200
_cell_length_c   15.07702797
_cell_angle_alpha   52.78850001
_cell_angle_beta   90.00000000
_cell_angle_gamma   90.00000000
_symmetry_Int_Tables_number   1
_chemical_formula_structural   Cu2Ni3C7
_chemical_formula_sum   'Cu8 Ni12 C28'
_cell_volume   1114.15078196
_cell_formula_units_Z   4
loop_
 _symmetry_equiv_pos_site_id
 _symmetry_equiv_pos_as_xyz
  1  'x, y, z'
loop_
 _atom_site_type_symbol
 _atom_site_label
 _atom_site_symmetry_multiplicity
 _atom_site_fract_x
 _atom_site_fract_y
 _atom_site_fract_z
 _atom_site_occupancy
  C  C0  1  0.15819300  0.12200300  0.82919500  1
  C  C1  1  0.34180700  0.12200300  0.32919500  1
  C  C2  1  0.65819300  0.87799700  0.67080500  1
  C  C3  1  0.84180700  0.87799700  0.17080500  1
  C  C4  1  0.58058900  0.68761800  0.27908300  1
  C  C5  1  0.64160100  0.81035000  0.05713900  1
  C  C6  1  0.35839900  0.18965000  0.94286100  1
  C  C7  1  0.14160100  0.18965000  0.44286100  1
  C  C8  1  0.91941100  0.68761800  0.77908300  1
  C  C9  1  0.85839900  0.81035000  0.55713900  1
  C  C10  1  0.08058900  0.31238200  0.22091700  1
  C  C11  1  0.41941100  0.31238200  0.72091700  1
  Ni  Ni12  1  0.21099800  0.20793100  0.22754000  1
  Ni  Ni13  1  0.28872000  0.10469500  0.43963400  1
  Ni  Ni14  1  0.01984400  0.26727500  0.33825000  1
  Ni  Ni15  1  0.78872000  0.89530500  0.06036600  1
  Ni  Ni16  1  0.78900200  0.79206900  0.77246000  1
  Ni  Ni17  1  0.21128000  0.10469500  0.93963400  1
  Ni  Ni18  1  0.98015600  0.73272500  0.66175000  1
  Ni  Ni19  1  0.71099800  0.79206900  0.27246000  1
  Ni  Ni20  1  0.48015600  0.26727500  0.83825000  1
  Ni  Ni21  1  0.51984400  0.73272500  0.16175000  1
  Ni  Ni22  1  0.28900200  0.20793100  0.72754000  1
  Ni  Ni23  1  0.71128000  0.89530500  0.56036600  1
  C  C24  1  0.20119700  0.51064800  0.14392300  1
  C  C25  1  0.87379800  0.07383200  0.13218400  1
  C  C26  1  0.24903300  0.35755400  0.43508200  1
  C  C27  1  0.12620200  0.92616800  0.86781600  1
  C  C28  1  0.62620200  0.07383200  0.63218400  1
  C  C29  1  0.56496200  0.21517700  0.27810000  1
  C  C30  1  0.43503800  0.78482300  0.72190000  1
  C  C31  1  0.79880300  0.48935200  0.85607700  1
  C  C32  1  0.25096700  0.35755400  0.93508200  1
  C  C33  1  0.29880300  0.51064800  0.64392300  1
  C  C34  1  0.06496200  0.78482300  0.22190000  1
  C  C35  1  0.93503800  0.21517700  0.77810000  1
  C  C36  1  0.75096700  0.64244600  0.56491800  1
  C  C37  1  0.74903300  0.64244600  0.06491800  1
  C  C38  1  0.37379800  0.92616800  0.36781600  1
  C  C39  1  0.70119700  0.48935200  0.35607700  1
  Cu  Cu40  1  0.04883200  0.10774200  0.54444200  1
  Cu  Cu41  1  0.55909600  0.33980900  0.65203400  1
  Cu  Cu42  1  0.94090400  0.33980900  0.15203400  1
  Cu  Cu43  1  0.05909600  0.66019100  0.84796600  1
  Cu  Cu44  1  0.54883200  0.89225800  0.95555800  1
  Cu  Cu45  1  0.95116800  0.89225800  0.45555800  1
  Cu  Cu46  1  0.44090400  0.66019100  0.34796600  1
  Cu  Cu47  1  0.45116800  0.10774200  0.04444200  1
