# generated using pymatgen
data_Cu5Ni3C31
_symmetry_space_group_name_H-M   'P 1'
_cell_length_a   8.90343033
_cell_length_b   8.90343033
_cell_length_c   24.63402799
_cell_angle_alpha   77.37518874
_cell_angle_beta   77.37518874
_cell_angle_gamma   31.32175420
_symmetry_Int_Tables_number   1
_chemical_formula_structural   Cu5Ni3C31
_chemical_formula_sum   'Cu10 Ni6 C62'
_cell_volume   988.63406107
_cell_formula_units_Z   2
loop_
 _symmetry_equiv_pos_site_id
 _symmetry_equiv_pos_as_xyz
  1  'x, y, z'
loop_
 _atom_site_type_symbol
 _atom_site_label
 _atom_site_symmetry_multiplicity
 _atom_site_fract_x
 _atom_site_fract_y
 _atom_site_fract_z
 _atom_site_occupancy
  Ni  Ni0  1  0.77340700  0.76490000  0.08705800  1
  Ni  Ni1  1  0.06042000  0.93958000  0.25000000  1
  Ni  Ni2  1  0.22659300  0.23510000  0.91294200  1
  Ni  Ni3  1  0.93958000  0.06042000  0.75000000  1
  Ni  Ni4  1  0.23510000  0.22659300  0.41294200  1
  Ni  Ni5  1  0.76490000  0.77340700  0.58705800  1
  Cu  Cu6  1  0.58390500  0.53683800  0.11644400  1
  Cu  Cu7  1  0.53683800  0.58390500  0.61644400  1
  Cu  Cu8  1  0.41609500  0.46316200  0.88355600  1
  Cu  Cu9  1  0.46316200  0.41609500  0.38355600  1
  Cu  Cu10  1  0.69294300  0.64101000  0.29137600  1
  Cu  Cu11  1  0.35899000  0.30705700  0.20862400  1
  Cu  Cu12  1  0.30705700  0.35899000  0.70862400  1
  Cu  Cu13  1  0.64101000  0.69294300  0.79137600  1
  Cu  Cu14  1  0.00000000  0.00000000  0.50000000  1
  Cu  Cu15  1  0.00000000  0.00000000  0.00000000  1
  C  C16  1  0.18893100  0.16373100  0.67452400  1
  C  C17  1  0.81106900  0.83626900  0.32547600  1
  C  C18  1  0.16373100  0.18893100  0.17452400  1
  C  C19  1  0.83626900  0.81106900  0.82547600  1
  C  C20  1  0.67391800  0.62599500  0.49692500  1
  C  C21  1  0.11585400  0.02714800  0.35920600  1
  C  C22  1  0.37400500  0.32608200  0.00307500  1
  C  C23  1  0.62599500  0.67391800  0.99692500  1
  C  C24  1  0.97285200  0.88414600  0.14079400  1
  C  C25  1  0.88414600  0.97285200  0.64079400  1
  C  C26  1  0.02714800  0.11585400  0.85920600  1
  C  C27  1  0.32608200  0.37400500  0.50307500  1
  C  C28  1  0.43717500  0.19736600  0.95153200  1
  C  C29  1  0.13757100  0.85571500  0.09235400  1
  C  C30  1  0.01932300  0.29168400  0.86441500  1
  C  C31  1  0.70831600  0.98067700  0.63558500  1
  C  C32  1  0.75470200  0.05463100  0.81180500  1
  C  C33  1  0.68671000  0.91185200  0.27080100  1
  C  C34  1  0.94216800  0.56984000  0.35408100  1
  C  C35  1  0.66202700  0.20953500  0.14783800  1
  C  C36  1  0.31329000  0.08814800  0.72919900  1
  C  C37  1  0.14428500  0.86242900  0.40764600  1
  C  C38  1  0.28089600  0.71910400  0.75000000  1
  C  C39  1  0.33797300  0.79046500  0.85216200  1
  C  C40  1  0.44447200  0.69418800  0.52219600  1
  C  C41  1  0.56984000  0.94216800  0.85408100  1
  C  C42  1  0.91185200  0.68671000  0.77080100  1
  C  C43  1  0.05783200  0.43016000  0.64591900  1
  C  C44  1  0.86806500  0.25805400  0.80331200  1
  C  C45  1  0.94536900  0.24529800  0.68819500  1
  C  C46  1  0.13193500  0.74194600  0.19668800  1
  C  C47  1  0.87311000  0.54728200  0.95809200  1
  C  C48  1  0.74194600  0.13193500  0.69668800  1
  C  C49  1  0.05463100  0.75470200  0.31180500  1
  C  C50  1  0.10065900  0.56246700  0.86217000  1
  C  C51  1  0.65540400  0.07454800  0.03597200  1
  C  C52  1  0.79046500  0.33797300  0.35216200  1
  C  C53  1  0.80263400  0.56282500  0.54846800  1
  C  C54  1  0.12689000  0.45271800  0.04190800  1
  C  C55  1  0.34459600  0.92545200  0.96402800  1
  C  C56  1  0.86242900  0.14428500  0.90764600  1
  C  C57  1  0.69418800  0.44447200  0.02219600  1
  C  C58  1  0.71910400  0.28089600  0.25000000  1
  C  C59  1  0.43753300  0.89934100  0.63783000  1
  C  C60  1  0.85571500  0.13757100  0.59235400  1
  C  C61  1  0.07454800  0.65540400  0.53597200  1
  C  C62  1  0.54728200  0.87311000  0.45809200  1
  C  C63  1  0.30581200  0.55552800  0.97780400  1
  C  C64  1  0.43016000  0.05783200  0.14591900  1
  C  C65  1  0.25805400  0.86806500  0.30331200  1
  C  C66  1  0.55552800  0.30581200  0.47780400  1
  C  C67  1  0.89934100  0.43753300  0.13783000  1
  C  C68  1  0.92545200  0.34459600  0.46402800  1
  C  C69  1  0.29168400  0.01932300  0.36441500  1
  C  C70  1  0.08814800  0.31329000  0.22919900  1
  C  C71  1  0.98067700  0.70831600  0.13558500  1
  C  C72  1  0.56246700  0.10065900  0.36217000  1
  C  C73  1  0.19736600  0.43717500  0.45153200  1
  C  C74  1  0.24529800  0.94536900  0.18819500  1
  C  C75  1  0.20953500  0.66202700  0.64783800  1
  C  C76  1  0.45271800  0.12689000  0.54190800  1
  C  C77  1  0.56282500  0.80263400  0.04846800  1
