# generated using pymatgen
data_Cu6Ni3C2
_symmetry_space_group_name_H-M   'P 1'
_cell_length_a   23.23018675
_cell_length_b   23.23018675
_cell_length_c   23.23018675
_cell_angle_alpha   169.80560677
_cell_angle_beta   169.80560677
_cell_angle_gamma   14.43619515
_symmetry_Int_Tables_number   1
_chemical_formula_structural   Cu6Ni3C2
_chemical_formula_sum   'Cu12 Ni6 C4'
_cell_volume   392.67577296
_cell_formula_units_Z   2
loop_
 _symmetry_equiv_pos_site_id
 _symmetry_equiv_pos_as_xyz
  1  'x, y, z'
loop_
 _atom_site_type_symbol
 _atom_site_label
 _atom_site_symmetry_multiplicity
 _atom_site_fract_x
 _atom_site_fract_y
 _atom_site_fract_z
 _atom_site_occupancy
  C  C0  1  0.04940700  0.54940700  0.50000000  1
  C  C1  1  0.29940700  0.29940700  0.00000000  1
  C  C2  1  0.45059300  0.95059300  0.50000000  1
  C  C3  1  0.70059300  0.70059300  0.00000000  1
  Ni  Ni4  1  0.82512300  0.82512300  0.00000000  1
  Ni  Ni5  1  0.75000000  0.25000000  0.50000000  1
  Ni  Ni6  1  0.57512300  0.07512300  0.50000000  1
  Ni  Ni7  1  0.92487700  0.42487700  0.50000000  1
  Ni  Ni8  1  0.00000000  0.00000000  0.00000000  1
  Ni  Ni9  1  0.17487700  0.17487700  0.00000000  1
  Cu  Cu10  1  0.89772200  0.89772200  0.00000000  1
  Cu  Cu11  1  0.39970200  0.39970200  0.00000000  1
  Cu  Cu12  1  0.64772200  0.14772200  0.50000000  1
  Cu  Cu13  1  0.10227800  0.10227800  0.00000000  1
  Cu  Cu14  1  0.14970200  0.64970200  0.50000000  1
  Cu  Cu15  1  0.77419800  0.77419800  0.00000000  1
  Cu  Cu16  1  0.22580200  0.22580200  0.00000000  1
  Cu  Cu17  1  0.85227800  0.35227800  0.50000000  1
  Cu  Cu18  1  0.97580200  0.47580200  0.50000000  1
  Cu  Cu19  1  0.60029800  0.60029800  0.00000000  1
  Cu  Cu20  1  0.35029800  0.85029800  0.50000000  1
  Cu  Cu21  1  0.52419800  0.02419800  0.50000000  1
