# generated using pymatgen
data_CuNiC6
_symmetry_space_group_name_H-M   'P 1'
_cell_length_a   5.36933400
_cell_length_b   5.70875000
_cell_length_c   14.52898900
_cell_angle_alpha   90.00000000
_cell_angle_beta   90.00000000
_cell_angle_gamma   90.00000000
_symmetry_Int_Tables_number   1
_chemical_formula_structural   CuNiC6
_chemical_formula_sum   'Cu4 Ni4 C24'
_cell_volume   445.34526556
_cell_formula_units_Z   4
loop_
 _symmetry_equiv_pos_site_id
 _symmetry_equiv_pos_as_xyz
  1  'x, y, z'
loop_
 _atom_site_type_symbol
 _atom_site_label
 _atom_site_symmetry_multiplicity
 _atom_site_fract_x
 _atom_site_fract_y
 _atom_site_fract_z
 _atom_site_occupancy
  Ni  Ni0  1  0.25000000  0.50000000  0.61401800  1
  Ni  Ni1  1  0.75000000  0.50000000  0.38598200  1
  Ni  Ni2  1  0.25000000  0.00000000  0.11401800  1
  Ni  Ni3  1  0.75000000  0.00000000  0.88598200  1
  Cu  Cu4  1  0.75000000  0.00000000  0.56084100  1
  Cu  Cu5  1  0.25000000  0.00000000  0.43915900  1
  Cu  Cu6  1  0.25000000  0.50000000  0.93915900  1
  Cu  Cu7  1  0.75000000  0.50000000  0.06084100  1
  C  C8  1  0.75000000  0.50000000  0.74313400  1
  C  C9  1  0.75000000  0.00000000  0.24313400  1
  C  C10  1  0.25000000  0.00000000  0.75686600  1
  C  C11  1  0.25000000  0.50000000  0.25686600  1
  C  C12  1  0.93534400  0.29688500  0.97650500  1
  C  C13  1  0.10170400  0.13355200  0.71449100  1
  C  C14  1  0.89829600  0.86644800  0.28550900  1
  C  C15  1  0.39829600  0.63355200  0.21449100  1
  C  C16  1  0.56465600  0.70311500  0.97650500  1
  C  C17  1  0.10170400  0.36644800  0.21449100  1
  C  C18  1  0.39829600  0.86644800  0.71449100  1
  C  C19  1  0.60170400  0.13355200  0.28550900  1
  C  C20  1  0.75000000  0.50000000  0.65462600  1
  C  C21  1  0.25000000  0.50000000  0.34537400  1
  C  C22  1  0.60170400  0.36644800  0.78550900  1
  C  C23  1  0.06465600  0.70311500  0.02349500  1
  C  C24  1  0.75000000  0.00000000  0.15462600  1
  C  C25  1  0.89829600  0.63355200  0.78550900  1
  C  C26  1  0.25000000  0.00000000  0.84537400  1
  C  C27  1  0.06465600  0.79688500  0.52349500  1
  C  C28  1  0.43534400  0.29688500  0.02349500  1
  C  C29  1  0.43534400  0.20311500  0.52349500  1
  C  C30  1  0.56465600  0.79688500  0.47650500  1
  C  C31  1  0.93534400  0.20311500  0.47650500  1
