# generated using pymatgen
data_Cu3NiC
_symmetry_space_group_name_H-M   'P 1'
_cell_length_a   6.48132704
_cell_length_b   6.48132704
_cell_length_c   6.48132711
_cell_angle_alpha   47.67131341
_cell_angle_beta   47.67131341
_cell_angle_gamma   47.67131286
_symmetry_Int_Tables_number   1
_chemical_formula_structural   Cu3NiC
_chemical_formula_sum   'Cu6 Ni2 C2'
_cell_volume   136.22781225
_cell_formula_units_Z   2
loop_
 _symmetry_equiv_pos_site_id
 _symmetry_equiv_pos_as_xyz
  1  'x, y, z'
loop_
 _atom_site_type_symbol
 _atom_site_label
 _atom_site_symmetry_multiplicity
 _atom_site_fract_x
 _atom_site_fract_y
 _atom_site_fract_z
 _atom_site_occupancy
  C  C0  1  0.99910900  0.99910900  0.99910900  1
  C  C1  1  0.49910900  0.49910900  0.49910900  1
  Ni  Ni2  1  0.22237300  0.22237300  0.22237300  1
  Ni  Ni3  1  0.72237300  0.72237300  0.72237300  1
  Cu  Cu4  1  0.98858000  0.66324800  0.51359800  1
  Cu  Cu5  1  0.16324800  0.48858000  0.01359800  1
  Cu  Cu6  1  0.66324800  0.51359800  0.98858000  1
  Cu  Cu7  1  0.51359800  0.98858000  0.66324800  1
  Cu  Cu8  1  0.01359800  0.16324800  0.48858000  1
  Cu  Cu9  1  0.48858000  0.01359800  0.16324800  1
