# generated using pymatgen
data_CuNi3C10
_symmetry_space_group_name_H-M   'P 1'
_cell_length_a   5.40932500
_cell_length_b   14.18686300
_cell_length_c   18.85947900
_cell_angle_alpha   90.00000000
_cell_angle_beta   90.00000000
_cell_angle_gamma   90.00000000
_symmetry_Int_Tables_number   1
_chemical_formula_structural   CuNi3C10
_chemical_formula_sum   'Cu8 Ni24 C80'
_cell_volume   1447.30192963
_cell_formula_units_Z   8
loop_
 _symmetry_equiv_pos_site_id
 _symmetry_equiv_pos_as_xyz
  1  'x, y, z'
loop_
 _atom_site_type_symbol
 _atom_site_label
 _atom_site_symmetry_multiplicity
 _atom_site_fract_x
 _atom_site_fract_y
 _atom_site_fract_z
 _atom_site_occupancy
  Ni  Ni0  1  0.99833600  0.95326000  0.42662000  1
  Ni  Ni1  1  0.49872900  0.61551800  0.02629700  1
  Ni  Ni2  1  0.00871300  0.72009300  0.08357100  1
  Ni  Ni3  1  0.50127100  0.38448200  0.52629700  1
  Ni  Ni4  1  0.47120600  0.47095300  0.18746200  1
  Ni  Ni5  1  0.00871300  0.77990700  0.58357100  1
  Ni  Ni6  1  0.99128700  0.22009300  0.08357100  1
  Ni  Ni7  1  0.99128700  0.27990700  0.58357100  1
  Ni  Ni8  1  0.48186500  0.79635600  0.34592800  1
  Ni  Ni9  1  0.00166400  0.45326000  0.42662000  1
  Ni  Ni10  1  0.98794100  0.63543800  0.74774200  1
  Ni  Ni11  1  0.50127100  0.11551800  0.02629700  1
  Ni  Ni12  1  0.01205900  0.13543800  0.74774200  1
  Ni  Ni13  1  0.99833600  0.54674000  0.92662000  1
  Ni  Ni14  1  0.47120600  0.02904700  0.68746200  1
  Ni  Ni15  1  0.52879400  0.52904700  0.68746200  1
  Ni  Ni16  1  0.51813500  0.20364400  0.84592800  1
  Ni  Ni17  1  0.51813500  0.29635600  0.34592800  1
  Ni  Ni18  1  0.01205900  0.36456200  0.24774200  1
  Ni  Ni19  1  0.98794100  0.86456200  0.24774200  1
  Ni  Ni20  1  0.52879400  0.97095300  0.18746200  1
  Ni  Ni21  1  0.49872900  0.88448200  0.52629700  1
  Ni  Ni22  1  0.48186500  0.70364400  0.84592800  1
  Ni  Ni23  1  0.00166400  0.04674000  0.92662000  1
  Cu  Cu24  1  0.93963100  0.88556100  0.77358500  1
  Cu  Cu25  1  0.46070200  0.36500400  0.00030900  1
  Cu  Cu26  1  0.53929800  0.86500400  0.00030900  1
  Cu  Cu27  1  0.53929800  0.63499600  0.50030900  1
  Cu  Cu28  1  0.06036900  0.11443900  0.27358500  1
  Cu  Cu29  1  0.93963100  0.61443900  0.27358500  1
  Cu  Cu30  1  0.06036900  0.38556100  0.77358500  1
  Cu  Cu31  1  0.46070200  0.13499600  0.50030900  1
  C  C32  1  0.02096100  0.97913000  0.09470800  1
  C  C33  1  0.46206500  0.73016500  0.17898800  1
  C  C34  1  0.53793500  0.26983500  0.67898800  1
  C  C35  1  0.97903900  0.02087000  0.59470800  1
  C  C36  1  0.00418400  0.77063800  0.92236700  1
  C  C37  1  0.99581600  0.22936200  0.42236700  1
  C  C38  1  0.47695400  0.98009800  0.85111100  1
  C  C39  1  0.53793500  0.23016500  0.17898800  1
  C  C40  1  0.97903900  0.47913000  0.09470800  1
  C  C41  1  0.46206500  0.76983500  0.67898800  1
  C  C42  1  0.99581600  0.27063800  0.92236700  1
  C  C43  1  0.52304600  0.01990200  0.35111100  1
  C  C44  1  0.52304600  0.48009800  0.85111100  1
  C  C45  1  0.00418400  0.72936200  0.42236700  1
  C  C46  1  0.47695400  0.51990200  0.35111100  1
  C  C47  1  0.02096100  0.52087000  0.59470800  1
  C  C48  1  0.53237900  0.24809000  0.59785400  1
  C  C49  1  0.60493800  0.86416100  0.69107900  1
  C  C50  1  0.96976900  0.87930300  0.92279000  1
  C  C51  1  0.99890400  0.76409600  0.34411600  1
  C  C52  1  0.01025200  0.00010000  0.67552500  1
  C  C53  1  0.52546800  0.98654600  0.42985400  1
  C  C54  1  0.11673600  0.38447000  0.07934700  1
  C  C55  1  0.69745900  0.47238800  0.31164600  1
  C  C56  1  0.74797900  0.24129700  0.95745100  1
  C  C57  1  0.98974800  0.99990000  0.17552500  1
  C  C58  1  0.69687900  0.03245100  0.57739500  1
  C  C59  1  0.47453200  0.48654600  0.42985400  1
  C  C60  1  0.00109600  0.23590400  0.84411600  1
  C  C61  1  0.88326400  0.61553000  0.57934700  1
  C  C62  1  0.03023100  0.37930300  0.92279000  1
  C  C63  1  0.81701600  0.21750800  0.20019500  1
  C  C64  1  0.09107300  0.55889200  0.04913500  1
  C  C65  1  0.78681700  0.72431900  0.96413500  1
  C  C66  1  0.23161900  0.49105100  0.31447100  1
  C  C67  1  0.25202100  0.74129700  0.95745100  1
  C  C68  1  0.21318300  0.22431900  0.96413500  1
  C  C69  1  0.18298400  0.78249200  0.70019500  1
  C  C70  1  0.46762100  0.74809000  0.59785400  1
  C  C71  1  0.78681700  0.77568100  0.46413500  1
  C  C72  1  0.18298400  0.71750800  0.20019500  1
  C  C73  1  0.48696900  0.37147400  0.84952900  1
  C  C74  1  0.74797900  0.25870300  0.45745100  1
  C  C75  1  0.23161900  0.00894900  0.81447100  1
  C  C76  1  0.60493800  0.63583900  0.19107900  1
  C  C77  1  0.42191600  0.19049900  0.72379100  1
  C  C78  1  0.30312100  0.53245100  0.57739500  1
  C  C79  1  0.69745900  0.02761200  0.81164600  1
  C  C80  1  0.69687900  0.46754900  0.07739500  1
  C  C81  1  0.99890400  0.73590400  0.84411600  1
  C  C82  1  0.01025200  0.49990000  0.17552500  1
  C  C83  1  0.88326400  0.88447000  0.07934700  1
  C  C84  1  0.25202100  0.75870300  0.45745100  1
  C  C85  1  0.51303100  0.87147400  0.84952900  1
  C  C86  1  0.57808400  0.69050000  0.72379100  1
  C  C87  1  0.21318300  0.27568100  0.46413500  1
  C  C88  1  0.42191600  0.30950100  0.22379100  1
  C  C89  1  0.00109600  0.26409600  0.34411600  1
  C  C90  1  0.96976900  0.62069700  0.42279000  1
  C  C91  1  0.30312100  0.96754900  0.07739500  1
  C  C92  1  0.47453200  0.01345400  0.92985400  1
  C  C93  1  0.48696900  0.12852600  0.34952900  1
  C  C94  1  0.90892700  0.05889200  0.04913500  1
  C  C95  1  0.51303100  0.62852600  0.34952900  1
  C  C96  1  0.46762100  0.75191000  0.09785400  1
  C  C97  1  0.52546800  0.51345400  0.92985400  1
  C  C98  1  0.09107300  0.94110800  0.54913500  1
  C  C99  1  0.30254100  0.52761200  0.81164600  1
  C  C100  1  0.53237900  0.25191000  0.09785400  1
  C  C101  1  0.39506200  0.13583900  0.19107900  1
  C  C102  1  0.03023100  0.12069700  0.42279000  1
  C  C103  1  0.39506200  0.36416100  0.69107900  1
  C  C104  1  0.81701600  0.28249200  0.70019500  1
  C  C105  1  0.90892700  0.44110800  0.54913500  1
  C  C106  1  0.57808400  0.80950000  0.22379100  1
  C  C107  1  0.76838100  0.50894900  0.81447100  1
  C  C108  1  0.30254100  0.97238800  0.31164600  1
  C  C109  1  0.98974800  0.50010000  0.67552500  1
  C  C110  1  0.76838100  0.99105100  0.31447100  1
  C  C111  1  0.11673600  0.11553000  0.57934700  1
