# generated using pymatgen
data_Cu5(NiC7)2
_symmetry_space_group_name_H-M   'P 1'
_cell_length_a   9.62105800
_cell_length_b   10.49379700
_cell_length_c   13.71209500
_cell_angle_alpha   90.00000000
_cell_angle_beta   90.00000000
_cell_angle_gamma   90.00000000
_symmetry_Int_Tables_number   1
_chemical_formula_structural   Cu5(NiC7)2
_chemical_formula_sum   'Cu20 Ni8 C56'
_cell_volume   1384.39271370
_cell_formula_units_Z   4
loop_
 _symmetry_equiv_pos_site_id
 _symmetry_equiv_pos_as_xyz
  1  'x, y, z'
loop_
 _atom_site_type_symbol
 _atom_site_label
 _atom_site_symmetry_multiplicity
 _atom_site_fract_x
 _atom_site_fract_y
 _atom_site_fract_z
 _atom_site_occupancy
  C  C0  1  0.57054700  0.75000000  0.00082700  1
  C  C1  1  0.07054700  0.25000000  0.49917300  1
  C  C2  1  0.42945300  0.25000000  0.99917300  1
  C  C3  1  0.92945300  0.75000000  0.50082700  1
  Ni  Ni4  1  0.43035500  0.96673200  0.33999600  1
  Ni  Ni5  1  0.43035500  0.53326800  0.33999600  1
  Ni  Ni6  1  0.06964500  0.96673200  0.83999600  1
  Ni  Ni7  1  0.06964500  0.53326800  0.83999600  1
  Ni  Ni8  1  0.56964500  0.03326800  0.66000400  1
  Ni  Ni9  1  0.93035500  0.46673200  0.16000400  1
  Ni  Ni10  1  0.56964500  0.46673200  0.66000400  1
  Ni  Ni11  1  0.93035500  0.03326800  0.16000400  1
  Cu  Cu12  1  0.21337300  0.94334500  0.57584100  1
  Cu  Cu13  1  0.29617500  0.25000000  0.76432700  1
  Cu  Cu14  1  0.65774400  0.25000000  0.22062400  1
  Cu  Cu15  1  0.34225600  0.75000000  0.77937600  1
  Cu  Cu16  1  0.15774400  0.75000000  0.27937600  1
  Cu  Cu17  1  0.79617500  0.75000000  0.73567300  1
  Cu  Cu18  1  0.71337300  0.05665500  0.92415900  1
  Cu  Cu19  1  0.21337300  0.55665500  0.57584100  1
  Cu  Cu20  1  0.97121700  0.75000000  0.02366700  1
  Cu  Cu21  1  0.20382500  0.25000000  0.26432700  1
  Cu  Cu22  1  0.02878300  0.25000000  0.97633300  1
  Cu  Cu23  1  0.47121700  0.25000000  0.47633300  1
  Cu  Cu24  1  0.28662700  0.94334500  0.07584100  1
  Cu  Cu25  1  0.71337300  0.44334500  0.92415900  1
  Cu  Cu26  1  0.78662700  0.05665500  0.42415900  1
  Cu  Cu27  1  0.28662700  0.55665500  0.07584100  1
  Cu  Cu28  1  0.84225600  0.25000000  0.72062400  1
  Cu  Cu29  1  0.70382500  0.75000000  0.23567300  1
  Cu  Cu30  1  0.52878300  0.75000000  0.52366700  1
  Cu  Cu31  1  0.78662700  0.44334500  0.42415900  1
  C  C32  1  0.67510200  0.25000000  0.38741600  1
  C  C33  1  0.59239100  0.61293200  0.67136200  1
  C  C34  1  0.09239100  0.38706800  0.82863800  1
  C  C35  1  0.15460500  0.25000000  0.60622000  1
  C  C36  1  0.34769100  0.60492500  0.25888100  1
  C  C37  1  0.88018500  0.41914800  0.05784100  1
  C  C38  1  0.84769100  0.10492500  0.24111900  1
  C  C39  1  0.10718400  0.12150100  0.43315200  1
  C  C40  1  0.58943500  0.56260000  0.33146800  1
  C  C41  1  0.08943500  0.43740000  0.16853200  1
  C  C42  1  0.59239100  0.88706800  0.67136200  1
  C  C43  1  0.61981500  0.08085200  0.55784100  1
  C  C44  1  0.38018500  0.58085200  0.44215900  1
  C  C45  1  0.08943500  0.06260000  0.16853200  1
  C  C46  1  0.34539500  0.25000000  0.10622000  1
  C  C47  1  0.38018500  0.91914800  0.44215900  1
  C  C48  1  0.90760900  0.88706800  0.17136200  1
  C  C49  1  0.60152300  0.25000000  0.02055700  1
  C  C50  1  0.89847700  0.25000000  0.52055700  1
  C  C51  1  0.10152300  0.75000000  0.47944300  1
  C  C52  1  0.89281600  0.87849900  0.56684800  1
  C  C53  1  0.34769100  0.89507500  0.25888100  1
  C  C54  1  0.11981500  0.58085200  0.94215900  1
  C  C55  1  0.84539500  0.75000000  0.39378000  1
  C  C56  1  0.40760900  0.11293200  0.32863800  1
  C  C57  1  0.17510200  0.75000000  0.11258400  1
  C  C58  1  0.11981500  0.91914800  0.94215900  1
  C  C59  1  0.91056500  0.93740000  0.83146800  1
  C  C60  1  0.09239100  0.11293200  0.82863800  1
  C  C61  1  0.32489800  0.75000000  0.61258400  1
  C  C62  1  0.39281600  0.12150100  0.93315200  1
  C  C63  1  0.15230900  0.89507500  0.75888100  1
  C  C64  1  0.41056500  0.43740000  0.66853200  1
  C  C65  1  0.15230900  0.60492500  0.75888100  1
  C  C66  1  0.61981500  0.41914800  0.55784100  1
  C  C67  1  0.82489800  0.25000000  0.88741600  1
  C  C68  1  0.65230900  0.39507500  0.74111900  1
  C  C69  1  0.10718400  0.37849900  0.43315200  1
  C  C70  1  0.88018500  0.08085200  0.05784100  1
  C  C71  1  0.39281600  0.37849900  0.93315200  1
  C  C72  1  0.41056500  0.06260000  0.66853200  1
  C  C73  1  0.91056500  0.56260000  0.83146800  1
  C  C74  1  0.65460500  0.75000000  0.89378000  1
  C  C75  1  0.90760900  0.61293200  0.17136200  1
  C  C76  1  0.84769100  0.39507500  0.24111900  1
  C  C77  1  0.40760900  0.38706800  0.32863800  1
  C  C78  1  0.58943500  0.93740000  0.33146800  1
  C  C79  1  0.60718400  0.62150100  0.06684800  1
  C  C80  1  0.65230900  0.10492500  0.74111900  1
  C  C81  1  0.60718400  0.87849900  0.06684800  1
  C  C82  1  0.89281600  0.62150100  0.56684800  1
  C  C83  1  0.39847700  0.75000000  0.97944300  1
