# generated using pymatgen
data_Cu(Ni3C2)2
_symmetry_space_group_name_H-M   'P 1'
_cell_length_a   7.31635250
_cell_length_b   7.31635250
_cell_length_c   7.31635343
_cell_angle_alpha   82.31706386
_cell_angle_beta   82.31706386
_cell_angle_gamma   82.31706808
_symmetry_Int_Tables_number   1
_chemical_formula_structural   Cu(Ni3C2)2
_chemical_formula_sum   'Cu2 Ni12 C8'
_cell_volume   381.95351416
_cell_formula_units_Z   2
loop_
 _symmetry_equiv_pos_site_id
 _symmetry_equiv_pos_as_xyz
  1  'x, y, z'
loop_
 _atom_site_type_symbol
 _atom_site_label
 _atom_site_symmetry_multiplicity
 _atom_site_fract_x
 _atom_site_fract_y
 _atom_site_fract_z
 _atom_site_occupancy
  C  C0  1  0.15280100  0.15280100  0.15280100  1
  C  C1  1  0.84719900  0.84719900  0.84719900  1
  C  C2  1  0.64716400  0.87849400  0.36549000  1
  C  C3  1  0.12150600  0.63451000  0.35283600  1
  C  C4  1  0.63451000  0.35283600  0.12150600  1
  C  C5  1  0.87849400  0.36549000  0.64716400  1
  C  C6  1  0.36549000  0.64716400  0.87849400  1
  C  C7  1  0.35283600  0.12150600  0.63451000  1
  Ni  Ni8  1  0.95558600  0.45210500  0.34913100  1
  Ni  Ni9  1  0.34913100  0.95558600  0.45210500  1
  Ni  Ni10  1  0.54789500  0.65086900  0.04441400  1
  Ni  Ni11  1  0.45210500  0.34913100  0.95558600  1
  Ni  Ni12  1  0.65699900  0.06236400  0.14753400  1
  Ni  Ni13  1  0.14753400  0.65699900  0.06236400  1
  Ni  Ni14  1  0.06236400  0.14753400  0.65699900  1
  Ni  Ni15  1  0.04441400  0.54789500  0.65086900  1
  Ni  Ni16  1  0.34300100  0.93763600  0.85246600  1
  Ni  Ni17  1  0.93763600  0.85246600  0.34300100  1
  Ni  Ni18  1  0.85246600  0.34300100  0.93763600  1
  Ni  Ni19  1  0.65086900  0.04441400  0.54789500  1
  Cu  Cu20  1  0.65033500  0.65033500  0.65033500  1
  Cu  Cu21  1  0.34966500  0.34966500  0.34966500  1
