# generated using pymatgen
data_Cu2(Ni2C9)3
_symmetry_space_group_name_H-M   'P 1'
_cell_length_a   12.38980800
_cell_length_b   12.38980800
_cell_length_c   12.38980800
_cell_angle_alpha   90.00000000
_cell_angle_beta   90.00000000
_cell_angle_gamma   90.00000000
_symmetry_Int_Tables_number   1
_chemical_formula_structural   Cu2(Ni2C9)3
_chemical_formula_sum   'Cu8 Ni24 C108'
_cell_volume   1901.92649740
_cell_formula_units_Z   4
loop_
 _symmetry_equiv_pos_site_id
 _symmetry_equiv_pos_as_xyz
  1  'x, y, z'
loop_
 _atom_site_type_symbol
 _atom_site_label
 _atom_site_symmetry_multiplicity
 _atom_site_fract_x
 _atom_site_fract_y
 _atom_site_fract_z
 _atom_site_occupancy
  C  C0  1  0.00000000  0.00000000  0.00000000  1
  C  C1  1  0.50000000  0.50000000  0.00000000  1
  C  C2  1  0.50000000  0.00000000  0.50000000  1
  C  C3  1  0.00000000  0.50000000  0.50000000  1
  C  C4  1  0.63221400  0.34462400  0.36135000  1
  C  C5  1  0.42830800  0.75349300  0.30070700  1
  C  C6  1  0.15537600  0.63865000  0.13221400  1
  C  C7  1  0.30070700  0.42830800  0.75349300  1
  C  C8  1  0.07169200  0.24650700  0.80070700  1
  C  C9  1  0.84462400  0.36135000  0.86778600  1
  C  C10  1  0.86351100  0.20104500  0.23773800  1
  C  C11  1  0.34489200  0.65510800  0.15510800  1
  C  C12  1  0.07169200  0.25349300  0.30070700  1
  C  C13  1  0.13221400  0.34462400  0.13865000  1
  C  C14  1  0.15537600  0.86135000  0.63221400  1
  C  C15  1  0.36135000  0.63221400  0.34462400  1
  C  C16  1  0.92830800  0.75349300  0.19929300  1
  C  C17  1  0.75349300  0.30070700  0.42830800  1
  C  C18  1  0.84489200  0.65510800  0.34489200  1
  C  C19  1  0.86351100  0.29895500  0.73773800  1
  C  C20  1  0.36135000  0.86778600  0.84462400  1
  C  C21  1  0.65510800  0.15510800  0.34489200  1
  C  C22  1  0.70104500  0.26226200  0.13648900  1
  C  C23  1  0.63865000  0.13221400  0.15537600  1
  C  C24  1  0.63648900  0.79895500  0.73773800  1
  C  C25  1  0.19929300  0.92830800  0.75349300  1
  C  C26  1  0.75349300  0.19929300  0.92830800  1
  C  C27  1  0.23773800  0.63648900  0.70104500  1
  C  C28  1  0.15510800  0.15510800  0.15510800  1
  C  C29  1  0.76226200  0.13648900  0.79895500  1
  C  C30  1  0.34462400  0.13865000  0.13221400  1
  C  C31  1  0.73773800  0.63648900  0.79895500  1
  C  C32  1  0.13648900  0.79895500  0.76226200  1
  C  C33  1  0.36778600  0.84462400  0.13865000  1
  C  C34  1  0.36351100  0.20104500  0.26226200  1
  C  C35  1  0.26226200  0.36351100  0.20104500  1
  C  C36  1  0.73773800  0.86351100  0.29895500  1
  C  C37  1  0.36351100  0.29895500  0.76226200  1
  C  C38  1  0.42830800  0.74650700  0.80070700  1
  C  C39  1  0.25349300  0.19929300  0.57169200  1
  C  C40  1  0.13648900  0.70104500  0.26226200  1
  C  C41  1  0.20104500  0.23773800  0.86351100  1
  C  C42  1  0.69929300  0.57169200  0.24650700  1
  C  C43  1  0.65510800  0.34489200  0.84489200  1
  C  C44  1  0.86778600  0.65537600  0.86135000  1
  C  C45  1  0.20104500  0.26226200  0.36351100  1
  C  C46  1  0.13221400  0.15537600  0.63865000  1
  C  C47  1  0.74650700  0.69929300  0.92830800  1
  C  C48  1  0.84489200  0.84489200  0.84489200  1
  C  C49  1  0.86135000  0.86778600  0.65537600  1
  C  C50  1  0.19929300  0.57169200  0.25349300  1
  C  C51  1  0.26226200  0.13648900  0.70104500  1
  C  C52  1  0.13865000  0.13221400  0.34462400  1
  C  C53  1  0.63648900  0.70104500  0.23773800  1
  C  C54  1  0.25349300  0.30070700  0.07169200  1
  C  C55  1  0.13865000  0.36778600  0.84462400  1
  C  C56  1  0.63865000  0.36778600  0.65537600  1
  C  C57  1  0.24650700  0.69929300  0.57169200  1
  C  C58  1  0.29895500  0.76226200  0.36351100  1
  C  C59  1  0.15510800  0.34489200  0.65510800  1
  C  C60  1  0.65537600  0.86135000  0.86778600  1
  C  C61  1  0.70104500  0.23773800  0.63648900  1
  C  C62  1  0.92830800  0.74650700  0.69929300  1
  C  C63  1  0.57169200  0.25349300  0.19929300  1
  C  C64  1  0.74650700  0.80070700  0.42830800  1
  C  C65  1  0.30070700  0.07169200  0.25349300  1
  C  C66  1  0.34489200  0.84489200  0.65510800  1
  C  C67  1  0.36778600  0.65537600  0.63865000  1
  C  C68  1  0.63221400  0.15537600  0.86135000  1
  C  C69  1  0.79895500  0.76226200  0.13648900  1
  C  C70  1  0.57169200  0.24650700  0.69929300  1
  C  C71  1  0.65537600  0.63865000  0.36778600  1
  C  C72  1  0.69929300  0.92830800  0.74650700  1
  C  C73  1  0.24650700  0.80070700  0.07169200  1
  C  C74  1  0.80070700  0.07169200  0.24650700  1
  C  C75  1  0.84462400  0.13865000  0.36778600  1
  C  C76  1  0.23773800  0.86351100  0.20104500  1
  C  C77  1  0.29895500  0.73773800  0.86351100  1
  C  C78  1  0.79895500  0.73773800  0.63648900  1
  C  C79  1  0.34462400  0.36135000  0.63221400  1
  C  C80  1  0.80070700  0.42830800  0.74650700  1
  C  C81  1  0.86778600  0.84462400  0.36135000  1
  C  C82  1  0.76226200  0.36351100  0.29895500  1
  C  C83  1  0.86135000  0.63221400  0.15537600  1
  Ni  Ni84  1  0.35042200  0.78684400  0.81103000  1
  Ni  Ni85  1  0.21315600  0.18897000  0.64957800  1
  Ni  Ni86  1  0.18897000  0.85042200  0.71315600  1
  Ni  Ni87  1  0.64957800  0.28684400  0.68897000  1
  Ni  Ni88  1  0.68897000  0.85042200  0.78684400  1
  Ni  Ni89  1  0.81103000  0.35042200  0.78684400  1
  Ni  Ni90  1  0.31103000  0.14957800  0.21315600  1
  Ni  Ni91  1  0.64957800  0.21315600  0.18897000  1
  Ni  Ni92  1  0.21315600  0.31103000  0.14957800  1
  Ni  Ni93  1  0.81103000  0.14957800  0.28684400  1
  Ni  Ni94  1  0.28684400  0.81103000  0.14957800  1
  Ni  Ni95  1  0.14957800  0.28684400  0.81103000  1
  Ni  Ni96  1  0.71315600  0.31103000  0.35042200  1
  Ni  Ni97  1  0.35042200  0.71315600  0.31103000  1
  Ni  Ni98  1  0.85042200  0.78684400  0.68897000  1
  Ni  Ni99  1  0.85042200  0.71315600  0.18897000  1
  Ni  Ni100  1  0.71315600  0.18897000  0.85042200  1
  Ni  Ni101  1  0.18897000  0.64957800  0.21315600  1
  Ni  Ni102  1  0.31103000  0.35042200  0.71315600  1
  Ni  Ni103  1  0.78684400  0.68897000  0.85042200  1
  Ni  Ni104  1  0.14957800  0.21315600  0.31103000  1
  Ni  Ni105  1  0.68897000  0.64957800  0.28684400  1
  Ni  Ni106  1  0.28684400  0.68897000  0.64957800  1
  Ni  Ni107  1  0.78684400  0.81103000  0.35042200  1
  Cu  Cu108  1  0.20344900  0.29655100  0.70344900  1
  Cu  Cu109  1  0.79655100  0.79655100  0.79655100  1
  Cu  Cu110  1  0.29655100  0.70344900  0.20344900  1
  Cu  Cu111  1  0.70344900  0.20344900  0.29655100  1
  Cu  Cu112  1  0.70344900  0.29655100  0.79655100  1
  Cu  Cu113  1  0.20344900  0.20344900  0.20344900  1
  Cu  Cu114  1  0.79655100  0.70344900  0.29655100  1
  Cu  Cu115  1  0.29655100  0.79655100  0.70344900  1
  C  C116  1  0.52590100  0.80408400  0.53317000  1
  C  C117  1  0.69591600  0.03317000  0.52590100  1
  C  C118  1  0.80408400  0.53317000  0.52590100  1
  C  C119  1  0.97409900  0.19591600  0.03317000  1
  C  C120  1  0.03317000  0.52590100  0.69591600  1
  C  C121  1  0.19591600  0.03317000  0.97409900  1
  C  C122  1  0.30408400  0.53317000  0.97409900  1
  C  C123  1  0.53317000  0.97409900  0.30408400  1
  C  C124  1  0.80408400  0.96683000  0.02590100  1
  C  C125  1  0.96683000  0.02590100  0.80408400  1
  C  C126  1  0.30408400  0.96683000  0.47409900  1
  C  C127  1  0.19591600  0.46683000  0.47409900  1
  C  C128  1  0.52590100  0.69591600  0.03317000  1
  C  C129  1  0.46683000  0.47409900  0.19591600  1
  C  C130  1  0.69591600  0.46683000  0.02590100  1
  C  C131  1  0.03317000  0.97409900  0.19591600  1
  C  C132  1  0.02590100  0.80408400  0.96683000  1
  C  C133  1  0.02590100  0.69591600  0.46683000  1
  C  C134  1  0.47409900  0.19591600  0.46683000  1
  C  C135  1  0.46683000  0.02590100  0.69591600  1
  C  C136  1  0.96683000  0.47409900  0.30408400  1
  C  C137  1  0.97409900  0.30408400  0.53317000  1
  C  C138  1  0.53317000  0.52590100  0.80408400  1
  C  C139  1  0.47409900  0.30408400  0.96683000  1
