# generated using pymatgen
data_Cu4NiC7
_symmetry_space_group_name_H-M   'P 1'
_cell_length_a   9.04496200
_cell_length_b   10.10360000
_cell_length_c   10.56580700
_cell_angle_alpha   90.00000000
_cell_angle_beta   90.00000000
_cell_angle_gamma   90.00000000
_symmetry_Int_Tables_number   1
_chemical_formula_structural   Cu4NiC7
_chemical_formula_sum   'Cu32 Ni8 C56'
_cell_volume   965.57400279
_cell_formula_units_Z   8
loop_
 _symmetry_equiv_pos_site_id
 _symmetry_equiv_pos_as_xyz
  1  'x, y, z'
loop_
 _atom_site_type_symbol
 _atom_site_label
 _atom_site_symmetry_multiplicity
 _atom_site_fract_x
 _atom_site_fract_y
 _atom_site_fract_z
 _atom_site_occupancy
  C  C0  1  0.64680500  0.81758700  0.37128800  1
  C  C1  1  0.14680500  0.68241300  0.62871200  1
  C  C2  1  0.35319500  0.31758700  0.12871200  1
  C  C3  1  0.85319500  0.18241300  0.87128800  1
  C  C4  1  0.35319500  0.18241300  0.62871200  1
  C  C5  1  0.85319500  0.31758700  0.37128800  1
  C  C6  1  0.64680500  0.68241300  0.87128800  1
  C  C7  1  0.14680500  0.81758700  0.12871200  1
  Ni  Ni8  1  0.53491600  0.13653100  0.35027500  1
  Ni  Ni9  1  0.03491600  0.36346900  0.64972500  1
  Ni  Ni10  1  0.46508400  0.63653100  0.14972500  1
  Ni  Ni11  1  0.96508400  0.86346900  0.85027500  1
  Ni  Ni12  1  0.46508400  0.86346900  0.64972500  1
  Ni  Ni13  1  0.96508400  0.63653100  0.35027500  1
  Ni  Ni14  1  0.53491600  0.36346900  0.85027500  1
  Ni  Ni15  1  0.03491600  0.13653100  0.14972500  1
  Cu  Cu16  1  0.68282800  0.82789500  0.12942400  1
  Cu  Cu17  1  0.18282800  0.67210500  0.87057600  1
  Cu  Cu18  1  0.31717200  0.32789500  0.37057600  1
  Cu  Cu19  1  0.81717200  0.17210500  0.62942400  1
  Cu  Cu20  1  0.31717200  0.17210500  0.87057600  1
  Cu  Cu21  1  0.81717200  0.32789500  0.12942400  1
  Cu  Cu22  1  0.68282800  0.67210500  0.62942400  1
  Cu  Cu23  1  0.18282800  0.82789500  0.37057600  1
  Cu  Cu24  1  0.83335400  0.89916400  0.18355300  1
  Cu  Cu25  1  0.33335400  0.60083600  0.81644700  1
  Cu  Cu26  1  0.16664600  0.39916400  0.31644700  1
  Cu  Cu27  1  0.66664600  0.10083600  0.68355300  1
  Cu  Cu28  1  0.16664600  0.10083600  0.81644700  1
  Cu  Cu29  1  0.66664600  0.39916400  0.18355300  1
  Cu  Cu30  1  0.83335400  0.60083600  0.68355300  1
  Cu  Cu31  1  0.33335400  0.89916400  0.31644700  1
  Cu  Cu32  1  0.86069200  0.90639300  0.52563100  1
  Cu  Cu33  1  0.36069200  0.59360700  0.47436900  1
  Cu  Cu34  1  0.13930800  0.40639300  0.97436900  1
  Cu  Cu35  1  0.63930800  0.09360700  0.02563100  1
  Cu  Cu36  1  0.13930800  0.09360700  0.47436900  1
  Cu  Cu37  1  0.63930800  0.40639300  0.52563100  1
  Cu  Cu38  1  0.86069200  0.59360700  0.02563100  1
  Cu  Cu39  1  0.36069200  0.90639300  0.97436900  1
  Cu  Cu40  1  0.80202400  0.02543400  0.43343600  1
  Cu  Cu41  1  0.30202400  0.47456600  0.56656400  1
  Cu  Cu42  1  0.19797600  0.52543400  0.06656400  1
  Cu  Cu43  1  0.69797600  0.97456600  0.93343600  1
  Cu  Cu44  1  0.19797600  0.97456600  0.56656400  1
  Cu  Cu45  1  0.69797600  0.52543400  0.43343600  1
  Cu  Cu46  1  0.80202400  0.47456600  0.93343600  1
  Cu  Cu47  1  0.30202400  0.02543400  0.06656400  1
  C  C48  1  0.50194900  0.96894500  0.35869700  1
  C  C49  1  0.00194900  0.53105500  0.64130300  1
  C  C50  1  0.49805100  0.46894500  0.14130300  1
  C  C51  1  0.99805100  0.03105500  0.85869700  1
  C  C52  1  0.49805100  0.03105500  0.64130300  1
  C  C53  1  0.99805100  0.46894500  0.35869700  1
  C  C54  1  0.50194900  0.53105500  0.85869700  1
  C  C55  1  0.00194900  0.96894500  0.14130300  1
  C  C56  1  0.71752100  0.16047600  0.39208400  1
  C  C57  1  0.21752100  0.33952400  0.60791600  1
  C  C58  1  0.28247900  0.66047600  0.10791600  1
  C  C59  1  0.78247900  0.83952400  0.89208400  1
  C  C60  1  0.28247900  0.83952400  0.60791600  1
  C  C61  1  0.78247900  0.66047600  0.39208400  1
  C  C62  1  0.71752100  0.33952400  0.89208400  1
  C  C63  1  0.21752100  0.16047600  0.10791600  1
  C  C64  1  0.50591500  0.19690000  0.20049700  1
  C  C65  1  0.00591500  0.30310000  0.79950300  1
  C  C66  1  0.49408500  0.69690000  0.29950300  1
  C  C67  1  0.99408500  0.80310000  0.70049700  1
  C  C68  1  0.49408500  0.80310000  0.79950300  1
  C  C69  1  0.99408500  0.69690000  0.20049700  1
  C  C70  1  0.50591500  0.30310000  0.70049700  1
  C  C71  1  0.00591500  0.19690000  0.29950300  1
  C  C72  1  0.41661600  0.22062900  0.45063700  1
  C  C73  1  0.91661600  0.27937100  0.54936300  1
  C  C74  1  0.58338400  0.72062900  0.04936300  1
  C  C75  1  0.08338400  0.77937100  0.95063700  1
  C  C76  1  0.58338400  0.77937100  0.54936300  1
  C  C77  1  0.08338400  0.72062900  0.45063700  1
  C  C78  1  0.41661600  0.27937100  0.95063700  1
  C  C79  1  0.91661600  0.22062900  0.04936300  1
  C  C80  1  0.72563000  0.88485600  0.19852600  1
  C  C81  1  0.22563000  0.61514400  0.80147400  1
  C  C82  1  0.27437000  0.38485600  0.30147400  1
  C  C83  1  0.77437000  0.11514400  0.69852600  1
  C  C84  1  0.27437000  0.11514400  0.80147400  1
  C  C85  1  0.77437000  0.38485600  0.19852600  1
  C  C86  1  0.72563000  0.61514400  0.69852600  1
  C  C87  1  0.22563000  0.88485600  0.30147400  1
  C  C88  1  0.82816200  0.92857800  0.43953300  1
  C  C89  1  0.32816200  0.57142200  0.56046700  1
  C  C90  1  0.17183800  0.42857800  0.06046700  1
  C  C91  1  0.67183800  0.07142200  0.93953300  1
  C  C92  1  0.17183800  0.07142200  0.56046700  1
  C  C93  1  0.67183800  0.42857800  0.43953300  1
  C  C94  1  0.82816200  0.57142200  0.93953300  1
  C  C95  1  0.32816200  0.92857800  0.06046700  1
