# generated using pymatgen
data_Cu2Ni6C7
_symmetry_space_group_name_H-M   'P 1'
_cell_length_a   7.20379100
_cell_length_b   8.72493800
_cell_length_c   9.45934954
_cell_angle_alpha   81.94406009
_cell_angle_beta   90.00000000
_cell_angle_gamma   90.00000000
_symmetry_Int_Tables_number   1
_chemical_formula_structural   Cu2Ni6C7
_chemical_formula_sum   'Cu8 Ni24 C28'
_cell_volume   588.67785679
_cell_formula_units_Z   4
loop_
 _symmetry_equiv_pos_site_id
 _symmetry_equiv_pos_as_xyz
  1  'x, y, z'
loop_
 _atom_site_type_symbol
 _atom_site_label
 _atom_site_symmetry_multiplicity
 _atom_site_fract_x
 _atom_site_fract_y
 _atom_site_fract_z
 _atom_site_occupancy
  C  C0  1  0.00000000  0.00000000  0.00000000  1
  C  C1  1  0.50000000  0.00000000  0.50000000  1
  C  C2  1  0.50000000  0.50000000  0.00000000  1
  C  C3  1  0.00000000  0.50000000  0.50000000  1
  Ni  Ni4  1  0.60961600  0.20862100  0.99244600  1
  Ni  Ni5  1  0.10961600  0.79137900  0.50755400  1
  Ni  Ni6  1  0.39038400  0.79137900  0.00755400  1
  Ni  Ni7  1  0.89038400  0.20862100  0.49244600  1
  Ni  Ni8  1  0.39368800  0.23346600  0.95468200  1
  Ni  Ni9  1  0.89368800  0.76653400  0.54531800  1
  Ni  Ni10  1  0.60631200  0.76653400  0.04531800  1
  Ni  Ni11  1  0.10631200  0.23346600  0.45468200  1
  Ni  Ni12  1  0.52517100  0.32991200  0.61312700  1
  Ni  Ni13  1  0.02517100  0.67008800  0.88687300  1
  Ni  Ni14  1  0.47482900  0.67008800  0.38687300  1
  Ni  Ni15  1  0.97482900  0.32991200  0.11312700  1
  Ni  Ni16  1  0.70755400  0.92678400  0.77572600  1
  Ni  Ni17  1  0.20755400  0.07321600  0.72427400  1
  Ni  Ni18  1  0.29244600  0.07321600  0.22427400  1
  Ni  Ni19  1  0.79244600  0.92678400  0.27572600  1
  Ni  Ni20  1  0.84762500  0.46814700  0.77726700  1
  Ni  Ni21  1  0.34762500  0.53185300  0.72273300  1
  Ni  Ni22  1  0.15237500  0.53185300  0.22273300  1
  Ni  Ni23  1  0.65237500  0.46814700  0.27726700  1
  Ni  Ni24  1  0.89861100  0.30185600  0.73691600  1
  Ni  Ni25  1  0.39861100  0.69814400  0.76308400  1
  Ni  Ni26  1  0.10138900  0.69814400  0.26308400  1
  Ni  Ni27  1  0.60138900  0.30185600  0.23691600  1
  Cu  Cu28  1  0.77485300  0.03476300  0.72616500  1
  Cu  Cu29  1  0.27485300  0.96523700  0.77383500  1
  Cu  Cu30  1  0.22514700  0.96523700  0.27383500  1
  Cu  Cu31  1  0.72514700  0.03476300  0.22616500  1
  Cu  Cu32  1  0.38493400  0.32552000  0.56590900  1
  Cu  Cu33  1  0.88493400  0.67448000  0.93409100  1
  Cu  Cu34  1  0.61506600  0.67448000  0.43409100  1
  Cu  Cu35  1  0.11506600  0.32552000  0.06590900  1
  C  C36  1  0.89250500  0.09776400  0.79959000  1
  C  C37  1  0.39250500  0.90223600  0.70041000  1
  C  C38  1  0.10749500  0.90223600  0.20041000  1
  C  C39  1  0.60749500  0.09776400  0.29959000  1
  C  C40  1  0.72833600  0.08767500  0.59894700  1
  C  C41  1  0.22833600  0.91232500  0.90105300  1
  C  C42  1  0.27166400  0.91232500  0.40105300  1
  C  C43  1  0.77166400  0.08767500  0.09894700  1
  C  C44  1  0.27560200  0.43663500  0.57918700  1
  C  C45  1  0.77560200  0.56336500  0.92081300  1
  C  C46  1  0.72439800  0.56336500  0.42081300  1
  C  C47  1  0.22439800  0.43663500  0.07918700  1
  C  C48  1  0.34532900  0.20883200  0.50391500  1
  C  C49  1  0.84532900  0.79116800  0.99608500  1
  C  C50  1  0.65467100  0.79116800  0.49608500  1
  C  C51  1  0.15467100  0.20883200  0.00391500  1
  C  C52  1  0.51962900  0.27915800  0.93653100  1
  C  C53  1  0.01962900  0.72084200  0.56346900  1
  C  C54  1  0.48037100  0.72084200  0.06346900  1
  C  C55  1  0.98037100  0.27915800  0.43653100  1
  C  C56  1  0.89078000  0.41315100  0.69822300  1
  C  C57  1  0.39078000  0.58684900  0.80177700  1
  C  C58  1  0.10922000  0.58684900  0.30177700  1
  C  C59  1  0.60922000  0.41315100  0.19822300  1
