# generated using pymatgen
data_Cu25(NiC14)8
_symmetry_space_group_name_H-M   'P 1'
_cell_length_a   16.68215591
_cell_length_b   16.68215643
_cell_length_c   16.68215657
_cell_angle_alpha   60.00000180
_cell_angle_beta   60.00000078
_cell_angle_gamma   60.00000275
_symmetry_Int_Tables_number   1
_chemical_formula_structural   Cu25(NiC14)8
_chemical_formula_sum   'Cu25 Ni8 C112'
_cell_volume   3282.77847924
_cell_formula_units_Z   1
loop_
 _symmetry_equiv_pos_site_id
 _symmetry_equiv_pos_as_xyz
  1  'x, y, z'
loop_
 _atom_site_type_symbol
 _atom_site_label
 _atom_site_symmetry_multiplicity
 _atom_site_fract_x
 _atom_site_fract_y
 _atom_site_fract_z
 _atom_site_occupancy
  C  C0  1  0.06671539  0.76295088  0.40738285  1
  C  C1  1  0.40738285  0.76295088  0.06671539  1
  C  C2  1  0.64510072  0.35489928  0.35489928  1
  C  C3  1  0.76295088  0.06671539  0.40738285  1
  C  C4  1  0.23704912  0.23704912  0.93328461  1
  C  C5  1  0.59261715  0.23704912  0.23704912  1
  C  C6  1  0.35489928  0.64510072  0.35489928  1
  C  C7  1  0.06671539  0.76295088  0.76295088  1
  C  C8  1  0.76295088  0.76295088  0.40738285  1
  C  C9  1  0.06671539  0.40738285  0.76295088  1
  C  C10  1  0.35489928  0.64510072  0.64510072  1
  C  C11  1  0.76295088  0.40738285  0.06671539  1
  C  C12  1  0.59261715  0.93328461  0.23704912  1
  C  C13  1  0.76295088  0.76295088  0.06671539  1
  C  C14  1  0.23704912  0.59261715  0.23704912  1
  C  C15  1  0.93328461  0.59261715  0.23704912  1
  C  C16  1  0.23704912  0.93328461  0.23704912  1
  C  C17  1  0.76295088  0.40738285  0.76295088  1
  C  C18  1  0.93328461  0.23704912  0.23704912  1
  C  C19  1  0.23704912  0.23704912  0.59261715  1
  C  C20  1  0.64510072  0.64510072  0.35489928  1
  C  C21  1  0.40738285  0.06671539  0.76295088  1
  C  C22  1  0.59261715  0.23704912  0.93328461  1
  C  C23  1  0.93328461  0.23704912  0.59261715  1
  C  C24  1  0.23704912  0.93328461  0.59261715  1
  C  C25  1  0.76295088  0.06671539  0.76295088  1
  C  C26  1  0.40738285  0.76295088  0.76295088  1
  C  C27  1  0.23704912  0.59261715  0.93328461  1
  C  C28  1  0.64510072  0.35489928  0.64510072  1
  C  C29  1  0.35489928  0.35489928  0.64510072  1
  C  C30  1  0.19535571  0.50000000  0.50000000  1
  C  C31  1  0.19535571  0.50000000  0.80464429  1
  C  C32  1  0.50000000  0.80464429  0.50000000  1
  C  C33  1  0.08950193  0.91049807  0.08950193  1
  C  C34  1  0.80464429  0.50000000  0.50000000  1
  C  C35  1  0.08950193  0.08950193  0.91049807  1
  C  C36  1  0.50000000  0.50000000  0.80464429  1
  C  C37  1  0.50000000  0.00000000  0.50000000  1
  C  C38  1  0.00000000  0.50000000  0.50000000  1
  C  C39  1  0.19535571  0.80464429  0.50000000  1
  C  C40  1  0.50000000  0.80464429  0.19535571  1
  C  C41  1  0.50000000  0.19535571  0.50000000  1
  C  C42  1  0.50000000  0.19535571  0.80464429  1
  C  C43  1  0.80464429  0.19535571  0.50000000  1
  C  C44  1  0.50000000  0.50000000  0.00000000  1
  C  C45  1  0.08950193  0.91049807  0.91049807  1
  C  C46  1  0.00000000  0.00000000  0.50000000  1
  C  C47  1  0.50000000  0.00000000  0.00000000  1
  C  C48  1  0.50000000  0.50000000  0.19535571  1
  C  C49  1  0.80464429  0.50000000  0.19535571  1
  C  C50  1  0.91049807  0.08950193  0.91049807  1
  C  C51  1  0.00000000  0.50000000  0.00000000  1
  C  C52  1  0.91049807  0.08950193  0.08950193  1
  C  C53  1  0.91049807  0.91049807  0.08950193  1
  C  C54  1  0.58264168  0.02224914  0.58264168  1
  C  C55  1  0.58254144  0.58254144  0.25237568  1
  C  C56  1  0.80590053  0.80590053  0.19409947  1
  C  C57  1  0.81246749  0.02224914  0.58264168  1
  C  C58  1  0.41745856  0.41745856  0.74762432  1
  C  C59  1  0.65555398  1.00000000  0.34444602  1
  C  C60  1  0.41735832  0.97775086  0.41735832  1
  C  C61  1  0.18753251  0.41735832  0.97775086  1
  C  C62  1  0.34444602  0.00000000  1.00000000  1
  C  C63  1  0.07782417  0.76652750  0.07782417  1
  C  C64  1  0.81246749  0.58264168  0.58264168  1
  C  C65  1  0.19409947  0.80590053  0.19409947  1
  C  C66  1  0.23347250  0.92217583  0.92217583  1
  C  C67  1  0.41735832  0.18753251  0.97775086  1
  C  C68  1  0.07782417  0.07782417  0.07782417  1
  C  C69  1  0.41735832  0.18753251  0.41735832  1
  C  C70  1  0.58264168  0.81246749  0.02224914  1
  C  C71  1  0.65555398  0.34444602  0.00000000  1
  C  C72  1  0.97775086  0.41735832  0.41735832  1
  C  C73  1  0.92217583  0.23347250  0.92217583  1
  C  C74  1  0.58264168  0.58264168  0.81246749  1
  C  C75  1  0.58264168  0.58264168  0.02224914  1
  C  C76  1  0.02224914  0.58264168  0.81246749  1
  C  C77  1  0.92217583  0.92217583  0.92217583  1
  C  C78  1  0.58254144  0.58254144  0.58254144  1
  C  C79  1  0.80590053  0.19409947  0.19409947  1
  C  C80  1  0.80590053  0.19409947  0.80590053  1
  C  C81  1  0.41735832  0.41735832  0.18753251  1
  C  C82  1  0.65555398  1.00000000  0.00000000  1
  C  C83  1  0.18753251  0.97775086  0.41735832  1
  C  C84  1  1.00000000  0.65555398  0.34444602  1
  C  C85  1  0.34444602  0.65555398  1.00000000  1
  C  C86  1  0.81246749  0.58264168  0.02224914  1
  C  C87  1  0.58264168  0.02224914  0.81246749  1
  C  C88  1  0.41735832  0.41735832  0.97775086  1
  C  C89  1  0.97775086  0.18753251  0.41735832  1
  C  C90  1  0.19409947  0.19409947  0.80590053  1
  C  C91  1  0.76652750  0.07782417  0.07782417  1
  C  C92  1  0.58264168  0.81246749  0.58264168  1
  C  C93  1  0.92217583  0.92217583  0.23347250  1
  C  C94  1  0.97775086  0.41735832  0.18753251  1
  C  C95  1  0.25237568  0.58254144  0.58254144  1
  C  C96  1  0.00000000  0.00000000  0.34444602  1
  C  C97  1  1.00000000  0.65555398  1.00000000  1
  C  C98  1  0.41745856  0.74762432  0.41745856  1
  C  C99  1  0.34444602  0.00000000  0.65555398  1
  C  C100  1  0.18753251  0.41735832  0.41735832  1
  C  C101  1  0.41745856  0.41745856  0.41745856  1
  C  C102  1  0.00000000  0.34444602  0.65555398  1
  C  C103  1  0.58254144  0.25237568  0.58254144  1
  C  C104  1  0.41735832  0.97775086  0.18753251  1
  C  C105  1  0.02224914  0.58264168  0.58264168  1
  C  C106  1  0.00000000  0.34444602  0.00000000  1
  C  C107  1  0.19409947  0.80590053  0.80590053  1
  C  C108  1  1.00000000  1.00000000  0.65555398  1
  C  C109  1  0.02224914  0.81246749  0.58264168  1
  C  C110  1  0.74762432  0.41745856  0.41745856  1
  C  C111  1  0.07782417  0.07782417  0.76652750  1
  Ni  Ni112  1  0.17333288  0.17333288  0.48000137  1
  Ni  Ni113  1  0.17333288  0.17333288  0.17333288  1
  Ni  Ni114  1  0.51999863  0.82666712  0.82666712  1
  Ni  Ni115  1  0.48000137  0.17333288  0.17333288  1
  Ni  Ni116  1  0.82666712  0.51999863  0.82666712  1
  Ni  Ni117  1  0.82666712  0.82666712  0.82666712  1
  Ni  Ni118  1  0.82666712  0.82666712  0.51999863  1
  Ni  Ni119  1  0.17333288  0.48000137  0.17333288  1
  Cu  Cu120  1  0.21107875  0.38618483  0.78892125  1
  Cu  Cu121  1  0.38618483  0.21107875  0.61381517  1
  Cu  Cu122  1  0.61381517  0.38618483  0.21107875  1
  Cu  Cu123  1  0.21107875  0.78892125  0.38618483  1
  Cu  Cu124  1  0.78892125  0.61381517  0.21107875  1
  Cu  Cu125  1  0.61381517  0.21107875  0.38618483  1
  Cu  Cu126  1  0.78892125  0.21107875  0.61381517  1
  Cu  Cu127  1  0.38618483  0.78892125  0.61381517  1
  Cu  Cu128  1  0.38618483  0.78892125  0.21107875  1
  Cu  Cu129  1  0.21107875  0.78892125  0.61381517  1
  Cu  Cu130  1  0.78892125  0.38618483  0.61381517  1
  Cu  Cu131  1  0.21107875  0.61381517  0.78892125  1
  Cu  Cu132  1  0.38618483  0.21107875  0.78892125  1
  Cu  Cu133  1  0.00000000  0.00000000  0.00000000  1
  Cu  Cu134  1  0.61381517  0.21107875  0.78892125  1
  Cu  Cu135  1  0.38618483  0.61381517  0.78892125  1
  Cu  Cu136  1  0.78892125  0.61381517  0.38618483  1
  Cu  Cu137  1  0.21107875  0.38618483  0.61381517  1
  Cu  Cu138  1  0.61381517  0.78892125  0.21107875  1
  Cu  Cu139  1  0.21107875  0.61381517  0.38618483  1
  Cu  Cu140  1  0.61381517  0.38618483  0.78892125  1
  Cu  Cu141  1  0.61381517  0.78892125  0.38618483  1
  Cu  Cu142  1  0.38618483  0.61381517  0.21107875  1
  Cu  Cu143  1  0.78892125  0.38618483  0.21107875  1
  Cu  Cu144  1  0.78892125  0.21107875  0.38618483  1
