# generated using pymatgen
data_CuNiC7
_symmetry_space_group_name_H-M   'P 1'
_cell_length_a   5.19448254
_cell_length_b   5.19448254
_cell_length_c   9.91370100
_cell_angle_alpha   90.00000000
_cell_angle_beta   90.00000000
_cell_angle_gamma   120.00000693
_symmetry_Int_Tables_number   1
_chemical_formula_structural   CuNiC7
_chemical_formula_sum   'Cu2 Ni2 C14'
_cell_volume   231.65997229
_cell_formula_units_Z   2
loop_
 _symmetry_equiv_pos_site_id
 _symmetry_equiv_pos_as_xyz
  1  'x, y, z'
loop_
 _atom_site_type_symbol
 _atom_site_label
 _atom_site_symmetry_multiplicity
 _atom_site_fract_x
 _atom_site_fract_y
 _atom_site_fract_z
 _atom_site_occupancy
  Ni  Ni0  1  0.33333300  0.66666700  0.25000000  1
  Ni  Ni1  1  0.66666700  0.33333300  0.75000000  1
  Cu  Cu2  1  0.00000000  0.00000000  0.00000000  1
  Cu  Cu3  1  0.00000000  0.00000000  0.50000000  1
  C  C4  1  0.66666700  0.33333300  0.25000000  1
  C  C5  1  0.33333300  0.66666700  0.75000000  1
  C  C6  1  0.65365700  0.63744400  0.13973200  1
  C  C7  1  0.98378700  0.34634300  0.13973200  1
  C  C8  1  0.34634300  0.98378700  0.63973200  1
  C  C9  1  0.01621300  0.65365700  0.86026800  1
  C  C10  1  0.36255600  0.34634300  0.36026800  1
  C  C11  1  0.98378700  0.63744400  0.36026800  1
  C  C12  1  0.63744400  0.98378700  0.86026800  1
  C  C13  1  0.65365700  0.01621300  0.36026800  1
  C  C14  1  0.01621300  0.36255600  0.63973200  1
  C  C15  1  0.36255600  0.01621300  0.13973200  1
  C  C16  1  0.63744400  0.65365700  0.63973200  1
  C  C17  1  0.34634300  0.36255600  0.86026800  1
