# generated using pymatgen
data_Cu4NiC4
_symmetry_space_group_name_H-M   'P 1'
_cell_length_a   8.70107000
_cell_length_b   8.70107000
_cell_length_c   8.70107000
_cell_angle_alpha   90.00000000
_cell_angle_beta   90.00000000
_cell_angle_gamma   90.00000000
_symmetry_Int_Tables_number   1
_chemical_formula_structural   Cu4NiC4
_chemical_formula_sum   'Cu16 Ni4 C16'
_cell_volume   658.74599478
_cell_formula_units_Z   4
loop_
 _symmetry_equiv_pos_site_id
 _symmetry_equiv_pos_as_xyz
  1  'x, y, z'
loop_
 _atom_site_type_symbol
 _atom_site_label
 _atom_site_symmetry_multiplicity
 _atom_site_fract_x
 _atom_site_fract_y
 _atom_site_fract_z
 _atom_site_occupancy
  C  C0  1  0.89366600  0.85752100  0.55273200  1
  C  C1  1  0.14247900  0.05273200  0.60633400  1
  C  C2  1  0.39366600  0.64247900  0.44726800  1
  C  C3  1  0.35752100  0.94726800  0.10633400  1
  C  C4  1  0.05273200  0.60633400  0.14247900  1
  C  C5  1  0.60633400  0.14247900  0.05273200  1
  C  C6  1  0.94726800  0.10633400  0.35752100  1
  C  C7  1  0.55273200  0.89366600  0.85752100  1
  C  C8  1  0.64247900  0.44726800  0.39366600  1
  C  C9  1  0.44726800  0.39366600  0.64247900  1
  C  C10  1  0.85752100  0.55273200  0.89366600  1
  C  C11  1  0.10633400  0.35752100  0.94726800  1
  C  C12  1  0.51708100  0.01708100  0.48291900  1
  C  C13  1  0.48291900  0.51708100  0.01708100  1
  C  C14  1  0.98291900  0.98291900  0.98291900  1
  C  C15  1  0.01708100  0.48291900  0.51708100  1
  Ni  Ni16  1  0.26373000  0.76373000  0.73627000  1
  Ni  Ni17  1  0.23627000  0.23627000  0.23627000  1
  Ni  Ni18  1  0.76373000  0.73627000  0.26373000  1
  Ni  Ni19  1  0.73627000  0.26373000  0.76373000  1
  Cu  Cu20  1  0.60209400  0.39570400  0.12437500  1
  Cu  Cu21  1  0.89570400  0.37562500  0.39790600  1
  Cu  Cu22  1  0.60429600  0.62437500  0.89790600  1
  Cu  Cu23  1  0.10429600  0.87562500  0.10209400  1
  Cu  Cu24  1  0.10209400  0.10429600  0.87562500  1
  Cu  Cu25  1  0.63043500  0.13043500  0.36956500  1
  Cu  Cu26  1  0.39790600  0.89570400  0.37562500  1
  Cu  Cu27  1  0.89790600  0.60429600  0.62437500  1
  Cu  Cu28  1  0.86956500  0.86956500  0.86956500  1
  Cu  Cu29  1  0.13043500  0.36956500  0.63043500  1
  Cu  Cu30  1  0.36956500  0.63043500  0.13043500  1
  Cu  Cu31  1  0.37562500  0.39790600  0.89570400  1
  Cu  Cu32  1  0.12437500  0.60209400  0.39570400  1
  Cu  Cu33  1  0.87562500  0.10209400  0.10429600  1
  Cu  Cu34  1  0.62437500  0.89790600  0.60429600  1
  Cu  Cu35  1  0.39570400  0.12437500  0.60209400  1
