# generated using pymatgen
data_CuNi4C19
_symmetry_space_group_name_H-M   'P 1'
_cell_length_a   8.97904965
_cell_length_b   8.97904965
_cell_length_c   11.03027200
_cell_angle_alpha   90.00000000
_cell_angle_beta   90.00000000
_cell_angle_gamma   119.99999744
_symmetry_Int_Tables_number   1
_chemical_formula_structural   CuNi4C19
_chemical_formula_sum   'Cu3 Ni12 C57'
_cell_volume   770.15406344
_cell_formula_units_Z   3
loop_
 _symmetry_equiv_pos_site_id
 _symmetry_equiv_pos_as_xyz
  1  'x, y, z'
loop_
 _atom_site_type_symbol
 _atom_site_label
 _atom_site_symmetry_multiplicity
 _atom_site_fract_x
 _atom_site_fract_y
 _atom_site_fract_z
 _atom_site_occupancy
  C  C0  1  0.50000000  0.00000000  0.00000000  1
  C  C1  1  0.00000000  0.50000000  0.66666700  1
  C  C2  1  0.50000000  0.50000000  0.33333300  1
  C  C3  1  0.02506200  0.10446000  0.27891900  1
  C  C4  1  0.10143000  0.74243500  0.15438600  1
  C  C5  1  0.92060200  0.89554000  0.72108100  1
  C  C6  1  0.74243500  0.10143000  0.51228100  1
  C  C7  1  0.10446000  0.07939800  0.94558600  1
  C  C8  1  0.25756500  0.89857000  0.51228100  1
  C  C9  1  0.02506200  0.92060200  0.05441400  1
  C  C10  1  0.89857000  0.64100600  0.17894800  1
  C  C11  1  0.07939800  0.97493800  0.61225300  1
  C  C12  1  0.92060200  0.02506200  0.61225300  1
  C  C13  1  0.07939800  0.10446000  0.72108100  1
  C  C14  1  0.89554000  0.97493800  0.38774700  1
  C  C15  1  0.10143000  0.35899400  0.17894800  1
  C  C16  1  0.35899400  0.10143000  0.48771900  1
  C  C17  1  0.64100600  0.74243500  0.84561400  1
  C  C18  1  0.89554000  0.92060200  0.94558600  1
  C  C19  1  0.25756500  0.35899400  0.82105200  1
  C  C20  1  0.10446000  0.02506200  0.38774700  1
  C  C21  1  0.97493800  0.89554000  0.27891900  1
  C  C22  1  0.97493800  0.07939800  0.05441400  1
  C  C23  1  0.74243500  0.64100600  0.82105200  1
  C  C24  1  0.35899400  0.25756500  0.84561400  1
  C  C25  1  0.64100600  0.89857000  0.48771900  1
  C  C26  1  0.89857000  0.25756500  0.15438600  1
  Ni  Ni27  1  0.37734800  0.68867400  0.16666700  1
  Ni  Ni28  1  0.68867400  0.31132600  0.83333300  1
  Ni  Ni29  1  0.21490700  0.42981400  0.50000000  1
  Ni  Ni30  1  0.31132600  0.68867400  0.83333300  1
  Ni  Ni31  1  0.78509300  0.21490700  0.83333300  1
  Ni  Ni32  1  0.68867400  0.37734800  0.50000000  1
  Ni  Ni33  1  0.31132600  0.62265200  0.50000000  1
  Ni  Ni34  1  0.78509300  0.57018600  0.50000000  1
  Ni  Ni35  1  0.57018600  0.78509300  0.16666700  1
  Ni  Ni36  1  0.21490700  0.78509300  0.83333300  1
  Ni  Ni37  1  0.62265200  0.31132600  0.16666700  1
  Ni  Ni38  1  0.42981400  0.21490700  0.16666700  1
  Cu  Cu39  1  0.00000000  0.00000000  0.66666700  1
  Cu  Cu40  1  0.00000000  0.00000000  0.33333300  1
  Cu  Cu41  1  0.00000000  0.00000000  0.00000000  1
  C  C42  1  0.72226200  0.07802900  0.89600200  1
  C  C43  1  0.92197100  0.27773800  0.77066500  1
  C  C44  1  0.69339900  0.45292200  0.22454900  1
  C  C45  1  0.00000000  0.24414900  0.16666700  1
  C  C46  1  0.64423300  0.72226200  0.22933500  1
  C  C47  1  0.75952200  0.30660100  0.55788200  1
  C  C48  1  0.30660100  0.54707800  0.22454900  1
  C  C49  1  0.35576700  0.27773800  0.22933500  1
  C  C50  1  0.54707800  0.24047800  0.89121600  1
  C  C51  1  0.72226200  0.64423300  0.43733100  1
  C  C52  1  0.64423300  0.92197100  0.10399800  1
  C  C53  1  0.24414900  0.24414900  0.83333300  1
  C  C54  1  0.24047800  0.69339900  0.55788200  1
  C  C55  1  0.24047800  0.54707800  0.77545100  1
  C  C56  1  0.45292200  0.75952200  0.89121600  1
  C  C57  1  0.35576700  0.07802900  0.10399800  1
  C  C58  1  0.07802900  0.35576700  0.56266900  1
  C  C59  1  0.54707800  0.30660100  0.44211800  1
  C  C60  1  0.07802900  0.72226200  0.77066500  1
  C  C61  1  0.75952200  0.45292200  0.77545100  1
  C  C62  1  0.30660100  0.75952200  0.10878400  1
  C  C63  1  0.69339900  0.24047800  0.10878400  1
  C  C64  1  0.24414900  0.00000000  0.50000000  1
  C  C65  1  0.27773800  0.92197100  0.89600200  1
  C  C66  1  0.92197100  0.64423300  0.56266900  1
  C  C67  1  0.00000000  0.75585100  0.16666700  1
  C  C68  1  0.27773800  0.35576700  0.43733100  1
  C  C69  1  0.75585100  0.75585100  0.83333300  1
  C  C70  1  0.75585100  0.00000000  0.50000000  1
  C  C71  1  0.45292200  0.69339900  0.44211800  1
