# generated using pymatgen
data_Cu12Ni3C4
_symmetry_space_group_name_H-M   'P 1'
_cell_length_a   10.52294500
_cell_length_b   10.54490600
_cell_length_c   10.63213000
_cell_angle_alpha   90.00000000
_cell_angle_beta   90.00000000
_cell_angle_gamma   90.00000000
_symmetry_Int_Tables_number   1
_chemical_formula_structural   Cu12Ni3C4
_chemical_formula_sum   'Cu48 Ni12 C16'
_cell_volume   1179.77799436
_cell_formula_units_Z   4
loop_
 _symmetry_equiv_pos_site_id
 _symmetry_equiv_pos_as_xyz
  1  'x, y, z'
loop_
 _atom_site_type_symbol
 _atom_site_label
 _atom_site_symmetry_multiplicity
 _atom_site_fract_x
 _atom_site_fract_y
 _atom_site_fract_z
 _atom_site_occupancy
  C  C0  1  0.29001900  0.19169700  0.80253500  1
  C  C1  1  0.57763800  0.06210300  0.43353300  1
  C  C2  1  0.20998100  0.80830300  0.30253500  1
  C  C3  1  0.79001900  0.30830300  0.19746500  1
  C  C4  1  0.42236200  0.56210300  0.06646700  1
  C  C5  1  0.07763800  0.43789700  0.56646700  1
  C  C6  1  0.70998100  0.69169700  0.69746500  1
  C  C7  1  0.92236200  0.93789700  0.93353300  1
  C  C8  1  0.35096700  0.82890700  0.65730600  1
  C  C9  1  0.06533000  0.58259100  0.90871900  1
  C  C10  1  0.93467000  0.08259100  0.59128100  1
  C  C11  1  0.85096700  0.67109300  0.34269400  1
  C  C12  1  0.43467000  0.41740900  0.40871900  1
  C  C13  1  0.56533000  0.91740900  0.09128100  1
  C  C14  1  0.64903300  0.32890700  0.84269400  1
  C  C15  1  0.14903300  0.17109300  0.15730600  1
  Ni  Ni16  1  0.24407600  0.11819200  0.46374000  1
  Ni  Ni17  1  0.36922400  0.51130400  0.74020600  1
  Ni  Ni18  1  0.96579300  0.27435700  0.87723900  1
  Ni  Ni19  1  0.03420700  0.77435700  0.62276100  1
  Ni  Ni20  1  0.86922400  0.98869600  0.25979400  1
  Ni  Ni21  1  0.74407600  0.38180800  0.53626000  1
  Ni  Ni22  1  0.13077600  0.48869600  0.24020600  1
  Ni  Ni23  1  0.53420700  0.72564300  0.37723900  1
  Ni  Ni24  1  0.63077600  0.01130400  0.75979400  1
  Ni  Ni25  1  0.25592400  0.88180800  0.96374000  1
  Ni  Ni26  1  0.46579300  0.22564300  0.12276100  1
  Ni  Ni27  1  0.75592400  0.61819200  0.03626000  1
  Cu  Cu28  1  0.80893500  0.48762000  0.46985200  1
  Cu  Cu29  1  0.16447100  0.77642900  0.94605900  1
  Cu  Cu30  1  0.33552900  0.22357100  0.44605900  1
  Cu  Cu31  1  0.69874700  0.43048000  0.66117400  1
  Cu  Cu32  1  0.45033300  0.42319900  0.81573300  1
  Cu  Cu33  1  0.33375800  0.25365000  0.07693000  1
  Cu  Cu34  1  0.66624200  0.75365000  0.42307000  1
  Cu  Cu35  1  0.49712700  0.81998500  0.27918800  1
  Cu  Cu36  1  0.07879800  0.35748900  0.25289100  1
  Cu  Cu37  1  0.42120200  0.64251100  0.75289100  1
  Cu  Cu38  1  0.00287300  0.18001500  0.77918800  1
  Cu  Cu39  1  0.13669500  0.53020000  0.10661400  1
  Cu  Cu40  1  0.73756500  0.99622100  0.20740800  1
  Cu  Cu41  1  0.19106500  0.98762000  0.03014800  1
  Cu  Cu42  1  0.47004300  0.09459100  0.17660700  1
  Cu  Cu43  1  0.16624200  0.74635000  0.57693000  1
  Cu  Cu44  1  0.83375800  0.24635000  0.92307000  1
  Cu  Cu45  1  0.52995700  0.59459100  0.32339300  1
  Cu  Cu46  1  0.63302500  0.33485800  0.46148600  1
  Cu  Cu47  1  0.57879800  0.14251100  0.74710900  1
  Cu  Cu48  1  0.54966700  0.92319900  0.68426700  1
  Cu  Cu49  1  0.04966700  0.57680100  0.31573300  1
  Cu  Cu50  1  0.94321500  0.76526300  0.51701300  1
  Cu  Cu51  1  0.69106500  0.51238000  0.96985200  1
  Cu  Cu52  1  0.50287300  0.31998500  0.22081200  1
  Cu  Cu53  1  0.36330500  0.46980000  0.60661400  1
  Cu  Cu54  1  0.95033300  0.07680100  0.18426700  1
  Cu  Cu55  1  0.86330500  0.03020000  0.39338600  1
  Cu  Cu56  1  0.80125300  0.56952000  0.16117400  1
  Cu  Cu57  1  0.99712700  0.68001500  0.72081200  1
  Cu  Cu58  1  0.66447100  0.72357100  0.05394100  1
  Cu  Cu59  1  0.30125300  0.93048000  0.83882600  1
  Cu  Cu60  1  0.97004300  0.40540900  0.82339300  1
  Cu  Cu61  1  0.26243500  0.49622100  0.29259200  1
  Cu  Cu62  1  0.13302500  0.16514200  0.53851400  1
  Cu  Cu63  1  0.19874700  0.06952000  0.33882600  1
  Cu  Cu64  1  0.44321500  0.73473700  0.48298700  1
  Cu  Cu65  1  0.92120200  0.85748900  0.24710900  1
  Cu  Cu66  1  0.23756500  0.50377900  0.79259200  1
  Cu  Cu67  1  0.86697500  0.66514200  0.96148600  1
  Cu  Cu68  1  0.36697500  0.83485800  0.03851400  1
  Cu  Cu69  1  0.05678500  0.26526300  0.98298700  1
  Cu  Cu70  1  0.76243500  0.00377900  0.70740800  1
  Cu  Cu71  1  0.30893500  0.01238000  0.53014800  1
  Cu  Cu72  1  0.63669500  0.96980000  0.89338600  1
  Cu  Cu73  1  0.83552900  0.27642900  0.55394100  1
  Cu  Cu74  1  0.02995700  0.90540900  0.67660700  1
  Cu  Cu75  1  0.55678500  0.23473700  0.01701300  1
