# generated using pymatgen
data_Cu2NiC4
_symmetry_space_group_name_H-M   'P 1'
_cell_length_a   23.42216752
_cell_length_b   23.42216752
_cell_length_c   5.87066740
_cell_angle_alpha   83.13830885
_cell_angle_beta   83.13830885
_cell_angle_gamma   14.38835232
_symmetry_Int_Tables_number   1
_chemical_formula_structural   Cu2NiC4
_chemical_formula_sum   'Cu20 Ni10 C40'
_cell_volume   794.48153184
_cell_formula_units_Z   10
loop_
 _symmetry_equiv_pos_site_id
 _symmetry_equiv_pos_as_xyz
  1  'x, y, z'
loop_
 _atom_site_type_symbol
 _atom_site_label
 _atom_site_symmetry_multiplicity
 _atom_site_fract_x
 _atom_site_fract_y
 _atom_site_fract_z
 _atom_site_occupancy
  Ni  Ni0  1  0.40095300  0.40095300  0.59998800  1
  Ni  Ni1  1  0.45166200  0.45166200  0.04796100  1
  Ni  Ni2  1  0.85028000  0.85028000  0.64906700  1
  Ni  Ni3  1  0.19836700  0.19836700  0.80160800  1
  Ni  Ni4  1  0.24878600  0.24878600  0.24999100  1
  Ni  Ni5  1  0.64629700  0.64629700  0.84324000  1
  Ni  Ni6  1  0.79958100  0.79958100  0.20081900  1
  Ni  Ni7  1  0.04963400  0.04963400  0.44024400  1
  Ni  Ni8  1  0.12364300  0.12364300  0.12431400  1
  Ni  Ni9  1  0.52636700  0.52636700  0.72380300  1
  Cu  Cu10  1  0.72627100  0.22886700  0.52649400  1
  Cu  Cu11  1  0.12569600  0.62557800  0.12464800  1
  Cu  Cu12  1  0.22886700  0.72627100  0.52649400  1
  Cu  Cu13  1  0.92635800  0.92635800  0.32539700  1
  Cu  Cu14  1  0.92620400  0.92620400  0.82495300  1
  Cu  Cu15  1  0.52439700  0.02405200  0.72516400  1
  Cu  Cu16  1  0.62557800  0.12569600  0.12464800  1
  Cu  Cu17  1  0.32494000  0.32494000  0.92499700  1
  Cu  Cu18  1  0.32493500  0.32493500  0.42490800  1
  Cu  Cu19  1  0.92243400  0.42273700  0.32240300  1
  Cu  Cu20  1  0.02405200  0.52439700  0.72516400  1
  Cu  Cu21  1  0.60053500  0.60053500  0.41077300  1
  Cu  Cu22  1  0.72324800  0.72324800  0.52499600  1
  Cu  Cu23  1  0.72351200  0.72351200  0.02450800  1
  Cu  Cu24  1  0.32398400  0.82634500  0.92493600  1
  Cu  Cu25  1  0.42273700  0.92243400  0.32240300  1
  Cu  Cu26  1  0.00339700  0.00339700  0.00655400  1
  Cu  Cu27  1  0.12334900  0.12334900  0.62273000  1
  Cu  Cu28  1  0.82634500  0.32398400  0.92493600  1
  Cu  Cu29  1  0.52728300  0.52728300  0.23249400  1
  C  C30  1  0.47765600  0.47765600  0.29708800  1
  C  C31  1  0.47944600  0.47944600  0.75509000  1
  C  C32  1  0.15047400  0.70076200  0.07525600  1
  C  C33  1  0.15240200  0.70169500  0.57533100  1
  C  C34  1  0.87626800  0.87626800  0.89919500  1
  C  C35  1  0.87627200  0.87627200  0.34876500  1
  C  C36  1  0.97633700  0.97633700  0.75180700  1
  C  C37  1  0.97509000  0.97509000  0.30549000  1
  C  C38  1  0.54905800  0.09944300  0.67556700  1
  C  C39  1  0.55034000  0.10080200  0.17439600  1
  C  C40  1  0.70076200  0.15047400  0.07525600  1
  C  C41  1  0.70169500  0.15240200  0.57533100  1
  C  C42  1  0.27480300  0.27480300  0.49984500  1
  C  C43  1  0.27480200  0.27480200  0.94940100  1
  C  C44  1  0.37495100  0.37495100  0.35001300  1
  C  C45  1  0.37494500  0.37494500  0.90053900  1
  C  C46  1  0.94773100  0.49739600  0.27459200  1
  C  C47  1  0.94892600  0.49952100  0.77451500  1
  C  C48  1  0.09944300  0.54905800  0.67556700  1
  C  C49  1  0.10080200  0.55034000  0.17439600  1
  C  C50  1  0.67270300  0.67270300  0.09550400  1
  C  C51  1  0.67397200  0.67397200  0.54785500  1
  C  C52  1  0.77352900  0.77352900  0.95084300  1
  C  C53  1  0.77351900  0.77351900  0.50098100  1
  C  C54  1  0.35273800  0.88408600  0.86822400  1
  C  C55  1  0.35097600  0.90018700  0.38284700  1
  C  C56  1  0.49739600  0.94773100  0.27459200  1
  C  C57  1  0.49952100  0.94892600  0.77451500  1
  C  C58  1  0.07388700  0.07388700  0.70432900  1
  C  C59  1  0.07717900  0.07717900  0.14566600  1
  C  C60  1  0.17277900  0.17277900  0.55027300  1
  C  C61  1  0.17085100  0.17085100  0.09541400  1
  C  C62  1  0.75435200  0.29618100  0.46729000  1
  C  C63  1  0.76363900  0.30121700  0.98274700  1
  C  C64  1  0.88408600  0.35273800  0.86822400  1
  C  C65  1  0.90018700  0.35097600  0.38284700  1
  C  C66  1  0.57646700  0.57646700  0.14123200  1
  C  C67  1  0.57285200  0.57285200  0.70877500  1
  C  C68  1  0.29618100  0.75435200  0.46729000  1
  C  C69  1  0.30121700  0.76363900  0.98274700  1
