# generated using pymatgen
data_CuNi2C7
_symmetry_space_group_name_H-M   'P 1'
_cell_length_a   6.71717227
_cell_length_b   11.00147244
_cell_length_c   14.38695171
_cell_angle_alpha   90.00000000
_cell_angle_beta   90.00000000
_cell_angle_gamma   90.00000000
_symmetry_Int_Tables_number   1
_chemical_formula_structural   CuNi2C7
_chemical_formula_sum   'Cu8 Ni16 C56'
_cell_volume   1063.17825990
_cell_formula_units_Z   8
loop_
 _symmetry_equiv_pos_site_id
 _symmetry_equiv_pos_as_xyz
  1  'x, y, z'
loop_
 _atom_site_type_symbol
 _atom_site_label
 _atom_site_symmetry_multiplicity
 _atom_site_fract_x
 _atom_site_fract_y
 _atom_site_fract_z
 _atom_site_occupancy
  Cu  Cu0  1  0.00297091  0.68648406  0.48733932  1
  Cu  Cu1  1  0.00297091  0.81351594  0.98733932  1
  Cu  Cu2  1  0.50297091  0.81351594  0.51266068  1
  Cu  Cu3  1  0.99702909  0.31351594  0.51266068  1
  Cu  Cu4  1  0.49702909  0.31351594  0.98733932  1
  Cu  Cu5  1  0.50297091  0.68648406  0.01266068  1
  Cu  Cu6  1  0.49702909  0.18648406  0.48733932  1
  Cu  Cu7  1  0.99702909  0.18648406  0.01266068  1
  Ni  Ni8  1  0.94500549  0.00840277  0.39554938  1
  Ni  Ni9  1  0.74556530  0.28014975  0.24327537  1
  Ni  Ni10  1  0.44500549  0.49159723  0.60445062  1
  Ni  Ni11  1  0.24556530  0.28014975  0.25672463  1
  Ni  Ni12  1  0.25443470  0.78014975  0.25672463  1
  Ni  Ni13  1  0.74556530  0.21985025  0.74327537  1
  Ni  Ni14  1  0.24556530  0.21985025  0.75672463  1
  Ni  Ni15  1  0.05499451  0.50840277  0.10445062  1
  Ni  Ni16  1  0.55499451  0.50840277  0.39554938  1
  Ni  Ni17  1  0.44500549  0.00840277  0.10445062  1
  Ni  Ni18  1  0.55499451  0.99159723  0.89554938  1
  Ni  Ni19  1  0.75443470  0.78014975  0.24327537  1
  Ni  Ni20  1  0.05499451  0.99159723  0.60445062  1
  Ni  Ni21  1  0.94500549  0.49159723  0.89554938  1
  Ni  Ni22  1  0.75443470  0.71985025  0.74327537  1
  Ni  Ni23  1  0.25443470  0.71985025  0.75672463  1
  C  C24  1  0.50026223  0.98430226  0.67848766  1
  C  C25  1  1.00026223  0.98430226  0.82151234  1
  C  C26  1  0.49973777  0.48430226  0.82151234  1
  C  C27  1  0.50026223  0.51569774  0.17848766  1
  C  C28  1  -0.00026223  0.48430226  0.67848766  1
  C  C29  1  0.49973777  0.01569774  0.32151234  1
  C  C30  1  -0.00026223  0.01569774  0.17848766  1
  C  C31  1  1.00026223  0.51569774  0.32151234  1
  C  C32  1  0.94510339  0.12706894  0.19009725  1
  C  C33  1  0.05489661  0.62706894  0.30990275  1
  C  C34  1  0.55489661  0.87293106  0.69009725  1
  C  C35  1  0.44510339  0.12706894  0.30990275  1
  C  C36  1  0.05489661  0.87293106  0.80990275  1
  C  C37  1  0.93209642  0.01267710  0.90412545  1
  C  C38  1  0.49315700  0.93670687  0.25652995  1
  C  C39  1  0.43209642  0.01267710  0.59587455  1
  C  C40  1  0.94510339  0.37293106  0.69009725  1
  C  C41  1  0.06790358  0.51267710  0.59587455  1
  C  C42  1  0.56790358  0.51267710  0.90412545  1
  C  C43  1  0.93209642  0.48732290  0.40412545  1
  C  C44  1  0.44510339  0.37293106  0.80990275  1
  C  C45  1  0.56790358  0.98732290  0.40412545  1
  C  C46  1  0.55489661  0.62706894  0.19009725  1
  C  C47  1  0.00684300  0.06329313  0.75652995  1
  C  C48  1  0.99315700  0.93670687  0.24347005  1
  C  C49  1  0.43209642  0.48732290  0.09587455  1
  C  C50  1  0.49315700  0.56329313  0.75652995  1
  C  C51  1  0.50684300  0.06329313  0.74347005  1
  C  C52  1  0.99315700  0.56329313  0.74347005  1
  C  C53  1  0.50684300  0.43670687  0.24347005  1
  C  C54  1  0.00684300  0.43670687  0.25652995  1
  C  C55  1  0.06790358  0.98732290  0.09587455  1
  C  C56  1  0.80288166  0.28343807  0.89461969  1
  C  C57  1  0.19711834  0.71656193  0.10538031  1
  C  C58  1  0.30288166  0.21656193  0.10538031  1
  C  C59  1  0.69711834  0.78343807  0.89461969  1
  C  C60  1  0.20813934  0.83669162  0.41545710  1
  C  C61  1  0.65157859  0.12041958  0.01832064  1
  C  C62  1  0.69711834  0.71656193  0.39461969  1
  C  C63  1  0.65157859  0.37958042  0.51832064  1
  C  C64  1  0.79186066  0.16330838  0.58454290  1
  C  C65  1  0.34842141  0.87958042  0.98167936  1
  C  C66  1  0.29186066  0.33669162  0.41545710  1
  C  C67  1  0.15157859  0.12041958  0.48167936  1
  C  C68  1  0.80288166  0.21656193  0.39461969  1
  C  C69  1  0.15157859  0.37958042  0.98167936  1
  C  C70  1  0.84842141  0.62041958  0.01832064  1
  C  C71  1  0.70813934  0.83669162  0.08454290  1
  C  C72  1  0.70813934  0.66330838  0.58454290  1
  C  C73  1  0.34842141  0.62041958  0.48167936  1
  C  C74  1  0.79186066  0.33669162  0.08454290  1
  C  C75  1  0.29186066  0.16330838  0.91545710  1
  C  C76  1  0.20813934  0.66330838  0.91545710  1
  C  C77  1  0.19711834  0.78343807  0.60538031  1
  C  C78  1  0.84842141  0.87958042  0.51832064  1
  C  C79  1  0.30288166  0.28343807  0.60538031  1
