# generated using pymatgen
data_Cu3NiC3
_symmetry_space_group_name_H-M   'P 1'
_cell_length_a   3.73607400
_cell_length_b   3.73607400
_cell_length_c   6.82553542
_cell_angle_alpha   105.88357974
_cell_angle_beta   105.88357974
_cell_angle_gamma   90.00000000
_symmetry_Int_Tables_number   1
_chemical_formula_structural   Cu3NiC3
_chemical_formula_sum   'Cu3 Ni1 C3'
_cell_volume   87.84697945
_cell_formula_units_Z   1
loop_
 _symmetry_equiv_pos_site_id
 _symmetry_equiv_pos_as_xyz
  1  'x, y, z'
loop_
 _atom_site_type_symbol
 _atom_site_label
 _atom_site_symmetry_multiplicity
 _atom_site_fract_x
 _atom_site_fract_y
 _atom_site_fract_z
 _atom_site_occupancy
  C  C0  1  0.63838700  0.63838700  0.27677400  1
  C  C1  1  0.34958700  0.34958700  0.69917400  1
  C  C2  1  0.98753900  0.98753900  0.97507800  1
  Ni  Ni3  1  0.82678500  0.82678500  0.65357000  1
  Cu  Cu4  1  0.16001000  0.16001000  0.32002000  1
  Cu  Cu5  1  0.50019600  0.00019600  0.00039200  1
  Cu  Cu6  1  0.00019600  0.50019600  0.00039200  1
