# generated using pymatgen
data_Cu(Ni3C2)2
_symmetry_space_group_name_H-M   'P 1'
_cell_length_a   9.99661428
_cell_length_b   9.99661428
_cell_length_c   7.67159400
_cell_angle_alpha   90.00000000
_cell_angle_beta   90.00000000
_cell_angle_gamma   120.00000186
_symmetry_Int_Tables_number   1
_chemical_formula_structural   Cu(Ni3C2)2
_chemical_formula_sum   'Cu2 Ni12 C8'
_cell_volume   663.92971237
_cell_formula_units_Z   2
loop_
 _symmetry_equiv_pos_site_id
 _symmetry_equiv_pos_as_xyz
  1  'x, y, z'
loop_
 _atom_site_type_symbol
 _atom_site_label
 _atom_site_symmetry_multiplicity
 _atom_site_fract_x
 _atom_site_fract_y
 _atom_site_fract_z
 _atom_site_occupancy
  C  C0  1  0.79891200  0.59782400  0.99703900  1
  C  C1  1  0.40217600  0.20108800  0.99703900  1
  C  C2  1  0.66666700  0.33333300  0.58470500  1
  C  C3  1  0.20108800  0.79891200  0.49703900  1
  C  C4  1  0.59782400  0.79891200  0.49703900  1
  C  C5  1  0.20108800  0.40217600  0.49703900  1
  C  C6  1  0.33333300  0.66666700  0.08470500  1
  C  C7  1  0.79891200  0.20108800  0.99703900  1
  Ni  Ni8  1  0.53475200  0.06950300  0.29315000  1
  Ni  Ni9  1  0.46524800  0.93049700  0.79315000  1
  Ni  Ni10  1  0.53475200  0.46524800  0.29315000  1
  Ni  Ni11  1  0.13915500  0.86084500  0.11436800  1
  Ni  Ni12  1  0.72168900  0.86084500  0.11436800  1
  Ni  Ni13  1  0.86084500  0.72168900  0.61436800  1
  Ni  Ni14  1  0.06950300  0.53475200  0.79315000  1
  Ni  Ni15  1  0.93049700  0.46524800  0.29315000  1
  Ni  Ni16  1  0.27831100  0.13915500  0.61436800  1
  Ni  Ni17  1  0.13915500  0.27831100  0.11436800  1
  Ni  Ni18  1  0.46524800  0.53475200  0.79315000  1
  Ni  Ni19  1  0.86084500  0.13915500  0.61436800  1
  Cu  Cu20  1  0.33333300  0.66666700  0.39692100  1
  Cu  Cu21  1  0.66666700  0.33333300  0.89692100  1
