# generated using pymatgen
data_Cu13NiC10
_symmetry_space_group_name_H-M   'P 1'
_cell_length_a   8.71374897
_cell_length_b   8.71374897
_cell_length_c   8.71374849
_cell_angle_alpha   61.92061765
_cell_angle_beta   61.92061765
_cell_angle_gamma   61.92061404
_symmetry_Int_Tables_number   1
_chemical_formula_structural   Cu13NiC10
_chemical_formula_sum   'Cu26 Ni2 C20'
_cell_volume   487.95282295
_cell_formula_units_Z   2
loop_
 _symmetry_equiv_pos_site_id
 _symmetry_equiv_pos_as_xyz
  1  'x, y, z'
loop_
 _atom_site_type_symbol
 _atom_site_label
 _atom_site_symmetry_multiplicity
 _atom_site_fract_x
 _atom_site_fract_y
 _atom_site_fract_z
 _atom_site_occupancy
  C  C0  1  0.53270300  0.00809500  0.51920100  1
  C  C1  1  0.50809500  0.03270300  0.01920100  1
  C  C2  1  0.03270300  0.01920100  0.50809500  1
  C  C3  1  0.01920100  0.50809500  0.03270300  1
  C  C4  1  0.51920100  0.53270300  0.00809500  1
  C  C5  1  0.00809500  0.51920100  0.53270300  1
  C  C6  1  0.67448200  0.34432300  0.44682000  1
  C  C7  1  0.73587000  0.75038700  0.28190400  1
  C  C8  1  0.23587000  0.78190400  0.25038700  1
  C  C9  1  0.44682000  0.67448200  0.34432300  1
  C  C10  1  0.94682000  0.84432300  0.17448200  1
  C  C11  1  0.34432300  0.44682000  0.67448200  1
  C  C12  1  0.25038700  0.23587000  0.78190400  1
  C  C13  1  0.17448200  0.94682000  0.84432300  1
  C  C14  1  0.10698400  0.10698400  0.10698400  1
  C  C15  1  0.60698400  0.60698400  0.60698400  1
  C  C16  1  0.28190400  0.73587000  0.75038700  1
  C  C17  1  0.75038700  0.28190400  0.73587000  1
  C  C18  1  0.78190400  0.25038700  0.23587000  1
  C  C19  1  0.84432300  0.17448200  0.94682000  1
  Ni  Ni20  1  0.26996100  0.26996100  0.26996100  1
  Ni  Ni21  1  0.76996100  0.76996100  0.76996100  1
  Cu  Cu22  1  0.91451900  0.71374300  0.13485000  1
  Cu  Cu23  1  0.95950900  0.10304700  0.26553700  1
  Cu  Cu24  1  0.71374300  0.13485000  0.91451900  1
  Cu  Cu25  1  0.26553700  0.95950900  0.10304700  1
  Cu  Cu26  1  0.27859800  0.07481900  0.74947500  1
  Cu  Cu27  1  0.60304700  0.45950900  0.76553700  1
  Cu  Cu28  1  0.28181000  0.74893300  0.91374800  1
  Cu  Cu29  1  0.13485000  0.91451900  0.71374300  1
  Cu  Cu30  1  0.57481900  0.77859800  0.24947500  1
  Cu  Cu31  1  0.41374800  0.24893300  0.78181000  1
  Cu  Cu32  1  0.00028300  0.00028300  0.00028300  1
  Cu  Cu33  1  0.74893300  0.91374800  0.28181000  1
  Cu  Cu34  1  0.10304700  0.26553700  0.95950900  1
  Cu  Cu35  1  0.74947500  0.27859800  0.07481900  1
  Cu  Cu36  1  0.78181000  0.41374800  0.24893300  1
  Cu  Cu37  1  0.24893300  0.78181000  0.41374800  1
  Cu  Cu38  1  0.21374300  0.41451900  0.63485000  1
  Cu  Cu39  1  0.77859800  0.24947500  0.57481900  1
  Cu  Cu40  1  0.91374800  0.28181000  0.74893300  1
  Cu  Cu41  1  0.41451900  0.63485000  0.21374300  1
  Cu  Cu42  1  0.76553700  0.60304700  0.45950900  1
  Cu  Cu43  1  0.50028300  0.50028300  0.50028300  1
  Cu  Cu44  1  0.63485000  0.21374300  0.41451900  1
  Cu  Cu45  1  0.24947500  0.57481900  0.77859800  1
  Cu  Cu46  1  0.07481900  0.74947500  0.27859800  1
  Cu  Cu47  1  0.45950900  0.76553700  0.60304700  1
