# generated using pymatgen
data_Cu4Ni4C9
_symmetry_space_group_name_H-M   'P 1'
_cell_length_a   6.12110900
_cell_length_b   9.39949200
_cell_length_c   12.98691700
_cell_angle_alpha   90.00000000
_cell_angle_beta   90.00000000
_cell_angle_gamma   90.00000000
_symmetry_Int_Tables_number   1
_chemical_formula_structural   Cu4Ni4C9
_chemical_formula_sum   'Cu16 Ni16 C36'
_cell_volume   747.20636147
_cell_formula_units_Z   4
loop_
 _symmetry_equiv_pos_site_id
 _symmetry_equiv_pos_as_xyz
  1  'x, y, z'
loop_
 _atom_site_type_symbol
 _atom_site_label
 _atom_site_symmetry_multiplicity
 _atom_site_fract_x
 _atom_site_fract_y
 _atom_site_fract_z
 _atom_site_occupancy
  C  C0  1  0.10591500  0.25000000  0.30106100  1
  C  C1  1  0.60591500  0.75000000  0.19893900  1
  C  C2  1  0.89408500  0.75000000  0.69893900  1
  C  C3  1  0.39408500  0.25000000  0.80106100  1
  C  C4  1  0.55855400  0.65394000  0.81171000  1
  C  C5  1  0.50438000  0.58148200  0.42133500  1
  C  C6  1  0.10077200  0.84570500  0.53035700  1
  C  C7  1  0.10077200  0.65429500  0.53035700  1
  C  C8  1  0.05855400  0.15394000  0.68829000  1
  C  C9  1  0.99562000  0.91851800  0.92133500  1
  C  C10  1  0.49562000  0.08148200  0.57866500  1
  C  C11  1  0.50438000  0.91851800  0.42133500  1
  C  C12  1  0.44144600  0.34606000  0.18829000  1
  C  C13  1  0.78989800  0.25000000  0.88928700  1
  C  C14  1  0.60077200  0.34570500  0.96964300  1
  C  C15  1  0.55855400  0.84606000  0.81171000  1
  C  C16  1  0.94144600  0.84606000  0.31171000  1
  C  C17  1  0.44144600  0.15394000  0.18829000  1
  C  C18  1  0.49562000  0.41851800  0.57866500  1
  C  C19  1  0.05855400  0.34606000  0.68829000  1
  C  C20  1  0.99562000  0.58148200  0.92133500  1
  C  C21  1  0.00438000  0.41851800  0.07866500  1
  C  C22  1  0.71010200  0.25000000  0.38928700  1
  C  C23  1  0.73846900  0.75000000  0.89544900  1
  C  C24  1  0.39922800  0.65429500  0.03035700  1
  C  C25  1  0.28989800  0.75000000  0.61071300  1
  C  C26  1  0.89922800  0.34570500  0.46964300  1
  C  C27  1  0.23846900  0.25000000  0.60455100  1
  C  C28  1  0.21010200  0.75000000  0.11071300  1
  C  C29  1  0.26153100  0.25000000  0.10455100  1
  C  C30  1  0.89922800  0.15429500  0.46964300  1
  C  C31  1  0.39922800  0.84570500  0.03035700  1
  C  C32  1  0.00438000  0.08148200  0.07866500  1
  C  C33  1  0.76153100  0.75000000  0.39544900  1
  C  C34  1  0.94144600  0.65394000  0.31171000  1
  C  C35  1  0.60077200  0.15429500  0.96964300  1
  Ni  Ni36  1  0.87380100  0.25000000  0.42312700  1
  Ni  Ni37  1  0.34232900  0.25000000  0.17977100  1
  Ni  Ni38  1  0.59702200  0.47410800  0.63689700  1
  Ni  Ni39  1  0.37380100  0.75000000  0.07687300  1
  Ni  Ni40  1  0.09702200  0.97410800  0.86310300  1
  Ni  Ni41  1  0.59702200  0.02589200  0.63689700  1
  Ni  Ni42  1  0.90297800  0.47410800  0.13689700  1
  Ni  Ni43  1  0.90297800  0.02589200  0.13689700  1
  Ni  Ni44  1  0.09702200  0.52589200  0.86310300  1
  Ni  Ni45  1  0.62619900  0.25000000  0.92312700  1
  Ni  Ni46  1  0.40297800  0.52589200  0.36310300  1
  Ni  Ni47  1  0.12619900  0.75000000  0.57687300  1
  Ni  Ni48  1  0.40297800  0.97410800  0.36310300  1
  Ni  Ni49  1  0.84232900  0.75000000  0.32022900  1
  Ni  Ni50  1  0.15767100  0.25000000  0.67977100  1
  Ni  Ni51  1  0.65767100  0.75000000  0.82022900  1
  Cu  Cu52  1  0.39385900  0.92454400  0.27219500  1
  Cu  Cu53  1  0.19729300  0.41584900  0.89474100  1
  Cu  Cu54  1  0.10614100  0.92454400  0.77219500  1
  Cu  Cu55  1  0.19729300  0.08415100  0.89474100  1
  Cu  Cu56  1  0.39385900  0.57545600  0.27219500  1
  Cu  Cu57  1  0.89385900  0.07545600  0.22780500  1
  Cu  Cu58  1  0.69729300  0.91584900  0.60525900  1
  Cu  Cu59  1  0.80270700  0.58415100  0.10525900  1
  Cu  Cu60  1  0.80270700  0.91584900  0.10525900  1
  Cu  Cu61  1  0.69729300  0.58415100  0.60525900  1
  Cu  Cu62  1  0.30270700  0.41584900  0.39474100  1
  Cu  Cu63  1  0.60614100  0.07545600  0.72780500  1
  Cu  Cu64  1  0.30270700  0.08415100  0.39474100  1
  Cu  Cu65  1  0.89385900  0.42454400  0.22780500  1
  Cu  Cu66  1  0.60614100  0.42454400  0.72780500  1
  Cu  Cu67  1  0.10614100  0.57545600  0.77219500  1
