# generated using pymatgen
data_Cu3Ni7C15
_symmetry_space_group_name_H-M   'P 1'
_cell_length_a   10.56000114
_cell_length_b   10.56000114
_cell_length_c   13.49465200
_cell_angle_alpha   90.00000000
_cell_angle_beta   90.00000000
_cell_angle_gamma   119.99999460
_symmetry_Int_Tables_number   1
_chemical_formula_structural   Cu3Ni7C15
_chemical_formula_sum   'Cu12 Ni28 C60'
_cell_volume   1303.22761735
_cell_formula_units_Z   4
loop_
 _symmetry_equiv_pos_site_id
 _symmetry_equiv_pos_as_xyz
  1  'x, y, z'
loop_
 _atom_site_type_symbol
 _atom_site_label
 _atom_site_symmetry_multiplicity
 _atom_site_fract_x
 _atom_site_fract_y
 _atom_site_fract_z
 _atom_site_occupancy
  Ni  Ni0  1  0.66666700  0.33333300  0.64758300  1
  Ni  Ni1  1  0.83123600  0.66247100  0.50000000  1
  Ni  Ni2  1  0.66666700  0.33333300  0.85241700  1
  Ni  Ni3  1  0.66666700  0.33333300  0.14758300  1
  Ni  Ni4  1  0.33752900  0.16876400  0.50000000  1
  Ni  Ni5  1  0.00000000  0.00000000  0.00000000  1
  Ni  Ni6  1  0.33752900  0.16876400  0.00000000  1
  Ni  Ni7  1  0.00000000  0.00000000  0.50000000  1
  Ni  Ni8  1  0.50000000  0.50000000  0.00000000  1
  Ni  Ni9  1  0.16876400  0.83123600  0.50000000  1
  Ni  Ni10  1  0.33333300  0.66666700  0.85241700  1
  Ni  Ni11  1  0.66247100  0.83123600  0.50000000  1
  Ni  Ni12  1  0.83123600  0.16876400  0.50000000  1
  Ni  Ni13  1  0.16876400  0.83123600  0.00000000  1
  Ni  Ni14  1  0.00000000  0.50000000  0.00000000  1
  Ni  Ni15  1  0.33333300  0.66666700  0.35241700  1
  Ni  Ni16  1  0.00000000  0.50000000  0.50000000  1
  Ni  Ni17  1  0.50000000  0.50000000  0.50000000  1
  Ni  Ni18  1  0.66247100  0.83123600  0.00000000  1
  Ni  Ni19  1  0.16876400  0.33752900  0.50000000  1
  Ni  Ni20  1  0.50000000  0.00000000  0.00000000  1
  Ni  Ni21  1  0.33333300  0.66666700  0.64758300  1
  Ni  Ni22  1  0.50000000  0.00000000  0.50000000  1
  Ni  Ni23  1  0.33333300  0.66666700  0.14758300  1
  Ni  Ni24  1  0.66666700  0.33333300  0.35241700  1
  Ni  Ni25  1  0.16876400  0.33752900  0.00000000  1
  Ni  Ni26  1  0.83123600  0.66247100  0.00000000  1
  Ni  Ni27  1  0.83123600  0.16876400  0.00000000  1
  Cu  Cu28  1  0.73173700  0.00000000  0.25000000  1
  Cu  Cu29  1  0.60263600  0.60263600  0.25000000  1
  Cu  Cu30  1  0.00000000  0.73173700  0.25000000  1
  Cu  Cu31  1  0.39736400  0.39736400  0.75000000  1
  Cu  Cu32  1  0.39736400  0.00000000  0.25000000  1
  Cu  Cu33  1  0.00000000  0.39736400  0.25000000  1
  Cu  Cu34  1  0.26826300  0.00000000  0.75000000  1
  Cu  Cu35  1  0.60263600  0.00000000  0.75000000  1
  Cu  Cu36  1  0.00000000  0.60263600  0.75000000  1
  Cu  Cu37  1  0.00000000  0.26826300  0.75000000  1
  Cu  Cu38  1  0.73173700  0.73173700  0.75000000  1
  Cu  Cu39  1  0.26826300  0.26826300  0.25000000  1
  C  C40  1  0.00000000  0.33383100  0.92294200  1
  C  C41  1  0.50675100  0.66570300  0.08122300  1
  C  C42  1  0.82180600  0.34345700  0.75000000  1
  C  C43  1  0.33429700  0.49324900  0.91877700  1
  C  C44  1  0.84104900  0.50675100  0.91877700  1
  C  C45  1  0.15895100  0.66570300  0.58122300  1
  C  C46  1  0.50675100  0.84104900  0.58122300  1
  C  C47  1  0.00000000  0.83087700  0.57466100  1
  C  C48  1  0.66616900  0.66616900  0.57705800  1
  C  C49  1  0.49324900  0.33429700  0.58122300  1
  C  C50  1  0.66616900  0.00000000  0.07705800  1
  C  C51  1  0.16912300  0.00000000  0.07466100  1
  C  C52  1  0.49324900  0.33429700  0.91877700  1
  C  C53  1  0.66570300  0.50675100  0.08122300  1
  C  C54  1  0.83087700  0.83087700  0.07466100  1
  C  C55  1  0.65654300  0.17819400  0.25000000  1
  C  C56  1  0.00000000  0.66616900  0.42294200  1
  C  C57  1  0.66616900  0.66616900  0.92294200  1
  C  C58  1  0.00000000  0.83087700  0.92533900  1
  C  C59  1  0.50675100  0.84104900  0.91877700  1
  C  C60  1  0.15895100  0.66570300  0.91877700  1
  C  C61  1  0.00000000  0.16912300  0.42533900  1
  C  C62  1  0.00000000  0.66616900  0.07705800  1
  C  C63  1  0.84104900  0.50675100  0.58122300  1
  C  C64  1  0.33429700  0.49324900  0.58122300  1
  C  C65  1  0.84104900  0.33429700  0.08122300  1
  C  C66  1  0.66570300  0.50675100  0.41877700  1
  C  C67  1  0.00000000  0.33383100  0.57705800  1
  C  C68  1  0.16912300  0.16912300  0.57466100  1
  C  C69  1  0.47834900  0.65654300  0.75000000  1
  C  C70  1  0.33383100  0.33383100  0.07705800  1
  C  C71  1  0.66570300  0.15895100  0.58122300  1
  C  C72  1  0.83087700  0.00000000  0.92533900  1
  C  C73  1  0.65654300  0.47834900  0.75000000  1
  C  C74  1  0.15895100  0.49324900  0.41877700  1
  C  C75  1  0.52165100  0.34345700  0.25000000  1
  C  C76  1  0.34345700  0.82180600  0.75000000  1
  C  C77  1  0.82180600  0.47834900  0.25000000  1
  C  C78  1  0.66570300  0.15895100  0.91877700  1
  C  C79  1  0.47834900  0.82180600  0.25000000  1
  C  C80  1  0.49324900  0.15895100  0.08122300  1
  C  C81  1  0.52165100  0.17819400  0.75000000  1
  C  C82  1  0.49324900  0.15895100  0.41877700  1
  C  C83  1  0.34345700  0.52165100  0.25000000  1
  C  C84  1  0.33383100  0.00000000  0.92294200  1
  C  C85  1  0.33383100  0.00000000  0.57705800  1
  C  C86  1  0.33429700  0.84104900  0.41877700  1
  C  C87  1  0.17819400  0.65654300  0.25000000  1
  C  C88  1  0.33383100  0.33383100  0.42294200  1
  C  C89  1  0.17819400  0.52165100  0.75000000  1
  C  C90  1  0.33429700  0.84104900  0.08122300  1
  C  C91  1  0.15895100  0.49324900  0.08122300  1
  C  C92  1  0.84104900  0.33429700  0.41877700  1
  C  C93  1  0.83087700  0.00000000  0.57466100  1
  C  C94  1  0.50675100  0.66570300  0.41877700  1
  C  C95  1  0.00000000  0.16912300  0.07466100  1
  C  C96  1  0.66616900  0.00000000  0.42294200  1
  C  C97  1  0.16912300  0.00000000  0.42533900  1
  C  C98  1  0.83087700  0.83087700  0.42533900  1
  C  C99  1  0.16912300  0.16912300  0.92533900  1
