# generated using pymatgen
data_CuNi2C
_symmetry_space_group_name_H-M   'P 1'
_cell_length_a   4.49351500
_cell_length_b   8.16418597
_cell_length_c   10.82001842
_cell_angle_alpha   108.35962133
_cell_angle_beta   92.62523545
_cell_angle_gamma   103.49298942
_symmetry_Int_Tables_number   1
_chemical_formula_structural   CuNi2C
_chemical_formula_sum   'Cu4 Ni8 C4'
_cell_volume   363.26505239
_cell_formula_units_Z   4
loop_
 _symmetry_equiv_pos_site_id
 _symmetry_equiv_pos_as_xyz
  1  'x, y, z'
loop_
 _atom_site_type_symbol
 _atom_site_label
 _atom_site_symmetry_multiplicity
 _atom_site_fract_x
 _atom_site_fract_y
 _atom_site_fract_z
 _atom_site_occupancy
  Ni  Ni0  1  0.26989300  0.98473600  0.64846700  1
  Ni  Ni1  1  0.99868000  0.18983100  0.27643600  1
  Ni  Ni2  1  0.00132000  0.81016900  0.72356400  1
  Ni  Ni3  1  0.72030500  0.65451700  0.31932900  1
  Ni  Ni4  1  0.10789400  0.74644800  0.96365500  1
  Ni  Ni5  1  0.89210600  0.25355200  0.03634500  1
  Ni  Ni6  1  0.27969500  0.34548300  0.68067100  1
  Ni  Ni7  1  0.73010700  0.01526400  0.35153300  1
  Cu  Cu8  1  0.20528400  0.84965900  0.86773900  1
  Cu  Cu9  1  0.16330300  0.17343500  0.71503700  1
  Cu  Cu10  1  0.83669700  0.82656500  0.28496300  1
  Cu  Cu11  1  0.79471600  0.15034100  0.13226100  1
  C  C12  1  0.81601900  0.60425000  0.92498700  1
  C  C13  1  0.50454900  0.65666100  0.41820500  1
  C  C14  1  0.18398100  0.39575000  0.07501300  1
  C  C15  1  0.49545100  0.34333900  0.58179500  1
