# generated using pymatgen
data_CuNiC2
_symmetry_space_group_name_H-M   'P 1'
_cell_length_a   4.22133600
_cell_length_b   7.17241300
_cell_length_c   11.40674800
_cell_angle_alpha   90.00000000
_cell_angle_beta   90.00000000
_cell_angle_gamma   90.00000000
_symmetry_Int_Tables_number   1
_chemical_formula_structural   CuNiC2
_chemical_formula_sum   'Cu4 Ni4 C8'
_cell_volume   345.36399363
_cell_formula_units_Z   4
loop_
 _symmetry_equiv_pos_site_id
 _symmetry_equiv_pos_as_xyz
  1  'x, y, z'
loop_
 _atom_site_type_symbol
 _atom_site_label
 _atom_site_symmetry_multiplicity
 _atom_site_fract_x
 _atom_site_fract_y
 _atom_site_fract_z
 _atom_site_occupancy
  C  C0  1  0.50000000  0.31978200  0.65309300  1
  C  C1  1  0.00000000  0.81978200  0.84690700  1
  C  C2  1  0.50000000  0.68021800  0.34690700  1
  C  C3  1  0.00000000  0.18021800  0.15309300  1
  Ni  Ni4  1  0.00000000  0.33980000  0.87818600  1
  Ni  Ni5  1  0.00000000  0.66020000  0.12181400  1
  Ni  Ni6  1  0.50000000  0.16020000  0.37818600  1
  Ni  Ni7  1  0.50000000  0.83980000  0.62181400  1
  C  C8  1  0.00000000  0.45864300  0.75374900  1
  C  C9  1  0.50000000  0.04135700  0.25374900  1
  C  C10  1  0.50000000  0.95864300  0.74625100  1
  C  C11  1  0.00000000  0.54135700  0.24625100  1
  Cu  Cu12  1  0.00000000  0.25335900  0.96594200  1
  Cu  Cu13  1  0.50000000  0.24664100  0.46594200  1
  Cu  Cu14  1  0.50000000  0.75335900  0.53405800  1
  Cu  Cu15  1  0.00000000  0.74664100  0.03405800  1
