# generated using pymatgen
data_Cu2NiC9
_symmetry_space_group_name_H-M   'P 1'
_cell_length_a   5.68935500
_cell_length_b   8.22799100
_cell_length_c   31.93595800
_cell_angle_alpha   90.00000000
_cell_angle_beta   90.00000000
_cell_angle_gamma   90.00000000
_symmetry_Int_Tables_number   1
_chemical_formula_structural   Cu2NiC9
_chemical_formula_sum   'Cu16 Ni8 C72'
_cell_volume   1494.98484389
_cell_formula_units_Z   8
loop_
 _symmetry_equiv_pos_site_id
 _symmetry_equiv_pos_as_xyz
  1  'x, y, z'
loop_
 _atom_site_type_symbol
 _atom_site_label
 _atom_site_symmetry_multiplicity
 _atom_site_fract_x
 _atom_site_fract_y
 _atom_site_fract_z
 _atom_site_occupancy
  C  C0  1  0.73472100  0.94420700  0.20929400  1
  C  C1  1  0.76527900  0.05579300  0.70929400  1
  C  C2  1  0.23472100  0.55579300  0.79070600  1
  C  C3  1  0.76527900  0.44420700  0.20929400  1
  C  C4  1  0.26527900  0.44420700  0.29070600  1
  C  C5  1  0.26527900  0.05579300  0.79070600  1
  C  C6  1  0.73472100  0.55579300  0.70929400  1
  C  C7  1  0.23472100  0.94420700  0.29070600  1
  Ni  Ni8  1  0.29431000  0.13679200  0.04006600  1
  Ni  Ni9  1  0.20569000  0.86320800  0.54006600  1
  Ni  Ni10  1  0.70569000  0.86320800  0.95993400  1
  Ni  Ni11  1  0.70569000  0.63679200  0.45993400  1
  Ni  Ni12  1  0.20569000  0.63679200  0.04006600  1
  Ni  Ni13  1  0.29431000  0.36320800  0.54006600  1
  Ni  Ni14  1  0.79431000  0.13679200  0.45993400  1
  Ni  Ni15  1  0.79431000  0.36320800  0.95993400  1
  Cu  Cu16  1  0.76581700  0.36985500  0.07903100  1
  Cu  Cu17  1  0.26581700  0.36985500  0.42096900  1
  Cu  Cu18  1  0.23418300  0.86985500  0.42096900  1
  Cu  Cu19  1  0.23680200  0.36995200  0.66417900  1
  Cu  Cu20  1  0.76319800  0.63004800  0.33582100  1
  Cu  Cu21  1  0.73418300  0.63014500  0.57903100  1
  Cu  Cu22  1  0.73680200  0.36995200  0.83582100  1
  Cu  Cu23  1  0.73680200  0.13004800  0.33582100  1
  Cu  Cu24  1  0.26319800  0.86995200  0.66417900  1
  Cu  Cu25  1  0.73418300  0.86985500  0.07903100  1
  Cu  Cu26  1  0.26319800  0.63004800  0.16417900  1
  Cu  Cu27  1  0.23680200  0.13004800  0.16417900  1
  Cu  Cu28  1  0.26581700  0.13014500  0.92096900  1
  Cu  Cu29  1  0.76581700  0.13014500  0.57903100  1
  Cu  Cu30  1  0.76319800  0.86995200  0.83582100  1
  Cu  Cu31  1  0.23418300  0.63014500  0.92096900  1
  C  C32  1  0.68528500  0.17978800  0.39275000  1
  C  C33  1  0.31471500  0.82021200  0.60725000  1
  C  C34  1  0.50893000  0.54261500  0.83403000  1
  C  C35  1  0.98858100  0.38440700  0.45558900  1
  C  C36  1  0.00305300  0.98968600  0.34146600  1
  C  C37  1  0.66709000  0.10355200  0.06802800  1
  C  C38  1  0.16709000  0.39644800  0.93197200  1
  C  C39  1  0.48754100  0.33711200  0.46628000  1
  C  C40  1  0.81471500  0.82021200  0.89275000  1
  C  C41  1  0.99694700  0.01031400  0.65853400  1
  C  C42  1  0.50893000  0.95738500  0.33403000  1
  C  C43  1  0.83291000  0.60355200  0.06802800  1
  C  C44  1  0.83291000  0.89644800  0.56802800  1
  C  C45  1  0.50305300  0.98968600  0.15853400  1
  C  C46  1  0.94749600  0.52456700  0.75596300  1
  C  C47  1  0.18528500  0.32021200  0.60725000  1
  C  C48  1  0.48754100  0.16288800  0.96628000  1
  C  C49  1  0.22968500  0.72288300  0.29549000  1
  C  C50  1  0.99107000  0.45738500  0.33403000  1
  C  C51  1  0.51245900  0.83711200  0.03372000  1
  C  C52  1  0.94749600  0.97543300  0.25596300  1
  C  C53  1  0.49107000  0.45738500  0.16597000  1
  C  C54  1  0.55250400  0.47543300  0.25596300  1
  C  C55  1  0.51141900  0.88440700  0.45558900  1
  C  C56  1  0.01245900  0.83711200  0.46628000  1
  C  C57  1  0.00893000  0.54261500  0.66597000  1
  C  C58  1  0.99694700  0.48968600  0.15853400  1
  C  C59  1  0.00305300  0.51031400  0.84146600  1
  C  C60  1  0.98754100  0.33711200  0.03372000  1
  C  C61  1  0.49107000  0.04261500  0.66597000  1
  C  C62  1  0.22968500  0.77711700  0.79549000  1
  C  C63  1  0.44749600  0.52456700  0.74403700  1
  C  C64  1  0.66709000  0.39644800  0.56802800  1
  C  C65  1  0.55250400  0.02456700  0.75596300  1
  C  C66  1  0.51141900  0.61559300  0.95558900  1
  C  C67  1  0.27031500  0.27711700  0.79549000  1
  C  C68  1  0.05250400  0.02456700  0.74403700  1
  C  C69  1  0.01245900  0.66288800  0.96628000  1
  C  C70  1  0.77031500  0.27711700  0.70451000  1
  C  C71  1  0.05250400  0.47543300  0.24403700  1
  C  C72  1  0.27031500  0.22288300  0.29549000  1
  C  C73  1  0.50305300  0.51031400  0.65853400  1
  C  C74  1  0.01141900  0.61559300  0.54441100  1
  C  C75  1  0.33291000  0.89644800  0.93197200  1
  C  C76  1  0.81471500  0.67978800  0.39275000  1
  C  C77  1  0.44749600  0.97543300  0.24403700  1
  C  C78  1  0.99107000  0.04261500  0.83403000  1
  C  C79  1  0.98754100  0.16288800  0.53372000  1
  C  C80  1  0.48858100  0.11559300  0.54441100  1
  C  C81  1  0.98858100  0.11559300  0.95558900  1
  C  C82  1  0.48858100  0.38440700  0.04441100  1
  C  C83  1  0.18528500  0.17978800  0.10725000  1
  C  C84  1  0.01141900  0.88440700  0.04441100  1
  C  C85  1  0.72968500  0.72288300  0.20451000  1
  C  C86  1  0.77031500  0.22288300  0.20451000  1
  C  C87  1  0.33291000  0.60355200  0.43197200  1
  C  C88  1  0.00893000  0.95738500  0.16597000  1
  C  C89  1  0.72968500  0.77711700  0.70451000  1
  C  C90  1  0.16709000  0.10355200  0.43197200  1
  C  C91  1  0.31471500  0.67978800  0.10725000  1
  C  C92  1  0.68528500  0.32021200  0.89275000  1
  C  C93  1  0.49694700  0.48968600  0.34146600  1
  C  C94  1  0.49694700  0.01031400  0.84146600  1
  C  C95  1  0.51245900  0.66288800  0.53372000  1
