# generated using pymatgen
data_Cu(NiC2)2
_symmetry_space_group_name_H-M   'P 1'
_cell_length_a   5.75876806
_cell_length_b   5.75876806
_cell_length_c   27.97049389
_cell_angle_alpha   89.79805846
_cell_angle_beta   89.79805846
_cell_angle_gamma   60.10464101
_symmetry_Int_Tables_number   1
_chemical_formula_structural   Cu(NiC2)2
_chemical_formula_sum   'Cu12 Ni24 C48'
_cell_volume   804.16155966
_cell_formula_units_Z   12
loop_
 _symmetry_equiv_pos_site_id
 _symmetry_equiv_pos_as_xyz
  1  'x, y, z'
loop_
 _atom_site_type_symbol
 _atom_site_label
 _atom_site_symmetry_multiplicity
 _atom_site_fract_x
 _atom_site_fract_y
 _atom_site_fract_z
 _atom_site_occupancy
  Ni  Ni0  1  0.32577700  0.32577700  0.95908600  1
  Ni  Ni1  1  0.66574900  0.66574900  0.98099000  1
  Ni  Ni2  1  0.32654600  0.83624400  0.89612300  1
  Ni  Ni3  1  0.66126000  0.66126000  0.79254100  1
  Ni  Ni4  1  0.67466100  0.67466100  0.66635200  1
  Ni  Ni5  1  0.83624400  0.32654600  0.89612300  1
  Ni  Ni6  1  0.66675400  0.17081600  0.72806800  1
  Ni  Ni7  1  0.00058300  0.00058300  0.81420500  1
  Ni  Ni8  1  0.99578900  0.99578900  0.62327500  1
  Ni  Ni9  1  0.17081600  0.66675400  0.72806800  1
  Ni  Ni10  1  0.00061800  0.50057600  0.56195800  1
  Ni  Ni11  1  0.32834200  0.32834200  0.45664000  1
  Ni  Ni12  1  0.33849000  0.33849000  0.33464100  1
  Ni  Ni13  1  0.50057600  0.00061800  0.56195800  1
  Ni  Ni14  1  0.33342100  0.83342500  0.39563900  1
  Ni  Ni15  1  0.66147700  0.66147700  0.29024800  1
  Ni  Ni16  1  0.00549600  0.00549600  0.50095700  1
  Ni  Ni17  1  0.83342500  0.33342100  0.39563900  1
  Ni  Ni18  1  0.66618800  0.16663400  0.22916900  1
  Ni  Ni19  1  0.99324900  0.99324900  0.12350700  1
  Ni  Ni20  1  0.16663400  0.66618800  0.22916900  1
  Ni  Ni21  1  0.99479500  0.49948800  0.06296300  1
  Ni  Ni22  1  0.67096000  0.67096000  0.16885100  1
  Ni  Ni23  1  0.49948800  0.99479500  0.06296300  1
  Cu  Cu24  1  0.00002500  0.00002500  0.00200300  1
  Cu  Cu25  1  0.33564200  0.33564200  0.83220500  1
  Cu  Cu26  1  0.83502700  0.83502700  0.89596800  1
  Cu  Cu27  1  0.16967500  0.16967500  0.72835000  1
  Cu  Cu28  1  0.50027700  0.50027700  0.56211900  1
  Cu  Cu29  1  0.33484400  0.33484400  0.64560800  1
  Cu  Cu30  1  0.83330000  0.83330000  0.39579200  1
  Cu  Cu31  1  0.66665800  0.66665800  0.47898500  1
  Cu  Cu32  1  0.16642300  0.16642300  0.22930000  1
  Cu  Cu33  1  0.99981000  0.99981000  0.31250900  1
  Cu  Cu34  1  0.49919500  0.49919500  0.06299400  1
  Cu  Cu35  1  0.33220300  0.33220300  0.14559200  1
  C  C36  1  0.49634400  0.97855000  0.93786200  1
  C  C37  1  0.65802800  0.65802800  0.85744500  1
  C  C38  1  0.97855000  0.49634400  0.93786200  1
  C  C39  1  0.50558300  0.50558300  0.93677400  1
  C  C40  1  0.15045500  0.15045500  0.85641800  1
  C  C41  1  0.83319500  0.31323800  0.77106700  1
  C  C42  1  0.70266800  0.16633000  0.85438200  1
  C  C43  1  0.99329300  0.99329300  0.68954800  1
  C  C44  1  0.31323800  0.83319500  0.77106700  1
  C  C45  1  0.01038900  0.01038900  0.93225300  1
  C  C46  1  0.16633000  0.70266800  0.85438200  1
  C  C47  1  0.84229200  0.84229200  0.77053300  1
  C  C48  1  0.50421200  0.50421200  0.68958800  1
  C  C49  1  0.15465400  0.65846600  0.60138900  1
  C  C50  1  0.00718200  0.51693300  0.68948100  1
  C  C51  1  0.34785700  0.34785700  0.76197200  1
  C  C52  1  0.32544200  0.32544200  0.52259400  1
  C  C53  1  0.65846600  0.15465400  0.60138900  1
  C  C54  1  0.51693300  0.00718200  0.68948100  1
  C  C55  1  0.16964700  0.16964700  0.60105100  1
  C  C56  1  0.83186200  0.83186200  0.52371100  1
  C  C57  1  0.48756800  0.99099300  0.43487800  1
  C  C58  1  0.34188300  0.84634000  0.52339600  1
  C  C59  1  0.67576900  0.67576900  0.60114700  1
  C  C60  1  0.65851800  0.65851800  0.35613300  1
  C  C61  1  0.99099300  0.48756800  0.43487800  1
  C  C62  1  0.50225200  0.50225200  0.43443300  1
  C  C63  1  0.84634000  0.34188300  0.52339600  1
  C  C64  1  0.16459700  0.16459700  0.35745400  1
  C  C65  1  0.82066800  0.32423500  0.26837000  1
  C  C66  1  0.67525100  0.17912000  0.35701000  1
  C  C67  1  0.00817700  0.00817700  0.43550600  1
  C  C68  1  0.99154300  0.99154300  0.18946100  1
  C  C69  1  0.32423500  0.82066800  0.26837000  1
  C  C70  1  0.83536700  0.83536700  0.26789600  1
  C  C71  1  0.17912000  0.67525100  0.35701000  1
  C  C72  1  0.49661500  0.49661500  0.19113000  1
  C  C73  1  0.15130900  0.65746900  0.10122700  1
  C  C74  1  0.00928200  0.51156700  0.19055900  1
  C  C75  1  0.32367700  0.32367700  0.02367900  1
  C  C76  1  0.65746900  0.15130900  0.10122700  1
  C  C77  1  0.34112500  0.34112500  0.26925500  1
  C  C78  1  0.16587600  0.16587600  0.10031000  1
  C  C79  1  0.51156700  0.00928200  0.19055900  1
  C  C80  1  0.81157800  0.81157800  0.02389400  1
  C  C81  1  0.37128700  0.82877200  0.02182000  1
  C  C82  1  0.67212400  0.67212400  0.10437100  1
  C  C83  1  0.82877200  0.37128700  0.02182000  1
