# generated using pymatgen
data_Cu4NiC25
_symmetry_space_group_name_H-M   'P 1'
_cell_length_a   5.48531731
_cell_length_b   10.95943808
_cell_length_c   19.71581866
_cell_angle_alpha   46.43495857
_cell_angle_beta   56.67221116
_cell_angle_gamma   60.51328842
_symmetry_Int_Tables_number   1
_chemical_formula_structural   Cu4NiC25
_chemical_formula_sum   'Cu8 Ni2 C50'
_cell_volume   704.83567537
_cell_formula_units_Z   2
loop_
 _symmetry_equiv_pos_site_id
 _symmetry_equiv_pos_as_xyz
  1  'x, y, z'
loop_
 _atom_site_type_symbol
 _atom_site_label
 _atom_site_symmetry_multiplicity
 _atom_site_fract_x
 _atom_site_fract_y
 _atom_site_fract_z
 _atom_site_occupancy
  C  C0  1  0.25612200  0.41292500  0.41698500  1
  C  C1  1  0.74387800  0.42040900  0.91634900  1
  Ni  Ni2  1  0.25953600  0.91248000  0.41642400  1
  Ni  Ni3  1  0.74046400  0.92085400  0.91691000  1
  Cu  Cu4  1  0.24706400  0.08892800  0.08113200  1
  Cu  Cu5  1  0.24766700  0.58265400  0.08354500  1
  Cu  Cu6  1  0.75233300  0.25067900  0.24978800  1
  Cu  Cu7  1  0.24410000  0.25181900  0.75149900  1
  Cu  Cu8  1  0.75245500  0.08323200  0.58280100  1
  Cu  Cu9  1  0.75293600  0.74440500  0.25220100  1
  Cu  Cu10  1  0.24754500  0.75010100  0.75053200  1
  Cu  Cu11  1  0.75590000  0.58151400  0.58183400  1
  C  C12  1  0.99825600  0.00316000  0.99876600  1
  C  C13  1  0.00047300  0.50226900  0.99768400  1
  C  C14  1  0.49987900  0.16747500  0.16614300  1
  C  C15  1  0.50012100  0.66585900  0.16719100  1
  C  C16  1  0.50228200  0.00141400  0.49834900  1
  C  C17  1  0.50508500  0.49947700  0.49805300  1
  C  C18  1  0.99952700  0.33106400  0.33564900  1
  C  C19  1  0.49491500  0.33385600  0.83528000  1
  C  C20  1  0.00133500  0.16737900  0.66638100  1
  C  C21  1  0.00174400  0.83017300  0.33456700  1
  C  C22  1  0.49771800  0.83191900  0.83498400  1
  C  C23  1  0.99866500  0.66595500  0.66695300  1
  C  C24  1  0.20134400  0.02630200  0.24790400  1
  C  C25  1  0.26034200  0.34071300  0.07932000  1
  C  C26  1  0.26504700  0.27851700  0.23504000  1
  C  C27  1  0.73719700  0.04834100  0.10160200  1
  C  C28  1  0.20545400  0.52688100  0.24412800  1
  C  C29  1  0.27700100  0.84204400  0.07372200  1
  C  C30  1  0.30181500  0.16601000  0.40190400  1
  C  C31  1  0.79454600  0.30645200  0.08920500  1
  C  C32  1  0.26280300  0.78499200  0.23173100  1
  C  C33  1  0.25885400  0.08878200  0.58021000  1
  C  C34  1  0.73495300  0.55481600  0.09829300  1
  C  C35  1  0.20136400  0.35316700  0.58990200  1
  C  C36  1  0.73965800  0.49262000  0.25401300  1
  C  C37  1  0.29774200  0.67773700  0.40137300  1
  C  C38  1  0.29645000  0.01658900  0.73413200  1
  C  C39  1  0.79607100  0.14217400  0.41766700  1
  C  C40  1  0.79865600  0.80703100  0.08542900  1
  C  C41  1  0.25850500  0.60232600  0.57332400  1
  C  C42  1  0.75394500  0.38467500  0.43153500  1
  C  C43  1  0.20102700  0.85602500  0.58408700  1
  C  C44  1  0.22141400  0.17971000  0.91741600  1
  C  C45  1  0.72299900  0.99128900  0.25961100  1
  C  C46  1  0.70204500  0.31897500  0.60098500  1
  C  C47  1  0.29795500  0.51435800  0.73234800  1
  C  C48  1  0.77858600  0.65362400  0.41591800  1
  C  C49  1  0.24605500  0.44865900  0.90179900  1
  C  C50  1  0.74149500  0.23100700  0.76000900  1
  C  C51  1  0.75605200  0.88394100  0.43182300  1
  C  C52  1  0.20392900  0.69116000  0.91566700  1
  C  C53  1  0.70225800  0.15559700  0.93196100  1
  C  C54  1  0.70355000  0.81674400  0.59920100  1
  C  C55  1  0.79863600  0.48016600  0.74343100  1
  C  C56  1  0.24394800  0.94939300  0.90151100  1
  C  C57  1  0.74114600  0.74455100  0.75312300  1
  C  C58  1  0.69818500  0.66732400  0.93143000  1
  C  C59  1  0.79897300  0.97730800  0.74924600  1
