# generated using pymatgen
data_CuNiC
_symmetry_space_group_name_H-M   'P 1'
_cell_length_a   16.30860091
_cell_length_b   11.90106037
_cell_length_c   11.73384535
_cell_angle_alpha   87.26066557
_cell_angle_beta   46.79488144
_cell_angle_gamma   45.94445298
_symmetry_Int_Tables_number   1
_chemical_formula_structural   CuNiC
_chemical_formula_sum   'Cu8 Ni8 C8'
_cell_volume   687.03197051
_cell_formula_units_Z   8
loop_
 _symmetry_equiv_pos_site_id
 _symmetry_equiv_pos_as_xyz
  1  'x, y, z'
loop_
 _atom_site_type_symbol
 _atom_site_label
 _atom_site_symmetry_multiplicity
 _atom_site_fract_x
 _atom_site_fract_y
 _atom_site_fract_z
 _atom_site_occupancy
  C  C0  1  0.00000000  0.00000000  0.00000000  1
  C  C1  1  0.50000000  0.50000000  0.50000000  1
  C  C2  1  0.86420900  0.13579100  0.86420900  1
  C  C3  1  0.11420900  0.38579100  0.11420900  1
  C  C4  1  0.75000000  0.75000000  0.75000000  1
  C  C5  1  0.13579100  0.86420900  0.13579100  1
  C  C6  1  0.25000000  0.25000000  0.25000000  1
  C  C7  1  0.38579100  0.11420900  0.38579100  1
  Ni  Ni8  1  0.73930900  0.65625000  0.14677100  1
  Ni  Ni9  1  0.45767000  0.14677100  0.65625000  1
  Ni  Ni10  1  0.10322900  0.79233000  0.51069100  1
  Ni  Ni11  1  0.14677100  0.45767000  0.73930900  1
  Ni  Ni12  1  0.51069100  0.59375000  0.10322900  1
  Ni  Ni13  1  0.79233000  0.10322900  0.59375000  1
  Ni  Ni14  1  0.65625000  0.73930900  0.45767000  1
  Ni  Ni15  1  0.59375000  0.51069100  0.79233000  1
  Cu  Cu16  1  0.88123300  0.24789100  0.25116300  1
  Cu  Cu17  1  0.61971400  0.25116300  0.24789100  1
  Cu  Cu18  1  0.24789100  0.88123300  0.61971400  1
  Cu  Cu19  1  0.63028600  0.99883700  0.00210900  1
  Cu  Cu20  1  0.99883700  0.63028600  0.36876700  1
  Cu  Cu21  1  0.25116300  0.61971400  0.88123300  1
  Cu  Cu22  1  0.00210900  0.36876700  0.63028600  1
  Cu  Cu23  1  0.36876700  0.00210900  0.99883700  1
