# generated using pymatgen
data_Cu8Ni5C26
_symmetry_space_group_name_H-M   'P 1'
_cell_length_a   10.37304326
_cell_length_b   10.37304326
_cell_length_c   5.32796317
_cell_angle_alpha   83.13018931
_cell_angle_beta   83.13018931
_cell_angle_gamma   122.76893639
_symmetry_Int_Tables_number   1
_chemical_formula_structural   Cu8Ni5C26
_chemical_formula_sum   'Cu8 Ni5 C26'
_cell_volume   466.77942716
_cell_formula_units_Z   1
loop_
 _symmetry_equiv_pos_site_id
 _symmetry_equiv_pos_as_xyz
  1  'x, y, z'
loop_
 _atom_site_type_symbol
 _atom_site_label
 _atom_site_symmetry_multiplicity
 _atom_site_fract_x
 _atom_site_fract_y
 _atom_site_fract_z
 _atom_site_occupancy
  C  C0  1  0.72241000  0.27759000  0.50000000  1
  C  C1  1  0.27759000  0.72241000  0.50000000  1
  Ni  Ni2  1  0.91154200  0.08845800  0.50000000  1
  Ni  Ni3  1  0.00000000  0.00000000  0.00000000  1
  Ni  Ni4  1  0.08845800  0.91154200  0.50000000  1
  Ni  Ni5  1  0.17673400  0.82326600  0.00000000  1
  Ni  Ni6  1  0.82326600  0.17673400  0.00000000  1
  Cu  Cu7  1  0.80213900  0.63501100  0.29573600  1
  Cu  Cu8  1  0.54045900  0.88192600  0.80326800  1
  Cu  Cu9  1  0.36498900  0.19786100  0.70426400  1
  Cu  Cu10  1  0.88192600  0.54045900  0.80326800  1
  Cu  Cu11  1  0.19786100  0.36498900  0.70426400  1
  Cu  Cu12  1  0.45954100  0.11807400  0.19673200  1
  Cu  Cu13  1  0.11807400  0.45954100  0.19673200  1
  Cu  Cu14  1  0.63501100  0.80213900  0.29573600  1
  C  C15  1  0.48112700  0.21209400  0.90133600  1
  C  C16  1  0.19709300  0.02734400  0.78238900  1
  C  C17  1  0.22511200  0.46396900  0.41444400  1
  C  C18  1  0.77488800  0.53603100  0.58555600  1
  C  C19  1  0.71126700  0.05125700  0.72411100  1
  C  C20  1  0.05125700  0.71126700  0.72411100  1
  C  C21  1  0.66002500  0.66002500  0.29257200  1
  C  C22  1  0.53603100  0.77488800  0.58555600  1
  C  C23  1  0.97265600  0.80290700  0.21761100  1
  C  C24  1  0.11769000  0.61356700  0.20773500  1
  C  C25  1  0.80290700  0.97265600  0.21761100  1
  C  C26  1  0.51887300  0.78790600  0.09866400  1
  C  C27  1  0.88231000  0.38643300  0.79226500  1
  C  C28  1  0.02734400  0.19709300  0.78238900  1
  C  C29  1  0.28873300  0.94874300  0.27588900  1
  C  C30  1  0.61356700  0.11769000  0.20773500  1
  C  C31  1  0.94874300  0.28873300  0.27588900  1
  C  C32  1  0.78790600  0.51887300  0.09866400  1
  C  C33  1  0.33997500  0.33997500  0.70742800  1
  C  C34  1  0.38643300  0.88231000  0.79226500  1
  C  C35  1  0.21209400  0.48112700  0.90133600  1
  C  C36  1  0.46396900  0.22511200  0.41444400  1
  C  C37  1  0.10117200  0.10117200  0.28834700  1
  C  C38  1  0.89882800  0.89882800  0.71165300  1
