# generated using pymatgen
data_Cu2Ni2C3
_symmetry_space_group_name_H-M   'P 1'
_cell_length_a   4.52351800
_cell_length_b   6.16058300
_cell_length_c   12.47138076
_cell_angle_alpha   87.40189060
_cell_angle_beta   90.00000000
_cell_angle_gamma   90.00000000
_symmetry_Int_Tables_number   1
_chemical_formula_structural   Cu2Ni2C3
_chemical_formula_sum   'Cu4 Ni4 C6'
_cell_volume   347.18904947
_cell_formula_units_Z   2
loop_
 _symmetry_equiv_pos_site_id
 _symmetry_equiv_pos_as_xyz
  1  'x, y, z'
loop_
 _atom_site_type_symbol
 _atom_site_label
 _atom_site_symmetry_multiplicity
 _atom_site_fract_x
 _atom_site_fract_y
 _atom_site_fract_z
 _atom_site_occupancy
  C  C0  1  0.50000000  0.00000000  0.50000000  1
  C  C1  1  0.00000000  0.00000000  0.00000000  1
  Ni  Ni2  1  0.23140400  0.55404900  0.62411900  1
  Ni  Ni3  1  0.76859600  0.44595100  0.37588100  1
  Ni  Ni4  1  0.26859600  0.55404900  0.12411900  1
  Ni  Ni5  1  0.73140400  0.44595100  0.87588100  1
  Cu  Cu6  1  0.66648900  0.15722100  0.85289700  1
  Cu  Cu7  1  0.83351100  0.15722100  0.35289700  1
  Cu  Cu8  1  0.33351100  0.84277900  0.14710300  1
  Cu  Cu9  1  0.16648900  0.84277900  0.64710300  1
  C  C10  1  0.76673400  0.63287300  0.88562400  1
  C  C11  1  0.23326600  0.36712700  0.11437600  1
  C  C12  1  0.73326600  0.63287300  0.38562400  1
  C  C13  1  0.26673400  0.36712700  0.61437600  1
