# generated using pymatgen
data_CuNi7C9
_symmetry_space_group_name_H-M   'P 1'
_cell_length_a   3.85596400
_cell_length_b   15.65218500
_cell_length_c   20.62387900
_cell_angle_alpha   90.00000000
_cell_angle_beta   90.00000000
_cell_angle_gamma   90.00000000
_symmetry_Int_Tables_number   1
_chemical_formula_structural   CuNi7C9
_chemical_formula_sum   'Cu4 Ni28 C36'
_cell_volume   1244.73899418
_cell_formula_units_Z   4
loop_
 _symmetry_equiv_pos_site_id
 _symmetry_equiv_pos_as_xyz
  1  'x, y, z'
loop_
 _atom_site_type_symbol
 _atom_site_label
 _atom_site_symmetry_multiplicity
 _atom_site_fract_x
 _atom_site_fract_y
 _atom_site_fract_z
 _atom_site_occupancy
  C  C0  1  0.75000000  0.56061900  0.56307700  1
  C  C1  1  0.75000000  0.08809000  0.24168900  1
  C  C2  1  0.25000000  0.06233600  0.55602100  1
  C  C3  1  0.25000000  0.58809000  0.25831100  1
  C  C4  1  0.75000000  0.27048700  0.92213000  1
  C  C5  1  0.25000000  0.28609700  0.27000500  1
  C  C6  1  0.25000000  0.43938100  0.43692300  1
  C  C7  1  0.25000000  0.21390300  0.77000500  1
  C  C8  1  0.75000000  0.93938100  0.06307700  1
  C  C9  1  0.25000000  0.72951300  0.07787000  1
  C  C10  1  0.75000000  0.93766400  0.44397900  1
  C  C11  1  0.75000000  0.41191000  0.74168900  1
  C  C12  1  0.25000000  0.06061900  0.93692300  1
  C  C13  1  0.75000000  0.22951300  0.42213000  1
  C  C14  1  0.25000000  0.34320500  0.59768800  1
  C  C15  1  0.75000000  0.71390300  0.72999500  1
  C  C16  1  0.75000000  0.65679500  0.40231200  1
  C  C17  1  0.75000000  0.78609700  0.22999500  1
  C  C18  1  0.75000000  0.56233600  0.94397900  1
  C  C19  1  0.75000000  0.84320500  0.90231200  1
  C  C20  1  0.25000000  0.43766400  0.05602100  1
  C  C21  1  0.25000000  0.77048700  0.57787000  1
  C  C22  1  0.25000000  0.15679500  0.09768800  1
  C  C23  1  0.25000000  0.91191000  0.75831100  1
  C  C24  1  0.75000000  0.94738600  0.63955100  1
  C  C25  1  0.25000000  0.44738600  0.86044900  1
  C  C26  1  0.75000000  0.31267100  0.14308100  1
  C  C27  1  0.25000000  0.56273800  0.69726000  1
  C  C28  1  0.25000000  0.81267100  0.35691900  1
  C  C29  1  0.75000000  0.43726200  0.30274000  1
  C  C30  1  0.25000000  0.93726200  0.19726000  1
  C  C31  1  0.75000000  0.18732900  0.64308100  1
  C  C32  1  0.75000000  0.55261400  0.13955100  1
  C  C33  1  0.25000000  0.68732900  0.85691900  1
  C  C34  1  0.75000000  0.06273800  0.80274000  1
  C  C35  1  0.25000000  0.05261400  0.36044900  1
  Ni  Ni36  1  0.75000000  0.53422400  0.45697400  1
  Ni  Ni37  1  0.25000000  0.03422400  0.04302600  1
  Ni  Ni38  1  0.75000000  0.35224500  0.47089000  1
  Ni  Ni39  1  0.25000000  0.90488200  0.86793500  1
  Ni  Ni40  1  0.25000000  0.15585600  0.21263900  1
  Ni  Ni41  1  0.75000000  0.71401800  0.62178900  1
  Ni  Ni42  1  0.75000000  0.09511800  0.13206500  1
  Ni  Ni43  1  0.25000000  0.78363700  0.70407100  1
  Ni  Ni44  1  0.25000000  0.93855100  0.50138200  1
  Ni  Ni45  1  0.25000000  0.71636300  0.20407100  1
  Ni  Ni46  1  0.75000000  0.84414400  0.78736100  1
  Ni  Ni47  1  0.75000000  0.28363700  0.79592900  1
  Ni  Ni48  1  0.75000000  0.14775500  0.97089000  1
  Ni  Ni49  1  0.25000000  0.59511800  0.36793500  1
  Ni  Ni50  1  0.75000000  0.40488200  0.63206500  1
  Ni  Ni51  1  0.25000000  0.56144900  0.00138200  1
  Ni  Ni52  1  0.25000000  0.85224500  0.02911000  1
  Ni  Ni53  1  0.25000000  0.64775500  0.52911000  1
  Ni  Ni54  1  0.75000000  0.65585600  0.28736100  1
  Ni  Ni55  1  0.75000000  0.78598200  0.12178900  1
  Ni  Ni56  1  0.25000000  0.21401800  0.87821100  1
  Ni  Ni57  1  0.75000000  0.06144900  0.49861800  1
  Ni  Ni58  1  0.25000000  0.46577600  0.54302600  1
  Ni  Ni59  1  0.75000000  0.43855100  0.99861800  1
  Ni  Ni60  1  0.25000000  0.34414400  0.71263900  1
  Ni  Ni61  1  0.75000000  0.96577600  0.95697400  1
  Ni  Ni62  1  0.75000000  0.21636300  0.29592900  1
  Ni  Ni63  1  0.25000000  0.28598200  0.37821100  1
  Cu  Cu64  1  0.75000000  0.69745900  0.99577900  1
  Cu  Cu65  1  0.25000000  0.30254100  0.00422100  1
  Cu  Cu66  1  0.25000000  0.19745900  0.50422100  1
  Cu  Cu67  1  0.75000000  0.80254100  0.49577900  1
