# generated using pymatgen
data_CuNi
_symmetry_space_group_name_H-M   'P 1'
_cell_length_a   22.81363697
_cell_length_b   22.81363697
_cell_length_c   22.81363674
_cell_angle_alpha   7.78713598
_cell_angle_beta   7.78713598
_cell_angle_gamma   7.78713589
_symmetry_Int_Tables_number   1
_chemical_formula_structural   CuNi
_chemical_formula_sum   'Cu9 Ni9'
_cell_volume   189.06743578
_cell_formula_units_Z   9
loop_
 _symmetry_equiv_pos_site_id
 _symmetry_equiv_pos_as_xyz
  1  'x, y, z'
loop_
 _atom_site_type_symbol
 _atom_site_label
 _atom_site_symmetry_multiplicity
 _atom_site_fract_x
 _atom_site_fract_y
 _atom_site_fract_z
 _atom_site_occupancy
  Ni  Ni0  1  0.88893600  0.88893600  0.88893600  1
  Ni  Ni1  1  0.51851700  0.51851700  0.51851700  1
  Ni  Ni2  1  0.14810400  0.14810400  0.14810400  1
  Ni  Ni3  1  0.29620100  0.29620100  0.29620100  1
  Ni  Ni4  1  0.59260200  0.59260200  0.59260200  1
  Ni  Ni5  1  0.99990600  0.99990600  0.99990600  1
  Ni  Ni6  1  0.44437700  0.44437700  0.44437700  1
  Ni  Ni7  1  0.37029300  0.37029300  0.37029300  1
  Ni  Ni8  1  0.74068900  0.74068900  0.74068900  1
  Cu  Cu9  1  0.39813300  0.39813300  0.39813300  1
  Cu  Cu10  1  0.76859900  0.76859900  0.76859900  1
  Cu  Cu11  1  0.32401000  0.32401000  0.32401000  1
  Cu  Cu12  1  0.02782900  0.02782900  0.02782900  1
  Cu  Cu13  1  0.47219500  0.47219500  0.47219500  1
  Cu  Cu14  1  0.91682300  0.91682300  0.91682300  1
  Cu  Cu15  1  0.17603600  0.17603600  0.17603600  1
  Cu  Cu16  1  0.54635600  0.54635600  0.54635600  1
  Cu  Cu17  1  0.62039200  0.62039200  0.62039200  1
