# generated using pymatgen
data_Cu2Ni3C7
_symmetry_space_group_name_H-M   'P 1'
_cell_length_a   7.99659500
_cell_length_b   8.05327100
_cell_length_c   14.66883629
_cell_angle_alpha   84.34329569
_cell_angle_beta   90.00000000
_cell_angle_gamma   90.00000000
_symmetry_Int_Tables_number   1
_chemical_formula_structural   Cu2Ni3C7
_chemical_formula_sum   'Cu8 Ni12 C28'
_cell_volume   940.05452139
_cell_formula_units_Z   4
loop_
 _symmetry_equiv_pos_site_id
 _symmetry_equiv_pos_as_xyz
  1  'x, y, z'
loop_
 _atom_site_type_symbol
 _atom_site_label
 _atom_site_symmetry_multiplicity
 _atom_site_fract_x
 _atom_site_fract_y
 _atom_site_fract_z
 _atom_site_occupancy
  C  C0  1  0.34867000  0.85965500  0.62202000  1
  C  C1  1  0.65133000  0.14034500  0.37798000  1
  C  C2  1  0.15133000  0.85965500  0.12202000  1
  C  C3  1  0.84867000  0.14034500  0.87798000  1
  C  C4  1  0.57795300  0.35180600  0.85432700  1
  C  C5  1  0.84954200  0.20019000  0.52638500  1
  C  C6  1  0.65045800  0.20019000  0.02638500  1
  C  C7  1  0.34954200  0.79981000  0.97361500  1
  C  C8  1  0.92204700  0.35180600  0.35432700  1
  C  C9  1  0.15045800  0.79981000  0.47361500  1
  C  C10  1  0.07795300  0.64819400  0.64567300  1
  C  C11  1  0.42204700  0.64819400  0.14567300  1
  Ni  Ni12  1  0.70256600  0.10909300  0.48450600  1
  Ni  Ni13  1  0.21583400  0.75277500  0.68633500  1
  Ni  Ni14  1  0.78416600  0.24722500  0.31366500  1
  Ni  Ni15  1  0.52451200  0.29361000  0.95610500  1
  Ni  Ni16  1  0.20256600  0.89090700  0.01549400  1
  Ni  Ni17  1  0.47548800  0.70639000  0.04389500  1
  Ni  Ni18  1  0.71583400  0.24722500  0.81366500  1
  Ni  Ni19  1  0.79743400  0.10909300  0.98450600  1
  Ni  Ni20  1  0.28416600  0.75277500  0.18633500  1
  Ni  Ni21  1  0.29743400  0.89090700  0.51549400  1
  Ni  Ni22  1  0.97548800  0.29361000  0.45610500  1
  Ni  Ni23  1  0.02451200  0.70639000  0.54389500  1
  C  C24  1  0.92743600  0.75245500  0.13404500  1
  C  C25  1  0.07256400  0.24754500  0.86595500  1
  C  C26  1  0.57256400  0.75245500  0.63404500  1
  C  C27  1  0.42743600  0.24754500  0.36595500  1
  C  C28  1  0.62234500  0.92172400  0.32986300  1
  C  C29  1  0.12234500  0.07827600  0.17013700  1
  C  C30  1  0.37765500  0.07827600  0.67013700  1
  C  C31  1  0.87765500  0.92172400  0.82986300  1
  Cu  Cu32  1  0.93653300  0.61389600  0.70331700  1
  Cu  Cu33  1  0.56547800  0.10700600  0.09976100  1
  Cu  Cu34  1  0.06547800  0.89299400  0.40023900  1
  Cu  Cu35  1  0.06346700  0.38610400  0.29668300  1
  Cu  Cu36  1  0.43653300  0.38610400  0.79668300  1
  Cu  Cu37  1  0.56346700  0.61389600  0.20331700  1
  Cu  Cu38  1  0.43452200  0.89299400  0.90023900  1
  Cu  Cu39  1  0.93452200  0.10700600  0.59976100  1
  C  C40  1  0.83536900  0.52991400  0.36287600  1
  C  C41  1  0.33536900  0.47008600  0.13712400  1
  C  C42  1  0.24069600  0.64994200  0.42807200  1
  C  C43  1  0.66463100  0.52991400  0.86287600  1
  C  C44  1  0.25930400  0.64994200  0.92807200  1
  C  C45  1  0.74069600  0.35005800  0.07192800  1
  C  C46  1  0.75930400  0.35005800  0.57192800  1
  C  C47  1  0.16463100  0.47008600  0.63712400  1
