# generated using pymatgen
data_Cu3NiC
_symmetry_space_group_name_H-M   'P 1'
_cell_length_a   7.28334989
_cell_length_b   7.28334989
_cell_length_c   25.56781900
_cell_angle_alpha   90.00000000
_cell_angle_beta   90.00000000
_cell_angle_gamma   119.99999902
_symmetry_Int_Tables_number   1
_chemical_formula_structural   Cu3NiC
_chemical_formula_sum   'Cu54 Ni18 C18'
_cell_volume   1174.59099522
_cell_formula_units_Z   18
loop_
 _symmetry_equiv_pos_site_id
 _symmetry_equiv_pos_as_xyz
  1  'x, y, z'
loop_
 _atom_site_type_symbol
 _atom_site_label
 _atom_site_symmetry_multiplicity
 _atom_site_fract_x
 _atom_site_fract_y
 _atom_site_fract_z
 _atom_site_occupancy
  C  C0  1  0.61276400  0.30638200  0.91666700  1
  C  C1  1  0.99059600  0.00940400  0.58333300  1
  C  C2  1  0.69361800  0.38723600  0.25000000  1
  C  C3  1  0.33797500  0.66202500  0.58333300  1
  C  C4  1  0.69361800  0.30638200  0.58333300  1
  C  C5  1  0.98119200  0.99059600  0.41666700  1
  C  C6  1  0.01880800  0.00940400  0.91666700  1
  C  C7  1  0.99059600  0.98119200  0.25000000  1
  C  C8  1  0.30638200  0.69361800  0.08333300  1
  C  C9  1  0.00940400  0.01880800  0.75000000  1
  C  C10  1  0.66202500  0.32405000  0.75000000  1
  C  C11  1  0.66202500  0.33797500  0.08333300  1
  C  C12  1  0.32405000  0.66202500  0.91666700  1
  C  C13  1  0.00940400  0.99059600  0.08333300  1
  C  C14  1  0.33797500  0.67595000  0.25000000  1
  C  C15  1  0.38723600  0.69361800  0.41666700  1
  C  C16  1  0.67595000  0.33797500  0.41666700  1
  C  C17  1  0.30638200  0.61276400  0.75000000  1
  Ni  Ni18  1  0.04975700  0.67756200  0.33846200  1
  Ni  Ni19  1  0.00000000  0.69091200  0.66666700  1
  Ni  Ni20  1  0.00000000  0.30908800  0.16666700  1
  Ni  Ni21  1  0.32243800  0.37219500  0.00512900  1
  Ni  Ni22  1  0.30908800  0.30908800  0.33333300  1
  Ni  Ni23  1  0.37219500  0.32243800  0.66153800  1
  Ni  Ni24  1  0.67756200  0.04975700  0.32820500  1
  Ni  Ni25  1  0.62780500  0.67756200  0.16153800  1
  Ni  Ni26  1  0.62780500  0.95024300  0.67179500  1
  Ni  Ni27  1  0.69091200  0.00000000  0.00000000  1
  Ni  Ni28  1  0.69091200  0.69091200  0.83333300  1
  Ni  Ni29  1  0.32243800  0.95024300  0.82820500  1
  Ni  Ni30  1  0.04975700  0.37219500  0.49487100  1
  Ni  Ni31  1  0.37219500  0.04975700  0.17179500  1
  Ni  Ni32  1  0.67756200  0.62780500  0.50512900  1
  Ni  Ni33  1  0.95024300  0.62780500  0.99487100  1
  Ni  Ni34  1  0.95024300  0.32243800  0.83846200  1
  Ni  Ni35  1  0.30908800  0.00000000  0.50000000  1
  Cu  Cu36  1  0.68155800  0.96098800  0.37185300  1
  Cu  Cu37  1  0.22749000  0.55017600  0.49676500  1
  Cu  Cu38  1  0.00000000  0.13074800  0.16666700  1
  Cu  Cu39  1  0.13074800  0.13074800  0.33333300  1
  Cu  Cu40  1  0.39123900  0.40005200  0.28878900  1
  Cu  Cu41  1  0.32268600  0.55017600  0.00323500  1
  Cu  Cu42  1  0.72057000  0.68155800  0.20518600  1
  Cu  Cu43  1  0.67380500  0.96590300  0.28314500  1
  Cu  Cu44  1  0.40005200  0.00881300  0.45545600  1
  Cu  Cu45  1  0.44982400  0.67731400  0.16343200  1
  Cu  Cu46  1  0.59994800  0.60876100  0.87787800  1
  Cu  Cu47  1  0.77251000  0.44982400  0.99676500  1
  Cu  Cu48  1  0.44982400  0.77251000  0.66990200  1
  Cu  Cu49  1  0.22749000  0.67731400  0.33656800  1
  Cu  Cu50  1  0.32268600  0.77251000  0.83009800  1
  Cu  Cu51  1  0.55017600  0.22749000  0.16990200  1
  Cu  Cu52  1  0.68155800  0.72057000  0.46148000  1
  Cu  Cu53  1  0.31844200  0.03901200  0.87185300  1
  Cu  Cu54  1  0.59994800  0.99118700  0.95545600  1
  Cu  Cu55  1  0.29209800  0.32619500  0.61647800  1
  Cu  Cu56  1  0.03409700  0.32619500  0.88352200  1
  Cu  Cu57  1  0.67380500  0.70790200  0.55018800  1
  Cu  Cu58  1  0.00881300  0.60876100  0.62212200  1
  Cu  Cu59  1  0.13074800  0.00000000  0.50000000  1
  Cu  Cu60  1  0.27943000  0.96098800  0.12814700  1
  Cu  Cu61  1  0.86925200  0.00000000  0.00000000  1
  Cu  Cu62  1  0.03901200  0.31844200  0.79481400  1
  Cu  Cu63  1  0.67731400  0.44982400  0.50323500  1
  Cu  Cu64  1  0.60876100  0.00881300  0.04454400  1
  Cu  Cu65  1  0.60876100  0.59994800  0.78878900  1
  Cu  Cu66  1  0.00000000  0.86925200  0.66666700  1
  Cu  Cu67  1  0.96098800  0.27943000  0.53852000  1
  Cu  Cu68  1  0.99118700  0.39123900  0.12212200  1
  Cu  Cu69  1  0.39123900  0.99118700  0.54454400  1
  Cu  Cu70  1  0.77251000  0.32268600  0.83656800  1
  Cu  Cu71  1  0.96590300  0.29209800  0.44981200  1
  Cu  Cu72  1  0.32619500  0.03409700  0.78314500  1
  Cu  Cu73  1  0.00881300  0.40005200  0.21121100  1
  Cu  Cu74  1  0.99118700  0.59994800  0.71121100  1
  Cu  Cu75  1  0.96098800  0.68155800  0.29481400  1
  Cu  Cu76  1  0.03409700  0.70790200  0.94981200  1
  Cu  Cu77  1  0.70790200  0.03409700  0.71685500  1
  Cu  Cu78  1  0.29209800  0.96590300  0.21685500  1
  Cu  Cu79  1  0.31844200  0.27943000  0.96148000  1
  Cu  Cu80  1  0.27943000  0.31844200  0.70518600  1
  Cu  Cu81  1  0.86925200  0.86925200  0.83333300  1
  Cu  Cu82  1  0.32619500  0.29209800  0.05018800  1
  Cu  Cu83  1  0.55017600  0.32268600  0.66343200  1
  Cu  Cu84  1  0.70790200  0.67380500  0.11647800  1
  Cu  Cu85  1  0.72057000  0.03901200  0.62814700  1
  Cu  Cu86  1  0.40005200  0.39123900  0.37787800  1
  Cu  Cu87  1  0.96590300  0.67380500  0.38352200  1
  Cu  Cu88  1  0.03901200  0.72057000  0.03852000  1
  Cu  Cu89  1  0.67731400  0.22749000  0.33009800  1
