# generated using pymatgen
data_Cu(Ni7C5)2
_symmetry_space_group_name_H-M   'P 1'
_cell_length_a   14.67889284
_cell_length_b   14.67889284
_cell_length_c   14.67889284
_cell_angle_alpha   117.88156456
_cell_angle_beta   117.88156456
_cell_angle_gamma   93.71015288
_symmetry_Int_Tables_number   1
_chemical_formula_structural   Cu(Ni7C5)2
_chemical_formula_sum   'Cu4 Ni56 C40'
_cell_volume   2302.86897983
_cell_formula_units_Z   4
loop_
 _symmetry_equiv_pos_site_id
 _symmetry_equiv_pos_as_xyz
  1  'x, y, z'
loop_
 _atom_site_type_symbol
 _atom_site_label
 _atom_site_symmetry_multiplicity
 _atom_site_fract_x
 _atom_site_fract_y
 _atom_site_fract_z
 _atom_site_occupancy
  C  C0  1  0.13487800  0.36512200  0.50000000  1
  C  C1  1  0.20046200  0.55091000  0.09485700  1
  C  C2  1  0.39439500  0.04394700  0.09485700  1
  C  C3  1  0.11512200  0.11512200  0.73024500  1
  C  C4  1  0.95605300  0.05091000  0.35044800  1
  C  C5  1  0.30042200  0.42627100  0.86144000  1
  C  C6  1  0.57372900  0.43516900  0.87415100  1
  C  C7  1  0.54953800  0.69909000  0.40514300  1
  C  C8  1  0.30091000  0.70605300  0.85044800  1
  C  C9  1  0.18516900  0.81101800  0.36144000  1
  C  C10  1  0.94957800  0.31101800  0.62584900  1
  C  C11  1  0.80091000  0.95046200  0.59485700  1
  C  C12  1  0.07372900  0.19957800  0.13856000  1
  C  C13  1  0.29394700  0.14439500  0.59485700  1
  C  C14  1  0.38487800  0.38487800  0.26975500  1
  C  C15  1  0.88487800  0.61512200  0.00000000  1
  C  C16  1  0.80042200  0.93898200  0.87415100  1
  C  C17  1  0.61512200  0.88487800  0.00000000  1
  C  C18  1  0.89439500  0.79953800  0.35044800  1
  C  C19  1  0.68898200  0.31483100  0.63856000  1
  C  C20  1  0.18898200  0.55042200  0.37415100  1
  C  C21  1  0.70046200  0.60560500  0.64955200  1
  C  C22  1  0.06101800  0.93516900  0.86144000  1
  C  C23  1  0.17627100  0.81483100  0.62584900  1
  C  C24  1  0.06483100  0.92627100  0.12584900  1
  C  C25  1  0.45605300  0.10560500  0.90514300  1
  C  C26  1  0.85560500  0.45046200  0.14955200  1
  C  C27  1  0.35560500  0.20605300  0.40514300  1
  C  C28  1  0.44957800  0.82372900  0.63856000  1
  C  C29  1  0.04953800  0.64439500  0.85044800  1
  C  C30  1  0.94909000  0.29953800  0.90514300  1
  C  C31  1  0.56483100  0.43898200  0.13856000  1
  C  C32  1  0.67627100  0.05042200  0.36144000  1
  C  C33  1  0.36512200  0.86512200  0.23024500  1
  C  C34  1  0.86512200  0.63487800  0.50000000  1
  C  C35  1  0.56101800  0.69957800  0.12584900  1
  C  C36  1  0.63487800  0.13487800  0.76975500  1
  C  C37  1  0.68516900  0.32372900  0.37415100  1
  C  C38  1  0.44909000  0.54394700  0.64955200  1
  C  C39  1  0.79394700  0.19909000  0.14955200  1
  Ni  Ni40  1  0.50829200  0.22590000  0.64115800  1
  Ni  Ni41  1  0.34688600  0.23876100  0.84265600  1
  Ni  Ni42  1  0.99576900  0.10389500  0.84265600  1
  Ni  Ni43  1  0.62517800  0.10449100  0.16623200  1
  Ni  Ni44  1  0.12500000  0.72715100  0.10215100  1
  Ni  Ni45  1  0.89550900  0.06174100  0.52068700  1
  Ni  Ni46  1  0.84688600  0.00423100  0.10812600  1
  Ni  Ni47  1  0.48876100  0.09688600  0.34265600  1
  Ni  Ni48  1  0.12482200  0.14550900  0.33376800  1
  Ni  Ni49  1  0.35449100  0.37517800  0.66623200  1
  Ni  Ni50  1  0.75423100  0.14610500  0.65734400  1
  Ni  Ni51  1  0.54105300  0.37482200  0.47931300  1
  Ni  Ni52  1  0.74170800  0.88286600  0.21760800  1
  Ni  Ni53  1  0.63286600  0.91525800  0.64115800  1
  Ni  Ni54  1  0.35389500  0.74576900  0.34265600  1
  Ni  Ni55  1  0.24170800  0.02410000  0.85884200  1
  Ni  Ni56  1  0.08474200  0.72590000  0.71760800  1
  Ni  Ni57  1  0.98876100  0.64610500  0.39187400  1
  Ni  Ni58  1  0.39550900  0.87482200  0.83376800  1
  Ni  Ni59  1  0.66525800  0.52410000  0.78239200  1
  Ni  Ni60  1  0.39610500  0.50423100  0.15734400  1
  Ni  Ni61  1  0.47715100  0.87500000  0.10215100  1
  Ni  Ni62  1  0.13286600  0.49170800  0.71760800  1
  Ni  Ni63  1  0.61713400  0.75829200  0.78239200  1
  Ni  Ni64  1  0.58474200  0.86713400  0.35884200  1
  Ni  Ni65  1  0.89610500  0.73876100  0.89187400  1
  Ni  Ni66  1  0.81174100  0.79105300  0.66623200  1
  Ni  Ni67  1  0.04105300  0.56174100  0.16623200  1
  Ni  Ni68  1  0.97590000  0.83474200  0.21760800  1
  Ni  Ni69  1  0.77284900  0.37500000  0.89784900  1
  Ni  Ni70  1  0.40311400  0.01123900  0.65734400  1
  Ni  Ni71  1  0.47590000  0.25829200  0.14115800  1
  Ni  Ni72  1  0.11713400  0.33474200  0.85884200  1
  Ni  Ni73  1  0.12500000  0.22715100  0.60215100  1
  Ni  Ni74  1  0.12517800  0.95894700  0.52068700  1
  Ni  Ni75  1  0.20894700  0.87517800  0.02068700  1
  Ni  Ni76  1  0.31174100  0.64550900  0.02068700  1
  Ni  Ni77  1  0.25423100  0.59688600  0.60812600  1
  Ni  Ni78  1  0.90311400  0.24576900  0.39187400  1
  Ni  Ni79  1  0.93825900  0.45894700  0.83376800  1
  Ni  Ni80  1  0.62500000  0.02284900  0.89784900  1
  Ni  Ni81  1  0.76123900  0.60389500  0.10812600  1
  Ni  Ni82  1  0.85449100  0.18825900  0.97931300  1
  Ni  Ni83  1  0.00829200  0.36713400  0.28239200  1
  Ni  Ni84  1  0.16525800  0.38286600  0.14115800  1
  Ni  Ni85  1  0.77410000  0.41525800  0.28239200  1
  Ni  Ni86  1  0.27284900  0.37500000  0.39784900  1
  Ni  Ni87  1  0.62500000  0.52284900  0.39784900  1
  Ni  Ni88  1  0.62482200  0.29105300  0.97931300  1
  Ni  Ni89  1  0.26123900  0.15311400  0.15734400  1
  Ni  Ni90  1  0.97715100  0.87500000  0.60215100  1
  Ni  Ni91  1  0.49576900  0.65311400  0.89187400  1
  Ni  Ni92  1  0.27410000  0.99170800  0.35884200  1
  Ni  Ni93  1  0.85389500  0.51123900  0.60812600  1
  Ni  Ni94  1  0.43825900  0.60449100  0.47931300  1
  Ni  Ni95  1  0.70894700  0.68825900  0.33376800  1
  Cu  Cu96  1  0.75000000  0.25000000  0.50000000  1
  Cu  Cu97  1  0.50000000  0.50000000  0.00000000  1
  Cu  Cu98  1  0.00000000  0.00000000  0.00000000  1
  Cu  Cu99  1  0.25000000  0.75000000  0.50000000  1
