# generated using pymatgen
data_Cu3Ni2C15
_symmetry_space_group_name_H-M   'P 1'
_cell_length_a   9.18246952
_cell_length_b   9.18246952
_cell_length_c   6.72207491
_cell_angle_alpha   73.29227987
_cell_angle_beta   73.29227987
_cell_angle_gamma   91.08764127
_symmetry_Int_Tables_number   1
_chemical_formula_structural   Cu3Ni2C15
_chemical_formula_sum   'Cu6 Ni4 C30'
_cell_volume   516.74406021
_cell_formula_units_Z   2
loop_
 _symmetry_equiv_pos_site_id
 _symmetry_equiv_pos_as_xyz
  1  'x, y, z'
loop_
 _atom_site_type_symbol
 _atom_site_label
 _atom_site_symmetry_multiplicity
 _atom_site_fract_x
 _atom_site_fract_y
 _atom_site_fract_z
 _atom_site_occupancy
  Ni  Ni0  1  0.38561200  0.07259900  0.84632100  1
  Ni  Ni1  1  0.07259900  0.38561200  0.34632100  1
  Ni  Ni2  1  0.92740100  0.61438800  0.65367900  1
  Ni  Ni3  1  0.61438800  0.92740100  0.15367900  1
  Cu  Cu4  1  0.00090100  0.99909900  0.75000000  1
  Cu  Cu5  1  0.27691000  0.72309000  0.75000000  1
  Cu  Cu6  1  0.99909900  0.00090100  0.25000000  1
  Cu  Cu7  1  0.72309000  0.27691000  0.25000000  1
  Cu  Cu8  1  0.50000000  0.50000000  0.50000000  1
  Cu  Cu9  1  0.50000000  0.50000000  0.00000000  1
  C  C10  1  0.73171200  0.26828800  0.75000000  1
  C  C11  1  0.65623900  0.85868700  0.63898600  1
  C  C12  1  0.14131300  0.34376100  0.86101400  1
  C  C13  1  0.85868700  0.65623900  0.13898600  1
  C  C14  1  0.34376100  0.14131300  0.36101400  1
  C  C15  1  0.26828800  0.73171200  0.25000000  1
  C  C16  1  0.01868400  0.33911500  0.07908200  1
  C  C17  1  0.42894700  0.74922600  0.28095700  1
  C  C18  1  0.25077400  0.57105300  0.21904300  1
  C  C19  1  0.82668200  0.82968000  0.62880400  1
  C  C20  1  0.93021800  0.58903800  0.32867600  1
  C  C21  1  0.58903800  0.93021800  0.82867600  1
  C  C22  1  0.25162900  0.85491600  0.04482400  1
  C  C23  1  0.57105300  0.25077400  0.71904300  1
  C  C24  1  0.85491600  0.25162900  0.54482400  1
  C  C25  1  0.41096200  0.06978200  0.17132400  1
  C  C26  1  0.98131600  0.66088500  0.92091800  1
  C  C27  1  0.82968000  0.82668200  0.12880400  1
  C  C28  1  0.74837100  0.14508400  0.95517600  1
  C  C29  1  0.71026000  0.56070400  0.17423800  1
  C  C30  1  0.74922600  0.42894700  0.78095700  1
  C  C31  1  0.33911500  0.01868400  0.57908200  1
  C  C32  1  0.66088500  0.98131600  0.42091800  1
  C  C33  1  0.28974000  0.43929600  0.82576200  1
  C  C34  1  0.06978200  0.41096200  0.67132400  1
  C  C35  1  0.14508400  0.74837100  0.45517600  1
  C  C36  1  0.17331800  0.17032000  0.37119600  1
  C  C37  1  0.43929600  0.28974000  0.32576200  1
  C  C38  1  0.17032000  0.17331800  0.87119600  1
  C  C39  1  0.56070400  0.71026000  0.67423800  1
