# generated using pymatgen
data_Cu(NiC5)2
_symmetry_space_group_name_H-M   'P 1'
_cell_length_a   9.06034200
_cell_length_b   9.08299300
_cell_length_c   10.14771800
_cell_angle_alpha   90.00000000
_cell_angle_beta   90.00000000
_cell_angle_gamma   90.00000000
_symmetry_Int_Tables_number   1
_chemical_formula_structural   Cu(NiC5)2
_chemical_formula_sum   'Cu4 Ni8 C40'
_cell_volume   835.10668584
_cell_formula_units_Z   4
loop_
 _symmetry_equiv_pos_site_id
 _symmetry_equiv_pos_as_xyz
  1  'x, y, z'
loop_
 _atom_site_type_symbol
 _atom_site_label
 _atom_site_symmetry_multiplicity
 _atom_site_fract_x
 _atom_site_fract_y
 _atom_site_fract_z
 _atom_site_occupancy
  Ni  Ni0  1  0.04336400  0.14181800  0.04510600  1
  Ni  Ni1  1  0.55408800  0.83460600  0.08368800  1
  Ni  Ni2  1  0.44591200  0.33460600  0.41631200  1
  Ni  Ni3  1  0.54336400  0.35818200  0.95489400  1
  Ni  Ni4  1  0.94591200  0.16539400  0.58368800  1
  Ni  Ni5  1  0.05408800  0.66539400  0.91631200  1
  Ni  Ni6  1  0.95663600  0.64181800  0.45489400  1
  Ni  Ni7  1  0.45663600  0.85818200  0.54510600  1
  Cu  Cu8  1  0.83150400  0.95141000  0.29247500  1
  Cu  Cu9  1  0.33150400  0.54859000  0.70752500  1
  Cu  Cu10  1  0.16849600  0.45141000  0.20752500  1
  Cu  Cu11  1  0.66849600  0.04859000  0.79247500  1
  C  C12  1  0.55042800  0.15959700  0.82614900  1
  C  C13  1  0.36252300  0.48845700  0.84190400  1
  C  C14  1  0.13747700  0.51154300  0.34190400  1
  C  C15  1  0.44957200  0.65959700  0.67385100  1
  C  C16  1  0.68399900  0.87856300  0.28695700  1
  C  C17  1  0.82912900  0.07019800  0.39194200  1
  C  C18  1  0.67087100  0.92980200  0.89194200  1
  C  C19  1  0.81600100  0.12143700  0.78695700  1
  C  C20  1  0.17087100  0.57019800  0.10805800  1
  C  C21  1  0.05042800  0.34040300  0.17385100  1
  C  C22  1  0.63747700  0.98845700  0.65809600  1
  C  C23  1  0.94957200  0.84040300  0.32614900  1
  C  C24  1  0.86252300  0.01154300  0.15809600  1
  C  C25  1  0.18399900  0.62143700  0.71304300  1
  C  C26  1  0.31600100  0.37856300  0.21304300  1
  C  C27  1  0.32912900  0.42980200  0.60805800  1
  C  C28  1  0.50059600  0.53346000  0.39252700  1
  C  C29  1  0.34076600  0.93902800  0.68035300  1
  C  C30  1  0.89202300  0.68789500  0.03494200  1
  C  C31  1  0.00059600  0.96654000  0.60747300  1
  C  C32  1  0.10797700  0.18789500  0.46505800  1
  C  C33  1  0.49940400  0.03346000  0.10747300  1
  C  C34  1  0.57444800  0.54606000  0.04828600  1
  C  C35  1  0.92555200  0.45394000  0.54828500  1
  C  C36  1  0.99940400  0.46654000  0.89252700  1
  C  C37  1  0.39202300  0.81210500  0.96505800  1
  C  C38  1  0.72434800  0.29212000  0.03250400  1
  C  C39  1  0.91817100  0.71977900  0.78260400  1
  C  C40  1  0.84076600  0.56097200  0.31964700  1
  C  C41  1  0.42555200  0.04606000  0.45171500  1
  C  C42  1  0.60797700  0.31210500  0.53494200  1
  C  C43  1  0.58182900  0.28022100  0.28260400  1
  C  C44  1  0.41817100  0.78022100  0.21739600  1
  C  C45  1  0.08182900  0.21977900  0.71739600  1
  C  C46  1  0.22434800  0.20788000  0.96749600  1
  C  C47  1  0.27565200  0.79212000  0.46749600  1
  C  C48  1  0.65923400  0.43902800  0.81964700  1
  C  C49  1  0.15923400  0.06097200  0.18035300  1
  C  C50  1  0.07444800  0.95394000  0.95171500  1
  C  C51  1  0.77565200  0.70788000  0.53250400  1
