# generated using pymatgen
data_Cu6NiC3
_symmetry_space_group_name_H-M   'P 1'
_cell_length_a   10.57950400
_cell_length_b   11.36032900
_cell_length_c   16.51251000
_cell_angle_alpha   90.00000000
_cell_angle_beta   90.00000000
_cell_angle_gamma   90.00000000
_symmetry_Int_Tables_number   1
_chemical_formula_structural   Cu6NiC3
_chemical_formula_sum   'Cu48 Ni8 C24'
_cell_volume   1984.58319554
_cell_formula_units_Z   8
loop_
 _symmetry_equiv_pos_site_id
 _symmetry_equiv_pos_as_xyz
  1  'x, y, z'
loop_
 _atom_site_type_symbol
 _atom_site_label
 _atom_site_symmetry_multiplicity
 _atom_site_fract_x
 _atom_site_fract_y
 _atom_site_fract_z
 _atom_site_occupancy
  C  C0  1  0.98775400  0.71264200  0.54814700  1
  C  C1  1  0.65564800  0.46243100  0.67691100  1
  C  C2  1  0.48775400  0.71264200  0.95185300  1
  C  C3  1  0.84435200  0.96243100  0.67691100  1
  C  C4  1  0.51224600  0.21264200  0.54814700  1
  C  C5  1  0.64024300  0.02069800  0.93880100  1
  C  C6  1  0.51224600  0.28735800  0.04814700  1
  C  C7  1  0.34435200  0.96243100  0.82308900  1
  C  C8  1  0.85975700  0.52069800  0.93880100  1
  C  C9  1  0.35975700  0.97930200  0.06119900  1
  C  C10  1  0.34435200  0.53756900  0.32308900  1
  C  C11  1  0.64024300  0.47930200  0.43880100  1
  C  C12  1  0.01224600  0.21264200  0.95185300  1
  C  C13  1  0.85975700  0.97930200  0.43880100  1
  C  C14  1  0.14024300  0.47930200  0.06119900  1
  C  C15  1  0.01224600  0.28735800  0.45185300  1
  C  C16  1  0.48775400  0.78735800  0.45185300  1
  C  C17  1  0.65564800  0.03756900  0.17691100  1
  C  C18  1  0.15564800  0.03756900  0.32308900  1
  C  C19  1  0.98775400  0.78735800  0.04814700  1
  C  C20  1  0.84435200  0.53756900  0.17691100  1
  C  C21  1  0.35975700  0.52069800  0.56119900  1
  C  C22  1  0.15564800  0.46243100  0.82308900  1
  C  C23  1  0.14024300  0.02069800  0.56119900  1
  Ni  Ni24  1  0.95149500  0.59257600  0.06048700  1
  Ni  Ni25  1  0.45149500  0.59257600  0.43951300  1
  Ni  Ni26  1  0.04850500  0.40742400  0.93951300  1
  Ni  Ni27  1  0.04850500  0.09257600  0.43951300  1
  Ni  Ni28  1  0.54850500  0.40742400  0.56048700  1
  Ni  Ni29  1  0.95149500  0.90742400  0.56048700  1
  Ni  Ni30  1  0.54850500  0.09257600  0.06048700  1
  Ni  Ni31  1  0.45149500  0.90742400  0.93951300  1
  Cu  Cu32  1  0.47137800  0.31608200  0.37490300  1
  Cu  Cu33  1  0.63118100  0.93372100  0.33985000  1
  Cu  Cu34  1  0.25152300  0.78555800  0.54425100  1
  Cu  Cu35  1  0.89600300  0.42342000  0.77230500  1
  Cu  Cu36  1  0.02862200  0.68391800  0.87490300  1
  Cu  Cu37  1  0.83403500  0.78359700  0.18558100  1
  Cu  Cu38  1  0.47137800  0.18391800  0.87490300  1
  Cu  Cu39  1  0.33403500  0.71640300  0.81441900  1
  Cu  Cu40  1  0.52862200  0.68391800  0.62509700  1
  Cu  Cu41  1  0.52862200  0.81608200  0.12509700  1
  Cu  Cu42  1  0.97137800  0.18391800  0.62509700  1
  Cu  Cu43  1  0.35602000  0.47081700  0.94573800  1
  Cu  Cu44  1  0.39600300  0.42342000  0.72769500  1
  Cu  Cu45  1  0.36881900  0.43372100  0.16015000  1
  Cu  Cu46  1  0.13118100  0.56627900  0.66015000  1
  Cu  Cu47  1  0.36881900  0.06627900  0.66015000  1
  Cu  Cu48  1  0.97137800  0.31608200  0.12509700  1
  Cu  Cu49  1  0.25152300  0.71444200  0.04425100  1
  Cu  Cu50  1  0.64398000  0.52918300  0.05426200  1
  Cu  Cu51  1  0.16596500  0.21640300  0.81441900  1
  Cu  Cu52  1  0.60399700  0.57658000  0.27230500  1
  Cu  Cu53  1  0.89600300  0.07658000  0.27230500  1
  Cu  Cu54  1  0.10399700  0.57658000  0.22769500  1
  Cu  Cu55  1  0.16596500  0.28359700  0.31441900  1
  Cu  Cu56  1  0.74847700  0.21444200  0.45574900  1
  Cu  Cu57  1  0.74847700  0.28555800  0.95574900  1
  Cu  Cu58  1  0.86881900  0.43372100  0.33985000  1
  Cu  Cu59  1  0.83403500  0.71640300  0.68558100  1
  Cu  Cu60  1  0.35602000  0.02918300  0.44573800  1
  Cu  Cu61  1  0.02862200  0.81608200  0.37490300  1
  Cu  Cu62  1  0.75152300  0.71444200  0.45574900  1
  Cu  Cu63  1  0.60399700  0.92342000  0.77230500  1
  Cu  Cu64  1  0.64398000  0.97081700  0.55426200  1
  Cu  Cu65  1  0.85602000  0.02918300  0.05426200  1
  Cu  Cu66  1  0.66596500  0.28359700  0.18558100  1
  Cu  Cu67  1  0.63118100  0.56627900  0.83985000  1
  Cu  Cu68  1  0.13118100  0.93372100  0.16015000  1
  Cu  Cu69  1  0.86881900  0.06627900  0.83985000  1
  Cu  Cu70  1  0.75152300  0.78555800  0.95574900  1
  Cu  Cu71  1  0.24847700  0.28555800  0.54425100  1
  Cu  Cu72  1  0.14398000  0.52918300  0.44573800  1
  Cu  Cu73  1  0.14398000  0.97081700  0.94573800  1
  Cu  Cu74  1  0.33403500  0.78359700  0.31441900  1
  Cu  Cu75  1  0.10399700  0.92342000  0.72769500  1
  Cu  Cu76  1  0.66596500  0.21640300  0.68558100  1
  Cu  Cu77  1  0.39600300  0.07658000  0.22769500  1
  Cu  Cu78  1  0.85602000  0.47081700  0.55426200  1
  Cu  Cu79  1  0.24847700  0.21444200  0.04425100  1
