# generated using pymatgen
data_Cu(NiC6)4
_symmetry_space_group_name_H-M   'P 1'
_cell_length_a   11.14832331
_cell_length_b   11.14832331
_cell_length_c   8.91287300
_cell_angle_alpha   90.00000000
_cell_angle_beta   90.00000000
_cell_angle_gamma   119.99999592
_symmetry_Int_Tables_number   1
_chemical_formula_structural   Cu(NiC6)4
_chemical_formula_sum   'Cu2 Ni8 C48'
_cell_volume   959.32879033
_cell_formula_units_Z   2
loop_
 _symmetry_equiv_pos_site_id
 _symmetry_equiv_pos_as_xyz
  1  'x, y, z'
loop_
 _atom_site_type_symbol
 _atom_site_label
 _atom_site_symmetry_multiplicity
 _atom_site_fract_x
 _atom_site_fract_y
 _atom_site_fract_z
 _atom_site_occupancy
  C  C0  1  0.90850900  0.09149100  0.85961600  1
  C  C1  1  0.09149100  0.18298200  0.14038400  1
  C  C2  1  0.18298200  0.09149100  0.85961600  1
  C  C3  1  0.90850900  0.81701800  0.85961600  1
  C  C4  1  0.81701800  0.90850900  0.14038400  1
  C  C5  1  0.09149100  0.90850900  0.14038400  1
  C  C6  1  0.59396300  0.18792600  0.47137800  1
  C  C7  1  0.40603700  0.81207400  0.52862200  1
  C  C8  1  0.44054600  0.72027300  0.91681400  1
  C  C9  1  0.72027300  0.27972700  0.08318600  1
  C  C10  1  0.27972700  0.72027300  0.91681400  1
  C  C11  1  0.51360900  0.64741600  0.69299300  1
  C  C12  1  0.18792600  0.59396300  0.52862200  1
  C  C13  1  0.27972700  0.55945400  0.91681400  1
  C  C14  1  0.86619400  0.35258400  0.30700700  1
  C  C15  1  0.48639100  0.35258400  0.30700700  1
  C  C16  1  0.48639100  0.13380600  0.30700700  1
  C  C17  1  0.64741600  0.51360900  0.30700700  1
  C  C18  1  0.72027300  0.44054600  0.08318600  1
  C  C19  1  0.59396300  0.40603700  0.47137800  1
  C  C20  1  0.13380600  0.64741600  0.69299300  1
  C  C21  1  0.86619400  0.51360900  0.30700700  1
  C  C22  1  0.35258400  0.48639100  0.69299300  1
  C  C23  1  0.51360900  0.86619400  0.69299300  1
  C  C24  1  0.55945400  0.27972700  0.08318600  1
  C  C25  1  0.81207400  0.40603700  0.47137800  1
  C  C26  1  0.64741600  0.13380600  0.30700700  1
  C  C27  1  0.40603700  0.59396300  0.52862200  1
  C  C28  1  0.35258400  0.86619400  0.69299300  1
  C  C29  1  0.13380600  0.48639100  0.69299300  1
  Ni  Ni30  1  0.81362900  0.40681500  0.34849300  1
  Ni  Ni31  1  0.66666700  0.33333300  0.12332500  1
  Ni  Ni32  1  0.59318500  0.40681500  0.34849300  1
  Ni  Ni33  1  0.59318500  0.18637100  0.34849300  1
  Ni  Ni34  1  0.40681500  0.59318500  0.65150700  1
  Ni  Ni35  1  0.33333300  0.66666700  0.87667500  1
  Ni  Ni36  1  0.18637100  0.59318500  0.65150700  1
  Ni  Ni37  1  0.40681500  0.81362900  0.65150700  1
  Cu  Cu38  1  0.66666700  0.33333300  0.29193100  1
  Cu  Cu39  1  0.33333300  0.66666700  0.70806900  1
  C  C40  1  0.20535100  0.10267600  0.31642800  1
  C  C41  1  0.00000000  0.68949400  0.00000000  1
  C  C42  1  0.10267600  0.89732400  0.68357200  1
  C  C43  1  0.80211400  0.19788600  0.70007400  1
  C  C44  1  0.89732400  0.10267600  0.31642800  1
  C  C45  1  0.19788600  0.80211400  0.29992600  1
  C  C46  1  0.31050600  0.00000000  0.00000000  1
  C  C47  1  0.31050600  0.31050600  0.00000000  1
  C  C48  1  0.39577200  0.19788600  0.70007400  1
  C  C49  1  0.19788600  0.39577200  0.29992600  1
  C  C50  1  0.80211400  0.60422800  0.70007400  1
  C  C51  1  0.68949400  0.00000000  0.00000000  1
  C  C52  1  0.60422800  0.80211400  0.29992600  1
  C  C53  1  0.00000000  0.31050600  0.00000000  1
  C  C54  1  0.79464900  0.89732400  0.68357200  1
  C  C55  1  0.89732400  0.79464900  0.31642800  1
  C  C56  1  0.10267600  0.20535100  0.68357200  1
  C  C57  1  0.68949400  0.68949400  0.00000000  1
