# generated using pymatgen
data_Cu17(NiC2)6
_symmetry_space_group_name_H-M   'P 1'
_cell_length_a   11.93452325
_cell_length_b   11.93452325
_cell_length_c   19.35605311
_cell_angle_alpha   89.25034217
_cell_angle_beta   89.25034217
_cell_angle_gamma   63.97618236
_symmetry_Int_Tables_number   1
_chemical_formula_structural   Cu17(NiC2)6
_chemical_formula_sum   'Cu34 Ni12 C24'
_cell_volume   2477.12181606
_cell_formula_units_Z   2
loop_
 _symmetry_equiv_pos_site_id
 _symmetry_equiv_pos_as_xyz
  1  'x, y, z'
loop_
 _atom_site_type_symbol
 _atom_site_label
 _atom_site_symmetry_multiplicity
 _atom_site_fract_x
 _atom_site_fract_y
 _atom_site_fract_z
 _atom_site_occupancy
  C  C0  1  0.01968200  0.07677700  0.15227200  1
  C  C1  1  0.19210800  0.66195000  0.71134700  1
  C  C2  1  0.70964800  0.29704700  0.02098800  1
  C  C3  1  0.80789200  0.33805000  0.28865300  1
  C  C4  1  0.89784300  0.42325600  0.11698300  1
  C  C5  1  0.57674400  0.10215700  0.38301700  1
  C  C6  1  0.35825400  0.35946900  0.05017300  1
  C  C7  1  0.64174600  0.64053100  0.94982700  1
  C  C8  1  0.42325600  0.89784300  0.61698300  1
  C  C9  1  0.54823300  0.53383300  0.62759600  1
  C  C10  1  0.53383300  0.54823300  0.12759600  1
  C  C11  1  0.07677700  0.01968200  0.65227200  1
  C  C12  1  0.35946900  0.35825400  0.55017300  1
  C  C13  1  0.33805000  0.80789200  0.78865300  1
  C  C14  1  0.10215700  0.57674400  0.88301700  1
  C  C15  1  0.70295300  0.29035200  0.47901200  1
  C  C16  1  0.29704700  0.70964800  0.52098800  1
  C  C17  1  0.98031800  0.92322300  0.84772800  1
  C  C18  1  0.64053100  0.64174600  0.44982700  1
  C  C19  1  0.45176700  0.46616700  0.37240400  1
  C  C20  1  0.92322300  0.98031800  0.34772800  1
  C  C21  1  0.66195000  0.19210800  0.21134700  1
  C  C22  1  0.29035200  0.70295300  0.97901200  1
  C  C23  1  0.46616700  0.45176700  0.87240400  1
  Ni  Ni24  1  0.46801100  0.46671100  0.51168100  1
  Ni  Ni25  1  0.53328900  0.53198900  0.98831900  1
  Ni  Ni26  1  0.25615200  0.83124600  0.65295900  1
  Ni  Ni27  1  0.53198900  0.53328900  0.48831900  1
  Ni  Ni28  1  0.36616700  0.71980700  0.64982600  1
  Ni  Ni29  1  0.28019300  0.63383300  0.85017400  1
  Ni  Ni30  1  0.16875400  0.74384800  0.84704100  1
  Ni  Ni31  1  0.46671100  0.46801100  0.01168100  1
  Ni  Ni32  1  0.74384800  0.16875400  0.34704100  1
  Ni  Ni33  1  0.83124600  0.25615200  0.15295900  1
  Ni  Ni34  1  0.63383300  0.28019300  0.35017400  1
  Ni  Ni35  1  0.71980700  0.36616700  0.14982600  1
  Cu  Cu36  1  0.09541900  0.60252800  0.04872000  1
  Cu  Cu37  1  0.78738500  0.82012100  0.39892400  1
  Cu  Cu38  1  0.60246200  0.10516600  0.06011500  1
  Cu  Cu39  1  0.00000000  0.00000000  0.00000000  1
  Cu  Cu40  1  0.90458100  0.39747200  0.95128000  1
  Cu  Cu41  1  0.80666600  0.28353200  0.63750300  1
  Cu  Cu42  1  0.03388400  0.50182700  0.74625700  1
  Cu  Cu43  1  0.88796500  0.90655800  0.19690700  1
  Cu  Cu44  1  0.39747200  0.90458100  0.45128000  1
  Cu  Cu45  1  0.19333400  0.71646800  0.36249700  1
  Cu  Cu46  1  0.57617300  0.62585900  0.29201700  1
  Cu  Cu47  1  0.96611600  0.49817300  0.25374300  1
  Cu  Cu48  1  0.60252800  0.09541900  0.54872000  1
  Cu  Cu49  1  0.10516600  0.60246200  0.56011500  1
  Cu  Cu50  1  0.62585900  0.57617300  0.79201700  1
  Cu  Cu51  1  0.09344200  0.11203500  0.30309300  1
  Cu  Cu52  1  0.89483400  0.39753800  0.43988500  1
  Cu  Cu53  1  0.50182700  0.03388400  0.24625700  1
  Cu  Cu54  1  0.82012100  0.78738500  0.89892400  1
  Cu  Cu55  1  0.39753800  0.89483400  0.93988500  1
  Cu  Cu56  1  0.28353200  0.80666600  0.13750300  1
  Cu  Cu57  1  0.31010400  0.29168000  0.89978800  1
  Cu  Cu58  1  0.49817300  0.96611600  0.75374300  1
  Cu  Cu59  1  0.21261500  0.17987900  0.60107600  1
  Cu  Cu60  1  0.68989600  0.70832000  0.10021200  1
  Cu  Cu61  1  0.42382700  0.37414100  0.70798300  1
  Cu  Cu62  1  0.17987900  0.21261500  0.10107600  1
  Cu  Cu63  1  0.29168000  0.31010400  0.39978800  1
  Cu  Cu64  1  0.71646800  0.19333400  0.86249700  1
  Cu  Cu65  1  0.70832000  0.68989600  0.60021200  1
  Cu  Cu66  1  0.11203500  0.09344200  0.80309300  1
  Cu  Cu67  1  0.90655800  0.88796500  0.69690700  1
  Cu  Cu68  1  0.37414100  0.42382700  0.20798300  1
  Cu  Cu69  1  0.00000000  0.00000000  0.50000000  1
