# generated using pymatgen
data_CuNi3
_symmetry_space_group_name_H-M   'P 1'
_cell_length_a   4.35710200
_cell_length_b   4.86130500
_cell_length_c   5.45212500
_cell_angle_alpha   90.00000000
_cell_angle_beta   90.00000000
_cell_angle_gamma   90.00000000
_symmetry_Int_Tables_number   1
_chemical_formula_structural   CuNi3
_chemical_formula_sum   'Cu2 Ni6'
_cell_volume   115.48255953
_cell_formula_units_Z   2
loop_
 _symmetry_equiv_pos_site_id
 _symmetry_equiv_pos_as_xyz
  1  'x, y, z'
loop_
 _atom_site_type_symbol
 _atom_site_label
 _atom_site_symmetry_multiplicity
 _atom_site_fract_x
 _atom_site_fract_y
 _atom_site_fract_z
 _atom_site_occupancy
  Ni  Ni0  1  0.50000000  0.30553900  0.00000000  1
  Ni  Ni1  1  0.00000000  0.15456400  0.75158100  1
  Ni  Ni2  1  0.50000000  0.84543600  0.74841900  1
  Ni  Ni3  1  0.00000000  0.15456400  0.24841900  1
  Ni  Ni4  1  0.50000000  0.84543600  0.25158100  1
  Ni  Ni5  1  0.00000000  0.69446100  0.50000000  1
  Cu  Cu6  1  0.50000000  0.34233700  0.50000000  1
  Cu  Cu7  1  0.00000000  0.65766300  0.00000000  1
