# generated using pymatgen
data_Cu(NiC4)2
_symmetry_space_group_name_H-M   'P 1'
_cell_length_a   7.05709600
_cell_length_b   11.41040000
_cell_length_c   17.26006800
_cell_angle_alpha   90.00000000
_cell_angle_beta   90.00000000
_cell_angle_gamma   90.00000000
_symmetry_Int_Tables_number   1
_chemical_formula_structural   Cu(NiC4)2
_chemical_formula_sum   'Cu8 Ni16 C64'
_cell_volume   1389.85468996
_cell_formula_units_Z   8
loop_
 _symmetry_equiv_pos_site_id
 _symmetry_equiv_pos_as_xyz
  1  'x, y, z'
loop_
 _atom_site_type_symbol
 _atom_site_label
 _atom_site_symmetry_multiplicity
 _atom_site_fract_x
 _atom_site_fract_y
 _atom_site_fract_z
 _atom_site_occupancy
  Ni  Ni0  1  0.88425000  0.90567200  0.24242300  1
  Ni  Ni1  1  0.35214200  0.11940800  0.95556000  1
  Ni  Ni2  1  0.61575000  0.09432800  0.74242300  1
  Ni  Ni3  1  0.85214200  0.11940800  0.54444000  1
  Ni  Ni4  1  0.38425000  0.59432800  0.75757700  1
  Ni  Ni5  1  0.85214200  0.38059200  0.04444000  1
  Ni  Ni6  1  0.88425000  0.59432800  0.74242300  1
  Ni  Ni7  1  0.14785800  0.61940800  0.95556000  1
  Ni  Ni8  1  0.11575000  0.40567200  0.25757700  1
  Ni  Ni9  1  0.38425000  0.90567200  0.25757700  1
  Ni  Ni10  1  0.11575000  0.09432800  0.75757700  1
  Ni  Ni11  1  0.61575000  0.40567200  0.24242300  1
  Ni  Ni12  1  0.14785800  0.88059200  0.45556000  1
  Ni  Ni13  1  0.35214200  0.38059200  0.45556000  1
  Ni  Ni14  1  0.64785800  0.61940800  0.54444000  1
  Ni  Ni15  1  0.64785800  0.88059200  0.04444000  1
  Cu  Cu16  1  0.12464400  0.16134500  0.14924400  1
  Cu  Cu17  1  0.87535600  0.83865500  0.85075600  1
  Cu  Cu18  1  0.87535600  0.66134500  0.35075600  1
  Cu  Cu19  1  0.12464400  0.33865500  0.64924400  1
  Cu  Cu20  1  0.62464400  0.16134500  0.35075600  1
  Cu  Cu21  1  0.62464400  0.33865500  0.85075600  1
  Cu  Cu22  1  0.37535600  0.66134500  0.14924400  1
  Cu  Cu23  1  0.37535600  0.83865500  0.64924400  1
  C  C24  1  0.16332300  0.36778300  0.85499300  1
  C  C25  1  0.83470900  0.38182900  0.43139700  1
  C  C26  1  0.66332300  0.36778300  0.64500700  1
  C  C27  1  0.66332300  0.13221700  0.14500700  1
  C  C28  1  0.16529100  0.61817100  0.56860300  1
  C  C29  1  0.33667700  0.63221700  0.35499300  1
  C  C30  1  0.33667700  0.86778300  0.85499300  1
  C  C31  1  0.33470900  0.38182900  0.06860300  1
  C  C32  1  0.83470900  0.11817100  0.93139700  1
  C  C33  1  0.66529100  0.61817100  0.93139700  1
  C  C34  1  0.83667700  0.63221700  0.14500700  1
  C  C35  1  0.33470900  0.11817100  0.56860300  1
  C  C36  1  0.83667700  0.86778300  0.64500700  1
  C  C37  1  0.66529100  0.88182900  0.43139700  1
  C  C38  1  0.16332300  0.13221700  0.35499300  1
  C  C39  1  0.16529100  0.88182900  0.06860300  1
  C  C40  1  0.83424200  0.78066900  0.46519000  1
  C  C41  1  0.17162600  0.53887000  0.39590900  1
  C  C42  1  0.14142800  0.06289700  0.26352300  1
  C  C43  1  0.30858500  0.24801600  0.83652100  1
  C  C44  1  0.14142800  0.43710300  0.76352300  1
  C  C45  1  0.35857200  0.93710300  0.76352300  1
  C  C46  1  0.30360100  0.00633900  0.08005000  1
  C  C47  1  0.66575800  0.21933100  0.96519000  1
  C  C48  1  0.33424200  0.71933100  0.53481000  1
  C  C49  1  0.15041900  0.67214400  0.66340000  1
  C  C50  1  0.30360100  0.49366100  0.58005000  1
  C  C51  1  0.30858500  0.25198400  0.33652100  1
  C  C52  1  0.84958100  0.17214400  0.83660000  1
  C  C53  1  0.84958100  0.32785600  0.33660000  1
  C  C54  1  0.34958100  0.32785600  0.16340000  1
  C  C55  1  0.85857200  0.56289700  0.23647700  1
  C  C56  1  0.69141500  0.75198400  0.16347900  1
  C  C57  1  0.16575800  0.21933100  0.53481000  1
  C  C58  1  0.65041900  0.67214400  0.83660000  1
  C  C59  1  0.19639900  0.99366100  0.58005000  1
  C  C60  1  0.15041900  0.82785600  0.16340000  1
  C  C61  1  0.80360100  0.49366100  0.91995000  1
  C  C62  1  0.66575800  0.28066900  0.46519000  1
  C  C63  1  0.16575800  0.28066900  0.03481000  1
  C  C64  1  0.85857200  0.93710300  0.73647700  1
  C  C65  1  0.19141500  0.75198400  0.33652100  1
  C  C66  1  0.80858500  0.24801600  0.66347900  1
  C  C67  1  0.35857200  0.56289700  0.26352300  1
  C  C68  1  0.67162600  0.96113000  0.60409100  1
  C  C69  1  0.69639900  0.50633900  0.41995000  1
  C  C70  1  0.17162600  0.96113000  0.89590900  1
  C  C71  1  0.19141500  0.74801600  0.83652100  1
  C  C72  1  0.80858500  0.25198400  0.16347900  1
  C  C73  1  0.82837400  0.46113000  0.60409100  1
  C  C74  1  0.33424200  0.78066900  0.03481000  1
  C  C75  1  0.82837400  0.03887000  0.10409100  1
  C  C76  1  0.69141500  0.74801600  0.66347900  1
  C  C77  1  0.32837400  0.03887000  0.39590900  1
  C  C78  1  0.83424200  0.71933100  0.96519000  1
  C  C79  1  0.80360100  0.00633900  0.41995000  1
  C  C80  1  0.69639900  0.99366100  0.91995000  1
  C  C81  1  0.64142800  0.43710300  0.73647700  1
  C  C82  1  0.64142800  0.06289700  0.23647700  1
  C  C83  1  0.34958100  0.17214400  0.66340000  1
  C  C84  1  0.19639900  0.50633900  0.08005000  1
  C  C85  1  0.65041900  0.82785600  0.33660000  1
  C  C86  1  0.32837400  0.46113000  0.89590900  1
  C  C87  1  0.67162600  0.53887000  0.10409100  1
