# generated using pymatgen
data_Cu4Ni2C3
_symmetry_space_group_name_H-M   'P 1'
_cell_length_a   10.07461500
_cell_length_b   11.52695900
_cell_length_c   18.51945255
_cell_angle_alpha   52.86265831
_cell_angle_beta   90.00000000
_cell_angle_gamma   90.00000000
_symmetry_Int_Tables_number   1
_chemical_formula_structural   Cu4Ni2C3
_chemical_formula_sum   'Cu48 Ni24 C36'
_cell_volume   1714.48439118
_cell_formula_units_Z   12
loop_
 _symmetry_equiv_pos_site_id
 _symmetry_equiv_pos_as_xyz
  1  'x, y, z'
loop_
 _atom_site_type_symbol
 _atom_site_label
 _atom_site_symmetry_multiplicity
 _atom_site_fract_x
 _atom_site_fract_y
 _atom_site_fract_z
 _atom_site_occupancy
  C  C0  1  0.57639200  0.37524800  0.36831900  1
  C  C1  1  0.42360800  0.62475200  0.63168100  1
  C  C2  1  0.88914600  0.42917100  0.31212600  1
  C  C3  1  0.92360800  0.37524800  0.86831900  1
  C  C4  1  0.11085400  0.57082900  0.68787400  1
  C  C5  1  0.00000000  0.00000000  0.00000000  1
  C  C6  1  0.50000000  0.50000000  0.50000000  1
  C  C7  1  0.38914600  0.57082900  0.18787400  1
  C  C8  1  0.61085400  0.42917100  0.81212600  1
  C  C9  1  0.07639200  0.62475200  0.13168100  1
  C  C10  1  0.00000000  0.50000000  0.00000000  1
  C  C11  1  0.50000000  0.00000000  0.50000000  1
  C  C12  1  0.20384500  0.99305000  0.50581800  1
  C  C13  1  0.79615500  0.00695000  0.49418200  1
  C  C14  1  0.96067400  0.20016200  0.27294900  1
  C  C15  1  0.24962300  0.49010900  0.87217600  1
  C  C16  1  0.69816900  0.74739500  0.73836000  1
  C  C17  1  0.16640200  0.23273400  0.07649200  1
  C  C18  1  0.89354100  0.47208900  0.46321000  1
  C  C19  1  0.80183100  0.74739500  0.23836000  1
  C  C20  1  0.25037700  0.49010900  0.37217600  1
  C  C21  1  0.53932600  0.20016200  0.77294900  1
  C  C22  1  0.33359800  0.23273400  0.57649200  1
  C  C23  1  0.83359800  0.76726600  0.92350800  1
  C  C24  1  0.29615500  0.99305000  0.00581800  1
  C  C25  1  0.19816900  0.25260500  0.76164000  1
  C  C26  1  0.74962300  0.50989100  0.62782400  1
  C  C27  1  0.39354100  0.52791100  0.03679000  1
  C  C28  1  0.70384500  0.00695000  0.99418200  1
  C  C29  1  0.60645900  0.47208900  0.96321000  1
  C  C30  1  0.75037700  0.50989100  0.12782400  1
  C  C31  1  0.46067400  0.79983800  0.22705100  1
  C  C32  1  0.66640200  0.76726600  0.42350800  1
  C  C33  1  0.03932600  0.79983800  0.72705100  1
  C  C34  1  0.30183100  0.25260500  0.26164000  1
  C  C35  1  0.10645900  0.52791100  0.53679000  1
  Ni  Ni36  1  0.33121500  0.49902600  0.82920500  1
  Ni  Ni37  1  0.51559700  0.30920000  0.71000100  1
  Ni  Ni38  1  0.16878500  0.49902600  0.32920500  1
  Ni  Ni39  1  0.71439700  0.46879900  0.95318200  1
  Ni  Ni40  1  0.77791800  0.12525700  0.44694000  1
  Ni  Ni41  1  0.01559700  0.69080000  0.78999900  1
  Ni  Ni42  1  0.39657200  0.22484900  0.53082500  1
  Ni  Ni43  1  0.21439700  0.53120100  0.54681800  1
  Ni  Ni44  1  0.78560300  0.46879900  0.45318200  1
  Ni  Ni45  1  0.98440300  0.30920000  0.21000100  1
  Ni  Ni46  1  0.28560300  0.53120100  0.04681800  1
  Ni  Ni47  1  0.83121500  0.50097400  0.67079500  1
  Ni  Ni48  1  0.87165200  0.76993900  0.18496000  1
  Ni  Ni49  1  0.37165200  0.23006100  0.31504000  1
  Ni  Ni50  1  0.27791800  0.87474300  0.05306000  1
  Ni  Ni51  1  0.72208200  0.12525700  0.94694000  1
  Ni  Ni52  1  0.89657200  0.77515100  0.96917500  1
  Ni  Ni53  1  0.22208200  0.87474300  0.55306000  1
  Ni  Ni54  1  0.48440300  0.69080000  0.28999900  1
  Ni  Ni55  1  0.10342800  0.22484900  0.03082500  1
  Ni  Ni56  1  0.62834800  0.76993900  0.68496000  1
  Ni  Ni57  1  0.66878500  0.50097400  0.17079500  1
  Ni  Ni58  1  0.12834800  0.23006100  0.81504000  1
  Ni  Ni59  1  0.60342800  0.77515100  0.46917500  1
  Cu  Cu60  1  0.91709400  0.65717400  0.19452900  1
  Cu  Cu61  1  0.50431200  0.67922800  0.36082500  1
  Cu  Cu62  1  0.19712600  0.55892900  0.24598800  1
  Cu  Cu63  1  0.34409600  0.83500900  0.56148500  1
  Cu  Cu64  1  0.58290600  0.65717400  0.69452900  1
  Cu  Cu65  1  0.52691500  0.66455700  0.52220100  1
  Cu  Cu66  1  0.62317800  0.20639300  0.90717300  1
  Cu  Cu67  1  0.94276100  0.54945000  0.63348500  1
  Cu  Cu68  1  0.30287400  0.55892900  0.74598800  1
  Cu  Cu69  1  0.11335700  0.11361800  0.03425700  1
  Cu  Cu70  1  0.99568800  0.67922800  0.86082500  1
  Cu  Cu71  1  0.47308500  0.33544300  0.47779900  1
  Cu  Cu72  1  0.01072800  0.58687000  0.78258900  1
  Cu  Cu73  1  0.44276100  0.45055000  0.86651500  1
  Cu  Cu74  1  0.05723900  0.45055000  0.36651500  1
  Cu  Cu75  1  0.79251100  0.47734500  0.00250000  1
  Cu  Cu76  1  0.89728800  0.90039700  0.12240300  1
  Cu  Cu77  1  0.12317800  0.79360700  0.59282700  1
  Cu  Cu78  1  0.08290600  0.34282600  0.80547100  1
  Cu  Cu79  1  0.80287400  0.44107100  0.75401200  1
  Cu  Cu80  1  0.48927200  0.58687000  0.28258900  1
  Cu  Cu81  1  0.15590400  0.83500900  0.06148500  1
  Cu  Cu82  1  0.51072800  0.41313000  0.71741100  1
  Cu  Cu83  1  0.60271200  0.90039700  0.62240300  1
  Cu  Cu84  1  0.20748900  0.52265500  0.99750000  1
  Cu  Cu85  1  0.75339700  0.45707600  0.39049400  1
  Cu  Cu86  1  0.38664300  0.11361800  0.53425700  1
  Cu  Cu87  1  0.37682200  0.79360700  0.09282700  1
  Cu  Cu88  1  0.39728800  0.09960300  0.37759700  1
  Cu  Cu89  1  0.49568800  0.32077200  0.63917500  1
  Cu  Cu90  1  0.25339700  0.54292400  0.10950600  1
  Cu  Cu91  1  0.74660300  0.45707600  0.89049400  1
  Cu  Cu92  1  0.00431200  0.32077200  0.13917500  1
  Cu  Cu93  1  0.65590400  0.16499100  0.43851500  1
  Cu  Cu94  1  0.87682200  0.20639300  0.40717300  1
  Cu  Cu95  1  0.88664300  0.88638200  0.96574300  1
  Cu  Cu96  1  0.29251100  0.52265500  0.49750000  1
  Cu  Cu97  1  0.55723900  0.54945000  0.13348500  1
  Cu  Cu98  1  0.02691500  0.33544300  0.97779900  1
  Cu  Cu99  1  0.24660300  0.54292400  0.60950600  1
  Cu  Cu100  1  0.61335700  0.88638200  0.46574300  1
  Cu  Cu101  1  0.98927200  0.41313000  0.21741100  1
  Cu  Cu102  1  0.97308500  0.66455700  0.02220100  1
  Cu  Cu103  1  0.70748900  0.47734500  0.50250000  1
  Cu  Cu104  1  0.41709400  0.34282600  0.30547100  1
  Cu  Cu105  1  0.69712600  0.44107100  0.25401200  1
  Cu  Cu106  1  0.10271200  0.09960300  0.87759700  1
  Cu  Cu107  1  0.84409600  0.16499100  0.93851500  1
