# generated using pymatgen
data_Cu4Ni16C
_symmetry_space_group_name_H-M   'P 1'
_cell_length_a   16.43878251
_cell_length_b   13.32733424
_cell_length_c   13.03781694
_cell_angle_alpha   77.13630315
_cell_angle_beta   52.22084333
_cell_angle_gamma   50.64285352
_symmetry_Int_Tables_number   1
_chemical_formula_structural   Cu4Ni16C
_chemical_formula_sum   'Cu8 Ni32 C2'
_cell_volume   1680.09676558
_cell_formula_units_Z   2
loop_
 _symmetry_equiv_pos_site_id
 _symmetry_equiv_pos_as_xyz
  1  'x, y, z'
loop_
 _atom_site_type_symbol
 _atom_site_label
 _atom_site_symmetry_multiplicity
 _atom_site_fract_x
 _atom_site_fract_y
 _atom_site_fract_z
 _atom_site_occupancy
  C  C0  1  0.24804400  0.25195600  0.25195600  1
  C  C1  1  0.99804400  0.00195600  0.00195600  1
  Ni  Ni2  1  0.52243300  0.47413000  0.25698600  1
  Ni  Ni3  1  0.32689000  0.87340200  0.16399200  1
  Ni  Ni4  1  0.74645100  0.25698600  0.47413000  1
  Ni  Ni5  1  0.80369900  0.53734100  0.33358600  1
  Ni  Ni6  1  0.63571500  0.16399200  0.87340200  1
  Ni  Ni7  1  0.17850700  0.31597700  0.65093300  1
  Ni  Ni8  1  0.59524400  0.92181100  0.58577900  1
  Ni  Ni9  1  0.33149900  0.81132400  0.32145700  1
  Ni  Ni10  1  0.63595100  0.65329500  0.34332100  1
  Ni  Ni11  1  0.32537400  0.33358600  0.53734100  1
  Ni  Ni12  1  0.71265900  0.44630100  0.92462600  1
  Ni  Ni13  1  0.77587000  0.72756700  0.50354900  1
  Ni  Ni14  1  0.32818900  0.65475600  0.35283400  1
  Ni  Ni15  1  0.90667900  0.88256700  0.61404900  1
  Ni  Ni16  1  0.59906700  0.39541800  0.07149300  1
  Ni  Ni17  1  0.89716600  0.58577900  0.92181100  1
  Ni  Ni18  1  0.26118700  0.54259000  0.72937900  1
  Ni  Ni19  1  0.70741000  0.98881300  0.78315600  1
  Ni  Ni20  1  0.43867600  0.91850100  0.71428000  1
  Ni  Ni21  1  0.37659800  0.92311000  0.61428500  1
  Ni  Ni22  1  0.36743300  0.34332100  0.65329500  1
  Ni  Ni23  1  0.93402300  0.07149300  0.39541800  1
  Ni  Ni24  1  0.08600800  0.61428500  0.92311000  1
  Ni  Ni25  1  0.53572000  0.32145700  0.81132400  1
  Ni  Ni26  1  0.52062100  0.78315600  0.98881300  1
  Ni  Ni27  1  0.91641400  0.92462600  0.44630100  1
  Ni  Ni28  1  0.66422100  0.35283400  0.65475600  1
  Ni  Ni29  1  0.85458200  0.65093300  0.31597700  1
  Ni  Ni30  1  0.92854300  0.71428000  0.91850100  1
  Ni  Ni31  1  0.59670500  0.61404900  0.88256700  1
  Ni  Ni32  1  0.46684400  0.72937900  0.54259000  1
  Ni  Ni33  1  0.99301400  0.50354900  0.72756700  1
  Cu  Cu34  1  0.21797700  0.77982800  0.97650400  1
  Cu  Cu35  1  0.96828800  0.21963400  0.03537200  1
  Cu  Cu36  1  0.02569000  0.97650400  0.77982800  1
  Cu  Cu37  1  0.77670600  0.03537200  0.21963400  1
  Cu  Cu38  1  0.47017200  0.03202300  0.22431000  1
  Cu  Cu39  1  0.27349600  0.22431000  0.03202300  1
  Cu  Cu40  1  0.21462800  0.47329400  0.28171200  1
  Cu  Cu41  1  0.03036600  0.28171200  0.47329400  1
