# generated using pymatgen
data_Cu3NiC22
_symmetry_space_group_name_H-M   'P 1'
_cell_length_a   10.93353383
_cell_length_b   10.93353383
_cell_length_c   6.79374400
_cell_angle_alpha   90.00000000
_cell_angle_beta   90.00000000
_cell_angle_gamma   119.99999897
_symmetry_Int_Tables_number   1
_chemical_formula_structural   Cu3NiC22
_chemical_formula_sum   'Cu6 Ni2 C44'
_cell_volume   703.33287919
_cell_formula_units_Z   2
loop_
 _symmetry_equiv_pos_site_id
 _symmetry_equiv_pos_as_xyz
  1  'x, y, z'
loop_
 _atom_site_type_symbol
 _atom_site_label
 _atom_site_symmetry_multiplicity
 _atom_site_fract_x
 _atom_site_fract_y
 _atom_site_fract_z
 _atom_site_occupancy
  C  C0  1  0.82651100  0.65302200  0.50869500  1
  C  C1  1  0.46941800  0.93883600  0.73078500  1
  C  C2  1  0.53058200  0.46941800  0.23078500  1
  C  C3  1  0.82651100  0.17348900  0.50869500  1
  C  C4  1  0.17348900  0.34697800  0.00869500  1
  C  C5  1  0.06116400  0.53058200  0.73078500  1
  C  C6  1  0.53058200  0.06116400  0.23078500  1
  C  C7  1  0.93883600  0.46941800  0.23078500  1
  C  C8  1  0.34697800  0.17348900  0.50869500  1
  C  C9  1  0.00000000  0.00000000  0.29565200  1
  C  C10  1  0.17348900  0.82651100  0.00869500  1
  C  C11  1  0.65302200  0.82651100  0.00869500  1
  C  C12  1  0.46941800  0.53058200  0.73078500  1
  C  C13  1  0.00000000  0.00000000  0.79565200  1
  Ni  Ni14  1  0.66666700  0.33333300  0.74855100  1
  Ni  Ni15  1  0.33333300  0.66666700  0.24855100  1
  Cu  Cu16  1  0.83057400  0.16942600  0.99940800  1
  Cu  Cu17  1  0.66114900  0.83057400  0.49940800  1
  Cu  Cu18  1  0.16942600  0.33885100  0.49940800  1
  Cu  Cu19  1  0.83057400  0.66114900  0.99940800  1
  Cu  Cu20  1  0.33885100  0.16942600  0.99940800  1
  Cu  Cu21  1  0.16942600  0.83057400  0.49940800  1
  C  C22  1  0.90715900  0.81431800  0.05418200  1
  C  C23  1  0.09284100  0.18568200  0.55418200  1
  C  C24  1  0.29624200  0.36957500  0.37973700  1
  C  C25  1  0.07333300  0.36957500  0.37973700  1
  C  C26  1  0.09284100  0.90715900  0.55418200  1
  C  C27  1  0.92666700  0.63042500  0.87973700  1
  C  C28  1  0.42989900  0.21494900  0.17865500  1
  C  C29  1  0.36957500  0.29624200  0.87973700  1
  C  C30  1  0.21494900  0.42989900  0.67865500  1
  C  C31  1  0.63042500  0.92666700  0.37973700  1
  C  C32  1  0.78505100  0.57010100  0.17865500  1
  C  C33  1  0.18568200  0.09284100  0.05418200  1
  C  C34  1  0.70375800  0.07333300  0.87973700  1
  C  C35  1  0.21494900  0.78505100  0.67865500  1
  C  C36  1  0.63042500  0.70375800  0.37973700  1
  C  C37  1  0.92666700  0.29624200  0.87973700  1
  C  C38  1  0.57010100  0.78505100  0.67865500  1
  C  C39  1  0.36957500  0.07333300  0.87973700  1
  C  C40  1  0.90715900  0.09284100  0.05418200  1
  C  C41  1  0.70375800  0.63042500  0.87973700  1
  C  C42  1  0.29624200  0.92666700  0.37973700  1
  C  C43  1  0.81431800  0.90715900  0.55418200  1
  C  C44  1  0.78505100  0.21494900  0.17865500  1
  C  C45  1  0.07333300  0.70375800  0.37973700  1
  C  C46  1  0.42062600  0.84125200  0.04983400  1
  C  C47  1  0.42062600  0.57937400  0.04983400  1
  C  C48  1  0.57937400  0.15874800  0.54983400  1
  C  C49  1  0.15874800  0.57937400  0.04983400  1
  C  C50  1  0.57937400  0.42062600  0.54983400  1
  C  C51  1  0.84125200  0.42062600  0.54983400  1
