# generated using pymatgen
data_CuNiC
_symmetry_space_group_name_H-M   'P 1'
_cell_length_a   9.56363000
_cell_length_b   7.79546100
_cell_length_c   13.28407572
_cell_angle_alpha   59.74906459
_cell_angle_beta   90.00000000
_cell_angle_gamma   90.00000000
_symmetry_Int_Tables_number   1
_chemical_formula_structural   CuNiC
_chemical_formula_sum   'Cu12 Ni12 C12'
_cell_volume   855.50554052
_cell_formula_units_Z   12
loop_
 _symmetry_equiv_pos_site_id
 _symmetry_equiv_pos_as_xyz
  1  'x, y, z'
loop_
 _atom_site_type_symbol
 _atom_site_label
 _atom_site_symmetry_multiplicity
 _atom_site_fract_x
 _atom_site_fract_y
 _atom_site_fract_z
 _atom_site_occupancy
  C  C0  1  0.13079600  0.01397800  0.58723600  1
  C  C1  1  0.63079600  0.98602200  0.91276400  1
  C  C2  1  0.86920400  0.98602200  0.41276400  1
  C  C3  1  0.36920400  0.01397800  0.08723600  1
  C  C4  1  0.90866200  0.24200400  0.88373900  1
  C  C5  1  0.81056000  0.25523000  0.53104300  1
  C  C6  1  0.68944000  0.25523000  0.03104300  1
  C  C7  1  0.31056000  0.74477000  0.96895700  1
  C  C8  1  0.18944000  0.74477000  0.46895700  1
  C  C9  1  0.59133800  0.24200400  0.38373900  1
  C  C10  1  0.09133800  0.75799600  0.11626100  1
  C  C11  1  0.40866200  0.75799600  0.61626100  1
  Ni  Ni12  1  0.09167700  0.88820700  0.49385200  1
  Ni  Ni13  1  0.80168300  0.09761600  0.86905200  1
  Ni  Ni14  1  0.40832300  0.88820700  0.99385200  1
  Ni  Ni15  1  0.69831700  0.09761600  0.36905200  1
  Ni  Ni16  1  0.66425900  0.30499500  0.46918800  1
  Ni  Ni17  1  0.83574100  0.30499500  0.96918800  1
  Ni  Ni18  1  0.19831700  0.90238400  0.13094800  1
  Ni  Ni19  1  0.59167700  0.11179300  0.00614800  1
  Ni  Ni20  1  0.33574100  0.69500500  0.53081200  1
  Ni  Ni21  1  0.16425900  0.69500500  0.03081200  1
  Ni  Ni22  1  0.30168300  0.90238400  0.63094800  1
  Ni  Ni23  1  0.90832300  0.11179300  0.50614800  1
  Cu  Cu24  1  0.09911700  0.21830400  0.67215200  1
  Cu  Cu25  1  0.28815100  0.30839600  0.92377700  1
  Cu  Cu26  1  0.48479800  0.76946400  0.25319900  1
  Cu  Cu27  1  0.01520200  0.76946400  0.75319900  1
  Cu  Cu28  1  0.90088300  0.78169600  0.32784800  1
  Cu  Cu29  1  0.59911700  0.78169600  0.82784800  1
  Cu  Cu30  1  0.21184900  0.30839600  0.42377700  1
  Cu  Cu31  1  0.71184900  0.69160400  0.07622300  1
  Cu  Cu32  1  0.98479800  0.23053600  0.24680100  1
  Cu  Cu33  1  0.78815100  0.69160400  0.57622300  1
  Cu  Cu34  1  0.40088300  0.21830400  0.17215200  1
  Cu  Cu35  1  0.51520200  0.23053600  0.74680100  1
