# generated using pymatgen
data_Cu5(NiC2)2
_symmetry_space_group_name_H-M   'P 1'
_cell_length_a   7.23000067
_cell_length_b   7.23000067
_cell_length_c   11.27935300
_cell_angle_alpha   90.00000000
_cell_angle_beta   90.00000000
_cell_angle_gamma   133.35994823
_symmetry_Int_Tables_number   1
_chemical_formula_structural   Cu5(NiC2)2
_chemical_formula_sum   'Cu10 Ni4 C8'
_cell_volume   428.67485040
_cell_formula_units_Z   2
loop_
 _symmetry_equiv_pos_site_id
 _symmetry_equiv_pos_as_xyz
  1  'x, y, z'
loop_
 _atom_site_type_symbol
 _atom_site_label
 _atom_site_symmetry_multiplicity
 _atom_site_fract_x
 _atom_site_fract_y
 _atom_site_fract_z
 _atom_site_occupancy
  C  C0  1  0.90333500  0.09666500  0.75000000  1
  C  C1  1  0.65350500  0.34649500  0.53226500  1
  C  C2  1  0.34649500  0.65350500  0.46773500  1
  C  C3  1  0.65350500  0.34649500  0.96773500  1
  C  C4  1  0.34649500  0.65350500  0.03226500  1
  C  C5  1  0.09666500  0.90333500  0.25000000  1
  C  C6  1  0.76318200  0.23681800  0.25000000  1
  C  C7  1  0.23681800  0.76318200  0.75000000  1
  Ni  Ni8  1  0.52647000  0.47353000  0.25000000  1
  Ni  Ni9  1  0.47353000  0.52647000  0.75000000  1
  Ni  Ni10  1  0.00000000  0.00000000  0.50000000  1
  Ni  Ni11  1  0.00000000  0.00000000  0.00000000  1
  Cu  Cu12  1  0.10473400  0.89526600  0.75000000  1
  Cu  Cu13  1  0.03785600  0.49582100  0.63030900  1
  Cu  Cu14  1  0.49582100  0.03785600  0.36969100  1
  Cu  Cu15  1  0.50417900  0.96214400  0.63030900  1
  Cu  Cu16  1  0.96214400  0.50417900  0.36969100  1
  Cu  Cu17  1  0.89526600  0.10473400  0.25000000  1
  Cu  Cu18  1  0.03785600  0.49582100  0.86969100  1
  Cu  Cu19  1  0.50417900  0.96214400  0.86969100  1
  Cu  Cu20  1  0.96214400  0.50417900  0.13030900  1
  Cu  Cu21  1  0.49582100  0.03785600  0.13030900  1
