# generated using pymatgen
data_Cu2NiC13
_symmetry_space_group_name_H-M   'P 1'
_cell_length_a   11.49928100
_cell_length_b   6.58616600
_cell_length_c   9.72370555
_cell_angle_alpha   72.86474903
_cell_angle_beta   90.00000000
_cell_angle_gamma   90.00000000
_symmetry_Int_Tables_number   1
_chemical_formula_structural   Cu2NiC13
_chemical_formula_sum   'Cu8 Ni4 C52'
_cell_volume   703.74726511
_cell_formula_units_Z   4
loop_
 _symmetry_equiv_pos_site_id
 _symmetry_equiv_pos_as_xyz
  1  'x, y, z'
loop_
 _atom_site_type_symbol
 _atom_site_label
 _atom_site_symmetry_multiplicity
 _atom_site_fract_x
 _atom_site_fract_y
 _atom_site_fract_z
 _atom_site_occupancy
  C  C0  1  0.31297800  0.06979500  0.44840600  1
  C  C1  1  0.18702200  0.06979500  0.94840600  1
  C  C2  1  0.68702200  0.93020500  0.55159400  1
  C  C3  1  0.81297800  0.93020500  0.05159400  1
  C  C4  1  0.92359200  0.61871000  0.59856200  1
  C  C5  1  0.07640800  0.38129000  0.40143800  1
  C  C6  1  0.42359200  0.38129000  0.90143800  1
  C  C7  1  0.57640800  0.61871000  0.09856200  1
  Ni  Ni8  1  0.95542100  0.26929400  0.15186200  1
  Ni  Ni9  1  0.54457900  0.26929400  0.65186200  1
  Ni  Ni10  1  0.45542100  0.73070600  0.34813800  1
  Ni  Ni11  1  0.04457900  0.73070600  0.84813800  1
  Cu  Cu12  1  0.32711600  0.47109700  0.56512300  1
  Cu  Cu13  1  0.06261700  0.92381700  0.31743100  1
  Cu  Cu14  1  0.43738300  0.92381700  0.81743100  1
  Cu  Cu15  1  0.93738300  0.07618300  0.68256900  1
  Cu  Cu16  1  0.82711600  0.52890300  0.93487700  1
  Cu  Cu17  1  0.56261700  0.07618300  0.18256900  1
  Cu  Cu18  1  0.17288400  0.47109700  0.06512300  1
  Cu  Cu19  1  0.67288400  0.52890300  0.43487700  1
  C  C20  1  0.82881000  0.26204100  0.79025700  1
  C  C21  1  0.32881000  0.73795900  0.70974300  1
  C  C22  1  0.67119000  0.26204100  0.29025700  1
  C  C23  1  0.13620300  0.57596600  0.72567600  1
  C  C24  1  0.63620300  0.42403400  0.77432400  1
  C  C25  1  0.17119000  0.73795900  0.20974300  1
  C  C26  1  0.86379700  0.42403400  0.27432400  1
  C  C27  1  0.36379700  0.57596600  0.22567700  1
  C  C28  1  0.35859500  0.69361100  0.45283500  1
  C  C29  1  0.54688200  0.03469000  0.72529200  1
  C  C30  1  0.27432000  0.36893700  0.01322700  1
  C  C31  1  0.85859500  0.30638900  0.04716500  1
  C  C32  1  0.52826900  0.29881300  0.08783300  1
  C  C33  1  0.69438500  0.48739900  0.28904100  1
  C  C34  1  0.44467000  0.60354300  0.24791300  1
  C  C35  1  0.61460800  0.92966500  0.10388200  1
  C  C36  1  0.14140500  0.69361100  0.95283500  1
  C  C37  1  0.38539200  0.07033500  0.89611800  1
  C  C38  1  0.47173100  0.70118700  0.91216700  1
  C  C39  1  0.30561500  0.51260100  0.71095900  1
  C  C40  1  0.06732600  0.31743200  0.07246800  1
  C  C41  1  0.56732600  0.68256800  0.42753200  1
  C  C42  1  0.95311800  0.03469000  0.22529200  1
  C  C43  1  0.88539200  0.92966500  0.60388200  1
  C  C44  1  0.45311800  0.96531000  0.27470800  1
  C  C45  1  0.05533000  0.60354300  0.74791300  1
  C  C46  1  0.11460800  0.07033500  0.39611800  1
  C  C47  1  0.43267400  0.31743200  0.57246800  1
  C  C48  1  0.77432000  0.63106300  0.48677300  1
  C  C49  1  0.64140500  0.30638900  0.54716500  1
  C  C50  1  0.55533000  0.39645700  0.75208700  1
  C  C51  1  0.19438500  0.51260100  0.21095900  1
  C  C52  1  0.84463100  0.10608100  0.79634700  1
  C  C53  1  0.04688200  0.96531000  0.77470800  1
  C  C54  1  0.94467000  0.39645700  0.25208700  1
  C  C55  1  0.02826900  0.70118700  0.41216700  1
  C  C56  1  0.34463100  0.89391900  0.70365300  1
  C  C57  1  0.65536900  0.10608100  0.29634700  1
  C  C58  1  0.72568000  0.63106300  0.98677300  1
  C  C59  1  0.22568000  0.36893700  0.51322700  1
  C  C60  1  0.80561500  0.48739900  0.78904100  1
  C  C61  1  0.15536900  0.89391900  0.20365300  1
  C  C62  1  0.97173100  0.29881300  0.58783300  1
  C  C63  1  0.93267400  0.68256800  0.92753200  1
