# generated using pymatgen
data_Cu7NiC4
_symmetry_space_group_name_H-M   'P 1'
_cell_length_a   10.28199983
_cell_length_b   10.28199983
_cell_length_c   5.79820300
_cell_angle_alpha   90.00000000
_cell_angle_beta   90.00000000
_cell_angle_gamma   119.99999888
_symmetry_Int_Tables_number   1
_chemical_formula_structural   Cu7NiC4
_chemical_formula_sum   'Cu14 Ni2 C8'
_cell_volume   530.85906428
_cell_formula_units_Z   2
loop_
 _symmetry_equiv_pos_site_id
 _symmetry_equiv_pos_as_xyz
  1  'x, y, z'
loop_
 _atom_site_type_symbol
 _atom_site_label
 _atom_site_symmetry_multiplicity
 _atom_site_fract_x
 _atom_site_fract_y
 _atom_site_fract_z
 _atom_site_occupancy
  C  C0  1  0.12376400  0.35668300  0.73094300  1
  C  C1  1  0.76708100  0.12376400  0.23094300  1
  C  C2  1  0.23291900  0.87623600  0.73094300  1
  C  C3  1  0.35668300  0.23291900  0.23094300  1
  C  C4  1  0.64331700  0.76708100  0.73094300  1
  C  C5  1  0.87623600  0.64331700  0.23094300  1
  C  C6  1  0.00000000  0.00000000  0.21565800  1
  C  C7  1  0.00000000  0.00000000  0.71565800  1
  Ni  Ni8  1  0.66666700  0.33333300  0.81636100  1
  Ni  Ni9  1  0.33333300  0.66666700  0.31636100  1
  Cu  Cu10  1  0.47552500  0.88615700  0.45850300  1
  Cu  Cu11  1  0.11384300  0.58936900  0.45850300  1
  Cu  Cu12  1  0.66666700  0.33333300  0.45193700  1
  Cu  Cu13  1  0.08581900  0.25016500  0.22165900  1
  Cu  Cu14  1  0.41063100  0.52447400  0.45850300  1
  Cu  Cu15  1  0.33333300  0.66666700  0.95193700  1
  Cu  Cu16  1  0.88615700  0.41063100  0.95850300  1
  Cu  Cu17  1  0.91418100  0.74983500  0.72165900  1
  Cu  Cu18  1  0.16434700  0.91418100  0.22165900  1
  Cu  Cu19  1  0.58936900  0.47552500  0.95850300  1
  Cu  Cu20  1  0.74983500  0.83565300  0.22165900  1
  Cu  Cu21  1  0.52447400  0.11384300  0.95850300  1
  Cu  Cu22  1  0.25016500  0.16434700  0.72165900  1
  Cu  Cu23  1  0.83565300  0.08581900  0.72165900  1
