# generated using pymatgen
data_Cu4Ni5C6
_symmetry_space_group_name_H-M   'P 1'
_cell_length_a   9.93614800
_cell_length_b   14.38905000
_cell_length_c   21.45415800
_cell_angle_alpha   90.00000000
_cell_angle_beta   90.00000000
_cell_angle_gamma   90.00000000
_symmetry_Int_Tables_number   1
_chemical_formula_structural   Cu4Ni5C6
_chemical_formula_sum   'Cu32 Ni40 C48'
_cell_volume   3067.33809309
_cell_formula_units_Z   8
loop_
 _symmetry_equiv_pos_site_id
 _symmetry_equiv_pos_as_xyz
  1  'x, y, z'
loop_
 _atom_site_type_symbol
 _atom_site_label
 _atom_site_symmetry_multiplicity
 _atom_site_fract_x
 _atom_site_fract_y
 _atom_site_fract_z
 _atom_site_occupancy
  C  C0  1  0.53410500  0.25000000  0.61891200  1
  C  C1  1  0.44580200  0.25000000  0.12976400  1
  C  C2  1  0.55419800  0.75000000  0.87023600  1
  C  C3  1  0.46589500  0.75000000  0.38108800  1
  C  C4  1  0.94580200  0.25000000  0.37023600  1
  C  C5  1  0.96589500  0.75000000  0.11891200  1
  C  C6  1  0.03410500  0.25000000  0.88108800  1
  C  C7  1  0.05419800  0.75000000  0.62976400  1
  C  C8  1  0.92720900  0.39263300  0.54658700  1
  C  C9  1  0.30076800  0.00838200  0.47949200  1
  C  C10  1  0.98154400  0.60179500  0.32201900  1
  C  C11  1  0.29578800  0.53045200  0.77194800  1
  C  C12  1  0.08901000  0.60450400  0.86882400  1
  C  C13  1  0.70421200  0.46954800  0.22805200  1
  C  C14  1  0.19923200  0.99161800  0.97949200  1
  C  C15  1  0.98154400  0.89820500  0.32201900  1
  C  C16  1  0.58901000  0.60450400  0.63117600  1
  C  C17  1  0.48154400  0.89820500  0.17798100  1
  C  C18  1  0.57279100  0.89263300  0.04658700  1
  C  C19  1  0.01845600  0.39820500  0.67798100  1
  C  C20  1  0.42720900  0.39263300  0.95341300  1
  C  C21  1  0.30076800  0.49161800  0.47949200  1
  C  C22  1  0.58901000  0.89549600  0.63117600  1
  C  C23  1  0.79578800  0.96954800  0.72805200  1
  C  C24  1  0.20421200  0.46954800  0.27194800  1
  C  C25  1  0.07279100  0.60736700  0.45341300  1
  C  C26  1  0.80076800  0.49161800  0.02050800  1
  C  C27  1  0.19923200  0.50838200  0.97949200  1
  C  C28  1  0.07279100  0.89263300  0.45341300  1
  C  C29  1  0.91099000  0.10450400  0.13117600  1
  C  C30  1  0.48154400  0.60179500  0.17798100  1
  C  C31  1  0.29578800  0.96954800  0.77194800  1
  C  C32  1  0.79578800  0.53045200  0.72805200  1
  C  C33  1  0.51845600  0.39820500  0.82201900  1
  C  C34  1  0.92720900  0.10736700  0.54658700  1
  C  C35  1  0.69923200  0.50838200  0.52050800  1
  C  C36  1  0.80076800  0.00838200  0.02050800  1
  C  C37  1  0.57279100  0.60736700  0.04658700  1
  C  C38  1  0.41099000  0.10450400  0.36882400  1
  C  C39  1  0.08901000  0.89549600  0.86882400  1
  C  C40  1  0.20421200  0.03045200  0.27194800  1
  C  C41  1  0.69923200  0.99161800  0.52050800  1
  C  C42  1  0.41099000  0.39549600  0.36882400  1
  C  C43  1  0.91099000  0.39549600  0.13117600  1
  C  C44  1  0.51845600  0.10179500  0.82201900  1
  C  C45  1  0.01845600  0.10179500  0.67798100  1
  C  C46  1  0.42720900  0.10736700  0.95341300  1
  C  C47  1  0.70421200  0.03045200  0.22805200  1
  Ni  Ni48  1  0.68789400  0.56723800  0.68164900  1
  Ni  Ni49  1  0.31365300  0.46624200  0.93605900  1
  Ni  Ni50  1  0.81210600  0.43276200  0.18164900  1
  Ni  Ni51  1  0.48592900  0.87248800  0.10633600  1
  Ni  Ni52  1  0.81210600  0.06723800  0.18164900  1
  Ni  Ni53  1  0.60661400  0.57288900  0.56103000  1
  Ni  Ni54  1  0.41092500  0.46545700  0.79462600  1
  Ni  Ni55  1  0.18789400  0.56723800  0.81835100  1
  Ni  Ni56  1  0.18789400  0.93276200  0.81835100  1
  Ni  Ni57  1  0.39338600  0.07288900  0.43897000  1
  Ni  Ni58  1  0.18634700  0.96624200  0.43605900  1
  Ni  Ni59  1  0.01407100  0.37248800  0.60633600  1
  Ni  Ni60  1  0.81365300  0.46624200  0.56394100  1
  Ni  Ni61  1  0.91092500  0.46545700  0.70537400  1
  Ni  Ni62  1  0.68789400  0.93276200  0.68164900  1
  Ni  Ni63  1  0.08907500  0.53454300  0.29462600  1
  Ni  Ni64  1  0.98592900  0.62751200  0.39366400  1
  Ni  Ni65  1  0.10661400  0.92711100  0.93897000  1
  Ni  Ni66  1  0.01407100  0.12751200  0.60633600  1
  Ni  Ni67  1  0.89338600  0.07288900  0.06103000  1
  Ni  Ni68  1  0.31210600  0.06723800  0.31835100  1
  Ni  Ni69  1  0.68634700  0.53375800  0.06394100  1
  Ni  Ni70  1  0.58907500  0.96545700  0.20537400  1
  Ni  Ni71  1  0.98592900  0.87248800  0.39366400  1
  Ni  Ni72  1  0.51407100  0.12751200  0.89366400  1
  Ni  Ni73  1  0.48592900  0.62751200  0.10633600  1
  Ni  Ni74  1  0.58907500  0.53454300  0.20537400  1
  Ni  Ni75  1  0.10661400  0.57288900  0.93897000  1
  Ni  Ni76  1  0.31210600  0.43276200  0.31835100  1
  Ni  Ni77  1  0.08907500  0.96545700  0.29462600  1
  Ni  Ni78  1  0.60661400  0.92711100  0.56103000  1
  Ni  Ni79  1  0.89338600  0.42711100  0.06103000  1
  Ni  Ni80  1  0.41092500  0.03454300  0.79462600  1
  Ni  Ni81  1  0.81365300  0.03375800  0.56394100  1
  Ni  Ni82  1  0.91092500  0.03454300  0.70537400  1
  Ni  Ni83  1  0.51407100  0.37248800  0.89366400  1
  Ni  Ni84  1  0.31365300  0.03375800  0.93605900  1
  Ni  Ni85  1  0.39338600  0.42711100  0.43897000  1
  Ni  Ni86  1  0.18634700  0.53375800  0.43605900  1
  Ni  Ni87  1  0.68634700  0.96624200  0.06394100  1
  Cu  Cu88  1  0.12757900  0.25000000  0.97454100  1
  Cu  Cu89  1  0.58949700  0.87598400  0.36960100  1
  Cu  Cu90  1  0.12153600  0.25000000  0.43339900  1
  Cu  Cu91  1  0.62757900  0.25000000  0.52545900  1
  Cu  Cu92  1  0.58949700  0.62401600  0.36960100  1
  Cu  Cu93  1  0.98377100  0.75000000  0.72709000  1
  Cu  Cu94  1  0.32570800  0.37676200  0.11194400  1
  Cu  Cu95  1  0.37242100  0.75000000  0.47454100  1
  Cu  Cu96  1  0.67429200  0.62323800  0.88805600  1
  Cu  Cu97  1  0.19724700  0.25000000  0.81073500  1
  Cu  Cu98  1  0.30275300  0.75000000  0.31073500  1
  Cu  Cu99  1  0.80275300  0.75000000  0.18926500  1
  Cu  Cu100  1  0.87846400  0.75000000  0.56660100  1
  Cu  Cu101  1  0.51622900  0.25000000  0.22709000  1
  Cu  Cu102  1  0.08949700  0.62401600  0.13039900  1
  Cu  Cu103  1  0.82570800  0.12323800  0.38805600  1
  Cu  Cu104  1  0.67429200  0.87676200  0.88805600  1
  Cu  Cu105  1  0.17429200  0.62323800  0.61194400  1
  Cu  Cu106  1  0.48377100  0.75000000  0.77291000  1
  Cu  Cu107  1  0.87242100  0.75000000  0.02545900  1
  Cu  Cu108  1  0.17429200  0.87676200  0.61194400  1
  Cu  Cu109  1  0.08949700  0.87598400  0.13039900  1
  Cu  Cu110  1  0.32570800  0.12323800  0.11194400  1
  Cu  Cu111  1  0.69724700  0.25000000  0.68926500  1
  Cu  Cu112  1  0.01622900  0.25000000  0.27291000  1
  Cu  Cu113  1  0.82570800  0.37676200  0.38805600  1
  Cu  Cu114  1  0.62153600  0.25000000  0.06660100  1
  Cu  Cu115  1  0.91050300  0.12401600  0.86960100  1
  Cu  Cu116  1  0.41050300  0.37598400  0.63039900  1
  Cu  Cu117  1  0.41050300  0.12401600  0.63039900  1
  Cu  Cu118  1  0.91050300  0.37598400  0.86960100  1
  Cu  Cu119  1  0.37846400  0.75000000  0.93339900  1
