# generated using pymatgen
data_Cu81Ni19C20
_symmetry_space_group_name_H-M   'P 1'
_cell_length_a   14.75044141
_cell_length_b   14.75044086
_cell_length_c   14.75044148
_cell_angle_alpha   60.00000072
_cell_angle_beta   60.00000197
_cell_angle_gamma   60.00000129
_symmetry_Int_Tables_number   1
_chemical_formula_structural   Cu81Ni19C20
_chemical_formula_sum   'Cu81 Ni19 C20'
_cell_volume   2269.34252714
_cell_formula_units_Z   1
loop_
 _symmetry_equiv_pos_site_id
 _symmetry_equiv_pos_as_xyz
  1  'x, y, z'
loop_
 _atom_site_type_symbol
 _atom_site_label
 _atom_site_symmetry_multiplicity
 _atom_site_fract_x
 _atom_site_fract_y
 _atom_site_fract_z
 _atom_site_occupancy
  C  C0  1  0.15348498  0.15348498  0.15348498  1
  C  C1  1  0.39803203  0.39803203  0.80590390  1
  C  C2  1  0.96655422  0.96655422  0.53344578  1
  C  C3  1  0.17195959  0.17195959  0.82804041  1
  C  C4  1  0.39803203  0.39803203  0.39803203  1
  C  C5  1  0.96655422  0.53344578  0.53344578  1
  C  C6  1  0.80590390  0.39803203  0.39803203  1
  C  C7  1  0.96655422  0.53344578  0.96655422  1
  C  C8  1  0.15348498  0.15348498  0.53954505  1
  C  C9  1  0.15348498  0.53954505  0.15348498  1
  C  C10  1  0.53954505  0.15348498  0.15348498  1
  C  C11  1  0.82804041  0.17195959  0.82804041  1
  C  C12  1  0.39803203  0.80590390  0.39803203  1
  C  C13  1  0.17195959  0.82804041  0.17195959  1
  C  C14  1  0.53344578  0.96655422  0.53344578  1
  C  C15  1  0.82804041  0.17195959  0.17195959  1
  C  C16  1  0.53344578  0.96655422  0.96655422  1
  C  C17  1  0.17195959  0.82804041  0.82804041  1
  C  C18  1  0.53344578  0.53344578  0.96655422  1
  C  C19  1  0.82804041  0.82804041  0.17195959  1
  Ni  Ni20  1  0.77366944  0.44048772  0.77366944  1
  Ni  Ni21  1  0.44048772  0.77366944  0.77366944  1
  Ni  Ni22  1  0.01217339  0.44048772  0.77366944  1
  Ni  Ni23  1  0.77366944  0.01217339  0.77366944  1
  Ni  Ni24  1  0.77366944  0.77366944  0.44048772  1
  Ni  Ni25  1  0.77366944  0.01217339  0.44048772  1
  Ni  Ni26  1  0.01217339  0.77366944  0.44048772  1
  Ni  Ni27  1  0.44048772  0.01217339  0.77366944  1
  Ni  Ni28  1  0.66784931  0.33215069  0.33215069  1
  Ni  Ni29  1  0.33215069  0.33215069  0.66784931  1
  Ni  Ni30  1  0.33215069  0.66784931  0.66784931  1
  Ni  Ni31  1  0.44048772  0.77366944  0.01217339  1
  Ni  Ni32  1  0.66784931  0.33215069  0.66784931  1
  Ni  Ni33  1  0.77366944  0.77366944  0.01217339  1
  Ni  Ni34  1  0.66784931  0.66784931  0.33215069  1
  Ni  Ni35  1  0.77366944  0.44048772  0.01217339  1
  Ni  Ni36  1  0.25000000  0.25000000  0.25000000  1
  Ni  Ni37  1  0.33215069  0.66784931  0.33215069  1
  Ni  Ni38  1  0.01217339  0.77366944  0.77366944  1
  Cu  Cu39  1  0.20192774  0.38367683  0.38367683  1
  Cu  Cu40  1  0.58712531  0.88668107  0.34914095  1
  Cu  Cu41  1  0.88668107  0.34914095  0.17705267  1
  Cu  Cu42  1  0.23929049  0.92023650  0.92023650  1
  Cu  Cu43  1  0.38367683  0.38367683  0.20192774  1
  Cu  Cu44  1  0.67254411  0.67254411  0.67254411  1
  Cu  Cu45  1  0.17705267  0.34914095  0.88668107  1
  Cu  Cu46  1  0.88668107  0.17705267  0.58712531  1
  Cu  Cu47  1  0.36098360  0.54633880  0.54633880  1
  Cu  Cu48  1  0.58712531  0.88668107  0.17705267  1
  Cu  Cu49  1  0.79712503  0.79712503  0.79712503  1
  Cu  Cu50  1  0.67254411  0.67254411  0.98236768  1
  Cu  Cu51  1  0.54768500  0.73224369  0.17238632  1
  Cu  Cu52  1  0.54768500  0.54768500  0.17238632  1
  Cu  Cu53  1  0.17238632  0.54768500  0.73224369  1
  Cu  Cu54  1  0.38367683  0.20192774  0.03071861  1
  Cu  Cu55  1  0.07143769  0.78568694  0.07143769  1
  Cu  Cu56  1  0.54633880  0.54633880  0.54633880  1
  Cu  Cu57  1  0.78568694  0.07143769  0.07143769  1
  Cu  Cu58  1  0.38367683  0.20192774  0.38367683  1
  Cu  Cu59  1  0.17705267  0.34914095  0.58712531  1
  Cu  Cu60  1  0.34914095  0.58712531  0.17705267  1
  Cu  Cu61  1  0.07143769  0.07143769  0.78568694  1
  Cu  Cu62  1  0.34914095  0.88668107  0.58712531  1
  Cu  Cu63  1  0.00069185  0.70466605  0.00069185  1
  Cu  Cu64  1  0.60862492  0.79712503  0.79712503  1
  Cu  Cu65  1  0.17705267  0.58712531  0.34914095  1
  Cu  Cu66  1  0.17238632  0.73224369  0.54768500  1
  Cu  Cu67  1  0.17705267  0.88668107  0.58712531  1
  Cu  Cu68  1  0.54768500  0.54768500  0.73224369  1
  Cu  Cu69  1  0.73224369  0.54768500  0.54768500  1
  Cu  Cu70  1  0.70466605  0.29395024  0.00069185  1
  Cu  Cu71  1  0.38367683  0.38367683  0.03071861  1
  Cu  Cu72  1  0.29395024  0.70466605  0.00069185  1
  Cu  Cu73  1  0.73224369  0.54768500  0.17238632  1
  Cu  Cu74  1  0.88668107  0.17705267  0.34914095  1
  Cu  Cu75  1  0.00000000  0.00000000  0.00000000  1
  Cu  Cu76  1  0.34914095  0.58712531  0.88668107  1
  Cu  Cu77  1  0.98236768  0.67254411  0.67254411  1
  Cu  Cu78  1  0.17705267  0.58712531  0.88668107  1
  Cu  Cu79  1  0.54768500  0.17238632  0.54768500  1
  Cu  Cu80  1  0.17238632  0.54768500  0.54768500  1
  Cu  Cu81  1  0.17705267  0.88668107  0.34914095  1
  Cu  Cu82  1  0.29395024  0.00069185  0.70466605  1
  Cu  Cu83  1  0.70466605  0.00069185  0.29395024  1
  Cu  Cu84  1  0.00069185  0.00069185  0.70466605  1
  Cu  Cu85  1  0.07143769  0.07143769  0.07143769  1
  Cu  Cu86  1  0.03071861  0.20192774  0.38367683  1
  Cu  Cu87  1  0.88668107  0.34914095  0.58712531  1
  Cu  Cu88  1  0.54768500  0.17238632  0.73224369  1
  Cu  Cu89  1  0.38367683  0.03071861  0.38367683  1
  Cu  Cu90  1  0.34914095  0.17705267  0.58712531  1
  Cu  Cu91  1  0.29395024  0.00069185  0.00069185  1
  Cu  Cu92  1  0.58712531  0.34914095  0.88668107  1
  Cu  Cu93  1  0.00069185  0.00069185  0.29395024  1
  Cu  Cu94  1  0.34914095  0.88668107  0.17705267  1
  Cu  Cu95  1  0.03071861  0.38367683  0.20192774  1
  Cu  Cu96  1  0.00069185  0.70466605  0.29395024  1
  Cu  Cu97  1  0.58712531  0.17705267  0.34914095  1
  Cu  Cu98  1  0.54633880  0.36098360  0.54633880  1
  Cu  Cu99  1  0.38367683  0.03071861  0.20192774  1
  Cu  Cu100  1  0.58712531  0.34914095  0.17705267  1
  Cu  Cu101  1  0.79712503  0.79712503  0.60862492  1
  Cu  Cu102  1  0.92023650  0.23929049  0.92023650  1
  Cu  Cu103  1  0.88668107  0.58712531  0.34914095  1
  Cu  Cu104  1  0.54768500  0.73224369  0.54768500  1
  Cu  Cu105  1  0.54633880  0.54633880  0.36098360  1
  Cu  Cu106  1  0.00069185  0.29395024  0.70466605  1
  Cu  Cu107  1  0.92023650  0.92023650  0.23929049  1
  Cu  Cu108  1  0.79712503  0.60862492  0.79712503  1
  Cu  Cu109  1  0.88668107  0.58712531  0.17705267  1
  Cu  Cu110  1  0.00069185  0.29395024  0.00069185  1
  Cu  Cu111  1  0.58712531  0.17705267  0.88668107  1
  Cu  Cu112  1  0.20192774  0.03071861  0.38367683  1
  Cu  Cu113  1  0.70466605  0.00069185  0.00069185  1
  Cu  Cu114  1  0.67254411  0.98236768  0.67254411  1
  Cu  Cu115  1  0.73224369  0.17238632  0.54768500  1
  Cu  Cu116  1  0.03071861  0.38367683  0.38367683  1
  Cu  Cu117  1  0.92023650  0.92023650  0.92023650  1
  Cu  Cu118  1  0.34914095  0.17705267  0.88668107  1
  Cu  Cu119  1  0.20192774  0.38367683  0.03071861  1
