# generated using pymatgen
data_CuNiC10
_symmetry_space_group_name_H-M   'P 1'
_cell_length_a   10.61878786
_cell_length_b   10.61878786
_cell_length_c   6.36837400
_cell_angle_alpha   90.00000000
_cell_angle_beta   90.00000000
_cell_angle_gamma   119.99999911
_symmetry_Int_Tables_number   1
_chemical_formula_structural   CuNiC10
_chemical_formula_sum   'Cu2 Ni2 C20'
_cell_volume   621.88357314
_cell_formula_units_Z   2
loop_
 _symmetry_equiv_pos_site_id
 _symmetry_equiv_pos_as_xyz
  1  'x, y, z'
loop_
 _atom_site_type_symbol
 _atom_site_label
 _atom_site_symmetry_multiplicity
 _atom_site_fract_x
 _atom_site_fract_y
 _atom_site_fract_z
 _atom_site_occupancy
  C  C0  1  0.13703100  0.35769200  0.75412200  1
  C  C1  1  0.77934000  0.13703100  0.25412200  1
  C  C2  1  0.35769200  0.22066000  0.25412200  1
  C  C3  1  0.64230800  0.77934000  0.75412200  1
  C  C4  1  0.22066000  0.86296900  0.75412200  1
  C  C5  1  0.86296900  0.64230800  0.25412200  1
  Ni  Ni6  1  0.00000000  0.00000000  0.71383900  1
  Ni  Ni7  1  0.00000000  0.00000000  0.21383900  1
  Cu  Cu8  1  0.33333300  0.66666700  0.33095200  1
  Cu  Cu9  1  0.66666700  0.33333300  0.83095200  1
  C  C10  1  0.33333300  0.66666700  0.92808900  1
  C  C11  1  0.66666700  0.33333300  0.42808900  1
  C  C12  1  0.84391600  0.09998800  0.72853000  1
  C  C13  1  0.74392800  0.84391600  0.22853000  1
  C  C14  1  0.09998800  0.25607200  0.22853000  1
  C  C15  1  0.90001200  0.74392800  0.72853000  1
  C  C16  1  0.25607200  0.15608400  0.72853000  1
  C  C17  1  0.15608400  0.90001200  0.22853000  1
  C  C18  1  0.48881200  0.91952400  0.50662100  1
  C  C19  1  0.56928800  0.48881200  0.00662100  1
  C  C20  1  0.91952400  0.43071200  0.00662100  1
  C  C21  1  0.08047600  0.56928800  0.50662100  1
  C  C22  1  0.43071200  0.51118800  0.50662100  1
  C  C23  1  0.51118800  0.08047600  0.00662100  1
