# generated using pymatgen
data_Cu3NiC17
_symmetry_space_group_name_H-M   'P 1'
_cell_length_a   9.66404000
_cell_length_b   10.22793500
_cell_length_c   13.39309400
_cell_angle_alpha   90.00000000
_cell_angle_beta   90.00000000
_cell_angle_gamma   90.00000000
_symmetry_Int_Tables_number   1
_chemical_formula_structural   Cu3NiC17
_chemical_formula_sum   'Cu12 Ni4 C68'
_cell_volume   1323.81590668
_cell_formula_units_Z   4
loop_
 _symmetry_equiv_pos_site_id
 _symmetry_equiv_pos_as_xyz
  1  'x, y, z'
loop_
 _atom_site_type_symbol
 _atom_site_label
 _atom_site_symmetry_multiplicity
 _atom_site_fract_x
 _atom_site_fract_y
 _atom_site_fract_z
 _atom_site_occupancy
  Ni  Ni0  1  0.70954400  0.25000000  0.22522700  1
  Ni  Ni1  1  0.29045600  0.75000000  0.77477300  1
  Ni  Ni2  1  0.20954400  0.75000000  0.27477300  1
  Ni  Ni3  1  0.79045600  0.25000000  0.72522700  1
  Cu  Cu4  1  0.43038600  0.46170100  0.32616600  1
  Cu  Cu5  1  0.93038600  0.53829900  0.17383400  1
  Cu  Cu6  1  0.06961400  0.46170100  0.82616600  1
  Cu  Cu7  1  0.59080800  0.25000000  0.01340000  1
  Cu  Cu8  1  0.09080800  0.75000000  0.48660000  1
  Cu  Cu9  1  0.93038600  0.96170100  0.17383400  1
  Cu  Cu10  1  0.90919200  0.25000000  0.51340000  1
  Cu  Cu11  1  0.43038600  0.03829900  0.32616600  1
  Cu  Cu12  1  0.40919200  0.75000000  0.98660000  1
  Cu  Cu13  1  0.56961400  0.53829900  0.67383400  1
  Cu  Cu14  1  0.06961400  0.03829900  0.82616600  1
  Cu  Cu15  1  0.56961400  0.96170100  0.67383400  1
  C  C16  1  0.13843800  0.25000000  0.27179200  1
  C  C17  1  0.19995000  0.06092600  0.56558500  1
  C  C18  1  0.30005000  0.43907400  0.06558500  1
  C  C19  1  0.52750100  0.25000000  0.51203200  1
  C  C20  1  0.97249900  0.25000000  0.01203200  1
  C  C21  1  0.80005000  0.93907400  0.43441500  1
  C  C22  1  0.80005000  0.56092600  0.43441500  1
  C  C23  1  0.36156200  0.25000000  0.77179200  1
  C  C24  1  0.69995000  0.56092600  0.93441500  1
  C  C25  1  0.47249900  0.75000000  0.48796800  1
  C  C26  1  0.86156200  0.75000000  0.72820800  1
  C  C27  1  0.63843800  0.75000000  0.22820800  1
  C  C28  1  0.69995000  0.93907400  0.93441500  1
  C  C29  1  0.02750100  0.75000000  0.98796800  1
  C  C30  1  0.30005000  0.06092600  0.06558500  1
  C  C31  1  0.19995000  0.43907400  0.56558500  1
  C  C32  1  0.88476900  0.58109400  0.06694900  1
  C  C33  1  0.83769900  0.89427700  0.25260700  1
  C  C34  1  0.12778400  0.62989500  0.41759600  1
  C  C35  1  0.56932600  0.75000000  0.00626000  1
  C  C36  1  0.08571500  0.57728700  0.18692800  1
  C  C37  1  0.41428500  0.57728700  0.68692800  1
  C  C38  1  0.41699000  0.61391200  0.31453000  1
  C  C39  1  0.91699000  0.38608800  0.18547000  1
  C  C40  1  0.37221600  0.62989500  0.91759600  1
  C  C41  1  0.87221600  0.12989500  0.58240400  1
  C  C42  1  0.83072500  0.25000000  0.41388500  1
  C  C43  1  0.88476900  0.91890600  0.06694900  1
  C  C44  1  0.33072500  0.75000000  0.08611500  1
  C  C45  1  0.06932600  0.25000000  0.49374000  1
  C  C46  1  0.11523100  0.08109400  0.93305100  1
  C  C47  1  0.16230100  0.39427700  0.74739300  1
  C  C48  1  0.91428500  0.07728700  0.81307200  1
  C  C49  1  0.58571500  0.07728700  0.31307200  1
  C  C50  1  0.32785500  0.25000000  0.60314200  1
  C  C51  1  0.91428500  0.42271300  0.81307200  1
  C  C52  1  0.11523100  0.41890600  0.93305100  1
  C  C53  1  0.17214500  0.25000000  0.10314200  1
  C  C54  1  0.33769900  0.39427700  0.24739300  1
  C  C55  1  0.16230100  0.10572300  0.74739300  1
  C  C56  1  0.37221600  0.87010500  0.91759600  1
  C  C57  1  0.82785500  0.75000000  0.89685800  1
  C  C58  1  0.58301000  0.38608800  0.68547000  1
  C  C59  1  0.08571500  0.92271300  0.18692800  1
  C  C60  1  0.61523100  0.91890600  0.56694900  1
  C  C61  1  0.43067400  0.25000000  0.99374000  1
  C  C62  1  0.38476900  0.41890600  0.43305100  1
  C  C63  1  0.62778400  0.12989500  0.08240400  1
  C  C64  1  0.38476900  0.08109400  0.43305100  1
  C  C65  1  0.93067400  0.75000000  0.50626000  1
  C  C66  1  0.66230100  0.60572300  0.75260700  1
  C  C67  1  0.58301000  0.11391200  0.68547000  1
  C  C68  1  0.66927500  0.25000000  0.91388500  1
  C  C69  1  0.91699000  0.11391200  0.18547000  1
  C  C70  1  0.62778400  0.37010500  0.08240400  1
  C  C71  1  0.08301000  0.61391200  0.81453000  1
  C  C72  1  0.08301000  0.88608800  0.81453000  1
  C  C73  1  0.33769900  0.10572300  0.24739300  1
  C  C74  1  0.61523100  0.58109400  0.56694900  1
  C  C75  1  0.66230100  0.89427700  0.75260700  1
  C  C76  1  0.87221600  0.37010500  0.58240400  1
  C  C77  1  0.67214500  0.75000000  0.39685800  1
  C  C78  1  0.58571500  0.42271300  0.31307200  1
  C  C79  1  0.83769900  0.60572300  0.25260700  1
  C  C80  1  0.16927500  0.75000000  0.58611500  1
  C  C81  1  0.41699000  0.88608800  0.31453000  1
  C  C82  1  0.41428500  0.92271300  0.68692800  1
  C  C83  1  0.12778400  0.87010500  0.41759600  1
