# generated using pymatgen
data_Cu11Ni3C2
_symmetry_space_group_name_H-M   'P 1'
_cell_length_a   7.39988900
_cell_length_b   11.68474500
_cell_length_c   26.00635300
_cell_angle_alpha   90.00000000
_cell_angle_beta   90.00000000
_cell_angle_gamma   90.00000000
_symmetry_Int_Tables_number   1
_chemical_formula_structural   Cu11Ni3C2
_chemical_formula_sum   'Cu88 Ni24 C16'
_cell_volume   2248.66053315
_cell_formula_units_Z   8
loop_
 _symmetry_equiv_pos_site_id
 _symmetry_equiv_pos_as_xyz
  1  'x, y, z'
loop_
 _atom_site_type_symbol
 _atom_site_label
 _atom_site_symmetry_multiplicity
 _atom_site_fract_x
 _atom_site_fract_y
 _atom_site_fract_z
 _atom_site_occupancy
  C  C0  1  0.55336300  0.83695400  0.97889400  1
  C  C1  1  0.94663700  0.83695400  0.47889400  1
  C  C2  1  0.44663700  0.66304600  0.47889400  1
  C  C3  1  0.44663700  0.16304600  0.02110600  1
  C  C4  1  0.05336300  0.66304600  0.97889400  1
  C  C5  1  0.94663700  0.33695400  0.02110600  1
  C  C6  1  0.55336300  0.33695400  0.52110600  1
  C  C7  1  0.05336300  0.16304600  0.52110600  1
  C  C8  1  0.46366400  0.02505800  0.84823500  1
  C  C9  1  0.46366400  0.52505800  0.65176500  1
  C  C10  1  0.03633600  0.52505800  0.15176500  1
  C  C11  1  0.03633600  0.02505800  0.34823500  1
  C  C12  1  0.96366400  0.47494200  0.84823500  1
  C  C13  1  0.53633600  0.47494200  0.34823500  1
  C  C14  1  0.96366400  0.97494200  0.65176500  1
  C  C15  1  0.53633600  0.97494200  0.15176500  1
  Ni  Ni16  1  0.56497500  0.65972500  0.20333500  1
  Ni  Ni17  1  0.13873700  0.20386100  0.15531200  1
  Ni  Ni18  1  0.63873700  0.79613900  0.34468800  1
  Ni  Ni19  1  0.04652900  0.56134300  0.56239200  1
  Ni  Ni20  1  0.54652900  0.43865700  0.93760800  1
  Ni  Ni21  1  0.06497600  0.34027500  0.29666500  1
  Ni  Ni22  1  0.43502500  0.84027500  0.70333500  1
  Ni  Ni23  1  0.54652900  0.93865700  0.56239200  1
  Ni  Ni24  1  0.95347100  0.93865700  0.06239200  1
  Ni  Ni25  1  0.36126300  0.20386100  0.65531200  1
  Ni  Ni26  1  0.36126300  0.70386100  0.84468800  1
  Ni  Ni27  1  0.93502500  0.65972500  0.70333500  1
  Ni  Ni28  1  0.63873700  0.29613900  0.15531200  1
  Ni  Ni29  1  0.93502500  0.15972500  0.79666500  1
  Ni  Ni30  1  0.04652900  0.06134300  0.93760800  1
  Ni  Ni31  1  0.45347100  0.06134300  0.43760800  1
  Ni  Ni32  1  0.45347100  0.56134300  0.06239200  1
  Ni  Ni33  1  0.86126300  0.79613900  0.84468800  1
  Ni  Ni34  1  0.13873700  0.70386100  0.34468800  1
  Ni  Ni35  1  0.56497500  0.15972500  0.29666500  1
  Ni  Ni36  1  0.95347100  0.43865700  0.43760800  1
  Ni  Ni37  1  0.86126300  0.29613900  0.65531200  1
  Ni  Ni38  1  0.43502500  0.34027500  0.79666500  1
  Ni  Ni39  1  0.06497600  0.84027500  0.20333500  1
  Cu  Cu40  1  0.28134300  0.93375500  0.66679400  1
  Cu  Cu41  1  0.02553600  0.97352100  0.58399800  1
  Cu  Cu42  1  0.83080800  0.93995000  0.12679100  1
  Cu  Cu43  1  0.03889100  0.22466600  0.34461600  1
  Cu  Cu44  1  0.28428600  0.85070400  0.85760900  1
  Cu  Cu45  1  0.52553600  0.52647900  0.58399800  1
  Cu  Cu46  1  0.33080800  0.56005000  0.12679100  1
  Cu  Cu47  1  0.71865700  0.56624500  0.16679400  1
  Cu  Cu48  1  0.60808300  0.84257700  0.41059500  1
  Cu  Cu49  1  0.82217700  0.03820900  0.02333400  1
  Cu  Cu50  1  0.62324900  0.34749000  0.66487800  1
  Cu  Cu51  1  0.33080800  0.06005000  0.37320900  1
  Cu  Cu52  1  0.86565100  0.80513200  0.03804100  1
  Cu  Cu53  1  0.22217000  0.27071400  0.25310400  1
  Cu  Cu54  1  0.10808300  0.65742300  0.41059500  1
  Cu  Cu55  1  0.12324900  0.65251000  0.83512200  1
  Cu  Cu56  1  0.39191700  0.65742300  0.91059500  1
  Cu  Cu57  1  0.37675100  0.65251000  0.33512200  1
  Cu  Cu58  1  0.67782300  0.53820900  0.97666600  1
  Cu  Cu59  1  0.63434900  0.80513200  0.53804100  1
  Cu  Cu60  1  0.46110900  0.72466600  0.65538400  1
  Cu  Cu61  1  0.27783000  0.27071400  0.75310400  1
  Cu  Cu62  1  0.78428600  0.14929600  0.64239100  1
  Cu  Cu63  1  0.47446400  0.97352100  0.08399800  1
  Cu  Cu64  1  0.71571400  0.64929600  0.35760900  1
  Cu  Cu65  1  0.59013600  0.97788800  0.22042500  1
  Cu  Cu66  1  0.09013600  0.02211200  0.27957500  1
  Cu  Cu67  1  0.36565100  0.19486800  0.46195900  1
  Cu  Cu68  1  0.96110900  0.27533400  0.84461600  1
  Cu  Cu69  1  0.28428600  0.35070400  0.64239100  1
  Cu  Cu70  1  0.60808300  0.34257700  0.08940500  1
  Cu  Cu71  1  0.09013600  0.52211200  0.22042500  1
  Cu  Cu72  1  0.16919200  0.56005000  0.62679100  1
  Cu  Cu73  1  0.21571400  0.85070400  0.35760900  1
  Cu  Cu74  1  0.89191700  0.34257700  0.58940500  1
  Cu  Cu75  1  0.67782300  0.03820900  0.52333400  1
  Cu  Cu76  1  0.16919200  0.06005000  0.87320900  1
  Cu  Cu77  1  0.78134300  0.06624500  0.83320600  1
  Cu  Cu78  1  0.72217000  0.72928600  0.24689600  1
  Cu  Cu79  1  0.96110900  0.77533400  0.65538400  1
  Cu  Cu80  1  0.83080800  0.43995000  0.37320900  1
  Cu  Cu81  1  0.53889100  0.27533400  0.34461600  1
  Cu  Cu82  1  0.53889100  0.77533400  0.15538400  1
  Cu  Cu83  1  0.97446400  0.52647900  0.08399800  1
  Cu  Cu84  1  0.89191700  0.84257700  0.91059500  1
  Cu  Cu85  1  0.97446400  0.02647900  0.41600200  1
  Cu  Cu86  1  0.77783000  0.22928600  0.75310400  1
  Cu  Cu87  1  0.66919200  0.43995000  0.87320900  1
  Cu  Cu88  1  0.21865700  0.93375500  0.16679400  1
  Cu  Cu89  1  0.90986400  0.97788800  0.72042500  1
  Cu  Cu90  1  0.02553600  0.47352100  0.91600200  1
  Cu  Cu91  1  0.66919200  0.93995000  0.62679100  1
  Cu  Cu92  1  0.28134300  0.43375500  0.83320600  1
  Cu  Cu93  1  0.77783000  0.72928600  0.74689600  1
  Cu  Cu94  1  0.71571400  0.14929600  0.14239100  1
  Cu  Cu95  1  0.87675100  0.34749000  0.16487800  1
  Cu  Cu96  1  0.47446400  0.47352100  0.41600200  1
  Cu  Cu97  1  0.87675100  0.84749000  0.33512200  1
  Cu  Cu98  1  0.21571400  0.35070400  0.14239100  1
  Cu  Cu99  1  0.32217700  0.96179100  0.47666600  1
  Cu  Cu100  1  0.37675100  0.15251000  0.16487800  1
  Cu  Cu101  1  0.17782300  0.96179100  0.97666600  1
  Cu  Cu102  1  0.13434900  0.69486800  0.53804100  1
  Cu  Cu103  1  0.21865700  0.43375500  0.33320600  1
  Cu  Cu104  1  0.10808300  0.15742300  0.08940500  1
  Cu  Cu105  1  0.27783000  0.77071400  0.74689600  1
  Cu  Cu106  1  0.40986400  0.02211200  0.77957500  1
  Cu  Cu107  1  0.46110900  0.22466600  0.84461600  1
  Cu  Cu108  1  0.39191700  0.15742300  0.58940500  1
  Cu  Cu109  1  0.12324900  0.15251000  0.66487800  1
  Cu  Cu110  1  0.03889100  0.72466600  0.15538400  1
  Cu  Cu111  1  0.90986400  0.47788800  0.77957500  1
  Cu  Cu112  1  0.62324900  0.84749000  0.83512200  1
  Cu  Cu113  1  0.82217700  0.53820900  0.47666600  1
  Cu  Cu114  1  0.40986400  0.52211200  0.72042500  1
  Cu  Cu115  1  0.36565100  0.69486800  0.03804100  1
  Cu  Cu116  1  0.78428600  0.64929600  0.85760900  1
  Cu  Cu117  1  0.71865700  0.06624500  0.33320600  1
  Cu  Cu118  1  0.72217000  0.22928600  0.25310400  1
  Cu  Cu119  1  0.32217700  0.46179100  0.02333400  1
  Cu  Cu120  1  0.52553600  0.02647900  0.91600200  1
  Cu  Cu121  1  0.86565100  0.30513200  0.46195900  1
  Cu  Cu122  1  0.59013600  0.47788800  0.27957500  1
  Cu  Cu123  1  0.63434900  0.30513200  0.96195900  1
  Cu  Cu124  1  0.22217000  0.77071400  0.24689600  1
  Cu  Cu125  1  0.17782300  0.46179100  0.52333400  1
  Cu  Cu126  1  0.78134300  0.56624500  0.66679400  1
  Cu  Cu127  1  0.13434900  0.19486800  0.96195900  1
