# generated using pymatgen
data_CuNi5C4
_symmetry_space_group_name_H-M   'P 1'
_cell_length_a   7.43071400
_cell_length_b   11.06443800
_cell_length_c   14.31798800
_cell_angle_alpha   90.00000000
_cell_angle_beta   90.00000000
_cell_angle_gamma   90.00000000
_symmetry_Int_Tables_number   1
_chemical_formula_structural   CuNi5C4
_chemical_formula_sum   'Cu4 Ni20 C16'
_cell_volume   1177.17735673
_cell_formula_units_Z   4
loop_
 _symmetry_equiv_pos_site_id
 _symmetry_equiv_pos_as_xyz
  1  'x, y, z'
loop_
 _atom_site_type_symbol
 _atom_site_label
 _atom_site_symmetry_multiplicity
 _atom_site_fract_x
 _atom_site_fract_y
 _atom_site_fract_z
 _atom_site_occupancy
  C  C0  1  0.84736700  0.49951600  0.64462200  1
  C  C1  1  0.65263300  0.49951600  0.14462200  1
  C  C2  1  0.34736700  0.99951600  0.85537800  1
  C  C3  1  0.65263300  0.00048400  0.14462200  1
  C  C4  1  0.15263300  0.99951600  0.35537800  1
  C  C5  1  0.15263300  0.50048400  0.35537800  1
  C  C6  1  0.34736700  0.50048400  0.85537800  1
  C  C7  1  0.84736700  0.00048400  0.64462200  1
  C  C8  1  0.67883600  0.75000000  0.39086600  1
  C  C9  1  0.17883600  0.25000000  0.10913400  1
  C  C10  1  0.32116400  0.25000000  0.60913400  1
  C  C11  1  0.82116400  0.75000000  0.89086600  1
  Ni  Ni12  1  0.41402400  0.75000000  0.27588700  1
  Ni  Ni13  1  0.38621300  0.25000000  0.25019400  1
  Ni  Ni14  1  0.18882400  0.01914000  0.11359600  1
  Ni  Ni15  1  0.68882400  0.51914000  0.38640400  1
  Ni  Ni16  1  0.45819100  0.25000000  0.00412300  1
  Ni  Ni17  1  0.04180900  0.25000000  0.50412300  1
  Ni  Ni18  1  0.81117600  0.98086000  0.88640400  1
  Ni  Ni19  1  0.08597600  0.75000000  0.77588700  1
  Ni  Ni20  1  0.31117600  0.01914000  0.61359600  1
  Ni  Ni21  1  0.18882400  0.48086000  0.11359600  1
  Ni  Ni22  1  0.11378700  0.25000000  0.75019400  1
  Ni  Ni23  1  0.68882400  0.98086000  0.38640400  1
  Ni  Ni24  1  0.81117600  0.51914000  0.88640400  1
  Ni  Ni25  1  0.88621300  0.75000000  0.24980600  1
  Ni  Ni26  1  0.95819100  0.75000000  0.49587700  1
  Ni  Ni27  1  0.54180900  0.75000000  0.99587700  1
  Ni  Ni28  1  0.58597600  0.25000000  0.72411300  1
  Ni  Ni29  1  0.61378700  0.75000000  0.74980600  1
  Ni  Ni30  1  0.91402400  0.25000000  0.22411300  1
  Ni  Ni31  1  0.31117600  0.48086000  0.61359600  1
  Cu  Cu32  1  0.97442500  0.75000000  0.98262200  1
  Cu  Cu33  1  0.47442500  0.25000000  0.51737800  1
  Cu  Cu34  1  0.52557500  0.75000000  0.48262200  1
  Cu  Cu35  1  0.02557500  0.25000000  0.01737800  1
  C  C36  1  0.41326900  0.75000000  0.53969600  1
  C  C37  1  0.08673100  0.75000000  0.03969600  1
  C  C38  1  0.58673100  0.25000000  0.46030400  1
  C  C39  1  0.91326900  0.25000000  0.96030400  1
