# generated using pymatgen
data_Cu5(NiC25)2
_symmetry_space_group_name_H-M   'P 1'
_cell_length_a   10.56819800
_cell_length_b   13.82006473
_cell_length_c   15.34688899
_cell_angle_alpha   69.83926070
_cell_angle_beta   72.37141801
_cell_angle_gamma   69.84237383
_symmetry_Int_Tables_number   1
_chemical_formula_structural   Cu5(NiC25)2
_chemical_formula_sum   'Cu10 Ni4 C100'
_cell_volume   1931.67111361
_cell_formula_units_Z   2
loop_
 _symmetry_equiv_pos_site_id
 _symmetry_equiv_pos_as_xyz
  1  'x, y, z'
loop_
 _atom_site_type_symbol
 _atom_site_label
 _atom_site_symmetry_multiplicity
 _atom_site_fract_x
 _atom_site_fract_y
 _atom_site_fract_z
 _atom_site_occupancy
  C  C0  1  0.54006200  0.32978500  0.57436700  1
  C  C1  1  0.81146900  0.44339800  0.31627600  1
  C  C2  1  0.18853100  0.55660200  0.68372400  1
  C  C3  1  0.45993800  0.67021500  0.42563300  1
  C  C4  1  0.39582700  0.44985600  0.31392900  1
  C  C5  1  0.60417300  0.55014400  0.68607100  1
  C  C6  1  0.71415300  0.14759000  0.37068800  1
  C  C7  1  0.20529800  0.20602300  0.33692000  1
  C  C8  1  0.07887000  0.65231700  0.15971200  1
  C  C9  1  0.58065500  0.70053300  0.11729000  1
  C  C10  1  0.00000000  0.50000000  0.50000000  1
  C  C11  1  0.41934500  0.29946700  0.88271000  1
  C  C12  1  0.28584700  0.85241000  0.62931200  1
  C  C13  1  0.79470200  0.79397700  0.66308000  1
  C  C14  1  0.92113000  0.34768300  0.84028800  1
  Ni  Ni15  1  0.08909100  0.99736700  0.89251400  1
  Ni  Ni16  1  0.13972700  0.99463700  0.03012800  1
  Ni  Ni17  1  0.86027300  0.00536300  0.96987200  1
  Ni  Ni18  1  0.91090900  0.00263300  0.10748600  1
  Cu  Cu19  1  0.70626300  0.83755000  0.39616000  1
  Cu  Cu20  1  0.10980600  0.89898700  0.33429500  1
  Cu  Cu21  1  0.03678700  0.32433800  0.08861200  1
  Cu  Cu22  1  0.96321300  0.67566200  0.91138800  1
  Cu  Cu23  1  0.89019400  0.10101300  0.66570500  1
  Cu  Cu24  1  0.56961300  0.33878000  0.07755800  1
  Cu  Cu25  1  0.50999700  0.99681400  0.83141600  1
  Cu  Cu26  1  0.43038700  0.66122000  0.92244200  1
  Cu  Cu27  1  0.49000300  0.00318600  0.16858400  1
  Cu  Cu28  1  0.29373700  0.16245000  0.60384000  1
  C  C29  1  0.06753800  0.60519000  0.85657500  1
  C  C30  1  0.36585200  0.00046000  0.87525300  1
  C  C31  1  0.09645100  0.95109400  0.23657300  1
  C  C32  1  0.39515600  0.17992900  0.63994300  1
  C  C33  1  0.50108000  0.59459600  0.85653300  1
  C  C34  1  0.60279600  0.97566800  0.89200800  1
  C  C35  1  0.75226200  0.16318800  0.65097400  1
  C  C36  1  0.60484400  0.82007100  0.36005700  1
  C  C37  1  0.97500900  0.78285500  0.88968000  1
  C  C38  1  0.49892000  0.40540400  0.14346700  1
  C  C39  1  0.18211800  0.12635900  0.67495400  1
  C  C40  1  0.39305200  0.77543800  0.88278600  1
  C  C41  1  0.81788200  0.87364100  0.32504600  1
  C  C42  1  0.63414800  0.99954000  0.12474700  1
  C  C43  1  0.93246200  0.39481000  0.14342500  1
  C  C44  1  0.60694800  0.22456200  0.11721400  1
  C  C45  1  0.02499100  0.21714500  0.11032000  1
  C  C46  1  0.90354900  0.04890600  0.76342700  1
  C  C47  1  0.24773800  0.83681200  0.34902600  1
  C  C48  1  0.39720400  0.02433200  0.10799200  1
  C  C49  1  0.91747400  0.63029800  0.44437700  1
  C  C50  1  0.06819100  0.55184300  0.56213800  1
  C  C51  1  0.18855300  0.72777200  0.07513300  1
  C  C52  1  0.42893600  0.75204700  0.67488900  1
  C  C53  1  0.22077200  0.88445000  0.73844300  1
  C  C54  1  0.57106400  0.24795300  0.32511100  1
  C  C55  1  0.26492400  0.64328300  0.53864100  1
  C  C56  1  0.63856700  0.65698900  0.01268600  1
  C  C57  1  0.41495900  0.36320700  0.46090000  1
  C  C58  1  0.92742700  0.28965900  0.75326300  1
  C  C59  1  0.97058700  0.57012800  0.24568600  1
  C  C60  1  0.61664100  0.05406400  0.41490500  1
  C  C61  1  0.43840900  0.79751900  0.07516700  1
  C  C62  1  0.12247000  0.18381300  0.45705800  1
  C  C63  1  0.87753000  0.81618700  0.54294200  1
  C  C64  1  0.80815000  0.24778800  0.32662700  1
  C  C65  1  0.28097400  0.24059700  0.21469700  1
  C  C66  1  0.35468400  0.81527000  0.51876300  1
  C  C67  1  0.19185000  0.75221200  0.67337300  1
  C  C68  1  0.27063300  0.30465600  0.35134500  1
  C  C69  1  0.52069900  0.39454800  0.83245500  1
  C  C70  1  0.31853200  0.20881700  0.93020300  1
  C  C71  1  0.07257300  0.71034100  0.24673700  1
  C  C72  1  0.63307200  0.40647600  0.64346800  1
  C  C73  1  0.35463200  0.10612200  0.36240100  1
  C  C74  1  0.27713200  0.40142000  0.83627500  1
  C  C75  1  0.68220600  0.58771200  0.35984300  1
  C  C76  1  0.14865900  0.50506000  0.40506800  1
  C  C77  1  0.85415400  0.05465500  0.41787600  1
  C  C78  1  0.02941300  0.42987200  0.75431400  1
  C  C79  1  0.58504100  0.63679300  0.53910000  1
  C  C80  1  0.73507600  0.35671700  0.46135900  1
  C  C81  1  0.22624600  0.54671700  0.19728100  1
  C  C82  1  0.90948900  0.41306300  0.92456400  1
  C  C83  1  0.52250600  0.73917200  0.22639900  1
  C  C84  1  0.56159100  0.20248100  0.92483300  1
  C  C85  1  0.38335900  0.94593600  0.58509500  1
  C  C86  1  0.77375400  0.45328300  0.80271900  1
  C  C87  1  0.31779400  0.41228800  0.64015700  1
  C  C88  1  0.36143300  0.34301100  0.98731400  1
  C  C89  1  0.06818500  0.24899500  0.87344900  1
  C  C90  1  0.64531600  0.18473000  0.48123700  1
  C  C91  1  0.86404600  0.88317900  0.68034800  1
  C  C92  1  0.81144700  0.27222800  0.92486700  1
  C  C93  1  0.85134100  0.49494000  0.59493200  1
  C  C94  1  0.61283100  0.44150000  0.29926200  1
  C  C95  1  0.47930100  0.60545200  0.16754500  1
  C  C96  1  0.09051100  0.58693700  0.07543600  1
  C  C97  1  0.72936700  0.69534400  0.64865500  1
  C  C98  1  0.05336900  0.31489700  0.30945300  1
  C  C99  1  0.64536800  0.89387800  0.63759900  1
  C  C100  1  0.93181500  0.75100500  0.12655100  1
  C  C101  1  0.08252600  0.36970200  0.55562300  1
  C  C102  1  0.77922800  0.11555000  0.26155700  1
  C  C103  1  0.93180900  0.44815700  0.43786200  1
  C  C104  1  0.94663100  0.68510300  0.69054700  1
  C  C105  1  0.72286800  0.59858000  0.16372500  1
  C  C106  1  0.71902600  0.75940300  0.78530300  1
  C  C107  1  0.14584600  0.94534500  0.58212400  1
  C  C108  1  0.38716900  0.55850000  0.70073800  1
  C  C109  1  0.50000000  0.50000000  0.50000000  1
  C  C110  1  0.47749400  0.26082800  0.77360100  1
  C  C111  1  0.13595400  0.11682100  0.31965200  1
  C  C112  1  0.68146800  0.79118300  0.06979700  1
  C  C113  1  0.36692800  0.59352400  0.35653200  1
