# generated using pymatgen
data_CuNi3C34
_symmetry_space_group_name_H-M   'P 1'
_cell_length_a   9.05732902
_cell_length_b   9.05732902
_cell_length_c   9.05732902
_cell_angle_alpha   110.91960861
_cell_angle_beta   110.91960861
_cell_angle_gamma   106.61173314
_symmetry_Int_Tables_number   1
_chemical_formula_structural   CuNi3C34
_chemical_formula_sum   'Cu1 Ni3 C34'
_cell_volume   570.91523186
_cell_formula_units_Z   1
loop_
 _symmetry_equiv_pos_site_id
 _symmetry_equiv_pos_as_xyz
  1  'x, y, z'
loop_
 _atom_site_type_symbol
 _atom_site_label
 _atom_site_symmetry_multiplicity
 _atom_site_fract_x
 _atom_site_fract_y
 _atom_site_fract_z
 _atom_site_occupancy
  C  C0  1  0.23562500  0.23562500  0.71375000  1
  C  C1  1  0.23562500  0.52187500  0.00000000  1
  C  C2  1  0.00000000  0.50000000  0.50000000  1
  C  C3  1  0.29772600  0.95469000  0.00000000  1
  C  C4  1  0.04531000  0.70227400  0.00000000  1
  C  C5  1  0.04531000  0.04531000  0.34303600  1
  C  C6  1  0.47812500  0.76437500  0.00000000  1
  C  C7  1  0.95469000  0.95469000  0.65696400  1
  C  C8  1  0.47812500  0.47812500  0.71375000  1
  C  C9  1  0.29772600  0.29772600  0.34303600  1
  C  C10  1  0.95469000  0.29772600  0.00000000  1
  C  C11  1  0.52187500  0.52187500  0.28625000  1
  C  C12  1  0.76437500  0.76437500  0.28625000  1
  C  C13  1  0.52187500  0.23562500  0.00000000  1
  C  C14  1  0.70227400  0.70227400  0.65696400  1
  C  C15  1  0.50000000  0.00000000  0.50000000  1
  C  C16  1  0.76437500  0.47812500  0.00000000  1
  C  C17  1  0.70227400  0.04531000  0.00000000  1
  Ni  Ni18  1  0.75000000  0.25000000  0.50000000  1
  Ni  Ni19  1  0.25000000  0.75000000  0.50000000  1
  Ni  Ni20  1  0.00000000  0.00000000  0.00000000  1
  Cu  Cu21  1  0.50000000  0.50000000  0.00000000  1
  C  C22  1  0.75947600  0.53218800  0.77271200  1
  C  C23  1  0.46781200  0.24052400  0.22728800  1
  C  C24  1  0.16350400  0.34765300  0.51115600  1
  C  C25  1  0.83649600  0.65234700  0.48884400  1
  C  C26  1  0.34765300  0.83649600  0.18414900  1
  C  C27  1  0.83649600  0.34765300  0.18414900  1
  C  C28  1  0.65234700  0.83649600  0.48884400  1
  C  C29  1  0.16350400  0.65234700  0.81585100  1
  C  C30  1  0.24052400  0.01323600  0.77271200  1
  C  C31  1  0.34765300  0.16350400  0.51115600  1
  C  C32  1  0.01323600  0.24052400  0.77271200  1
  C  C33  1  0.24052400  0.46781200  0.22728800  1
  C  C34  1  0.65234700  0.16350400  0.81585100  1
  C  C35  1  0.98676400  0.75947600  0.22728800  1
  C  C36  1  0.75947600  0.98676400  0.22728800  1
  C  C37  1  0.53218800  0.75947600  0.77271200  1
