# generated using pymatgen
data_Cu2Ni3C11
_symmetry_space_group_name_H-M   'P 1'
_cell_length_a   6.77785000
_cell_length_b   14.24831700
_cell_length_c   21.37760200
_cell_angle_alpha   90.00000000
_cell_angle_beta   90.00000000
_cell_angle_gamma   90.00000000
_symmetry_Int_Tables_number   1
_chemical_formula_structural   Cu2Ni3C11
_chemical_formula_sum   'Cu16 Ni24 C88'
_cell_volume   2064.49820404
_cell_formula_units_Z   8
loop_
 _symmetry_equiv_pos_site_id
 _symmetry_equiv_pos_as_xyz
  1  'x, y, z'
loop_
 _atom_site_type_symbol
 _atom_site_label
 _atom_site_symmetry_multiplicity
 _atom_site_fract_x
 _atom_site_fract_y
 _atom_site_fract_z
 _atom_site_occupancy
  C  C0  1  0.18395000  0.88657300  0.43811400  1
  C  C1  1  0.69828800  0.36975400  0.63409400  1
  C  C2  1  0.30171200  0.63024600  0.13409400  1
  C  C3  1  0.69828800  0.13024600  0.13409400  1
  C  C4  1  0.81605000  0.11342700  0.93811400  1
  C  C5  1  0.30171200  0.86975400  0.63409400  1
  C  C6  1  0.18395000  0.61342700  0.93811400  1
  C  C7  1  0.81605000  0.38657300  0.43811400  1
  Ni  Ni8  1  0.46502200  0.64049400  0.79171300  1
  Ni  Ni9  1  0.29481400  0.26788700  0.49698700  1
  Ni  Ni10  1  0.98935400  0.10802500  0.28156700  1
  Ni  Ni11  1  0.64109300  0.48985100  0.91515400  1
  Ni  Ni12  1  0.29481400  0.23211300  0.99698700  1
  Ni  Ni13  1  0.70518600  0.73211300  0.99698700  1
  Ni  Ni14  1  0.98935400  0.39197500  0.78156700  1
  Ni  Ni15  1  0.53497800  0.35950600  0.29171300  1
  Ni  Ni16  1  0.46502200  0.85950600  0.29171300  1
  Ni  Ni17  1  0.01064600  0.60802500  0.28156700  1
  Ni  Ni18  1  0.78744800  0.98961700  0.57417700  1
  Ni  Ni19  1  0.21255200  0.01038300  0.07417700  1
  Ni  Ni20  1  0.01064600  0.89197500  0.78156700  1
  Ni  Ni21  1  0.78744800  0.51038300  0.07417700  1
  Ni  Ni22  1  0.35890700  0.98985100  0.91515400  1
  Ni  Ni23  1  0.84034600  0.74394200  0.65589400  1
  Ni  Ni24  1  0.53497800  0.14049400  0.79171300  1
  Ni  Ni25  1  0.21255200  0.48961700  0.57417700  1
  Ni  Ni26  1  0.15965400  0.25605800  0.15589400  1
  Ni  Ni27  1  0.84034600  0.75605800  0.15589400  1
  Ni  Ni28  1  0.70518600  0.76788700  0.49698700  1
  Ni  Ni29  1  0.64109300  0.01014900  0.41515400  1
  Ni  Ni30  1  0.35890700  0.51014900  0.41515400  1
  Ni  Ni31  1  0.15965400  0.24394200  0.65589400  1
  Cu  Cu32  1  0.30488400  0.03653200  0.53763000  1
  Cu  Cu33  1  0.96544600  0.60524500  0.80882500  1
  Cu  Cu34  1  0.51589900  0.64376000  0.26404400  1
  Cu  Cu35  1  0.18948500  0.78050300  0.03407200  1
  Cu  Cu36  1  0.48410100  0.14376000  0.26404400  1
  Cu  Cu37  1  0.81051500  0.28050300  0.03407200  1
  Cu  Cu38  1  0.03455400  0.10524500  0.80882500  1
  Cu  Cu39  1  0.48410100  0.35624000  0.76404400  1
  Cu  Cu40  1  0.69511600  0.96346800  0.03763000  1
  Cu  Cu41  1  0.51589900  0.85624000  0.76404400  1
  Cu  Cu42  1  0.96544600  0.89475500  0.30882500  1
  Cu  Cu43  1  0.30488400  0.46346800  0.03763000  1
  Cu  Cu44  1  0.69511600  0.53653200  0.53763000  1
  Cu  Cu45  1  0.18948500  0.71949700  0.53407200  1
  Cu  Cu46  1  0.03455400  0.39475500  0.30882500  1
  Cu  Cu47  1  0.81051500  0.21949700  0.53407200  1
  C  C48  1  0.55891500  0.80709500  0.70049600  1
  C  C49  1  0.07716600  0.44786600  0.37093400  1
  C  C50  1  0.12477200  0.72606800  0.60366800  1
  C  C51  1  0.87522800  0.22606800  0.60366800  1
  C  C52  1  0.46732000  0.72105500  0.31483900  1
  C  C53  1  0.24710700  0.17421400  0.08278800  1
  C  C54  1  0.66612000  0.42099200  0.75690500  1
  C  C55  1  0.02771700  0.75728100  0.48855900  1
  C  C56  1  0.50491500  0.10064400  0.88012500  1
  C  C57  1  0.97228300  0.25728100  0.48855900  1
  C  C58  1  0.87522800  0.27393200  0.10366800  1
  C  C59  1  0.44108500  0.30709500  0.70049600  1
  C  C60  1  0.00070400  0.96997400  0.25571300  1
  C  C61  1  0.84511800  0.33536600  0.31754500  1
  C  C62  1  0.46601900  0.99794300  0.58283800  1
  C  C63  1  0.69117700  0.91590500  0.78748500  1
  C  C64  1  0.00836900  0.14860200  0.19299400  1
  C  C65  1  0.26070700  0.06820400  0.98813600  1
  C  C66  1  0.24710700  0.32578600  0.58278800  1
  C  C67  1  0.99163100  0.64860200  0.19299400  1
  C  C68  1  0.63398600  0.52757000  0.46770200  1
  C  C69  1  0.33388000  0.92099200  0.75690500  1
  C  C70  1  0.15488200  0.83536600  0.31754500  1
  C  C71  1  0.79569500  0.82891700  0.28938300  1
  C  C72  1  0.99929600  0.46997400  0.25571300  1
  C  C73  1  0.62463300  0.21927700  0.02412500  1
  C  C74  1  0.30882300  0.41590500  0.78748500  1
  C  C75  1  0.92283400  0.55213400  0.87093400  1
  C  C76  1  0.26894700  0.14239600  0.55315300  1
  C  C77  1  0.23380900  0.61437300  0.51728200  1
  C  C78  1  0.69117700  0.58409500  0.28748500  1
  C  C79  1  0.79569500  0.67108300  0.78938300  1
  C  C80  1  0.00070400  0.53002600  0.75571300  1
  C  C81  1  0.37536700  0.78072300  0.52412500  1
  C  C82  1  0.49508500  0.60064400  0.88012500  1
  C  C83  1  0.84511800  0.16463400  0.81754500  1
  C  C84  1  0.26894700  0.35760400  0.05315300  1
  C  C85  1  0.20430500  0.32891700  0.28938300  1
  C  C86  1  0.11728000  0.52280600  0.04836000  1
  C  C87  1  0.23380900  0.88562700  0.01728200  1
  C  C88  1  0.62463300  0.28072300  0.52412500  1
  C  C89  1  0.02771700  0.74271900  0.98855900  1
  C  C90  1  0.73929300  0.56820400  0.98813600  1
  C  C91  1  0.37536700  0.71927700  0.02412500  1
  C  C92  1  0.75289300  0.82578600  0.58278800  1
  C  C93  1  0.50491500  0.39935600  0.38012500  1
  C  C94  1  0.49508500  0.89935600  0.38012500  1
  C  C95  1  0.11728000  0.97719400  0.54836000  1
  C  C96  1  0.53268000  0.27894500  0.81483900  1
  C  C97  1  0.26070700  0.43179600  0.48813600  1
  C  C98  1  0.44108500  0.19290500  0.20049600  1
  C  C99  1  0.46732000  0.77894500  0.81483900  1
  C  C100  1  0.00836900  0.35139800  0.69299400  1
  C  C101  1  0.73105300  0.64239600  0.55315300  1
  C  C102  1  0.30882300  0.08409500  0.28748500  1
  C  C103  1  0.99163100  0.85139800  0.69299400  1
  C  C104  1  0.66612000  0.07900800  0.25690500  1
  C  C105  1  0.99929600  0.03002600  0.75571300  1
  C  C106  1  0.36601400  0.02757000  0.46770200  1
  C  C107  1  0.63398600  0.97243000  0.96770200  1
  C  C108  1  0.20430500  0.17108300  0.78938300  1
  C  C109  1  0.88272000  0.02280600  0.04836000  1
  C  C110  1  0.88272000  0.47719400  0.54836000  1
  C  C111  1  0.53398100  0.49794300  0.58283800  1
  C  C112  1  0.46601900  0.50205700  0.08283800  1
  C  C113  1  0.36601400  0.47243000  0.96770200  1
  C  C114  1  0.97228300  0.24271900  0.98855900  1
  C  C115  1  0.53398100  0.00205700  0.08283800  1
  C  C116  1  0.53268000  0.22105500  0.31483900  1
  C  C117  1  0.73929300  0.93179600  0.48813600  1
  C  C118  1  0.55891500  0.69290500  0.20049600  1
  C  C119  1  0.76619100  0.38562700  0.01728200  1
  C  C120  1  0.92283400  0.94786600  0.37093400  1
  C  C121  1  0.33388000  0.57900800  0.25690500  1
  C  C122  1  0.12477200  0.77393200  0.10366800  1
  C  C123  1  0.15488200  0.66463400  0.81754500  1
  C  C124  1  0.76619100  0.11437300  0.51728200  1
  C  C125  1  0.75289300  0.67421400  0.08278800  1
  C  C126  1  0.07716600  0.05213400  0.87093400  1
  C  C127  1  0.73105300  0.85760400  0.05315300  1
