# generated using pymatgen
data_Cu(NiC2)2
_symmetry_space_group_name_H-M   'P 1'
_cell_length_a   6.14868576
_cell_length_b   6.14868576
_cell_length_c   4.76230000
_cell_angle_alpha   90.00000000
_cell_angle_beta   90.00000000
_cell_angle_gamma   119.99999743
_symmetry_Int_Tables_number   1
_chemical_formula_structural   Cu(NiC2)2
_chemical_formula_sum   'Cu2 Ni4 C8'
_cell_volume   155.92364896
_cell_formula_units_Z   2
loop_
 _symmetry_equiv_pos_site_id
 _symmetry_equiv_pos_as_xyz
  1  'x, y, z'
loop_
 _atom_site_type_symbol
 _atom_site_label
 _atom_site_symmetry_multiplicity
 _atom_site_fract_x
 _atom_site_fract_y
 _atom_site_fract_z
 _atom_site_occupancy
  Ni  Ni0  1  0.50000000  0.50000000  0.50000000  1
  Ni  Ni1  1  0.00000000  0.00000000  0.50000000  1
  Ni  Ni2  1  0.50000000  0.00000000  0.50000000  1
  Ni  Ni3  1  0.00000000  0.50000000  0.50000000  1
  Cu  Cu4  1  0.66666700  0.33333300  0.89971700  1
  Cu  Cu5  1  0.33333300  0.66666700  0.10028300  1
  C  C6  1  0.33333300  0.66666700  0.76126600  1
  C  C7  1  0.19162200  0.38324400  0.25827300  1
  C  C8  1  0.61675600  0.80837800  0.25827300  1
  C  C9  1  0.80837800  0.19162200  0.74172700  1
  C  C10  1  0.66666700  0.33333300  0.23873400  1
  C  C11  1  0.80837800  0.61675600  0.74172700  1
  C  C12  1  0.38324400  0.19162200  0.74172700  1
  C  C13  1  0.19162200  0.80837800  0.25827300  1
