# generated using pymatgen
data_CuNiC7
_symmetry_space_group_name_H-M   'P 1'
_cell_length_a   6.09858000
_cell_length_b   8.28165300
_cell_length_c   12.03060600
_cell_angle_alpha   90.00000000
_cell_angle_beta   90.00000000
_cell_angle_gamma   90.00000000
_symmetry_Int_Tables_number   1
_chemical_formula_structural   CuNiC7
_chemical_formula_sum   'Cu4 Ni4 C28'
_cell_volume   607.62167677
_cell_formula_units_Z   4
loop_
 _symmetry_equiv_pos_site_id
 _symmetry_equiv_pos_as_xyz
  1  'x, y, z'
loop_
 _atom_site_type_symbol
 _atom_site_label
 _atom_site_symmetry_multiplicity
 _atom_site_fract_x
 _atom_site_fract_y
 _atom_site_fract_z
 _atom_site_occupancy
  Ni  Ni0  1  0.03762400  0.75554800  0.45778000  1
  Ni  Ni1  1  0.53762400  0.25554800  0.04222000  1
  Ni  Ni2  1  0.46237600  0.75554800  0.95778000  1
  Ni  Ni3  1  0.96237600  0.25554800  0.54222000  1
  Cu  Cu4  1  0.44705200  0.50113000  0.64883500  1
  Cu  Cu5  1  0.55294800  0.00113000  0.35116500  1
  Cu  Cu6  1  0.94705200  0.00113000  0.85116500  1
  Cu  Cu7  1  0.05294800  0.50113000  0.14883500  1
  C  C8  1  0.45143200  0.99965600  0.63702000  1
  C  C9  1  0.04856800  0.99965600  0.13702000  1
  C  C10  1  0.54856800  0.49965600  0.36298000  1
  C  C11  1  0.95143200  0.49965600  0.86298000  1
  C  C12  1  0.64648000  0.26976900  0.37252400  1
  C  C13  1  0.16938800  0.06327500  0.70959100  1
  C  C14  1  0.77914200  0.95808000  0.04342400  1
  C  C15  1  0.45157200  0.73099800  0.35887100  1
  C  C16  1  0.35352000  0.76976900  0.62747600  1
  C  C17  1  0.54842800  0.23099800  0.64112900  1
  C  C18  1  0.10089300  0.45531900  0.71812600  1
  C  C19  1  0.27914200  0.45808000  0.45657600  1
  C  C20  1  0.70942600  0.53632500  0.50858100  1
  C  C21  1  0.66938800  0.56327500  0.79040900  1
  C  C22  1  0.39910700  0.45531900  0.21812600  1
  C  C23  1  0.89910700  0.95531900  0.28187400  1
  C  C24  1  0.22085800  0.45808000  0.95657600  1
  C  C25  1  0.72085800  0.95808000  0.54342400  1
  C  C26  1  0.20942600  0.03632500  0.99141900  1
  C  C27  1  0.95157200  0.23099800  0.14112900  1
  C  C28  1  0.79057400  0.53632500  0.00858100  1
  C  C29  1  0.83061200  0.56327500  0.29040900  1
  C  C30  1  0.04842800  0.73099800  0.85887100  1
  C  C31  1  0.33061200  0.06327500  0.20959100  1
  C  C32  1  0.29057400  0.03632500  0.49141900  1
  C  C33  1  0.85352000  0.26976900  0.87252400  1
  C  C34  1  0.60089300  0.95531900  0.78187400  1
  C  C35  1  0.14648000  0.76976900  0.12747600  1
