# generated using pymatgen
data_Cu(NiC)2
_symmetry_space_group_name_H-M   'P 1'
_cell_length_a   8.73812728
_cell_length_b   8.73812728
_cell_length_c   12.96651500
_cell_angle_alpha   90.00000000
_cell_angle_beta   90.00000000
_cell_angle_gamma   119.99999456
_symmetry_Int_Tables_number   1
_chemical_formula_structural   Cu(NiC)2
_chemical_formula_sum   'Cu12 Ni24 C24'
_cell_volume   857.41416727
_cell_formula_units_Z   12
loop_
 _symmetry_equiv_pos_site_id
 _symmetry_equiv_pos_as_xyz
  1  'x, y, z'
loop_
 _atom_site_type_symbol
 _atom_site_label
 _atom_site_symmetry_multiplicity
 _atom_site_fract_x
 _atom_site_fract_y
 _atom_site_fract_z
 _atom_site_occupancy
  C  C0  1  0.66666700  0.33333300  0.01819500  1
  C  C1  1  0.33333300  0.66666700  0.98180400  1
  C  C2  1  0.66666700  0.33333300  0.48180500  1
  C  C3  1  0.33333300  0.66666700  0.51819600  1
  C  C4  1  0.33333300  0.66666700  0.75000000  1
  C  C5  1  0.66666700  0.33333300  0.25000000  1
  C  C6  1  0.97317300  0.63693500  0.85701800  1
  C  C7  1  0.66376200  0.02682700  0.64298200  1
  C  C8  1  0.36306500  0.33623800  0.85701800  1
  C  C9  1  0.33623800  0.97317300  0.14298200  1
  C  C10  1  0.97317300  0.63693500  0.64298200  1
  C  C11  1  0.02682700  0.36306500  0.35701800  1
  C  C12  1  0.63693500  0.66376200  0.35701800  1
  C  C13  1  0.33623800  0.97317300  0.35701800  1
  C  C14  1  0.63693500  0.66376200  0.14298200  1
  C  C15  1  0.02682700  0.36306500  0.14298200  1
  C  C16  1  0.36306500  0.33623800  0.64298200  1
  C  C17  1  0.66376200  0.02682700  0.85701800  1
  C  C18  1  0.27791700  0.87612000  0.25000000  1
  C  C19  1  0.59820200  0.72208300  0.25000000  1
  C  C20  1  0.72208300  0.12388000  0.75000000  1
  C  C21  1  0.40179800  0.27791700  0.75000000  1
  C  C22  1  0.12388000  0.40179800  0.25000000  1
  C  C23  1  0.87612000  0.59820200  0.75000000  1
  Ni  Ni24  1  0.15612500  0.44292000  0.06305800  1
  Ni  Ni25  1  0.15612500  0.44292000  0.43694200  1
  Ni  Ni26  1  0.87286000  0.38487800  0.36044000  1
  Ni  Ni27  1  0.71320500  0.15612500  0.56305800  1
  Ni  Ni28  1  0.38487800  0.51201800  0.63956000  1
  Ni  Ni29  1  0.51201800  0.12714000  0.36044000  1
  Ni  Ni30  1  0.84387500  0.55708000  0.56305800  1
  Ni  Ni31  1  0.84387500  0.55708000  0.93694200  1
  Ni  Ni32  1  0.55708000  0.71320500  0.06305800  1
  Ni  Ni33  1  0.61512200  0.48798200  0.13956000  1
  Ni  Ni34  1  0.44292000  0.28679500  0.93694200  1
  Ni  Ni35  1  0.55708000  0.71320500  0.43694200  1
  Ni  Ni36  1  0.12714000  0.61512200  0.86044000  1
  Ni  Ni37  1  0.12714000  0.61512200  0.63956000  1
  Ni  Ni38  1  0.51201800  0.12714000  0.13956000  1
  Ni  Ni39  1  0.48798200  0.87286000  0.63956000  1
  Ni  Ni40  1  0.61512200  0.48798200  0.36044000  1
  Ni  Ni41  1  0.71320500  0.15612500  0.93694200  1
  Ni  Ni42  1  0.48798200  0.87286000  0.86044000  1
  Ni  Ni43  1  0.28679500  0.84387500  0.06305800  1
  Ni  Ni44  1  0.87286000  0.38487800  0.13956000  1
  Ni  Ni45  1  0.44292000  0.28679500  0.56305800  1
  Ni  Ni46  1  0.28679500  0.84387500  0.43694200  1
  Ni  Ni47  1  0.38487800  0.51201800  0.86044000  1
  Cu  Cu48  1  0.20908600  0.05347400  0.37245200  1
  Cu  Cu49  1  0.79091400  0.94652600  0.62754800  1
  Cu  Cu50  1  0.05347400  0.84438800  0.62754800  1
  Cu  Cu51  1  0.05347400  0.84438800  0.87245200  1
  Cu  Cu52  1  0.94652600  0.15561200  0.12754800  1
  Cu  Cu53  1  0.15561200  0.20908600  0.62754800  1
  Cu  Cu54  1  0.94652600  0.15561200  0.37245200  1
  Cu  Cu55  1  0.79091400  0.94652600  0.87245200  1
  Cu  Cu56  1  0.15561200  0.20908600  0.87245200  1
  Cu  Cu57  1  0.20908600  0.05347400  0.12754800  1
  Cu  Cu58  1  0.84438800  0.79091400  0.12754800  1
  Cu  Cu59  1  0.84438800  0.79091400  0.37245200  1
