# generated using pymatgen
data_Cu3Ni2C5
_symmetry_space_group_name_H-M   'P 1'
_cell_length_a   10.35980900
_cell_length_b   6.44599200
_cell_length_c   12.62575273
_cell_angle_alpha   68.88487024
_cell_angle_beta   90.00000000
_cell_angle_gamma   90.00000000
_symmetry_Int_Tables_number   1
_chemical_formula_structural   Cu3Ni2C5
_chemical_formula_sum   'Cu12 Ni8 C20'
_cell_volume   786.52862980
_cell_formula_units_Z   4
loop_
 _symmetry_equiv_pos_site_id
 _symmetry_equiv_pos_as_xyz
  1  'x, y, z'
loop_
 _atom_site_type_symbol
 _atom_site_label
 _atom_site_symmetry_multiplicity
 _atom_site_fract_x
 _atom_site_fract_y
 _atom_site_fract_z
 _atom_site_occupancy
  Ni  Ni0  1  0.72655500  0.28399900  0.60832700  1
  Ni  Ni1  1  0.22655500  0.71600100  0.89167300  1
  Ni  Ni2  1  0.27344500  0.71600100  0.39167300  1
  Ni  Ni3  1  0.77344500  0.28399900  0.10832700  1
  Ni  Ni4  1  0.50227400  0.27388700  0.36529600  1
  Ni  Ni5  1  0.00227400  0.72611300  0.13470400  1
  Ni  Ni6  1  0.49772600  0.72611300  0.63470400  1
  Ni  Ni7  1  0.99772600  0.27388700  0.86529600  1
  Cu  Cu8  1  0.25504100  0.39013800  0.20129600  1
  Cu  Cu9  1  0.75504100  0.60986200  0.29870400  1
  Cu  Cu10  1  0.74495900  0.60986200  0.79870400  1
  Cu  Cu11  1  0.24495900  0.39013800  0.70129600  1
  Cu  Cu12  1  0.02949100  0.08785100  0.29530300  1
  Cu  Cu13  1  0.52949100  0.91214900  0.20469700  1
  Cu  Cu14  1  0.97050900  0.91214900  0.70469700  1
  Cu  Cu15  1  0.47050900  0.08785100  0.79530300  1
  Cu  Cu16  1  0.48858800  0.63852500  0.06809800  1
  Cu  Cu17  1  0.98858800  0.36147500  0.43190200  1
  Cu  Cu18  1  0.51141200  0.36147500  0.93190200  1
  Cu  Cu19  1  0.01141200  0.63852500  0.56809800  1
  C  C20  1  0.21589000  0.10277200  0.56407600  1
  C  C21  1  0.71589000  0.89722800  0.93592400  1
  C  C22  1  0.78411000  0.89722800  0.43592400  1
  C  C23  1  0.28411000  0.10277200  0.06407600  1
  C  C24  1  0.31814800  0.76118100  0.14934700  1
  C  C25  1  0.81814800  0.23881900  0.35065300  1
  C  C26  1  0.68185200  0.23881900  0.85065300  1
  C  C27  1  0.18185200  0.76118100  0.64934700  1
  C  C28  1  0.19005600  0.22131400  0.38680900  1
  C  C29  1  0.69005600  0.77868600  0.11319100  1
  C  C30  1  0.80994400  0.77868600  0.61319100  1
  C  C31  1  0.30994400  0.22131400  0.88680900  1
  C  C32  1  0.10730200  0.21355400  0.10828100  1
  C  C33  1  0.60730200  0.78644600  0.39171900  1
  C  C34  1  0.89269800  0.78644600  0.89171900  1
  C  C35  1  0.39269800  0.21355400  0.60828100  1
  C  C36  1  0.06533700  0.26183300  0.62310400  1
  C  C37  1  0.56533700  0.73816700  0.87689600  1
  C  C38  1  0.93466300  0.73816700  0.37689600  1
  C  C39  1  0.43466300  0.26183300  0.12310400  1
