# generated using pymatgen
data_Cu4Ni2C11
_symmetry_space_group_name_H-M   'P 1'
_cell_length_a   11.57029900
_cell_length_b   8.30739500
_cell_length_c   9.39062158
_cell_angle_alpha   73.10238676
_cell_angle_beta   90.00000000
_cell_angle_gamma   90.00000000
_symmetry_Int_Tables_number   1
_chemical_formula_structural   Cu4Ni2C11
_chemical_formula_sum   'Cu8 Ni4 C22'
_cell_volume   863.64768127
_cell_formula_units_Z   2
loop_
 _symmetry_equiv_pos_site_id
 _symmetry_equiv_pos_as_xyz
  1  'x, y, z'
loop_
 _atom_site_type_symbol
 _atom_site_label
 _atom_site_symmetry_multiplicity
 _atom_site_fract_x
 _atom_site_fract_y
 _atom_site_fract_z
 _atom_site_occupancy
  Ni  Ni0  1  0.98472800  0.77097800  0.43301800  1
  Ni  Ni1  1  0.48472800  0.22902200  0.56698200  1
  Ni  Ni2  1  0.01527200  0.22902200  0.56698200  1
  Ni  Ni3  1  0.51527200  0.77097800  0.43301800  1
  Cu  Cu4  1  0.75000000  0.61072000  0.16461700  1
  Cu  Cu5  1  0.04633400  0.72131400  0.95228900  1
  Cu  Cu6  1  0.45366600  0.72131400  0.95228900  1
  Cu  Cu7  1  0.54633400  0.27868600  0.04771100  1
  Cu  Cu8  1  0.25000000  0.38928000  0.83538300  1
  Cu  Cu9  1  0.95366600  0.27868600  0.04771100  1
  Cu  Cu10  1  0.75000000  0.62867500  0.78095500  1
  Cu  Cu11  1  0.25000000  0.37132500  0.21904500  1
  C  C12  1  0.08095700  0.09987500  0.31530900  1
  C  C13  1  0.90650300  0.89274800  0.12335400  1
  C  C14  1  0.75000000  0.26082700  0.86283500  1
  C  C15  1  0.99703500  0.49929000  0.29887300  1
  C  C16  1  0.09349700  0.10725200  0.87664600  1
  C  C17  1  0.91904300  0.90012500  0.68469100  1
  C  C18  1  0.49703500  0.50071000  0.70112700  1
  C  C19  1  0.75000000  0.66903100  0.46114700  1
  C  C20  1  0.40650300  0.10725200  0.87664600  1
  C  C21  1  0.25000000  0.75920000  0.75319100  1
  C  C22  1  0.00296500  0.50071000  0.70112700  1
  C  C23  1  0.25000000  0.73917300  0.13716500  1
  C  C24  1  0.58095700  0.90012500  0.68469100  1
  C  C25  1  0.75000000  0.24080000  0.24680900  1
  C  C26  1  0.25000000  0.33096900  0.53885300  1
  C  C27  1  0.50296500  0.49929000  0.29887300  1
  C  C28  1  0.59349700  0.89274800  0.12335400  1
  C  C29  1  0.41904300  0.09987500  0.31530900  1
  C  C30  1  0.61948000  0.55205800  0.98635500  1
  C  C31  1  0.38052000  0.44794200  0.01364500  1
  C  C32  1  0.88052000  0.55205800  0.98635500  1
  C  C33  1  0.11948000  0.44794200  0.01364500  1
