# generated using pymatgen
data_Cu7NiC20
_symmetry_space_group_name_H-M   'P 1'
_cell_length_a   5.36805000
_cell_length_b   5.53392500
_cell_length_c   39.24638072
_cell_angle_alpha   89.80141967
_cell_angle_beta   90.00000000
_cell_angle_gamma   90.00000000
_symmetry_Int_Tables_number   1
_chemical_formula_structural   Cu7NiC20
_chemical_formula_sum   'Cu21 Ni3 C60'
_cell_volume   1165.86113616
_cell_formula_units_Z   3
loop_
 _symmetry_equiv_pos_site_id
 _symmetry_equiv_pos_as_xyz
  1  'x, y, z'
loop_
 _atom_site_type_symbol
 _atom_site_label
 _atom_site_symmetry_multiplicity
 _atom_site_fract_x
 _atom_site_fract_y
 _atom_site_fract_z
 _atom_site_occupancy
  Ni  Ni0  1  0.00000000  0.50307700  0.54577700  1
  Ni  Ni1  1  0.00000000  0.50292000  0.21357100  1
  Ni  Ni2  1  0.50000000  0.50198200  0.04835600  1
  Cu  Cu3  1  0.00000000  0.51134900  0.88103000  1
  Cu  Cu4  1  0.00000000  0.01518700  0.95490400  1
  Cu  Cu5  1  0.50000000  0.51357000  0.71275800  1
  Cu  Cu6  1  0.50000000  0.01533500  0.78632200  1
  Cu  Cu7  1  0.50000000  0.98436800  0.88132800  1
  Cu  Cu8  1  0.50000000  0.48611700  0.95584400  1
  Cu  Cu9  1  0.00000000  0.01864900  0.61761600  1
  Cu  Cu10  1  0.00000000  0.98323700  0.71325600  1
  Cu  Cu11  1  0.00000000  0.48658800  0.78713300  1
  Cu  Cu12  1  0.50000000  0.51297500  0.37920100  1
  Cu  Cu13  1  0.50000000  0.01260100  0.45289300  1
  Cu  Cu14  1  0.50000000  0.97973700  0.54491500  1
  Cu  Cu15  1  0.50000000  0.49187000  0.61858400  1
  Cu  Cu16  1  0.00000000  0.01477100  0.28561700  1
  Cu  Cu17  1  0.00000000  0.98519000  0.37917500  1
  Cu  Cu18  1  0.00000000  0.48373900  0.45364000  1
  Cu  Cu19  1  0.50000000  0.01360800  0.11999600  1
  Cu  Cu20  1  0.50000000  0.98288600  0.21248200  1
  Cu  Cu21  1  0.50000000  0.48675100  0.28568400  1
  Cu  Cu22  1  0.00000000  0.98102600  0.04751100  1
  Cu  Cu23  1  0.00000000  0.48755100  0.12121300  1
  C  C24  1  0.00000000  0.99855600  0.83510700  1
  C  C25  1  0.50000000  0.00314600  0.66385900  1
  C  C26  1  0.50000000  0.50069200  0.83384100  1
  C  C27  1  0.00000000  0.99592800  0.50004100  1
  C  C28  1  0.00000000  0.49776200  0.66576100  1
  C  C29  1  0.50000000  0.49710500  0.49913500  1
  C  C30  1  0.00000000  0.49885700  0.33202500  1
  C  C31  1  0.50000000  0.99627800  0.00213900  1
  C  C32  1  0.50000000  0.49802200  0.16601100  1
  C  C33  1  0.50000000  0.99982200  0.33346900  1
  C  C34  1  0.00000000  0.49952400  0.00153800  1
  C  C35  1  0.00000000  0.99710400  0.16792200  1
  C  C36  1  0.24642500  0.75063200  0.99542900  1
  C  C37  1  0.00000000  0.94913100  0.89238500  1
  C  C38  1  0.00000000  0.44267500  0.93766800  1
  C  C39  1  0.74501300  0.74427400  0.82879500  1
  C  C40  1  0.74577400  0.25692700  0.83759400  1
  C  C41  1  0.75357500  0.75063200  0.99542900  1
  C  C42  1  0.50000000  0.94455500  0.72766400  1
  C  C43  1  0.50000000  0.43245800  0.77062700  1
  C  C44  1  0.50000000  0.56577700  0.89642500  1
  C  C45  1  0.50000000  0.05612900  0.93816700  1
  C  C46  1  0.24609800  0.74346600  0.66348300  1
  C  C47  1  0.24565600  0.25482400  0.67235700  1
  C  C48  1  0.25498700  0.74427400  0.82879500  1
  C  C49  1  0.25422600  0.25692700  0.83759400  1
  C  C50  1  0.00000000  0.96542400  0.56065800  1
  C  C51  1  0.00000000  0.43320200  0.60718500  1
  C  C52  1  0.00000000  0.56688300  0.73012400  1
  C  C53  1  0.00000000  0.05381400  0.77342500  1
  C  C54  1  0.74602300  0.75032000  0.49505500  1
  C  C55  1  0.74499000  0.24304700  0.50130200  1
  C  C56  1  0.75390200  0.74346600  0.66348300  1
  C  C57  1  0.75434400  0.25482400  0.67235700  1
  C  C58  1  0.50000000  0.94347500  0.39417100  1
  C  C59  1  0.50000000  0.44531200  0.43753500  1
  C  C60  1  0.50000000  0.56606500  0.56223200  1
  C  C61  1  0.50000000  0.05083400  0.60739600  1
  C  C62  1  0.25184600  0.75101400  0.32968900  1
  C  C63  1  0.25171800  0.24819200  0.33758300  1
  C  C64  1  0.25397700  0.75032000  0.49505500  1
  C  C65  1  0.25501000  0.24304700  0.50130200  1
  C  C66  1  0.00000000  0.96877000  0.22816100  1
  C  C67  1  0.00000000  0.44790900  0.27630900  1
  C  C68  1  0.00000000  0.55424900  0.39427600  1
  C  C69  1  0.00000000  0.05556300  0.43753200  1
  C  C70  1  0.74949500  0.75344000  0.16288000  1
  C  C71  1  0.74797700  0.24160300  0.16898000  1
  C  C72  1  0.74815400  0.75101400  0.32968900  1
  C  C73  1  0.74828200  0.24819200  0.33758300  1
  C  C74  1  0.50000000  0.97466500  0.06082000  1
  C  C75  1  0.50000000  0.45680900  0.11070300  1
  C  C76  1  0.50000000  0.55377300  0.22764600  1
  C  C77  1  0.50000000  0.05611100  0.27179000  1
  C  C78  1  0.24494600  0.24514800  0.00146700  1
  C  C79  1  0.25050500  0.75344000  0.16288000  1
  C  C80  1  0.25202300  0.24160300  0.16898000  1
  C  C81  1  0.00000000  0.56027400  0.06252600  1
  C  C82  1  0.00000000  0.05356900  0.10526500  1
  C  C83  1  0.75505400  0.24514800  0.00146700  1
