# generated using pymatgen
data_Cu5(NiC2)2
_symmetry_space_group_name_H-M   'P 1'
_cell_length_a   5.28753500
_cell_length_b   10.08812500
_cell_length_c   14.90061800
_cell_angle_alpha   90.00000000
_cell_angle_beta   90.00000000
_cell_angle_gamma   90.00000000
_symmetry_Int_Tables_number   1
_chemical_formula_structural   Cu5(NiC2)2
_chemical_formula_sum   'Cu20 Ni8 C16'
_cell_volume   794.81854386
_cell_formula_units_Z   4
loop_
 _symmetry_equiv_pos_site_id
 _symmetry_equiv_pos_as_xyz
  1  'x, y, z'
loop_
 _atom_site_type_symbol
 _atom_site_label
 _atom_site_symmetry_multiplicity
 _atom_site_fract_x
 _atom_site_fract_y
 _atom_site_fract_z
 _atom_site_occupancy
  C  C0  1  0.50000000  0.53088400  0.12089800  1
  C  C1  1  0.50000000  0.96911600  0.62089800  1
  C  C2  1  0.50000000  0.43079600  0.39081700  1
  C  C3  1  0.50000000  0.06920400  0.89081700  1
  C  C4  1  0.50000000  0.46911600  0.87910200  1
  C  C5  1  0.50000000  0.93079600  0.10918300  1
  C  C6  1  0.50000000  0.03088400  0.37910200  1
  C  C7  1  0.50000000  0.56920400  0.60918300  1
  C  C8  1  0.50000000  0.30212800  0.73273300  1
  C  C9  1  0.50000000  0.25541000  0.06531500  1
  C  C10  1  0.50000000  0.74459000  0.93468500  1
  C  C11  1  0.50000000  0.19787200  0.23273300  1
  C  C12  1  0.50000000  0.75541000  0.43468500  1
  C  C13  1  0.50000000  0.24459000  0.56531500  1
  C  C14  1  0.50000000  0.69787200  0.26726700  1
  C  C15  1  0.50000000  0.80212800  0.76726700  1
  Ni  Ni16  1  0.00000000  0.41283300  0.38966100  1
  Ni  Ni17  1  0.00000000  0.00736000  0.36892700  1
  Ni  Ni18  1  0.00000000  0.91283300  0.11033900  1
  Ni  Ni19  1  0.00000000  0.50736000  0.13107300  1
  Ni  Ni20  1  0.00000000  0.49264000  0.86892700  1
  Ni  Ni21  1  0.00000000  0.58716700  0.61033900  1
  Ni  Ni22  1  0.00000000  0.08716700  0.88966100  1
  Ni  Ni23  1  0.00000000  0.99264000  0.63107300  1
  Cu  Cu24  1  0.50000000  0.86660100  0.48753000  1
  Cu  Cu25  1  0.50000000  0.24367000  0.31904200  1
  Cu  Cu26  1  0.50000000  0.78725700  0.34062300  1
  Cu  Cu27  1  0.50000000  0.56267200  0.27565900  1
  Cu  Cu28  1  0.50000000  0.93732800  0.77565900  1
  Cu  Cu29  1  0.50000000  0.06267200  0.22434100  1
  Cu  Cu30  1  0.50000000  0.71274300  0.84062300  1
  Cu  Cu31  1  0.50000000  0.13339900  0.51247000  1
  Cu  Cu32  1  0.50000000  0.74367000  0.18095800  1
  Cu  Cu33  1  0.50000000  0.21274300  0.65937700  1
  Cu  Cu34  1  0.50000000  0.25633000  0.81904200  1
  Cu  Cu35  1  0.50000000  0.62836900  0.46406300  1
  Cu  Cu36  1  0.50000000  0.75633000  0.68095800  1
  Cu  Cu37  1  0.50000000  0.37163100  0.53593700  1
  Cu  Cu38  1  0.50000000  0.28725700  0.15937700  1
  Cu  Cu39  1  0.50000000  0.12836900  0.03593700  1
  Cu  Cu40  1  0.50000000  0.63339900  0.98753000  1
  Cu  Cu41  1  0.50000000  0.36660100  0.01247000  1
  Cu  Cu42  1  0.50000000  0.87163100  0.96406300  1
  Cu  Cu43  1  0.50000000  0.43732800  0.72434100  1
