# generated using pymatgen
data_Cu6NiC
_symmetry_space_group_name_H-M   'P 1'
_cell_length_a   14.95973994
_cell_length_b   14.95973994
_cell_length_c   8.84136733
_cell_angle_alpha   76.73788926
_cell_angle_beta   76.73788926
_cell_angle_gamma   48.92295345
_symmetry_Int_Tables_number   1
_chemical_formula_structural   Cu6NiC
_chemical_formula_sum   'Cu72 Ni12 C12'
_cell_volume   1443.40662971
_cell_formula_units_Z   12
loop_
 _symmetry_equiv_pos_site_id
 _symmetry_equiv_pos_as_xyz
  1  'x, y, z'
loop_
 _atom_site_type_symbol
 _atom_site_label
 _atom_site_symmetry_multiplicity
 _atom_site_fract_x
 _atom_site_fract_y
 _atom_site_fract_z
 _atom_site_occupancy
  C  C0  1  0.45770900  0.70073400  0.89187200  1
  C  C1  1  0.95813300  0.20981200  0.90158300  1
  C  C2  1  0.64032100  0.87315500  0.26139100  1
  C  C3  1  0.87315500  0.64032100  0.76139100  1
  C  C4  1  0.54229100  0.29926600  0.10812800  1
  C  C5  1  0.70073400  0.45770900  0.39187200  1
  C  C6  1  0.29926600  0.54229100  0.60812800  1
  C  C7  1  0.79018800  0.04186700  0.59841700  1
  C  C8  1  0.12684500  0.35967900  0.23860900  1
  C  C9  1  0.35967900  0.12684500  0.73860900  1
  C  C10  1  0.04186700  0.79018800  0.09841700  1
  C  C11  1  0.20981200  0.95813300  0.40158300  1
  Ni  Ni12  1  0.58359100  0.84246200  0.68327300  1
  Ni  Ni13  1  0.18059500  0.92895600  0.02820400  1
  Ni  Ni14  1  0.25042000  0.50472000  0.24120800  1
  Ni  Ni15  1  0.49528000  0.74958000  0.25879200  1
  Ni  Ni16  1  0.92895600  0.18059500  0.52820400  1
  Ni  Ni17  1  0.41640900  0.15753800  0.31672700  1
  Ni  Ni18  1  0.07104400  0.81940500  0.47179600  1
  Ni  Ni19  1  0.84246200  0.58359100  0.18327300  1
  Ni  Ni20  1  0.81940500  0.07104400  0.97179600  1
  Ni  Ni21  1  0.74958000  0.49528000  0.75879200  1
  Ni  Ni22  1  0.15753800  0.41640900  0.81672700  1
  Ni  Ni23  1  0.50472000  0.25042000  0.74120800  1
  Cu  Cu24  1  0.36899000  0.80380000  0.32671000  1
  Cu  Cu25  1  0.64363100  0.90748200  0.06354100  1
  Cu  Cu26  1  0.09251800  0.35636900  0.43645900  1
  Cu  Cu27  1  0.02841600  0.47287800  0.82218500  1
  Cu  Cu28  1  0.63877900  0.57119900  0.86895000  1
  Cu  Cu29  1  0.19620000  0.63101000  0.17329000  1
  Cu  Cu30  1  0.58028800  0.37521400  0.97682500  1
  Cu  Cu31  1  0.97158400  0.52712200  0.17781500  1
  Cu  Cu32  1  0.17739100  0.49717700  0.72327200  1
  Cu  Cu33  1  0.74869200  0.95585700  0.64548700  1
  Cu  Cu34  1  0.35636900  0.09251800  0.93645900  1
  Cu  Cu35  1  0.90748200  0.64363100  0.56354100  1
  Cu  Cu36  1  0.69194300  0.43482000  0.21767400  1
  Cu  Cu37  1  0.30147700  0.86830700  0.93448900  1
  Cu  Cu38  1  0.62478600  0.41971200  0.52317500  1
  Cu  Cu39  1  0.84524700  0.15810200  0.58354300  1
  Cu  Cu40  1  0.72001000  0.51619100  0.60191600  1
  Cu  Cu41  1  0.49717700  0.17739100  0.22327200  1
  Cu  Cu42  1  0.13169300  0.69852300  0.56551100  1
  Cu  Cu43  1  0.82972800  0.51834300  0.76385400  1
  Cu  Cu44  1  0.63101000  0.19620000  0.67329000  1
  Cu  Cu45  1  0.69852300  0.13169300  0.06551100  1
  Cu  Cu46  1  0.98269300  0.17492400  0.65319100  1
  Cu  Cu47  1  0.36122100  0.42880100  0.13105000  1
  Cu  Cu48  1  0.51834300  0.82972800  0.26385400  1
  Cu  Cu49  1  0.17027200  0.48165700  0.23614600  1
  Cu  Cu50  1  0.71700700  0.90782300  0.31159700  1
  Cu  Cu51  1  0.97296200  0.90694600  0.58509100  1
  Cu  Cu52  1  0.02703800  0.09305400  0.41490900  1
  Cu  Cu53  1  0.92141400  0.21923600  0.09785100  1
  Cu  Cu54  1  0.82260900  0.50282300  0.27672800  1
  Cu  Cu55  1  0.19063900  0.38290400  0.97538000  1
  Cu  Cu56  1  0.41971200  0.62478600  0.02317500  1
  Cu  Cu57  1  0.48380900  0.27999000  0.89808400  1
  Cu  Cu58  1  0.84189800  0.15475300  0.91645700  1
  Cu  Cu59  1  0.48165700  0.17027200  0.73614600  1
  Cu  Cu60  1  0.61709600  0.80936100  0.52462000  1
  Cu  Cu61  1  0.47287800  0.02841600  0.32218500  1
  Cu  Cu62  1  0.30805700  0.56518000  0.78232600  1
  Cu  Cu63  1  0.01730700  0.82507600  0.34680900  1
  Cu  Cu64  1  0.80936100  0.61709600  0.02462000  1
  Cu  Cu65  1  0.25130800  0.04414300  0.35451300  1
  Cu  Cu66  1  0.15810200  0.84524700  0.08354300  1
  Cu  Cu67  1  0.78076400  0.07858600  0.40214900  1
  Cu  Cu68  1  0.57119900  0.63877900  0.36895000  1
  Cu  Cu69  1  0.21923600  0.92141400  0.59785100  1
  Cu  Cu70  1  0.43482000  0.69194300  0.71767400  1
  Cu  Cu71  1  0.90694600  0.97296200  0.08509100  1
  Cu  Cu72  1  0.38290400  0.19063900  0.47538000  1
  Cu  Cu73  1  0.52712200  0.97158400  0.67781500  1
  Cu  Cu74  1  0.42880100  0.36122100  0.63105000  1
  Cu  Cu75  1  0.04414300  0.25130800  0.85451300  1
  Cu  Cu76  1  0.30717300  0.22644600  0.23265600  1
  Cu  Cu77  1  0.95585700  0.74869200  0.14548700  1
  Cu  Cu78  1  0.17492400  0.98269300  0.15319100  1
  Cu  Cu79  1  0.82507600  0.01730700  0.84680900  1
  Cu  Cu80  1  0.37521400  0.58028800  0.47682500  1
  Cu  Cu81  1  0.28299300  0.09217700  0.68840300  1
  Cu  Cu82  1  0.80380000  0.36899000  0.82671000  1
  Cu  Cu83  1  0.56518000  0.30805700  0.28232600  1
  Cu  Cu84  1  0.09305400  0.02703800  0.91490900  1
  Cu  Cu85  1  0.07858600  0.78076400  0.90214900  1
  Cu  Cu86  1  0.69282700  0.77355400  0.76734400  1
  Cu  Cu87  1  0.77355400  0.69282700  0.26734400  1
  Cu  Cu88  1  0.50282300  0.82260900  0.77672800  1
  Cu  Cu89  1  0.90782300  0.71700700  0.81159700  1
  Cu  Cu90  1  0.51619100  0.72001000  0.10191600  1
  Cu  Cu91  1  0.27999000  0.48380900  0.39808400  1
  Cu  Cu92  1  0.86830700  0.30147700  0.43448900  1
  Cu  Cu93  1  0.15475300  0.84189800  0.41645700  1
  Cu  Cu94  1  0.22644600  0.30717300  0.73265600  1
  Cu  Cu95  1  0.09217700  0.28299300  0.18840300  1
