# generated using pymatgen
data_Cu16Ni16C5
_symmetry_space_group_name_H-M   'P 1'
_cell_length_a   12.47294077
_cell_length_b   12.47294077
_cell_length_c   12.47294077
_cell_angle_alpha   60.00000000
_cell_angle_beta   60.00000000
_cell_angle_gamma   60.00000000
_symmetry_Int_Tables_number   1
_chemical_formula_structural   Cu16Ni16C5
_chemical_formula_sum   'Cu32 Ni32 C10'
_cell_volume   1372.11838117
_cell_formula_units_Z   2
loop_
 _symmetry_equiv_pos_site_id
 _symmetry_equiv_pos_as_xyz
  1  'x, y, z'
loop_
 _atom_site_type_symbol
 _atom_site_label
 _atom_site_symmetry_multiplicity
 _atom_site_fract_x
 _atom_site_fract_y
 _atom_site_fract_z
 _atom_site_occupancy
  C  C0  1  0.91102100  0.91102100  0.26693700  1
  C  C1  1  0.41102100  0.41102100  0.41102100  1
  C  C2  1  0.91102100  0.91102100  0.91102100  1
  C  C3  1  0.76693700  0.41102100  0.41102100  1
  C  C4  1  0.91102100  0.26693700  0.91102100  1
  C  C5  1  0.26693700  0.91102100  0.91102100  1
  C  C6  1  0.41102100  0.76693700  0.41102100  1
  C  C7  1  0.41102100  0.41102100  0.76693700  1
  C  C8  1  0.00000000  0.00000000  0.00000000  1
  C  C9  1  0.50000000  0.50000000  0.50000000  1
  Ni  Ni10  1  0.25458500  0.76209000  0.04162700  1
  Ni  Ni11  1  0.76209000  0.94169800  0.04162700  1
  Ni  Ni12  1  0.35318700  0.94044000  0.35318700  1
  Ni  Ni13  1  0.75458500  0.54162700  0.26209000  1
  Ni  Ni14  1  0.35318700  0.35318700  0.35318700  1
  Ni  Ni15  1  0.75458500  0.44169800  0.54162700  1
  Ni  Ni16  1  0.25458500  0.04162700  0.94169800  1
  Ni  Ni17  1  0.44044000  0.85318700  0.85318700  1
  Ni  Ni18  1  0.85318700  0.85318700  0.85318700  1
  Ni  Ni19  1  0.44169800  0.26209000  0.54162700  1
  Ni  Ni20  1  0.25458500  0.94169800  0.76209000  1
  Ni  Ni21  1  0.04162700  0.94169800  0.25458500  1
  Ni  Ni22  1  0.76209000  0.04162700  0.25458500  1
  Ni  Ni23  1  0.85318700  0.85318700  0.44044000  1
  Ni  Ni24  1  0.85318700  0.44044000  0.85318700  1
  Ni  Ni25  1  0.54162700  0.26209000  0.75458500  1
  Ni  Ni26  1  0.44169800  0.54162700  0.75458500  1
  Ni  Ni27  1  0.04162700  0.25458500  0.76209000  1
  Ni  Ni28  1  0.94044000  0.35318700  0.35318700  1
  Ni  Ni29  1  0.54162700  0.44169800  0.26209000  1
  Ni  Ni30  1  0.94169800  0.04162700  0.76209000  1
  Ni  Ni31  1  0.94169800  0.25458500  0.04162700  1
  Ni  Ni32  1  0.26209000  0.54162700  0.44169800  1
  Ni  Ni33  1  0.94169800  0.76209000  0.25458500  1
  Ni  Ni34  1  0.04162700  0.76209000  0.94169800  1
  Ni  Ni35  1  0.76209000  0.25458500  0.94169800  1
  Ni  Ni36  1  0.54162700  0.75458500  0.44169800  1
  Ni  Ni37  1  0.26209000  0.75458500  0.54162700  1
  Ni  Ni38  1  0.35318700  0.35318700  0.94044000  1
  Ni  Ni39  1  0.44169800  0.75458500  0.26209000  1
  Ni  Ni40  1  0.75458500  0.26209000  0.44169800  1
  Ni  Ni41  1  0.26209000  0.44169800  0.75458500  1
  Cu  Cu42  1  0.62360100  0.16037300  0.75939900  1
  Cu  Cu43  1  0.31542300  0.31542300  0.05373000  1
  Cu  Cu44  1  0.75939900  0.16037300  0.45662700  1
  Cu  Cu45  1  0.12360100  0.66037300  0.95662700  1
  Cu  Cu46  1  0.81542300  0.81542300  0.81542300  1
  Cu  Cu47  1  0.55373000  0.81542300  0.81542300  1
  Cu  Cu48  1  0.66037300  0.95662700  0.12360100  1
  Cu  Cu49  1  0.75939900  0.45662700  0.62360100  1
  Cu  Cu50  1  0.62360100  0.45662700  0.16037300  1
  Cu  Cu51  1  0.16037300  0.62360100  0.45662700  1
  Cu  Cu52  1  0.12360100  0.95662700  0.25939900  1
  Cu  Cu53  1  0.81542300  0.55373000  0.81542300  1
  Cu  Cu54  1  0.95662700  0.66037300  0.25939900  1
  Cu  Cu55  1  0.45662700  0.62360100  0.75939900  1
  Cu  Cu56  1  0.16037300  0.75939900  0.62360100  1
  Cu  Cu57  1  0.16037300  0.45662700  0.75939900  1
  Cu  Cu58  1  0.12360100  0.25939900  0.66037300  1
  Cu  Cu59  1  0.31542300  0.05373000  0.31542300  1
  Cu  Cu60  1  0.25939900  0.66037300  0.12360100  1
  Cu  Cu61  1  0.05373000  0.31542300  0.31542300  1
  Cu  Cu62  1  0.95662700  0.25939900  0.12360100  1
  Cu  Cu63  1  0.66037300  0.12360100  0.25939900  1
  Cu  Cu64  1  0.45662700  0.75939900  0.16037300  1
  Cu  Cu65  1  0.45662700  0.16037300  0.62360100  1
  Cu  Cu66  1  0.25939900  0.95662700  0.66037300  1
  Cu  Cu67  1  0.66037300  0.25939900  0.95662700  1
  Cu  Cu68  1  0.25939900  0.12360100  0.95662700  1
  Cu  Cu69  1  0.62360100  0.75939900  0.45662700  1
  Cu  Cu70  1  0.81542300  0.81542300  0.55373000  1
  Cu  Cu71  1  0.75939900  0.62360100  0.16037300  1
  Cu  Cu72  1  0.31542300  0.31542300  0.31542300  1
  Cu  Cu73  1  0.95662700  0.12360100  0.66037300  1
