# generated using pymatgen
data_Cu2Ni2C7
_symmetry_space_group_name_H-M   'P 1'
_cell_length_a   11.73883800
_cell_length_b   10.47317300
_cell_length_c   14.37640920
_cell_angle_alpha   81.13406056
_cell_angle_beta   90.00000000
_cell_angle_gamma   90.00000000
_symmetry_Int_Tables_number   1
_chemical_formula_structural   Cu2Ni2C7
_chemical_formula_sum   'Cu8 Ni8 C28'
_cell_volume   1746.35875319
_cell_formula_units_Z   4
loop_
 _symmetry_equiv_pos_site_id
 _symmetry_equiv_pos_as_xyz
  1  'x, y, z'
loop_
 _atom_site_type_symbol
 _atom_site_label
 _atom_site_symmetry_multiplicity
 _atom_site_fract_x
 _atom_site_fract_y
 _atom_site_fract_z
 _atom_site_occupancy
  Ni  Ni0  1  0.31687700  0.90551900  0.68052900  1
  Ni  Ni1  1  0.10831700  0.28360400  0.16415200  1
  Ni  Ni2  1  0.81687700  0.09448100  0.81947100  1
  Ni  Ni3  1  0.60831700  0.71639600  0.33584800  1
  Ni  Ni4  1  0.89168300  0.71639600  0.83584800  1
  Ni  Ni5  1  0.39168300  0.28360400  0.66415200  1
  Ni  Ni6  1  0.68312300  0.09448100  0.31947100  1
  Ni  Ni7  1  0.18312300  0.90551900  0.18052900  1
  Cu  Cu8  1  0.53628200  0.41957500  0.12671300  1
  Cu  Cu9  1  0.44251800  0.64949800  0.04849400  1
  Cu  Cu10  1  0.46371800  0.58042500  0.87328700  1
  Cu  Cu11  1  0.55748200  0.35050200  0.95150600  1
  Cu  Cu12  1  0.05748200  0.64949800  0.54849400  1
  Cu  Cu13  1  0.03628200  0.58042500  0.37328700  1
  Cu  Cu14  1  0.94251800  0.35050200  0.45150600  1
  Cu  Cu15  1  0.96371800  0.41957500  0.62671300  1
  C  C16  1  0.17031900  0.38743400  0.01944400  1
  C  C17  1  0.14560800  0.98617200  0.61551100  1
  C  C18  1  0.06049000  0.61935900  0.78455400  1
  C  C19  1  0.11850400  0.72419400  0.12028900  1
  C  C20  1  0.64560800  0.01382800  0.88448900  1
  C  C21  1  0.93951000  0.38064100  0.21544600  1
  C  C22  1  0.61850400  0.27580600  0.37971100  1
  C  C23  1  0.53248900  0.92967800  0.36685000  1
  C  C24  1  0.03248900  0.07032200  0.13315000  1
  C  C25  1  0.24198300  0.25478600  0.28405200  1
  C  C26  1  0.56049000  0.38064100  0.71544600  1
  C  C27  1  0.75801700  0.74521400  0.71594800  1
  C  C28  1  0.67723300  0.13323500  0.15248000  1
  C  C29  1  0.25801700  0.25478600  0.78405200  1
  C  C30  1  0.74198300  0.74521400  0.21594800  1
  C  C31  1  0.32276700  0.86676500  0.84752000  1
  C  C32  1  0.17723300  0.86676500  0.34752000  1
  C  C33  1  0.43951000  0.61935900  0.28455400  1
  C  C34  1  0.67031900  0.61256600  0.48055600  1
  C  C35  1  0.32968100  0.38743400  0.51944400  1
  C  C36  1  0.82276700  0.13323500  0.65248000  1
  C  C37  1  0.35439200  0.98617200  0.11551100  1
  C  C38  1  0.82968100  0.61256600  0.98055600  1
  C  C39  1  0.96751100  0.92967800  0.86685000  1
  C  C40  1  0.38149600  0.72419400  0.62028900  1
  C  C41  1  0.88149600  0.27580600  0.87971100  1
  C  C42  1  0.85439200  0.01382800  0.38448900  1
  C  C43  1  0.46751100  0.07032200  0.63315000  1
