# generated using pymatgen
data_Cu(Ni3C2)2
_symmetry_space_group_name_H-M   'P 1'
_cell_length_a   13.22308366
_cell_length_b   13.22308366
_cell_length_c   13.22308287
_cell_angle_alpha   22.37447027
_cell_angle_beta   22.37447027
_cell_angle_gamma   22.37446885
_symmetry_Int_Tables_number   1
_chemical_formula_structural   Cu(Ni3C2)2
_chemical_formula_sum   'Cu2 Ni12 C8'
_cell_volume   293.82009668
_cell_formula_units_Z   2
loop_
 _symmetry_equiv_pos_site_id
 _symmetry_equiv_pos_as_xyz
  1  'x, y, z'
loop_
 _atom_site_type_symbol
 _atom_site_label
 _atom_site_symmetry_multiplicity
 _atom_site_fract_x
 _atom_site_fract_y
 _atom_site_fract_z
 _atom_site_occupancy
  C  C0  1  0.00000000  0.00000000  0.00000000  1
  C  C1  1  0.50000000  0.50000000  0.50000000  1
  C  C2  1  0.24485600  0.24485600  0.24485600  1
  C  C3  1  0.75514400  0.75514400  0.75514400  1
  C  C4  1  0.10748500  0.10748500  0.10748500  1
  C  C5  1  0.89251500  0.89251500  0.89251500  1
  C  C6  1  0.37372000  0.37372000  0.37372000  1
  C  C7  1  0.62628000  0.62628000  0.62628000  1
  Ni  Ni8  1  0.81525400  0.25230800  0.25230800  1
  Ni  Ni9  1  0.25230800  0.25230800  0.81525400  1
  Ni  Ni10  1  0.25230800  0.81525400  0.25230800  1
  Ni  Ni11  1  0.74769200  0.18474600  0.74769200  1
  Ni  Ni12  1  0.18474600  0.74769200  0.74769200  1
  Ni  Ni13  1  0.74769200  0.74769200  0.18474600  1
  Ni  Ni14  1  0.08100900  0.51890800  0.51890800  1
  Ni  Ni15  1  0.51890800  0.51890800  0.08100900  1
  Ni  Ni16  1  0.51890800  0.08100900  0.51890800  1
  Ni  Ni17  1  0.48109200  0.91899100  0.48109200  1
  Ni  Ni18  1  0.91899100  0.48109200  0.48109200  1
  Ni  Ni19  1  0.48109200  0.48109200  0.91899100  1
  Cu  Cu20  1  0.18459200  0.18459200  0.18459200  1
  Cu  Cu21  1  0.81540800  0.81540800  0.81540800  1
