# generated using pymatgen
data_Cu8Ni16C33
_symmetry_space_group_name_H-M   'P 1'
_cell_length_a   6.07389800
_cell_length_b   9.66887600
_cell_length_c   10.47233939
_cell_angle_alpha   89.11920803
_cell_angle_beta   90.00000000
_cell_angle_gamma   90.00000000
_symmetry_Int_Tables_number   1
_chemical_formula_structural   Cu8Ni16C33
_chemical_formula_sum   'Cu8 Ni16 C33'
_cell_volume   614.94443429
_cell_formula_units_Z   1
loop_
 _symmetry_equiv_pos_site_id
 _symmetry_equiv_pos_as_xyz
  1  'x, y, z'
loop_
 _atom_site_type_symbol
 _atom_site_label
 _atom_site_symmetry_multiplicity
 _atom_site_fract_x
 _atom_site_fract_y
 _atom_site_fract_z
 _atom_site_occupancy
  Ni  Ni0  1  0.25731100  0.99499700  0.99353400  1
  Ni  Ni1  1  0.25816700  0.75618000  0.50251000  1
  Ni  Ni2  1  0.74268900  0.99499700  0.99353400  1
  Ni  Ni3  1  0.74183300  0.75618000  0.50251000  1
  Ni  Ni4  1  0.50000000  0.49971500  0.27914700  1
  Ni  Ni5  1  0.00000000  0.75509000  0.21939500  1
  Ni  Ni6  1  0.00000000  0.99199500  0.72127400  1
  Ni  Ni7  1  0.50000000  0.74218700  0.77875900  1
  Ni  Ni8  1  0.25475000  0.49796300  0.00107300  1
  Ni  Ni9  1  0.26142800  0.24459900  0.51019800  1
  Ni  Ni10  1  0.74525000  0.49796300  0.00107300  1
  Ni  Ni11  1  0.73857200  0.24459900  0.51019800  1
  Ni  Ni12  1  0.50000000  0.00435900  0.27616100  1
  Ni  Ni13  1  0.00000000  0.23256300  0.19647100  1
  Ni  Ni14  1  0.00000000  0.49684500  0.72518500  1
  Ni  Ni15  1  0.50000000  0.24916100  0.78037600  1
  Cu  Cu16  1  0.50000000  0.78433600  0.09444300  1
  Cu  Cu17  1  0.00000000  0.55295800  0.41629800  1
  Cu  Cu18  1  0.00000000  0.71071000  0.90607100  1
  Cu  Cu19  1  0.50000000  0.96285700  0.59688300  1
  Cu  Cu20  1  0.50000000  0.28359600  0.09123400  1
  Cu  Cu21  1  0.00000000  0.03808200  0.40528700  1
  Cu  Cu22  1  0.00000000  0.21008900  0.89817400  1
  Cu  Cu23  1  0.50000000  0.46421200  0.59517400  1
  C  C24  1  0.00000000  0.34777400  0.35029800  1
  C  C25  1  0.50000000  0.61469400  0.09484200  1
  C  C26  1  0.00000000  0.86860600  0.40713700  1
  C  C27  1  0.00000000  0.87982500  0.90454600  1
  C  C28  1  0.50000000  0.63368000  0.59216900  1
  C  C29  1  0.50000000  0.89412900  0.45045600  1
  C  C30  1  0.00000000  0.63760500  0.05243900  1
  C  C31  1  0.00000000  0.62351900  0.55907600  1
  C  C32  1  0.50000000  0.85659000  0.94707500  1
  C  C33  1  0.28873800  0.85971400  0.16085400  1
  C  C34  1  0.22422900  0.61299800  0.34260200  1
  C  C35  1  0.78873800  0.63643100  0.83889700  1
  C  C36  1  0.72137600  0.88745400  0.66423500  1
  C  C37  1  0.21126200  0.63643100  0.83889700  1
  C  C38  1  0.27862400  0.88745400  0.66423500  1
  C  C39  1  0.71126200  0.85971400  0.16085400  1
  C  C40  1  0.77577100  0.61299800  0.34260200  1
  C  C41  1  0.50000000  0.11399300  0.08715100  1
  C  C42  1  0.00000000  0.37923200  0.44477500  1
  C  C43  1  0.00000000  0.37882200  0.90770400  1
  C  C44  1  0.50000000  0.13170700  0.59699900  1
  C  C45  1  0.50000000  0.38753600  0.45153400  1
  C  C46  1  0.00000000  0.12751800  0.04087300  1
  C  C47  1  0.00000000  0.10806200  0.55150900  1
  C  C48  1  0.50000000  0.36093000  0.94665100  1
  C  C49  1  0.28741500  0.35562400  0.16000200  1
  C  C50  1  0.22183500  0.11334600  0.33702000  1
  C  C51  1  0.78765400  0.13747800  0.83152900  1
  C  C52  1  0.72074900  0.38982700  0.66560100  1
  C  C53  1  0.21234600  0.13747800  0.83152900  1
  C  C54  1  0.27925100  0.38982700  0.66560100  1
  C  C55  1  0.71258500  0.35562400  0.16000200  1
  C  C56  1  0.77816500  0.11334600  0.33702000  1
