# generated using pymatgen
data_Cu4Ni3C13
_symmetry_space_group_name_H-M   'P 1'
_cell_length_a   5.98336410
_cell_length_b   5.98336410
_cell_length_c   11.27052401
_cell_angle_alpha   81.64552590
_cell_angle_beta   81.64552590
_cell_angle_gamma   104.24511281
_symmetry_Int_Tables_number   1
_chemical_formula_structural   Cu4Ni3C13
_chemical_formula_sum   'Cu8 Ni6 C26'
_cell_volume   379.97665342
_cell_formula_units_Z   2
loop_
 _symmetry_equiv_pos_site_id
 _symmetry_equiv_pos_as_xyz
  1  'x, y, z'
loop_
 _atom_site_type_symbol
 _atom_site_label
 _atom_site_symmetry_multiplicity
 _atom_site_fract_x
 _atom_site_fract_y
 _atom_site_fract_z
 _atom_site_occupancy
  C  C0  1  0.03765100  0.96234900  0.25000000  1
  C  C1  1  0.96234900  0.03765100  0.75000000  1
  Ni  Ni2  1  0.19545900  0.69399800  0.52844900  1
  Ni  Ni3  1  0.58925500  0.41074500  0.25000000  1
  Ni  Ni4  1  0.80454100  0.30600200  0.47155100  1
  Ni  Ni5  1  0.41074500  0.58925500  0.75000000  1
  Ni  Ni6  1  0.30600200  0.80454100  0.97155100  1
  Ni  Ni7  1  0.69399800  0.19545900  0.02844900  1
  Cu  Cu8  1  0.12259700  0.49173100  0.22208800  1
  Cu  Cu9  1  0.71909900  0.77719600  0.50592900  1
  Cu  Cu10  1  0.50826900  0.87740300  0.27791200  1
  Cu  Cu11  1  0.28090100  0.22280400  0.49407100  1
  Cu  Cu12  1  0.49173100  0.12259700  0.72208800  1
  Cu  Cu13  1  0.77719600  0.71909900  0.00592900  1
  Cu  Cu14  1  0.87740300  0.50826900  0.77791200  1
  Cu  Cu15  1  0.22280400  0.28090100  0.99407100  1
  C  C16  1  0.35484200  0.27117500  0.74286400  1
  C  C17  1  0.99672600  0.19495300  0.06041800  1
  C  C18  1  0.69421500  0.18245100  0.63681100  1
  C  C19  1  0.89756700  0.42253600  0.29463200  1
  C  C20  1  0.49283700  0.69662300  0.57461600  1
  C  C21  1  0.00327400  0.80504700  0.93958200  1
  C  C22  1  0.72882500  0.64515800  0.75713600  1
  C  C23  1  0.18245100  0.69421500  0.13681100  1
  C  C24  1  0.80504700  0.00327400  0.43958200  1
  C  C25  1  0.42253600  0.89756700  0.79463200  1
  C  C26  1  0.50716300  0.30337700  0.42538400  1
  C  C27  1  0.64515800  0.72882500  0.25713600  1
  C  C28  1  0.30578500  0.81754900  0.36318900  1
  C  C29  1  0.86985200  0.63185000  0.49565500  1
  C  C30  1  0.57746400  0.10243300  0.20536800  1
  C  C31  1  0.30337700  0.50716300  0.92538400  1
  C  C32  1  0.36815000  0.13014800  0.00434500  1
  C  C33  1  0.27117500  0.35484200  0.24286400  1
  C  C34  1  0.13014800  0.36815000  0.50434500  1
  C  C35  1  0.69662300  0.49283700  0.07461600  1
  C  C36  1  0.10243300  0.57746400  0.70536800  1
  C  C37  1  0.19495300  0.99672600  0.56041800  1
  C  C38  1  0.81754900  0.30578500  0.86318900  1
  C  C39  1  0.63185000  0.86985200  0.99565500  1
