# generated using pymatgen
data_Cu8NiC6
_symmetry_space_group_name_H-M   'P 1'
_cell_length_a   11.15739371
_cell_length_b   11.15739371
_cell_length_c   11.15739371
_cell_angle_alpha   141.02194862
_cell_angle_beta   141.02194862
_cell_angle_gamma   56.30485264
_symmetry_Int_Tables_number   1
_chemical_formula_structural   Cu8NiC6
_chemical_formula_sum   'Cu16 Ni2 C12'
_cell_volume   545.23968795
_cell_formula_units_Z   2
loop_
 _symmetry_equiv_pos_site_id
 _symmetry_equiv_pos_as_xyz
  1  'x, y, z'
loop_
 _atom_site_type_symbol
 _atom_site_label
 _atom_site_symmetry_multiplicity
 _atom_site_fract_x
 _atom_site_fract_y
 _atom_site_fract_z
 _atom_site_occupancy
  Ni  Ni0  1  0.75000000  0.25000000  0.50000000  1
  Ni  Ni1  1  0.00000000  0.00000000  0.00000000  1
  Cu  Cu2  1  0.14726700  0.64726700  0.50000000  1
  Cu  Cu3  1  0.60075400  0.10075400  0.50000000  1
  Cu  Cu4  1  0.05136400  0.55136400  0.10272900  1
  Cu  Cu5  1  0.14924600  0.14924600  0.00000000  1
  Cu  Cu6  1  0.89924600  0.39924600  0.50000000  1
  Cu  Cu7  1  0.05136400  0.94863600  0.50000000  1
  Cu  Cu8  1  0.30136400  0.69863600  0.00000000  1
  Cu  Cu9  1  0.60273300  0.60273300  0.00000000  1
  Cu  Cu10  1  0.69863600  0.69863600  0.39727100  1
  Cu  Cu11  1  0.69863600  0.30136400  0.00000000  1
  Cu  Cu12  1  0.85075400  0.85075400  0.00000000  1
  Cu  Cu13  1  0.44863600  0.94863600  0.89727100  1
  Cu  Cu14  1  0.35273300  0.85273300  0.50000000  1
  Cu  Cu15  1  0.30136400  0.30136400  0.60272900  1
  Cu  Cu16  1  0.39726700  0.39726700  0.00000000  1
  Cu  Cu17  1  0.44863600  0.55136400  0.50000000  1
  C  C18  1  0.01826800  0.51826800  0.50000000  1
  C  C19  1  0.73173200  0.73173200  0.00000000  1
  C  C20  1  0.48173200  0.98173200  0.50000000  1
  C  C21  1  0.26826800  0.26826800  0.00000000  1
  C  C22  1  0.69545800  0.02568000  0.33022300  1
  C  C23  1  0.69545800  0.36523500  0.66977700  1
  C  C24  1  0.97432000  0.30454200  0.66977700  1
  C  C25  1  0.63476500  0.30454200  0.33022300  1
  C  C26  1  0.05454200  0.22432000  0.16977700  1
  C  C27  1  0.05454200  0.88476500  0.83022300  1
  C  C28  1  0.11523500  0.94545800  0.16977700  1
  C  C29  1  0.77568000  0.94545800  0.83022300  1
