# generated using pymatgen
data_CuNiC11
_symmetry_space_group_name_H-M   'P 1'
_cell_length_a   12.37565806
_cell_length_b   12.37565806
_cell_length_c   12.37565806
_cell_angle_alpha   146.39884598
_cell_angle_beta   118.75268813
_cell_angle_gamma   71.70316582
_symmetry_Int_Tables_number   1
_chemical_formula_structural   CuNiC11
_chemical_formula_sum   'Cu4 Ni4 C44'
_cell_volume   904.80281455
_cell_formula_units_Z   4
loop_
 _symmetry_equiv_pos_site_id
 _symmetry_equiv_pos_as_xyz
  1  'x, y, z'
loop_
 _atom_site_type_symbol
 _atom_site_label
 _atom_site_symmetry_multiplicity
 _atom_site_fract_x
 _atom_site_fract_y
 _atom_site_fract_z
 _atom_site_occupancy
  C  C0  1  0.76579200  0.81213500  0.88974400  1
  C  C1  1  0.26579200  0.37604800  0.95365700  1
  C  C2  1  0.57760900  0.12395200  0.38974400  1
  C  C3  1  0.73420800  0.62395200  0.04634300  1
  C  C4  1  0.07760900  0.68786500  0.45365700  1
  C  C5  1  0.92239100  0.31213500  0.54634300  1
  C  C6  1  0.42239100  0.87604800  0.61025600  1
  C  C7  1  0.23420800  0.18786500  0.11025600  1
  Ni  Ni8  1  0.33032600  0.25000000  0.58032600  1
  Ni  Ni9  1  0.66967400  0.75000000  0.41967400  1
  Ni  Ni10  1  0.16967400  0.75000000  0.91967400  1
  Ni  Ni11  1  0.83032600  0.25000000  0.08032600  1
  Cu  Cu12  1  0.92687400  0.75000000  0.67687400  1
  Cu  Cu13  1  0.42687400  0.75000000  0.17687400  1
  Cu  Cu14  1  0.07312600  0.25000000  0.32312600  1
  Cu  Cu15  1  0.57312600  0.25000000  0.82312600  1
  C  C16  1  0.41819600  0.66819600  0.75000000  1
  C  C17  1  0.58180400  0.33180400  0.25000000  1
  C  C18  1  0.91819600  0.16819600  0.75000000  1
  C  C19  1  0.08180400  0.83180400  0.25000000  1
  C  C20  1  0.93853500  0.66228300  0.72372600  1
  C  C21  1  0.43855700  0.21480900  0.77627400  1
  C  C22  1  0.91818700  0.84367300  0.19992400  1
  C  C23  1  0.35625100  0.65632700  0.57451400  1
  C  C24  1  0.56144300  0.78519100  0.22372600  1
  C  C25  1  0.36013500  0.92905700  0.26720700  1
  C  C26  1  0.08181300  0.15632700  0.80007600  1
  C  C27  1  0.83282800  0.91274800  0.51147900  1
  C  C28  1  0.33282800  0.82134800  0.92007900  1
  C  C29  1  0.85625100  0.28173700  0.69992400  1
  C  C30  1  0.63986500  0.07094300  0.73279300  1
  C  C31  1  0.43853500  0.71480900  0.27625200  1
  C  C32  1  0.09873100  0.67865200  0.01147900  1
  C  C33  1  0.66717200  0.17865200  0.07992100  1
  C  C34  1  0.58181300  0.78173700  0.92548600  1
  C  C35  1  0.06146500  0.33771700  0.27627400  1
  C  C36  1  0.90126900  0.32134800  0.98852100  1
  C  C37  1  0.59873100  0.58725200  0.42007900  1
  C  C38  1  0.33814900  0.57094300  0.93107700  1
  C  C39  1  0.86013500  0.59292800  0.43107700  1
  C  C40  1  0.64374900  0.34367300  0.42548600  1
  C  C41  1  0.93855700  0.16228300  0.22374800  1
  C  C42  1  0.40126900  0.41274800  0.57992100  1
  C  C43  1  0.16717200  0.08725200  0.48852100  1
  C  C44  1  0.56146500  0.28519100  0.72374800  1
  C  C45  1  0.14374900  0.71826300  0.30007600  1
  C  C46  1  0.66185100  0.42905700  0.06892300  1
  C  C47  1  0.83814900  0.90707200  0.76720700  1
  C  C48  1  0.41818700  0.21826300  0.07451400  1
  C  C49  1  0.13986500  0.40707200  0.56892300  1
  C  C50  1  0.06144300  0.83771700  0.77625200  1
  C  C51  1  0.16185100  0.09292800  0.23279300  1
