# generated using pymatgen
data_Cu2Ni9C16
_symmetry_space_group_name_H-M   'P 1'
_cell_length_a   11.23111700
_cell_length_b   11.23111700
_cell_length_c   29.20922900
_cell_angle_alpha   90.00000000
_cell_angle_beta   90.00000000
_cell_angle_gamma   90.00000000
_symmetry_Int_Tables_number   1
_chemical_formula_structural   Cu2Ni9C16
_chemical_formula_sum   'Cu8 Ni36 C64'
_cell_volume   3684.39340828
_cell_formula_units_Z   4
loop_
 _symmetry_equiv_pos_site_id
 _symmetry_equiv_pos_as_xyz
  1  'x, y, z'
loop_
 _atom_site_type_symbol
 _atom_site_label
 _atom_site_symmetry_multiplicity
 _atom_site_fract_x
 _atom_site_fract_y
 _atom_site_fract_z
 _atom_site_occupancy
  Ni  Ni0  1  0.83264000  0.53197000  0.99853900  1
  Ni  Ni1  1  0.46803000  0.83264000  0.74853900  1
  Ni  Ni2  1  0.89149400  0.19530500  0.95044300  1
  Ni  Ni3  1  0.42602100  0.24447700  0.88288200  1
  Ni  Ni4  1  0.57444900  0.16588600  0.69905300  1
  Ni  Ni5  1  0.45014600  0.31008500  0.57057500  1
  Ni  Ni6  1  0.02957400  0.89724000  0.89013500  1
  Ni  Ni7  1  0.51051000  0.56041000  0.94422700  1
  Ni  Ni8  1  0.10850600  0.80469500  0.45044300  1
  Ni  Ni9  1  0.73310200  0.86420300  0.95384700  1
  Ni  Ni10  1  0.19530500  0.10850600  0.20044300  1
  Ni  Ni11  1  0.02709100  0.26842100  0.07400700  1
  Ni  Ni12  1  0.97042600  0.10276000  0.39013500  1
  Ni  Ni13  1  0.13579700  0.73310200  0.70384700  1
  Ni  Ni14  1  0.43959000  0.51051000  0.69422700  1
  Ni  Ni15  1  0.83411400  0.57444900  0.44905300  1
  Ni  Ni16  1  0.48949000  0.43959000  0.44422700  1
  Ni  Ni17  1  0.54985400  0.68991500  0.07057500  1
  Ni  Ni18  1  0.56041000  0.48949000  0.19422700  1
  Ni  Ni19  1  0.86420300  0.26689800  0.20384700  1
  Ni  Ni20  1  0.16736000  0.46803000  0.49853900  1
  Ni  Ni21  1  0.89724000  0.97042600  0.14013500  1
  Ni  Ni22  1  0.26842100  0.97290900  0.32400700  1
  Ni  Ni23  1  0.80469500  0.89149400  0.70044300  1
  Ni  Ni24  1  0.42555100  0.83411400  0.19905300  1
  Ni  Ni25  1  0.68991500  0.45014600  0.32057500  1
  Ni  Ni26  1  0.57397900  0.75552300  0.38288200  1
  Ni  Ni27  1  0.75552300  0.42602100  0.63288200  1
  Ni  Ni28  1  0.31008500  0.54985400  0.82057500  1
  Ni  Ni29  1  0.73157900  0.02709100  0.82400700  1
  Ni  Ni30  1  0.24447700  0.57397900  0.13288200  1
  Ni  Ni31  1  0.26689800  0.13579700  0.45384700  1
  Ni  Ni32  1  0.53197000  0.16736000  0.24853900  1
  Ni  Ni33  1  0.97290900  0.73157900  0.57400700  1
  Ni  Ni34  1  0.10276000  0.02957400  0.64013500  1
  Ni  Ni35  1  0.16588600  0.42555100  0.94905300  1
  Cu  Cu36  1  0.77390100  0.13410900  0.50902700  1
  Cu  Cu37  1  0.56845300  0.18705700  0.06299600  1
  Cu  Cu38  1  0.81294300  0.56845300  0.81299600  1
  Cu  Cu39  1  0.18705700  0.43154700  0.31299600  1
  Cu  Cu40  1  0.13410900  0.22609900  0.75902700  1
  Cu  Cu41  1  0.22609900  0.86589100  0.00902700  1
  Cu  Cu42  1  0.43154700  0.81294300  0.56299600  1
  Cu  Cu43  1  0.86589100  0.77390100  0.25902700  1
  C  C44  1  0.32432000  0.65830300  0.74398900  1
  C  C45  1  0.34921500  0.45179500  0.89815900  1
  C  C46  1  0.34169700  0.32432000  0.49398900  1
  C  C47  1  0.63538400  0.98514600  0.74627100  1
  C  C48  1  0.01334300  0.16153200  0.15151100  1
  C  C49  1  0.98514600  0.36461600  0.99627100  1
  C  C50  1  0.65078500  0.54820500  0.39815900  1
  C  C51  1  0.01485400  0.63538400  0.49627100  1
  C  C52  1  0.83846800  0.01334300  0.90151100  1
  C  C53  1  0.45179500  0.65078500  0.14815900  1
  C  C54  1  0.65830300  0.67568000  0.99398900  1
  C  C55  1  0.54820500  0.34921500  0.64815900  1
  C  C56  1  0.67568000  0.34169700  0.24398900  1
  C  C57  1  0.36461600  0.01485400  0.24627100  1
  C  C58  1  0.16153200  0.98665700  0.40151100  1
  C  C59  1  0.98665700  0.83846800  0.65151100  1
  C  C60  1  0.79449700  0.10247600  0.60138300  1
  C  C61  1  0.23171200  0.79652000  0.89861000  1
  C  C62  1  0.04727600  0.47944400  0.76904500  1
  C  C63  1  0.38100700  0.30244900  0.34962500  1
  C  C64  1  0.61243400  0.70007100  0.27076700  1
  C  C65  1  0.76828800  0.20348000  0.39861000  1
  C  C66  1  0.89752400  0.79449700  0.35138300  1
  C  C67  1  0.20348000  0.23171200  0.64861000  1
  C  C68  1  0.39339000  0.70268200  0.47206400  1
  C  C69  1  0.30244900  0.61899300  0.59962500  1
  C  C70  1  0.69755100  0.38100700  0.09962500  1
  C  C71  1  0.61899300  0.69755100  0.84962500  1
  C  C72  1  0.20550300  0.89752400  0.10138300  1
  C  C73  1  0.52055600  0.04727600  0.51904500  1
  C  C74  1  0.90520900  0.16548700  0.72964100  1
  C  C75  1  0.29731800  0.39339000  0.22206400  1
  C  C76  1  0.16548700  0.09479100  0.97964100  1
  C  C77  1  0.70007100  0.38756600  0.52076700  1
  C  C78  1  0.58606300  0.06501300  0.14785900  1
  C  C79  1  0.06372500  0.20095900  0.29279900  1
  C  C80  1  0.41393700  0.93498700  0.64785900  1
  C  C81  1  0.51803300  0.97049000  0.37386900  1
  C  C82  1  0.28935300  0.65302700  0.33573800  1
  C  C83  1  0.60661000  0.29731800  0.97206400  1
  C  C84  1  0.00980100  0.21188500  0.50594000  1
  C  C85  1  0.99019900  0.78811500  0.00594000  1
  C  C86  1  0.93498700  0.58606300  0.89785900  1
  C  C87  1  0.09479100  0.83451300  0.22964100  1
  C  C88  1  0.78811500  0.00980100  0.25594000  1
  C  C89  1  0.65302700  0.71064700  0.58573800  1
  C  C90  1  0.95272400  0.52055600  0.26904500  1
  C  C91  1  0.34697300  0.28935300  0.08573800  1
  C  C92  1  0.93627500  0.79904100  0.79279900  1
  C  C93  1  0.29992900  0.61243400  0.02076700  1
  C  C94  1  0.21188500  0.99019900  0.75594000  1
  C  C95  1  0.79904100  0.06372500  0.04279900  1
  C  C96  1  0.71064700  0.34697300  0.83573800  1
  C  C97  1  0.38756600  0.29992900  0.77076700  1
  C  C98  1  0.10247600  0.20550300  0.85138300  1
  C  C99  1  0.97049000  0.48196700  0.62386900  1
  C  C100  1  0.47944400  0.95272400  0.01904500  1
  C  C101  1  0.02951000  0.51803300  0.12386900  1
  C  C102  1  0.79652000  0.76828800  0.14861000  1
  C  C103  1  0.48196700  0.02951000  0.87386900  1
  C  C104  1  0.06501300  0.41393700  0.39785900  1
  C  C105  1  0.70268200  0.60661000  0.72206400  1
  C  C106  1  0.20095900  0.93627500  0.54279900  1
  C  C107  1  0.83451300  0.90520900  0.47964100  1
