# generated using pymatgen
data_Cu4NiC
_symmetry_space_group_name_H-M   'P 1'
_cell_length_a   8.61590655
_cell_length_b   10.33920568
_cell_length_c   9.94831895
_cell_angle_alpha   103.91902102
_cell_angle_beta   90.00046974
_cell_angle_gamma   65.37328955
_symmetry_Int_Tables_number   1
_chemical_formula_structural   Cu4NiC
_chemical_formula_sum   'Cu32 Ni8 C8'
_cell_volume   776.88766618
_cell_formula_units_Z   8
loop_
 _symmetry_equiv_pos_site_id
 _symmetry_equiv_pos_as_xyz
  1  'x, y, z'
loop_
 _atom_site_type_symbol
 _atom_site_label
 _atom_site_symmetry_multiplicity
 _atom_site_fract_x
 _atom_site_fract_y
 _atom_site_fract_z
 _atom_site_occupancy
  C  C0  1  0.24999900  0.50000100  0.87500000  1
  C  C1  1  0.75000000  0.50000000  0.62500000  1
  C  C2  1  0.25000000  0.49999900  0.37499900  1
  C  C3  1  0.75000000  0.50000000  0.12500000  1
  C  C4  1  0.50009400  0.00001800  0.75012700  1
  C  C5  1  0.99991000  0.99997700  0.49986600  1
  C  C6  1  0.50005100  0.99993400  0.25019900  1
  C  C7  1  0.99995900  0.00006900  0.99981700  1
  Ni  Ni8  1  0.23975800  0.18710900  0.54679100  1
  Ni  Ni9  1  0.73977800  0.18710900  0.29675300  1
  Ni  Ni10  1  0.23976400  0.18710900  0.04679900  1
  Ni  Ni11  1  0.73978300  0.18711100  0.79675900  1
  Ni  Ni12  1  0.26024100  0.81289200  0.70320900  1
  Ni  Ni13  1  0.76021600  0.81288900  0.45324100  1
  Ni  Ni14  1  0.26023600  0.81289100  0.20320100  1
  Ni  Ni15  1  0.76022200  0.81289200  0.95324700  1
  Cu  Cu16  1  0.34105500  0.65125800  0.66281700  1
  Cu  Cu17  1  0.84105200  0.65125800  0.41281700  1
  Cu  Cu18  1  0.34105000  0.65125900  0.16281500  1
  Cu  Cu19  1  0.84105300  0.65125700  0.91281600  1
  Cu  Cu20  1  0.15894400  0.34874200  0.58718300  1
  Cu  Cu21  1  0.65894600  0.34874300  0.33718400  1
  Cu  Cu22  1  0.15894900  0.34874100  0.08718400  1
  Cu  Cu23  1  0.65894700  0.34874200  0.83718200  1
  Cu  Cu24  1  0.38561900  0.86826000  0.76722400  1
  Cu  Cu25  1  0.88564000  0.86824400  0.51717400  1
  Cu  Cu26  1  0.38561700  0.86826500  0.26720700  1
  Cu  Cu27  1  0.88563600  0.86825400  0.01717200  1
  Cu  Cu28  1  0.10587100  0.86829300  0.80683800  1
  Cu  Cu29  1  0.60583800  0.86825500  0.55677600  1
  Cu  Cu30  1  0.10585700  0.86828700  0.30682000  1
  Cu  Cu31  1  0.60584800  0.86826300  0.05678800  1
  Cu  Cu32  1  0.29389300  0.13173700  0.67282400  1
  Cu  Cu33  1  0.79391100  0.13169700  0.42281600  1
  Cu  Cu34  1  0.29390600  0.13172700  0.17281800  1
  Cu  Cu35  1  0.79393200  0.13169400  0.92281200  1
  Cu  Cu36  1  0.11438100  0.13174000  0.48277500  1
  Cu  Cu37  1  0.61436300  0.13174600  0.23282800  1
  Cu  Cu38  1  0.11438300  0.13173500  0.98279200  1
  Cu  Cu39  1  0.61435900  0.13175700  0.73282500  1
  Cu  Cu40  1  0.20610700  0.86826300  0.57717600  1
  Cu  Cu41  1  0.70606800  0.86830600  0.32718700  1
  Cu  Cu42  1  0.20609300  0.86827300  0.07718200  1
  Cu  Cu43  1  0.70608800  0.86830300  0.82718300  1
  Cu  Cu44  1  0.39412900  0.13170700  0.44316100  1
  Cu  Cu45  1  0.89415100  0.13173800  0.19321200  1
  Cu  Cu46  1  0.39414200  0.13171300  0.94317900  1
  Cu  Cu47  1  0.89416200  0.13174500  0.69322300  1
