# generated using pymatgen
data_CuNiC2
_symmetry_space_group_name_H-M   'P 1'
_cell_length_a   6.65889300
_cell_length_b   7.22270300
_cell_length_c   11.00475300
_cell_angle_alpha   90.00000000
_cell_angle_beta   90.00000000
_cell_angle_gamma   90.00000000
_symmetry_Int_Tables_number   1
_chemical_formula_structural   CuNiC2
_chemical_formula_sum   'Cu8 Ni8 C16'
_cell_volume   529.27586744
_cell_formula_units_Z   8
loop_
 _symmetry_equiv_pos_site_id
 _symmetry_equiv_pos_as_xyz
  1  'x, y, z'
loop_
 _atom_site_type_symbol
 _atom_site_label
 _atom_site_symmetry_multiplicity
 _atom_site_fract_x
 _atom_site_fract_y
 _atom_site_fract_z
 _atom_site_occupancy
  C  C0  1  0.63631600  0.84391000  0.68409500  1
  C  C1  1  0.63631600  0.34391000  0.81590500  1
  C  C2  1  0.86368400  0.34391000  0.31590500  1
  C  C3  1  0.36368400  0.15609000  0.31590500  1
  C  C4  1  0.13631600  0.15609000  0.81590500  1
  C  C5  1  0.36368400  0.65609000  0.18409500  1
  C  C6  1  0.13631600  0.65609000  0.68409500  1
  C  C7  1  0.86368400  0.84391000  0.18409500  1
  Ni  Ni8  1  0.63971600  0.20457000  0.07818100  1
  Ni  Ni9  1  0.86028400  0.20457000  0.57818100  1
  Ni  Ni10  1  0.86028400  0.70457000  0.92181900  1
  Ni  Ni11  1  0.13971600  0.79543000  0.42181900  1
  Ni  Ni12  1  0.63971600  0.70457000  0.42181900  1
  Ni  Ni13  1  0.36028400  0.79543000  0.92181900  1
  Ni  Ni14  1  0.36028400  0.29543000  0.57818100  1
  Ni  Ni15  1  0.13971600  0.29543000  0.07818100  1
  Cu  Cu16  1  0.17381200  0.38247800  0.21646600  1
  Cu  Cu17  1  0.82618800  0.61752200  0.78353400  1
  Cu  Cu18  1  0.67381200  0.11752200  0.21646600  1
  Cu  Cu19  1  0.82618800  0.11752200  0.71646600  1
  Cu  Cu20  1  0.32618800  0.88247800  0.78353400  1
  Cu  Cu21  1  0.67381200  0.61752200  0.28353400  1
  Cu  Cu22  1  0.32618800  0.38247800  0.71646600  1
  Cu  Cu23  1  0.17381200  0.88247800  0.28353400  1
  C  C24  1  0.38202500  0.73190800  0.01937100  1
  C  C25  1  0.88202500  0.76809200  0.01937100  1
  C  C26  1  0.88202500  0.26809200  0.48062900  1
  C  C27  1  0.61797500  0.26809200  0.98062900  1
  C  C28  1  0.11797500  0.73190800  0.51937100  1
  C  C29  1  0.61797500  0.76809200  0.51937100  1
  C  C30  1  0.38202500  0.23190800  0.48062900  1
  C  C31  1  0.11797500  0.23190800  0.98062900  1
