# generated using pymatgen
data_Cu2Ni2C13
_symmetry_space_group_name_H-M   'P 1'
_cell_length_a   8.25471000
_cell_length_b   5.49140000
_cell_length_c   11.23731099
_cell_angle_alpha   80.93569172
_cell_angle_beta   90.00000000
_cell_angle_gamma   90.00000000
_symmetry_Int_Tables_number   1
_chemical_formula_structural   Cu2Ni2C13
_chemical_formula_sum   'Cu4 Ni4 C26'
_cell_volume   503.02519987
_cell_formula_units_Z   2
loop_
 _symmetry_equiv_pos_site_id
 _symmetry_equiv_pos_as_xyz
  1  'x, y, z'
loop_
 _atom_site_type_symbol
 _atom_site_label
 _atom_site_symmetry_multiplicity
 _atom_site_fract_x
 _atom_site_fract_y
 _atom_site_fract_z
 _atom_site_occupancy
  C  C0  1  0.28559100  0.51795700  0.11594100  1
  C  C1  1  0.92416900  0.48029100  0.11987600  1
  C  C2  1  0.07583100  0.51970900  0.88012400  1
  C  C3  1  0.71440900  0.48204300  0.88405900  1
  C  C4  1  0.42416900  0.51970900  0.38012400  1
  C  C5  1  0.57583100  0.48029100  0.61987600  1
  C  C6  1  0.21440900  0.51795700  0.61594100  1
  C  C7  1  0.78559100  0.48204300  0.38405900  1
  C  C8  1  0.50000000  0.00000000  0.50000000  1
  C  C9  1  0.00000000  0.00000000  0.00000000  1
  Ni  Ni10  1  0.09108700  0.86467400  0.28497800  1
  Ni  Ni11  1  0.40891300  0.86467400  0.78497800  1
  Ni  Ni12  1  0.90891300  0.13532600  0.71502200  1
  Ni  Ni13  1  0.59108700  0.13532600  0.21502200  1
  Cu  Cu14  1  0.65174700  0.71912400  0.02216800  1
  Cu  Cu15  1  0.34825300  0.28087600  0.97783200  1
  Cu  Cu16  1  0.84825300  0.71912400  0.52216800  1
  Cu  Cu17  1  0.15174700  0.28087600  0.47783200  1
  C  C18  1  0.55913600  0.64742100  0.76111500  1
  C  C19  1  0.56780500  0.92231300  0.34291900  1
  C  C20  1  0.23170000  0.70871000  0.75165500  1
  C  C21  1  0.05913600  0.35257900  0.73888500  1
  C  C22  1  0.06780500  0.07768700  0.15708100  1
  C  C23  1  0.94086400  0.64742100  0.26111500  1
  C  C24  1  0.39948100  0.67027600  0.52680500  1
  C  C25  1  0.60051900  0.32972400  0.47319500  1
  C  C26  1  0.43219500  0.07768700  0.65708100  1
  C  C27  1  0.93219500  0.92231300  0.84291900  1
  C  C28  1  0.26830000  0.70871000  0.25165500  1
  C  C29  1  0.44086400  0.35257900  0.23888500  1
  C  C30  1  0.76830000  0.29129000  0.24834500  1
  C  C31  1  0.73170000  0.29129000  0.74834500  1
  C  C32  1  0.89948100  0.32972400  0.97319500  1
  C  C33  1  0.10051900  0.67027600  0.02680500  1
