# generated using pymatgen
data_CuNi26C19
_symmetry_space_group_name_H-M   'P 1'
_cell_length_a   14.49748214
_cell_length_b   14.49748214
_cell_length_c   14.49748292
_cell_angle_alpha   28.94913603
_cell_angle_beta   28.94913603
_cell_angle_gamma   28.94913419
_symmetry_Int_Tables_number   1
_chemical_formula_structural   CuNi26C19
_chemical_formula_sum   'Cu1 Ni26 C19'
_cell_volume   631.37748243
_cell_formula_units_Z   1
loop_
 _symmetry_equiv_pos_site_id
 _symmetry_equiv_pos_as_xyz
  1  'x, y, z'
loop_
 _atom_site_type_symbol
 _atom_site_label
 _atom_site_symmetry_multiplicity
 _atom_site_fract_x
 _atom_site_fract_y
 _atom_site_fract_z
 _atom_site_occupancy
  C  C0  1  0.00000000  0.00000000  0.00000000  1
  C  C1  1  0.08312300  0.55578000  0.55578000  1
  C  C2  1  0.22489500  0.68844400  0.68844400  1
  C  C3  1  0.55578000  0.55578000  0.08312300  1
  C  C4  1  0.68844400  0.22489500  0.68844400  1
  C  C5  1  0.31155600  0.77510500  0.31155600  1
  C  C6  1  0.44422000  0.91687700  0.44422000  1
  C  C7  1  0.55578000  0.08312300  0.55578000  1
  C  C8  1  0.44422000  0.44422000  0.91687700  1
  C  C9  1  0.77510500  0.31155600  0.31155600  1
  C  C10  1  0.68844400  0.68844400  0.22489500  1
  C  C11  1  0.31155600  0.31155600  0.77510500  1
  C  C12  1  0.91687700  0.44422000  0.44422000  1
  C  C13  1  0.79529000  0.79529000  0.79529000  1
  C  C14  1  0.08292900  0.08292900  0.08292900  1
  C  C15  1  0.91707100  0.91707100  0.91707100  1
  C  C16  1  0.20471000  0.20471000  0.20471000  1
  C  C17  1  0.67643000  0.67643000  0.67643000  1
  C  C18  1  0.32357000  0.32357000  0.32357000  1
  Ni  Ni19  1  0.87684700  0.87684700  0.87684700  1
  Ni  Ni20  1  0.80031600  0.80031600  0.46549800  1
  Ni  Ni21  1  0.31840100  0.31840100  0.94125100  1
  Ni  Ni22  1  0.56837800  0.56837800  0.56837800  1
  Ni  Ni23  1  0.19968400  0.53450200  0.19968400  1
  Ni  Ni24  1  0.19968400  0.19968400  0.53450200  1
  Ni  Ni25  1  0.19935000  0.82000200  0.19935000  1
  Ni  Ni26  1  0.31840100  0.94125100  0.31840100  1
  Ni  Ni27  1  0.53450200  0.19968400  0.19968400  1
  Ni  Ni28  1  0.05874900  0.68159900  0.68159900  1
  Ni  Ni29  1  0.82000200  0.19935000  0.19935000  1
  Ni  Ni30  1  0.80031600  0.46549800  0.80031600  1
  Ni  Ni31  1  0.17999800  0.80065000  0.80065000  1
  Ni  Ni32  1  0.19935000  0.19935000  0.82000200  1
  Ni  Ni33  1  0.43162200  0.43162200  0.43162200  1
  Ni  Ni34  1  0.94125100  0.31840100  0.31840100  1
  Ni  Ni35  1  0.35973600  0.35973600  0.35973600  1
  Ni  Ni36  1  0.75501300  0.75501300  0.75501300  1
  Ni  Ni37  1  0.46549800  0.80031600  0.80031600  1
  Ni  Ni38  1  0.80065000  0.80065000  0.17999800  1
  Ni  Ni39  1  0.80065000  0.17999800  0.80065000  1
  Ni  Ni40  1  0.12315300  0.12315300  0.12315300  1
  Ni  Ni41  1  0.64026400  0.64026400  0.64026400  1
  Ni  Ni42  1  0.68159900  0.68159900  0.05874900  1
  Ni  Ni43  1  0.24498700  0.24498700  0.24498700  1
  Ni  Ni44  1  0.68159900  0.05874900  0.68159900  1
  Cu  Cu45  1  0.50000000  0.50000000  0.50000000  1
