# generated using pymatgen
data_Cu(NiC7)2
_symmetry_space_group_name_H-M   'P 1'
_cell_length_a   12.58086000
_cell_length_b   6.43462000
_cell_length_c   12.07097444
_cell_angle_alpha   88.31599094
_cell_angle_beta   90.00000000
_cell_angle_gamma   90.00000000
_symmetry_Int_Tables_number   1
_chemical_formula_structural   Cu(NiC7)2
_chemical_formula_sum   'Cu4 Ni8 C56'
_cell_volume   976.76019422
_cell_formula_units_Z   4
loop_
 _symmetry_equiv_pos_site_id
 _symmetry_equiv_pos_as_xyz
  1  'x, y, z'
loop_
 _atom_site_type_symbol
 _atom_site_label
 _atom_site_symmetry_multiplicity
 _atom_site_fract_x
 _atom_site_fract_y
 _atom_site_fract_z
 _atom_site_occupancy
  C  C0  1  0.87118000  0.24887100  0.90445700  1
  C  C1  1  0.37118000  0.75112900  0.59554300  1
  C  C2  1  0.38482500  0.25268100  0.90186100  1
  C  C3  1  0.62882000  0.24887100  0.40445700  1
  C  C4  1  0.61517500  0.74731900  0.09813900  1
  C  C5  1  0.12882000  0.75112900  0.09554300  1
  C  C6  1  0.88482500  0.74731900  0.59813900  1
  C  C7  1  0.11517500  0.25268100  0.40186100  1
  Ni  Ni8  1  0.43643800  0.24417800  0.61231500  1
  Ni  Ni9  1  0.37548200  0.75580400  0.96019000  1
  Ni  Ni10  1  0.06356200  0.24417800  0.11231500  1
  Ni  Ni11  1  0.93643800  0.75582200  0.88768500  1
  Ni  Ni12  1  0.62451800  0.24419600  0.03981000  1
  Ni  Ni13  1  0.12451800  0.75580400  0.46019000  1
  Ni  Ni14  1  0.87548200  0.24419600  0.53981000  1
  Ni  Ni15  1  0.56356200  0.75582200  0.38768500  1
  Cu  Cu16  1  0.62277800  0.00977800  0.76832800  1
  Cu  Cu17  1  0.87722200  0.00977800  0.26832800  1
  Cu  Cu18  1  0.37722200  0.99022200  0.23167200  1
  Cu  Cu19  1  0.12277800  0.99022200  0.73167200  1
  C  C20  1  0.99043700  0.23600500  0.83099200  1
  C  C21  1  0.90821000  0.44397400  0.60178500  1
  C  C22  1  0.74493500  0.23671700  0.02451000  1
  C  C23  1  0.35716300  0.06680300  0.58626400  1
  C  C24  1  0.36503500  0.21880800  0.04447300  1
  C  C25  1  0.49043700  0.76399500  0.66900800  1
  C  C26  1  0.25754700  0.24430700  0.84681400  1
  C  C27  1  0.54634800  0.20582000  0.56118400  1
  C  C28  1  0.45365200  0.79418000  0.43881600  1
  C  C29  1  0.38278900  0.44650000  0.56806100  1
  C  C30  1  0.86503500  0.78119200  0.45552700  1
  C  C31  1  0.64283700  0.93319700  0.41373600  1
  C  C32  1  0.72495900  0.26792000  0.29965000  1
  C  C33  1  0.88278900  0.55350000  0.93193900  1
  C  C34  1  0.95365200  0.20582000  0.06118400  1
  C  C35  1  0.40821000  0.55602600  0.89821500  1
  C  C36  1  0.25506500  0.76328300  0.97549000  1
  C  C37  1  0.04208600  0.25095700  0.23910200  1
  C  C38  1  0.59179000  0.44397400  0.10178500  1
  C  C39  1  0.58729500  0.05895300  0.11727400  1
  C  C40  1  0.56402300  0.23807500  0.92809100  1
  C  C41  1  0.91270500  0.05895300  0.61727400  1
  C  C42  1  0.00956300  0.76399500  0.16900800  1
  C  C43  1  0.85716300  0.93319700  0.91373600  1
  C  C44  1  0.93597700  0.23807500  0.42809100  1
  C  C45  1  0.45791400  0.25095700  0.73910200  1
  C  C46  1  0.24493500  0.76328300  0.47549000  1
  C  C47  1  0.77504100  0.26792000  0.79965000  1
  C  C48  1  0.22495900  0.73208000  0.20035000  1
  C  C49  1  0.14283700  0.06680300  0.08626400  1
  C  C50  1  0.09179000  0.55602600  0.39821500  1
  C  C51  1  0.43597700  0.76192500  0.07190900  1
  C  C52  1  0.04634800  0.79418000  0.93881600  1
  C  C53  1  0.11721100  0.44650000  0.06806100  1
  C  C54  1  0.63496500  0.78119200  0.95552700  1
  C  C55  1  0.06402300  0.76192500  0.57190900  1
  C  C56  1  0.74245300  0.75569300  0.15318600  1
  C  C57  1  0.95791400  0.74904300  0.76089800  1
  C  C58  1  0.75754700  0.75569300  0.65318600  1
  C  C59  1  0.61721100  0.55350000  0.43193900  1
  C  C60  1  0.27504100  0.73208000  0.70035000  1
  C  C61  1  0.50956300  0.23600500  0.33099200  1
  C  C62  1  0.75506500  0.23671700  0.52451000  1
  C  C63  1  0.13496500  0.21880800  0.54447300  1
  C  C64  1  0.54208600  0.74904300  0.26089800  1
  C  C65  1  0.24245300  0.24430700  0.34681400  1
  C  C66  1  0.41270500  0.94104700  0.88272600  1
  C  C67  1  0.08729500  0.94104700  0.38272600  1
