# generated using pymatgen
data_Cu3(NiC)2
_symmetry_space_group_name_H-M   'P 1'
_cell_length_a   8.07325925
_cell_length_b   10.80937417
_cell_length_c   16.08266765
_cell_angle_alpha   90.00000000
_cell_angle_beta   90.00000000
_cell_angle_gamma   90.00000000
_symmetry_Int_Tables_number   1
_chemical_formula_structural   Cu3(NiC)2
_chemical_formula_sum   'Cu36 Ni24 C24'
_cell_volume   1403.48422797
_cell_formula_units_Z   12
loop_
 _symmetry_equiv_pos_site_id
 _symmetry_equiv_pos_as_xyz
  1  'x, y, z'
loop_
 _atom_site_type_symbol
 _atom_site_label
 _atom_site_symmetry_multiplicity
 _atom_site_fract_x
 _atom_site_fract_y
 _atom_site_fract_z
 _atom_site_occupancy
  C  C0  1  0.70259571  0.98540734  0.87866678  1
  C  C1  1  0.78865032  0.45564256  0.86325496  1
  C  C2  1  0.94479270  0.75193797  0.01592328  1
  C  C3  1  0.78865032  0.95564256  0.63674504  1
  C  C4  1  0.95163521  0.74997007  0.45487881  1
  C  C5  1  0.58463010  0.25908404  0.23361084  1
  C  C6  1  0.95163521  0.24997007  0.04512119  1
  C  C7  1  0.94479270  0.25193797  0.48407672  1
  C  C8  1  0.28865032  0.04435744  0.36325496  1
  C  C9  1  0.08463010  0.74091596  0.76638916  1
  C  C10  1  0.08463010  0.24091596  0.73361084  1
  C  C11  1  0.88152381  0.48653795  0.24960551  1
  C  C12  1  0.20259571  0.51459266  0.37866678  1
  C  C13  1  0.28865032  0.54435744  0.13674504  1
  C  C14  1  0.20259571  0.01459266  0.12133322  1
  C  C15  1  0.45163521  0.75002993  0.95487881  1
  C  C16  1  0.38152381  0.01346205  0.74960551  1
  C  C17  1  0.38152381  0.51346205  0.75039449  1
  C  C18  1  0.45163521  0.25002993  0.54512119  1
  C  C19  1  0.44479270  0.74806203  0.51592328  1
  C  C20  1  0.70259571  0.48540734  0.62133322  1
  C  C21  1  0.44479270  0.24806203  0.98407672  1
  C  C22  1  0.58463010  0.75908404  0.26638916  1
  C  C23  1  0.88152381  0.98653795  0.25039449  1
  Ni  Ni24  1  0.66178000  0.22125510  0.73914538  1
  Ni  Ni25  1  0.16178000  0.27874490  0.23914538  1
  Ni  Ni26  1  0.23176838  0.98490684  0.93355923  1
  Ni  Ni27  1  0.63556576  0.12605434  0.41120467  1
  Ni  Ni28  1  0.06646224  0.99436538  0.83872384  1
  Ni  Ni29  1  0.45640040  0.27470377  0.80312702  1
  Ni  Ni30  1  0.06646224  0.49436538  0.66127616  1
  Ni  Ni31  1  0.95640040  0.22529623  0.30312702  1
  Ni  Ni32  1  0.73176838  0.51509316  0.43355923  1
  Ni  Ni33  1  0.16178000  0.77874490  0.26085462  1
  Ni  Ni34  1  0.66178000  0.72125510  0.76085462  1
  Ni  Ni35  1  0.64714617  0.44050698  0.07746703  1
  Ni  Ni36  1  0.73176838  0.01509316  0.06644077  1
  Ni  Ni37  1  0.23176838  0.48490684  0.56644077  1
  Ni  Ni38  1  0.45640040  0.77470377  0.69687298  1
  Ni  Ni39  1  0.64714617  0.94050698  0.42253297  1
  Ni  Ni40  1  0.13556576  0.87394566  0.58879533  1
  Ni  Ni41  1  0.56646224  0.00563462  0.16127616  1
  Ni  Ni42  1  0.14714617  0.05949302  0.57746703  1
  Ni  Ni43  1  0.13556576  0.37394566  0.91120467  1
  Ni  Ni44  1  0.95640040  0.72529623  0.19687298  1
  Ni  Ni45  1  0.56646224  0.50563462  0.33872384  1
  Ni  Ni46  1  0.63556576  0.62605434  0.08879533  1
  Ni  Ni47  1  0.14714617  0.55949302  0.92253297  1
  Cu  Cu48  1  0.81004292  0.77465151  0.71942763  1
  Cu  Cu49  1  0.22510842  0.60075703  0.51649266  1
  Cu  Cu50  1  0.15161289  0.23567294  0.15176449  1
  Cu  Cu51  1  0.98726739  0.11461055  0.60704138  1
  Cu  Cu52  1  0.66809942  0.08218046  0.74255286  1
  Cu  Cu53  1  0.67473286  0.40586405  0.98930007  1
  Cu  Cu54  1  0.67473286  0.90586405  0.51069993  1
  Cu  Cu55  1  0.66809942  0.58218046  0.75744714  1
  Cu  Cu56  1  0.28442230  0.60938424  0.86976387  1
  Cu  Cu57  1  0.17473286  0.09413595  0.48930007  1
  Cu  Cu58  1  0.31004292  0.72534849  0.21942763  1
  Cu  Cu59  1  0.48726739  0.38538945  0.10704138  1
  Cu  Cu60  1  0.28442230  0.10938424  0.63023613  1
  Cu  Cu61  1  0.89909795  0.53311687  0.39625964  1
  Cu  Cu62  1  0.89909795  0.03311687  0.10374036  1
  Cu  Cu63  1  0.78442230  0.39061576  0.13023613  1
  Cu  Cu64  1  0.17473286  0.59413595  0.01069993  1
  Cu  Cu65  1  0.16809942  0.41781954  0.24255286  1
  Cu  Cu66  1  0.69256505  0.12271929  0.01168008  1
  Cu  Cu67  1  0.69256505  0.62271929  0.48831992  1
  Cu  Cu68  1  0.72510842  0.39924297  0.48350734  1
  Cu  Cu69  1  0.15161289  0.73567294  0.34823551  1
  Cu  Cu70  1  0.31004292  0.22534849  0.28057237  1
  Cu  Cu71  1  0.72510842  0.89924297  0.01649266  1
  Cu  Cu72  1  0.19256505  0.37728071  0.51168008  1
  Cu  Cu73  1  0.39909795  0.46688313  0.60374036  1
  Cu  Cu74  1  0.16809942  0.91781954  0.25744714  1
  Cu  Cu75  1  0.65161289  0.76432706  0.84823551  1
  Cu  Cu76  1  0.19256505  0.87728071  0.98831992  1
  Cu  Cu77  1  0.22510842  0.10075703  0.98350734  1
  Cu  Cu78  1  0.39909795  0.96688313  0.89625964  1
  Cu  Cu79  1  0.65161289  0.26432706  0.65176449  1
  Cu  Cu80  1  0.48726739  0.88538945  0.39295862  1
  Cu  Cu81  1  0.78442230  0.89061576  0.36976387  1
  Cu  Cu82  1  0.98726739  0.61461055  0.89295862  1
  Cu  Cu83  1  0.81004292  0.27465151  0.78057237  1
