# generated using pymatgen
data_Cu(NiC2)2
_symmetry_space_group_name_H-M   'P 1'
_cell_length_a   7.94781400
_cell_length_b   7.94781400
_cell_length_c   12.80106500
_cell_angle_alpha   90.00000000
_cell_angle_beta   90.00000000
_cell_angle_gamma   90.00000000
_symmetry_Int_Tables_number   1
_chemical_formula_structural   Cu(NiC2)2
_chemical_formula_sum   'Cu4 Ni8 C16'
_cell_volume   808.61444010
_cell_formula_units_Z   4
loop_
 _symmetry_equiv_pos_site_id
 _symmetry_equiv_pos_as_xyz
  1  'x, y, z'
loop_
 _atom_site_type_symbol
 _atom_site_label
 _atom_site_symmetry_multiplicity
 _atom_site_fract_x
 _atom_site_fract_y
 _atom_site_fract_z
 _atom_site_occupancy
  Ni  Ni0  1  0.50000000  0.00000000  0.75000000  1
  Ni  Ni1  1  0.00000000  0.50000000  0.75000000  1
  Ni  Ni2  1  0.00000000  0.50000000  0.00000000  1
  Ni  Ni3  1  0.00000000  0.50000000  0.25000000  1
  Ni  Ni4  1  0.50000000  0.00000000  0.50000000  1
  Ni  Ni5  1  0.50000000  0.00000000  0.25000000  1
  Ni  Ni6  1  0.00000000  0.50000000  0.50000000  1
  Ni  Ni7  1  0.50000000  0.00000000  0.00000000  1
  Cu  Cu8  1  0.00000000  0.00000000  0.12372900  1
  Cu  Cu9  1  0.00000000  0.00000000  0.87627100  1
  Cu  Cu10  1  0.50000000  0.50000000  0.37627100  1
  Cu  Cu11  1  0.50000000  0.50000000  0.62372900  1
  C  C12  1  0.66265600  0.83087800  0.87546100  1
  C  C13  1  0.16265600  0.33087800  0.62453900  1
  C  C14  1  0.83734400  0.66912200  0.62453900  1
  C  C15  1  0.16265600  0.66912200  0.37546100  1
  C  C16  1  0.66912200  0.16265600  0.62453900  1
  C  C17  1  0.83087800  0.33734400  0.87546100  1
  C  C18  1  0.66912200  0.83734400  0.37546100  1
  C  C19  1  0.66265600  0.16912200  0.12453900  1
  C  C20  1  0.16912200  0.33734400  0.12453900  1
  C  C21  1  0.33087800  0.83734400  0.62453900  1
  C  C22  1  0.16912200  0.66265600  0.87546100  1
  C  C23  1  0.83734400  0.33087800  0.37546100  1
  C  C24  1  0.83087800  0.66265600  0.12453900  1
  C  C25  1  0.33734400  0.16912200  0.87546100  1
  C  C26  1  0.33087800  0.16265600  0.37546100  1
  C  C27  1  0.33734400  0.83087800  0.12453900  1
