# generated using pymatgen
data_CuNi5C4
_symmetry_space_group_name_H-M   'P 1'
_cell_length_a   7.95313400
_cell_length_b   11.78730900
_cell_length_c   15.33482600
_cell_angle_alpha   90.00000000
_cell_angle_beta   90.00000000
_cell_angle_gamma   90.00000000
_symmetry_Int_Tables_number   1
_chemical_formula_structural   CuNi5C4
_chemical_formula_sum   'Cu4 Ni20 C16'
_cell_volume   1437.57933391
_cell_formula_units_Z   4
loop_
 _symmetry_equiv_pos_site_id
 _symmetry_equiv_pos_as_xyz
  1  'x, y, z'
loop_
 _atom_site_type_symbol
 _atom_site_label
 _atom_site_symmetry_multiplicity
 _atom_site_fract_x
 _atom_site_fract_y
 _atom_site_fract_z
 _atom_site_occupancy
  C  C0  1  0.65654300  0.00058800  0.14298300  1
  C  C1  1  0.34345700  0.99941200  0.85701700  1
  C  C2  1  0.15654300  0.50058800  0.35701700  1
  C  C3  1  0.84345700  0.00058800  0.64298300  1
  C  C4  1  0.84345700  0.49941200  0.64298300  1
  C  C5  1  0.15654300  0.99941200  0.35701700  1
  C  C6  1  0.34345700  0.50058800  0.85701700  1
  C  C7  1  0.65654300  0.49941200  0.14298300  1
  C  C8  1  0.18425300  0.25000000  0.10919300  1
  C  C9  1  0.81574700  0.75000000  0.89080700  1
  C  C10  1  0.31574700  0.25000000  0.60919300  1
  C  C11  1  0.68425300  0.75000000  0.39080700  1
  Ni  Ni12  1  0.08685900  0.75000000  0.77838000  1
  Ni  Ni13  1  0.19210300  0.48370100  0.11252400  1
  Ni  Ni14  1  0.39129100  0.25000000  0.25341700  1
  Ni  Ni15  1  0.58685900  0.25000000  0.72162000  1
  Ni  Ni16  1  0.96583500  0.75000000  0.49646500  1
  Ni  Ni17  1  0.89129100  0.75000000  0.24658300  1
  Ni  Ni18  1  0.80789700  0.51629900  0.88747600  1
  Ni  Ni19  1  0.03416500  0.25000000  0.50353500  1
  Ni  Ni20  1  0.60870900  0.75000000  0.74658300  1
  Ni  Ni21  1  0.69210300  0.98370100  0.38747600  1
  Ni  Ni22  1  0.19210300  0.01629900  0.11252400  1
  Ni  Ni23  1  0.53416500  0.75000000  0.99646500  1
  Ni  Ni24  1  0.30789700  0.01629900  0.61252400  1
  Ni  Ni25  1  0.91314100  0.25000000  0.22162000  1
  Ni  Ni26  1  0.46583500  0.25000000  0.00353500  1
  Ni  Ni27  1  0.41314100  0.75000000  0.27838000  1
  Ni  Ni28  1  0.69210300  0.51629900  0.38747600  1
  Ni  Ni29  1  0.30789700  0.48370100  0.61252400  1
  Ni  Ni30  1  0.10870900  0.25000000  0.75341700  1
  Ni  Ni31  1  0.80789700  0.98370100  0.88747600  1
  Cu  Cu32  1  0.95752900  0.75000000  0.97731900  1
  Cu  Cu33  1  0.54247100  0.75000000  0.47731900  1
  Cu  Cu34  1  0.04247100  0.25000000  0.02268100  1
  Cu  Cu35  1  0.45752900  0.25000000  0.52268100  1
  C  C36  1  0.06089200  0.75000000  0.03165600  1
  C  C37  1  0.56089200  0.25000000  0.46834400  1
  C  C38  1  0.43910800  0.75000000  0.53165600  1
  C  C39  1  0.93910800  0.25000000  0.96834400  1
