# generated using pymatgen
data_Cu2NiC26
_symmetry_space_group_name_H-M   'P 1'
_cell_length_a   12.94995833
_cell_length_b   12.94995833
_cell_length_c   12.94995833
_cell_angle_alpha   109.39326852
_cell_angle_beta   109.39326852
_cell_angle_gamma   109.62723761
_symmetry_Int_Tables_number   1
_chemical_formula_structural   Cu2NiC26
_chemical_formula_sum   'Cu4 Ni2 C52'
_cell_volume   1671.78647164
_cell_formula_units_Z   2
loop_
 _symmetry_equiv_pos_site_id
 _symmetry_equiv_pos_as_xyz
  1  'x, y, z'
loop_
 _atom_site_type_symbol
 _atom_site_label
 _atom_site_symmetry_multiplicity
 _atom_site_fract_x
 _atom_site_fract_y
 _atom_site_fract_z
 _atom_site_occupancy
  C  C0  1  0.35750600  0.35750600  0.00000000  1
  C  C1  1  0.62500000  0.89294600  0.76794600  1
  C  C2  1  0.10705400  0.87500000  0.73205400  1
  C  C3  1  0.62500000  0.60593100  0.48093100  1
  C  C4  1  0.14294600  0.37500000  0.26794600  1
  C  C5  1  0.64249400  0.64249400  0.00000000  1
  C  C6  1  0.39406900  0.87500000  0.01906900  1
  C  C7  1  0.12500000  0.85705400  0.23205400  1
  C  C8  1  0.89249400  0.39249400  0.50000000  1
  C  C9  1  0.85593100  0.37500000  0.98093100  1
  C  C10  1  0.60750600  0.10750600  0.50000000  1
  C  C11  1  0.12500000  0.14406900  0.51906900  1
  Ni  Ni12  1  0.25000000  0.75000000  0.50000000  1
  Ni  Ni13  1  0.00000000  0.00000000  0.00000000  1
  Cu  Cu14  1  0.62500000  0.25005100  0.12505100  1
  Cu  Cu15  1  0.50005100  0.37500000  0.62505100  1
  Cu  Cu16  1  0.12500000  0.49994900  0.87494900  1
  Cu  Cu17  1  0.74994900  0.87500000  0.37494900  1
  C  C18  1  0.42078500  0.12715000  0.75354400  1
  C  C19  1  0.91724100  0.12360600  0.74645600  1
  C  C20  1  0.87285000  0.62639400  0.29363500  1
  C  C21  1  0.33275900  0.57921500  0.70636500  1
  C  C22  1  0.82921500  0.08275900  0.20636500  1
  C  C23  1  0.87639400  0.62285000  0.79363500  1
  C  C24  1  0.37715000  0.17078500  0.25354400  1
  C  C25  1  0.37360600  0.66724100  0.24645600  1
  C  C26  1  0.60200900  0.12339600  0.74897100  1
  C  C27  1  0.85217600  0.27683800  0.20761000  1
  C  C28  1  0.91949900  0.14217300  0.94369800  1
  C  C29  1  0.68367000  0.45036300  0.09925600  1
  C  C30  1  0.10303700  0.12442400  0.75102900  1
  C  C31  1  0.05152500  0.60782700  0.27732600  1
  C  C32  1  0.72316200  0.93077200  0.57533800  1
  C  C33  1  0.39217300  0.66949900  0.44369800  1
  C  C34  1  0.39782400  0.10543400  0.92466200  1
  C  C35  1  0.02419900  0.08050100  0.22267400  1
  C  C36  1  0.85782700  0.80152500  0.77732600  1
  C  C37  1  0.19847500  0.97580100  0.05630200  1
  C  C38  1  0.52683800  0.60217600  0.70761000  1
  C  C39  1  0.14696300  0.39799100  0.52138700  1
  C  C40  1  0.87660400  0.62557600  0.47861300  1
  C  C41  1  0.37339600  0.35200900  0.24897100  1
  C  C42  1  0.33050100  0.77419900  0.72267400  1
  C  C43  1  0.06922800  0.64456600  0.79239000  1
  C  C44  1  0.87557600  0.62660400  0.97861300  1
  C  C45  1  0.64799100  0.89696300  0.02138700  1
  C  C46  1  0.70036300  0.43367000  0.59925600  1
  C  C47  1  0.41558600  0.31633000  0.76669300  1
  C  C48  1  0.35543400  0.14782400  0.42466200  1
  C  C49  1  0.56633000  0.16558600  0.26669300  1
  C  C50  1  0.35110600  0.58441400  0.90074400  1
  C  C51  1  0.89889400  0.29963700  0.73330700  1
  C  C52  1  0.54963700  0.64889400  0.23330700  1
  C  C53  1  0.18077200  0.47316200  0.07533800  1
  C  C54  1  0.22580100  0.94847500  0.55630200  1
  C  C55  1  0.83441400  0.10110600  0.40074400  1
  C  C56  1  0.37442400  0.85303700  0.25102900  1
  C  C57  1  0.89456600  0.81922800  0.29239000  1
