# generated using pymatgen
data_Cu5Ni2C17
_symmetry_space_group_name_H-M   'P 1'
_cell_length_a   9.37008200
_cell_length_b   7.55859100
_cell_length_c   10.35815725
_cell_angle_alpha   67.72894285
_cell_angle_beta   90.00000000
_cell_angle_gamma   90.00000000
_symmetry_Int_Tables_number   1
_chemical_formula_structural   Cu5Ni2C17
_chemical_formula_sum   'Cu10 Ni4 C34'
_cell_volume   678.88597122
_cell_formula_units_Z   2
loop_
 _symmetry_equiv_pos_site_id
 _symmetry_equiv_pos_as_xyz
  1  'x, y, z'
loop_
 _atom_site_type_symbol
 _atom_site_label
 _atom_site_symmetry_multiplicity
 _atom_site_fract_x
 _atom_site_fract_y
 _atom_site_fract_z
 _atom_site_occupancy
  C  C0  1  0.19600300  0.98044900  0.26486000  1
  C  C1  1  0.80399700  0.98044900  0.76486000  1
  Ni  Ni2  1  0.63094300  0.91437600  0.37292300  1
  Ni  Ni3  1  0.13859200  0.35649400  0.48039300  1
  Ni  Ni4  1  0.36905700  0.91437600  0.87292300  1
  Ni  Ni5  1  0.86140800  0.35649400  0.98039300  1
  Cu  Cu6  1  0.58534900  0.10318900  0.03883900  1
  Cu  Cu7  1  0.54457000  0.50048600  0.99943100  1
  Cu  Cu8  1  0.12701100  0.26343800  0.81215800  1
  Cu  Cu9  1  0.70354000  0.55325400  0.63796200  1
  Cu  Cu10  1  0.87298900  0.26343800  0.31215800  1
  Cu  Cu11  1  0.86065000  0.59843900  0.38312000  1
  Cu  Cu12  1  0.45543000  0.50048600  0.49943100  1
  Cu  Cu13  1  0.29646000  0.55325400  0.13796200  1
  Cu  Cu14  1  0.13935000  0.59843900  0.88312000  1
  Cu  Cu15  1  0.41465100  0.10318900  0.53883900  1
  C  C16  1  0.50659400  0.31301700  0.97002500  1
  C  C17  1  0.21696900  0.47699900  0.02988200  1
  C  C18  1  0.74614300  0.13316700  0.01859900  1
  C  C19  1  0.54405700  0.46890900  0.64197700  1
  C  C20  1  0.06546600  0.27927000  0.67160000  1
  C  C21  1  0.51831100  0.67153100  0.38495300  1
  C  C22  1  0.23130900  0.45751800  0.27796700  1
  C  C23  1  0.81923800  0.48114500  0.29067700  1
  C  C24  1  0.45594300  0.46890900  0.14197700  1
  C  C25  1  0.29763300  0.50291900  0.52846800  1
  C  C26  1  0.48168900  0.67153100  0.88495300  1
  C  C27  1  0.49340600  0.31301700  0.47002500  1
  C  C28  1  0.93453400  0.27927000  0.17160000  1
  C  C29  1  0.78303100  0.47699900  0.52988200  1
  C  C30  1  0.46720800  0.99169700  0.45364800  1
  C  C31  1  0.02074100  0.59184700  0.40974600  1
  C  C32  1  0.70236700  0.50291900  0.02846800  1
  C  C33  1  0.80130000  0.79778300  0.31688900  1
  C  C34  1  0.19870000  0.79778300  0.81688900  1
  C  C35  1  0.70158800  0.76954200  0.57360800  1
  C  C36  1  0.25385700  0.13316700  0.51859900  1
  C  C37  1  0.98800500  0.21286400  0.42578300  1
  C  C38  1  0.25854800  0.13883700  0.86008500  1
  C  C39  1  0.76869100  0.45751800  0.77796700  1
  C  C40  1  0.45992400  0.02428800  0.69154600  1
  C  C41  1  0.53279200  0.99169700  0.95364800  1
  C  C42  1  0.74145200  0.13883700  0.36008500  1
  C  C43  1  0.54007600  0.02428800  0.19154600  1
  C  C44  1  0.97925900  0.59184700  0.90974600  1
  C  C45  1  0.01199500  0.21286400  0.92578300  1
  C  C46  1  0.18076200  0.48114500  0.79067700  1
  C  C47  1  0.29841200  0.76954200  0.07360800  1
