# generated using pymatgen
data_Cu6NiC10
_symmetry_space_group_name_H-M   'P 1'
_cell_length_a   12.74700600
_cell_length_b   12.74700600
_cell_length_c   12.74700600
_cell_angle_alpha   90.00000000
_cell_angle_beta   90.00000000
_cell_angle_gamma   90.00000000
_symmetry_Int_Tables_number   1
_chemical_formula_structural   Cu6NiC10
_chemical_formula_sum   'Cu24 Ni4 C40'
_cell_volume   2071.21208147
_cell_formula_units_Z   4
loop_
 _symmetry_equiv_pos_site_id
 _symmetry_equiv_pos_as_xyz
  1  'x, y, z'
loop_
 _atom_site_type_symbol
 _atom_site_label
 _atom_site_symmetry_multiplicity
 _atom_site_fract_x
 _atom_site_fract_y
 _atom_site_fract_z
 _atom_site_occupancy
  Ni  Ni0  1  0.72659500  0.27340500  0.77340500  1
  Ni  Ni1  1  0.27340500  0.77340500  0.72659500  1
  Ni  Ni2  1  0.77340500  0.72659500  0.27340500  1
  Ni  Ni3  1  0.22659500  0.22659500  0.22659500  1
  Cu  Cu4  1  0.52825300  0.76551100  0.53811900  1
  Cu  Cu5  1  0.23448900  0.03811900  0.97174700  1
  Cu  Cu6  1  0.47347300  0.51781000  0.26193200  1
  Cu  Cu7  1  0.96188100  0.47174700  0.26551100  1
  Cu  Cu8  1  0.01781000  0.23806800  0.52652700  1
  Cu  Cu9  1  0.02825300  0.73448900  0.46188100  1
  Cu  Cu10  1  0.02652700  0.48219000  0.76193200  1
  Cu  Cu11  1  0.53811900  0.52825300  0.76551100  1
  Cu  Cu12  1  0.76193200  0.02652700  0.48219000  1
  Cu  Cu13  1  0.51781000  0.26193200  0.47347300  1
  Cu  Cu14  1  0.73806800  0.97347300  0.98219000  1
  Cu  Cu15  1  0.48219000  0.76193200  0.02652700  1
  Cu  Cu16  1  0.26193200  0.47347300  0.51781000  1
  Cu  Cu17  1  0.03811900  0.97174700  0.23448900  1
  Cu  Cu18  1  0.23806800  0.52652700  0.01781000  1
  Cu  Cu19  1  0.52652700  0.01781000  0.23806800  1
  Cu  Cu20  1  0.76551100  0.53811900  0.52825300  1
  Cu  Cu21  1  0.46188100  0.02825300  0.73448900  1
  Cu  Cu22  1  0.97347300  0.98219000  0.73806800  1
  Cu  Cu23  1  0.97174700  0.23448900  0.03811900  1
  Cu  Cu24  1  0.73448900  0.46188100  0.02825300  1
  Cu  Cu25  1  0.47174700  0.26551100  0.96188100  1
  Cu  Cu26  1  0.98219000  0.73806800  0.97347300  1
  Cu  Cu27  1  0.26551100  0.96188100  0.47174700  1
  C  C28  1  0.06730700  0.93269300  0.43269300  1
  C  C29  1  0.93171400  0.93171400  0.93171400  1
  C  C30  1  0.56730700  0.56730700  0.56730700  1
  C  C31  1  0.45665300  0.95665300  0.54334700  1
  C  C32  1  0.45591700  0.45591700  0.45591700  1
  C  C33  1  0.93269300  0.43269400  0.06730700  1
  C  C34  1  0.95591700  0.04408300  0.54408300  1
  C  C35  1  0.04334700  0.04334700  0.04334700  1
  C  C36  1  0.56828600  0.06828600  0.43171400  1
  C  C37  1  0.43171400  0.56828600  0.06828600  1
  C  C38  1  0.06828600  0.43171400  0.56828600  1
  C  C39  1  0.04408300  0.54408300  0.95591700  1
  C  C40  1  0.54408300  0.95591700  0.04408300  1
  C  C41  1  0.95665300  0.54334700  0.45665300  1
  C  C42  1  0.54334700  0.45665300  0.95665300  1
  C  C43  1  0.43269300  0.06730700  0.93269300  1
  C  C44  1  0.70686000  0.05561000  0.74146400  1
  C  C45  1  0.79314000  0.94439000  0.24146400  1
  C  C46  1  0.44439000  0.25853600  0.20686000  1
  C  C47  1  0.55561000  0.75853600  0.29314000  1
  C  C48  1  0.29710600  0.97365300  0.23245000  1
  C  C49  1  0.20686000  0.44439000  0.25853600  1
  C  C50  1  0.02634700  0.73245000  0.20289400  1
  C  C51  1  0.47365300  0.26755000  0.70289400  1
  C  C52  1  0.97365300  0.23245000  0.29710600  1
  C  C53  1  0.24146400  0.79314000  0.94439000  1
  C  C54  1  0.05561000  0.74146400  0.70686000  1
  C  C55  1  0.26755000  0.70289400  0.47365300  1
  C  C56  1  0.25853600  0.20686000  0.44439000  1
  C  C57  1  0.75853600  0.29314000  0.55561000  1
  C  C58  1  0.76755000  0.79710600  0.52634700  1
  C  C59  1  0.52634700  0.76755000  0.79710600  1
  C  C60  1  0.73245000  0.20289400  0.02634700  1
  C  C61  1  0.79710600  0.52634700  0.76755000  1
  C  C62  1  0.94439000  0.24146400  0.79314000  1
  C  C63  1  0.29314000  0.55561000  0.75853600  1
  C  C64  1  0.74146400  0.70686000  0.05561000  1
  C  C65  1  0.23245000  0.29710600  0.97365300  1
  C  C66  1  0.20289400  0.02634700  0.73245000  1
  C  C67  1  0.70289400  0.47365300  0.26755000  1
