# generated using pymatgen
data_CuNiC12
_symmetry_space_group_name_H-M   'P 1'
_cell_length_a   15.22744884
_cell_length_b   12.56546816
_cell_length_c   12.52617592
_cell_angle_alpha   74.72734382
_cell_angle_beta   52.75383414
_cell_angle_gamma   52.51882204
_symmetry_Int_Tables_number   1
_chemical_formula_structural   CuNiC12
_chemical_formula_sum   'Cu4 Ni4 C48'
_cell_volume   1493.02580309
_cell_formula_units_Z   4
loop_
 _symmetry_equiv_pos_site_id
 _symmetry_equiv_pos_as_xyz
  1  'x, y, z'
loop_
 _atom_site_type_symbol
 _atom_site_label
 _atom_site_symmetry_multiplicity
 _atom_site_fract_x
 _atom_site_fract_y
 _atom_site_fract_z
 _atom_site_occupancy
  Ni  Ni0  1  0.62191500  0.62191500  0.12808500  1
  Ni  Ni1  1  0.37808500  0.37808500  0.87191500  1
  Ni  Ni2  1  0.12808500  0.12808500  0.62191500  1
  Ni  Ni3  1  0.87191500  0.87191500  0.37808500  1
  Cu  Cu4  1  0.87500000  0.87500000  0.87500000  1
  Cu  Cu5  1  0.12500000  0.12500000  0.12500000  1
  Cu  Cu6  1  0.37500000  0.37500000  0.37500000  1
  Cu  Cu7  1  0.62500000  0.62500000  0.62500000  1
  C  C8  1  0.11594200  0.38847600  0.86348800  1
  C  C9  1  0.38847600  0.11594200  0.13209400  1
  C  C10  1  0.47066700  0.02843900  0.63942300  1
  C  C11  1  0.86348800  0.13209400  0.11594200  1
  C  C12  1  0.52933300  0.97156100  0.36057700  1
  C  C13  1  0.13209400  0.86348800  0.38847600  1
  C  C14  1  0.63852800  0.36057700  0.97156100  1
  C  C15  1  0.36147200  0.63942300  0.02843900  1
  C  C16  1  0.63942300  0.36147200  0.47066700  1
  C  C17  1  0.88405800  0.61152400  0.13651200  1
  C  C18  1  0.36057700  0.63852800  0.52933300  1
  C  C19  1  0.86790600  0.13651200  0.61152400  1
  C  C20  1  0.02843900  0.47066700  0.36147200  1
  C  C21  1  0.13651200  0.86790600  0.88405800  1
  C  C22  1  0.61152400  0.88405800  0.86790600  1
  C  C23  1  0.97156100  0.52933300  0.63852800  1
  C  C24  1  0.31910700  0.18381600  0.84811000  1
  C  C25  1  0.40730100  0.92049300  0.08934100  1
  C  C26  1  0.41406400  0.41295700  0.58247300  1
  C  C27  1  0.92049300  0.40730100  0.08286500  1
  C  C28  1  0.58704300  0.58593600  0.90949300  1
  C  C29  1  0.16132600  0.34250800  0.65334100  1
  C  C30  1  0.14896800  0.84811000  0.18381600  1
  C  C31  1  0.58593600  0.58704300  0.41752700  1
  C  C32  1  0.34250800  0.16132600  0.34282500  1
  C  C33  1  0.91713500  0.91065900  0.07950700  1
  C  C34  1  0.07950700  0.59269900  0.91713500  1
  C  C35  1  0.81618400  0.68089300  0.85103200  1
  C  C36  1  0.34665900  0.65717500  0.83867400  1
  C  C37  1  0.65334100  0.34282500  0.16132600  1
  C  C38  1  0.09050700  0.58247300  0.41295700  1
  C  C39  1  0.08286500  0.08934100  0.92049300  1
  C  C40  1  0.85103200  0.15189000  0.81618400  1
  C  C41  1  0.65749200  0.83867400  0.65717500  1
  C  C42  1  0.68089300  0.81618400  0.15189000  1
  C  C43  1  0.18381600  0.31910700  0.14896800  1
  C  C44  1  0.08934100  0.08286500  0.40730100  1
  C  C45  1  0.59269900  0.07950700  0.91065900  1
  C  C46  1  0.84811000  0.14896800  0.31910700  1
  C  C47  1  0.65717500  0.34665900  0.65749200  1
  C  C48  1  0.83867400  0.65749200  0.34665900  1
  C  C49  1  0.90949300  0.41752700  0.58704300  1
  C  C50  1  0.91065900  0.91713500  0.59269900  1
  C  C51  1  0.58247300  0.09050700  0.41406400  1
  C  C52  1  0.15189000  0.85103200  0.68089300  1
  C  C53  1  0.41295700  0.41406400  0.09050700  1
  C  C54  1  0.34282500  0.65334100  0.34250800  1
  C  C55  1  0.41752700  0.90949300  0.58593600  1
