# generated using pymatgen
data_Cu(NiC7)2
_symmetry_space_group_name_H-M   'P 1'
_cell_length_a   11.46003681
_cell_length_b   11.46003681
_cell_length_c   11.46003681
_cell_angle_alpha   159.99589298
_cell_angle_beta   150.90044617
_cell_angle_gamma   35.56619154
_symmetry_Int_Tables_number   1
_chemical_formula_structural   Cu(NiC7)2
_chemical_formula_sum   'Cu1 Ni2 C14'
_cell_volume   250.13218057
_cell_formula_units_Z   1
loop_
 _symmetry_equiv_pos_site_id
 _symmetry_equiv_pos_as_xyz
  1  'x, y, z'
loop_
 _atom_site_type_symbol
 _atom_site_label
 _atom_site_symmetry_multiplicity
 _atom_site_fract_x
 _atom_site_fract_y
 _atom_site_fract_z
 _atom_site_occupancy
  Ni  Ni0  1  0.20484000  0.20484000  0.00000000  1
  Ni  Ni1  1  0.79516000  0.79516000  0.00000000  1
  Cu  Cu2  1  0.50000000  0.00000000  0.50000000  1
  C  C3  1  0.63504500  0.63504500  0.00000000  1
  C  C4  1  0.36495500  0.36495500  0.00000000  1
  C  C5  1  0.00000000  0.50000000  0.50000000  1
  C  C6  1  0.32305700  0.55946200  0.76359400  1
  C  C7  1  0.79586800  0.55946200  0.23640600  1
  C  C8  1  0.06788800  0.30539400  0.76249400  1
  C  C9  1  0.45710000  0.69460600  0.76249400  1
  C  C10  1  0.67694300  0.44053800  0.23640600  1
  C  C11  1  0.20413200  0.44053800  0.76359400  1
  C  C12  1  0.00000000  0.00000000  0.00000000  1
  C  C13  1  0.62014300  0.12014300  0.50000000  1
  C  C14  1  0.37985700  0.87985700  0.50000000  1
  C  C15  1  0.93211200  0.69460600  0.23750600  1
  C  C16  1  0.54290000  0.30539400  0.23750600  1
