# generated using pymatgen
data_Cu5Ni3C2
_symmetry_space_group_name_H-M   'P 1'
_cell_length_a   7.34656600
_cell_length_b   10.10067607
_cell_length_c   10.67801767
_cell_angle_alpha   113.56292618
_cell_angle_beta   91.01045893
_cell_angle_gamma   92.22425186
_symmetry_Int_Tables_number   1
_chemical_formula_structural   Cu5Ni3C2
_chemical_formula_sum   'Cu20 Ni12 C8'
_cell_volume   725.27647105
_cell_formula_units_Z   4
loop_
 _symmetry_equiv_pos_site_id
 _symmetry_equiv_pos_as_xyz
  1  'x, y, z'
loop_
 _atom_site_type_symbol
 _atom_site_label
 _atom_site_symmetry_multiplicity
 _atom_site_fract_x
 _atom_site_fract_y
 _atom_site_fract_z
 _atom_site_occupancy
  C  C0  1  0.69547500  0.70407800  0.12115500  1
  C  C1  1  0.30452500  0.29592200  0.87884500  1
  C  C2  1  0.23013200  0.62546000  0.36791000  1
  C  C3  1  0.76986800  0.37454000  0.63209000  1
  C  C4  1  0.25870100  0.01415800  0.32618800  1
  C  C5  1  0.74129900  0.98584200  0.67381200  1
  C  C6  1  0.23860700  0.77818500  0.88938200  1
  C  C7  1  0.76139300  0.22181500  0.11061800  1
  Ni  Ni8  1  0.16695600  0.48026000  0.40310700  1
  Ni  Ni9  1  0.83304400  0.51974000  0.59689300  1
  Ni  Ni10  1  0.12983000  0.76564500  0.49441300  1
  Ni  Ni11  1  0.87017000  0.23435500  0.50558700  1
  Ni  Ni12  1  0.27763600  0.07655100  0.50017100  1
  Ni  Ni13  1  0.72236400  0.92344900  0.49982900  1
  Ni  Ni14  1  0.20283700  0.16476500  0.30209500  1
  Ni  Ni15  1  0.79716300  0.83523500  0.69790500  1
  Ni  Ni16  1  0.23743300  0.66891800  0.71952600  1
  Ni  Ni17  1  0.76256700  0.33108200  0.28047400  1
  Ni  Ni18  1  0.18923100  0.94314100  0.88932200  1
  Ni  Ni19  1  0.81076900  0.05685900  0.11067800  1
  Cu  Cu20  1  0.04274700  0.60254100  0.23500000  1
  Cu  Cu21  1  0.95725300  0.39745900  0.76500000  1
  Cu  Cu22  1  0.36931300  0.52905100  0.20413200  1
  Cu  Cu23  1  0.63068700  0.47094900  0.79586800  1
  Cu  Cu24  1  0.46379000  0.66542600  0.45370000  1
  Cu  Cu25  1  0.53621000  0.33457400  0.54630000  1
  Cu  Cu26  1  0.32655400  0.80531400  0.30574600  1
  Cu  Cu27  1  0.67344600  0.19468600  0.69425400  1
  Cu  Cu28  1  0.02177000  0.92831200  0.30457900  1
  Cu  Cu29  1  0.97823000  0.07168800  0.69542100  1
  Cu  Cu30  1  0.50936300  0.02243800  0.29428900  1
  Cu  Cu31  1  0.49063700  0.97756200  0.70571100  1
  Cu  Cu32  1  0.25017600  0.89665400  0.11400100  1
  Cu  Cu33  1  0.74982400  0.10334600  0.88599900  1
  Cu  Cu34  1  0.29905000  0.63060000  0.95781100  1
  Cu  Cu35  1  0.70095000  0.36940000  0.04218900  1
  Cu  Cu36  1  0.99835100  0.73244100  0.92507900  1
  Cu  Cu37  1  0.00164900  0.26755900  0.07492100  1
  Cu  Cu38  1  0.49267200  0.82191300  0.91745900  1
  Cu  Cu39  1  0.50732800  0.17808700  0.08254100  1
