# generated using pymatgen
data_Cu4NiC11
_symmetry_space_group_name_H-M   'P 1'
_cell_length_a   7.54425500
_cell_length_b   7.64575000
_cell_length_c   8.21499900
_cell_angle_alpha   90.00000000
_cell_angle_beta   90.00000000
_cell_angle_gamma   90.00000000
_symmetry_Int_Tables_number   1
_chemical_formula_structural   Cu4NiC11
_chemical_formula_sum   'Cu8 Ni2 C22'
_cell_volume   473.85336350
_cell_formula_units_Z   2
loop_
 _symmetry_equiv_pos_site_id
 _symmetry_equiv_pos_as_xyz
  1  'x, y, z'
loop_
 _atom_site_type_symbol
 _atom_site_label
 _atom_site_symmetry_multiplicity
 _atom_site_fract_x
 _atom_site_fract_y
 _atom_site_fract_z
 _atom_site_occupancy
  C  C0  1  0.50000000  0.50000000  0.98076600  1
  C  C1  1  0.00000000  0.00000000  0.01923400  1
  Ni  Ni2  1  0.50000000  0.00000000  0.19268100  1
  Ni  Ni3  1  0.00000000  0.50000000  0.80731900  1
  Cu  Cu4  1  0.25954400  0.18434700  0.70147900  1
  Cu  Cu5  1  0.75954400  0.31565300  0.29852100  1
  Cu  Cu6  1  0.24045600  0.68434700  0.29852100  1
  Cu  Cu7  1  0.74045600  0.81565300  0.70147900  1
  Cu  Cu8  1  0.68312900  0.22323700  0.67461000  1
  Cu  Cu9  1  0.18312900  0.27676300  0.32539000  1
  Cu  Cu10  1  0.81687100  0.72323700  0.32539000  1
  Cu  Cu11  1  0.31687100  0.77676300  0.67461000  1
  C  C12  1  0.14707100  0.27474100  0.84493600  1
  C  C13  1  0.64707100  0.22525900  0.15506400  1
  C  C14  1  0.35292900  0.77474100  0.15506400  1
  C  C15  1  0.85292900  0.72525900  0.84493600  1
  C  C16  1  0.22644200  0.62861700  0.78359500  1
  C  C17  1  0.72644200  0.87138300  0.21640500  1
  C  C18  1  0.27355800  0.12861700  0.21640500  1
  C  C19  1  0.77355800  0.37138300  0.78359500  1
  C  C20  1  0.23355900  0.97044200  0.71992500  1
  C  C21  1  0.73355900  0.52955800  0.28007500  1
  C  C22  1  0.26644100  0.47044200  0.28007500  1
  C  C23  1  0.76644100  0.02955800  0.71992500  1
  C  C24  1  0.80358500  0.75109200  0.52156000  1
  C  C25  1  0.30358500  0.74890800  0.47844000  1
  C  C26  1  0.69641500  0.25109200  0.47844000  1
  C  C27  1  0.19641500  0.24890800  0.52156000  1
  C  C28  1  0.52844200  0.77293400  0.72578200  1
  C  C29  1  0.02844200  0.72706600  0.27421800  1
  C  C30  1  0.97155800  0.27293400  0.27421800  1
  C  C31  1  0.47155800  0.22706600  0.72578200  1
