# generated using pymatgen
data_Cu(NiC)4
_symmetry_space_group_name_H-M   'P 1'
_cell_length_a   10.71576190
_cell_length_b   10.71576190
_cell_length_c   6.76644900
_cell_angle_alpha   90.00000000
_cell_angle_beta   90.00000000
_cell_angle_gamma   119.99999940
_symmetry_Int_Tables_number   1
_chemical_formula_structural   Cu(NiC)4
_chemical_formula_sum   'Cu6 Ni24 C24'
_cell_volume   672.87990354
_cell_formula_units_Z   6
loop_
 _symmetry_equiv_pos_site_id
 _symmetry_equiv_pos_as_xyz
  1  'x, y, z'
loop_
 _atom_site_type_symbol
 _atom_site_label
 _atom_site_symmetry_multiplicity
 _atom_site_fract_x
 _atom_site_fract_y
 _atom_site_fract_z
 _atom_site_occupancy
  C  C0  1  0.66666700  0.33333300  0.57265000  1
  C  C1  1  0.00000000  0.00000000  0.50000000  1
  C  C2  1  0.33333300  0.66666700  0.42735000  1
  C  C3  1  0.66666700  0.33333300  0.01569100  1
  C  C4  1  0.17180300  0.85581900  0.23989700  1
  C  C5  1  0.31598400  0.17180300  0.76010300  1
  C  C6  1  0.50000000  0.50000000  0.50000000  1
  C  C7  1  0.14418100  0.31598400  0.23989700  1
  C  C8  1  0.82819700  0.14418100  0.76010300  1
  C  C9  1  0.68401600  0.82819700  0.23989700  1
  C  C10  1  0.50000000  0.00000000  0.50000000  1
  C  C11  1  0.33333300  0.66666700  0.98430900  1
  C  C12  1  0.00000000  0.00000000  0.00000000  1
  C  C13  1  0.85581900  0.68401600  0.76010300  1
  C  C14  1  0.00000000  0.50000000  0.50000000  1
  C  C15  1  0.00000000  0.50000000  0.00000000  1
  C  C16  1  0.50000000  0.50000000  0.00000000  1
  C  C17  1  0.50000000  0.00000000  0.00000000  1
  C  C18  1  0.81416000  0.18273900  0.25068500  1
  C  C19  1  0.81726100  0.63142100  0.25068500  1
  C  C20  1  0.36857900  0.18584000  0.25068500  1
  C  C21  1  0.18273900  0.36857900  0.74931500  1
  C  C22  1  0.63142100  0.81416000  0.74931500  1
  C  C23  1  0.18584000  0.81726100  0.74931500  1
  Ni  Ni24  1  0.74028600  0.17091400  0.44989900  1
  Ni  Ni25  1  0.42247700  0.07510400  0.21207500  1
  Ni  Ni26  1  0.82908600  0.56937200  0.44989900  1
  Ni  Ni27  1  0.34737300  0.42247700  0.78792500  1
  Ni  Ni28  1  0.89299800  0.09497400  0.24561900  1
  Ni  Ni29  1  0.17091400  0.43062800  0.55010100  1
  Ni  Ni30  1  0.25971400  0.82908600  0.55010100  1
  Ni  Ni31  1  0.79802300  0.89299800  0.75438100  1
  Ni  Ni32  1  0.43062800  0.25971400  0.44989900  1
  Ni  Ni33  1  0.56681600  0.70391600  0.92591800  1
  Ni  Ni34  1  0.43318400  0.29608400  0.07408200  1
  Ni  Ni35  1  0.56937200  0.74028600  0.55010100  1
  Ni  Ni36  1  0.70391600  0.13710100  0.07408200  1
  Ni  Ni37  1  0.65262700  0.57752300  0.21207500  1
  Ni  Ni38  1  0.92489600  0.34737300  0.21207500  1
  Ni  Ni39  1  0.57752300  0.92489600  0.78792500  1
  Ni  Ni40  1  0.90502600  0.79802300  0.24561900  1
  Ni  Ni41  1  0.86289900  0.56681600  0.07408200  1
  Ni  Ni42  1  0.10700200  0.90502600  0.75438100  1
  Ni  Ni43  1  0.07510400  0.65262700  0.78792500  1
  Ni  Ni44  1  0.09497400  0.20197700  0.75438100  1
  Ni  Ni45  1  0.13710100  0.43318400  0.92591800  1
  Ni  Ni46  1  0.29608400  0.86289900  0.92591800  1
  Ni  Ni47  1  0.20197700  0.10700200  0.24561900  1
  Cu  Cu48  1  0.62276400  0.48141100  0.79845800  1
  Cu  Cu49  1  0.37723600  0.51858900  0.20154200  1
  Cu  Cu50  1  0.85864600  0.37723600  0.79845800  1
  Cu  Cu51  1  0.48141100  0.85864600  0.20154200  1
  Cu  Cu52  1  0.51858900  0.14135400  0.79845800  1
  Cu  Cu53  1  0.14135400  0.62276400  0.20154200  1
