# generated using pymatgen
data_Cu2Ni2C3
_symmetry_space_group_name_H-M   'P 1'
_cell_length_a   8.26672914
_cell_length_b   8.26672914
_cell_length_c   8.26672914
_cell_angle_alpha   94.72574997
_cell_angle_beta   94.72574997
_cell_angle_gamma   146.63950096
_symmetry_Int_Tables_number   1
_chemical_formula_structural   Cu2Ni2C3
_chemical_formula_sum   'Cu4 Ni4 C6'
_cell_volume   297.59028415
_cell_formula_units_Z   2
loop_
 _symmetry_equiv_pos_site_id
 _symmetry_equiv_pos_as_xyz
  1  'x, y, z'
loop_
 _atom_site_type_symbol
 _atom_site_label
 _atom_site_symmetry_multiplicity
 _atom_site_fract_x
 _atom_site_fract_y
 _atom_site_fract_z
 _atom_site_occupancy
  C  C0  1  0.75000000  0.25000000  0.50000000  1
  C  C1  1  0.00000000  0.00000000  0.00000000  1
  Ni  Ni2  1  0.17672500  0.38115500  0.35509300  1
  Ni  Ni3  1  0.02606200  0.82163200  0.64490700  1
  Ni  Ni4  1  0.61884500  0.97393800  0.79556900  1
  Ni  Ni5  1  0.17836800  0.82327500  0.20443100  1
  Cu  Cu6  1  0.55327600  0.83447600  0.95451400  1
  Cu  Cu7  1  0.16552400  0.12003800  0.71880000  1
  Cu  Cu8  1  0.87996200  0.59876200  0.04548600  1
  Cu  Cu9  1  0.40123800  0.44672400  0.28120000  1
  C  C10  1  0.66031200  0.07286000  0.68111000  1
  C  C11  1  0.92714000  0.60824900  0.58745100  1
  C  C12  1  0.39175100  0.97920200  0.31889000  1
  C  C13  1  0.02079800  0.33968800  0.41254900  1
