# generated using pymatgen
data_Cu(NiC3)3
_symmetry_space_group_name_H-M   'P 1'
_cell_length_a   5.68077795
_cell_length_b   5.68077795
_cell_length_c   13.84420600
_cell_angle_alpha   90.00000000
_cell_angle_beta   90.00000000
_cell_angle_gamma   119.99999938
_symmetry_Int_Tables_number   1
_chemical_formula_structural   Cu(NiC3)3
_chemical_formula_sum   'Cu2 Ni6 C18'
_cell_volume   386.91388444
_cell_formula_units_Z   2
loop_
 _symmetry_equiv_pos_site_id
 _symmetry_equiv_pos_as_xyz
  1  'x, y, z'
loop_
 _atom_site_type_symbol
 _atom_site_label
 _atom_site_symmetry_multiplicity
 _atom_site_fract_x
 _atom_site_fract_y
 _atom_site_fract_z
 _atom_site_occupancy
  Ni  Ni0  1  0.33333300  0.66666700  0.40716500  1
  Ni  Ni1  1  0.00000000  0.00000000  0.25000000  1
  Ni  Ni2  1  0.66666700  0.33333300  0.59283500  1
  Ni  Ni3  1  0.33333300  0.66666700  0.09283500  1
  Ni  Ni4  1  0.66666700  0.33333300  0.90716500  1
  Ni  Ni5  1  0.00000000  0.00000000  0.75000000  1
  Cu  Cu6  1  0.00000000  0.00000000  0.50000000  1
  Cu  Cu7  1  0.00000000  0.00000000  0.00000000  1
  C  C8  1  0.33333300  0.66666700  0.62904800  1
  C  C9  1  0.66666700  0.33333300  0.37095200  1
  C  C10  1  0.66666700  0.33333300  0.12904800  1
  C  C11  1  0.33333300  0.66666700  0.87095200  1
  C  C12  1  0.35016800  0.17508400  0.40764400  1
  C  C13  1  0.82491600  0.17508400  0.09235600  1
  C  C14  1  0.17508400  0.35016800  0.59235600  1
  C  C15  1  0.17508400  0.82491600  0.90764400  1
  C  C16  1  0.64983200  0.82491600  0.90764400  1
  C  C17  1  0.64983200  0.82491600  0.59235600  1
  C  C18  1  0.35016800  0.17508400  0.09235600  1
  C  C19  1  0.17508400  0.82491600  0.59235600  1
  C  C20  1  0.82491600  0.17508400  0.40764400  1
  C  C21  1  0.17508400  0.35016800  0.90764400  1
  C  C22  1  0.82491600  0.64983200  0.09235600  1
  C  C23  1  0.82491600  0.64983200  0.40764400  1
  C  C24  1  0.66666700  0.33333300  0.25000000  1
  C  C25  1  0.33333300  0.66666700  0.75000000  1
