# generated using pymatgen
data_CuNi3C11
_symmetry_space_group_name_H-M   'P 1'
_cell_length_a   7.78409408
_cell_length_b   7.78409408
_cell_length_c   7.78409416
_cell_angle_alpha   83.12306168
_cell_angle_beta   83.12306168
_cell_angle_gamma   83.12306793
_symmetry_Int_Tables_number   1
_chemical_formula_structural   CuNi3C11
_chemical_formula_sum   'Cu2 Ni6 C22'
_cell_volume   462.22705457
_cell_formula_units_Z   2
loop_
 _symmetry_equiv_pos_site_id
 _symmetry_equiv_pos_as_xyz
  1  'x, y, z'
loop_
 _atom_site_type_symbol
 _atom_site_label
 _atom_site_symmetry_multiplicity
 _atom_site_fract_x
 _atom_site_fract_y
 _atom_site_fract_z
 _atom_site_occupancy
  C  C0  1  0.01017900  0.22666100  0.77182500  1
  C  C1  1  0.50166300  0.50166300  0.50166300  1
  C  C2  1  0.77182500  0.01017900  0.22666100  1
  C  C3  1  0.22666100  0.77182500  0.01017900  1
  Ni  Ni4  1  0.45115700  0.98214100  0.55513000  1
  Ni  Ni5  1  0.55513000  0.45115700  0.98214100  1
  Ni  Ni6  1  0.48749300  0.10458900  0.89869700  1
  Ni  Ni7  1  0.10458900  0.89869700  0.48749300  1
  Ni  Ni8  1  0.98214100  0.55513000  0.45115700  1
  Ni  Ni9  1  0.89869700  0.48749300  0.10458900  1
  Cu  Cu10  1  0.25439400  0.25439400  0.25439400  1
  Cu  Cu11  1  0.77351200  0.77351200  0.77351200  1
  C  C12  1  0.89979800  0.67738100  0.99146300  1
  C  C13  1  0.55705500  0.64348300  0.87543500  1
  C  C14  1  0.08164900  0.36497000  0.07811700  1
  C  C15  1  0.15104100  0.41007700  0.45148200  1
  C  C16  1  0.51737500  0.31323200  0.84705500  1
  C  C17  1  0.87543500  0.55705500  0.64348300  1
  C  C18  1  0.99146300  0.89979800  0.67738100  1
  C  C19  1  0.07811700  0.08164900  0.36497000  1
  C  C20  1  0.36497000  0.07811700  0.08164900  1
  C  C21  1  0.67738100  0.99146300  0.89979800  1
  C  C22  1  0.74889900  0.37685100  0.04789300  1
  C  C23  1  0.41007700  0.45148200  0.15104100  1
  C  C24  1  0.64348300  0.87543500  0.55705500  1
  C  C25  1  0.04789300  0.74889900  0.37685100  1
  C  C26  1  0.45148200  0.15104100  0.41007700  1
  C  C27  1  0.31323200  0.84705500  0.51737500  1
  C  C28  1  0.84705500  0.51737500  0.31323200  1
  C  C29  1  0.37685100  0.04789300  0.74889900  1
