# generated using pymatgen
data_Cu2Ni2C15
_symmetry_space_group_name_H-M   'P 1'
_cell_length_a   3.90689900
_cell_length_b   3.90689900
_cell_length_c   15.95595100
_cell_angle_alpha   90.00000000
_cell_angle_beta   90.00000000
_cell_angle_gamma   90.00000000
_symmetry_Int_Tables_number   1
_chemical_formula_structural   Cu2Ni2C15
_chemical_formula_sum   'Cu2 Ni2 C15'
_cell_volume   243.54939898
_cell_formula_units_Z   1
loop_
 _symmetry_equiv_pos_site_id
 _symmetry_equiv_pos_as_xyz
  1  'x, y, z'
loop_
 _atom_site_type_symbol
 _atom_site_label
 _atom_site_symmetry_multiplicity
 _atom_site_fract_x
 _atom_site_fract_y
 _atom_site_fract_z
 _atom_site_occupancy
  C  C0  1  0.50000000  0.50000000  0.23264600  1
  C  C1  1  0.50000000  0.50000000  0.76735400  1
  C  C2  1  0.50000000  0.50000000  0.00000000  1
  C  C3  1  0.50000000  0.50000000  0.50000000  1
  Ni  Ni4  1  0.00000000  0.00000000  0.37655600  1
  Ni  Ni5  1  0.00000000  0.00000000  0.62344400  1
  Cu  Cu6  1  0.00000000  0.00000000  0.10218700  1
  Cu  Cu7  1  0.00000000  0.00000000  0.89781300  1
  C  C8  1  0.00000000  0.00000000  0.50000000  1
  C  C9  1  0.00000000  0.50000000  0.39109200  1
  C  C10  1  0.50000000  0.00000000  0.39109200  1
  C  C11  1  0.00000000  0.50000000  0.60890800  1
  C  C12  1  0.50000000  0.00000000  0.60890800  1
  C  C13  1  0.00000000  0.00000000  0.25896800  1
  C  C14  1  0.00000000  0.00000000  0.74103200  1
  C  C15  1  0.00000000  0.50000000  0.09123800  1
  C  C16  1  0.50000000  0.00000000  0.09123800  1
  C  C17  1  0.00000000  0.50000000  0.90876200  1
  C  C18  1  0.50000000  0.00000000  0.90876200  1
