# generated using pymatgen
data_Cu3Ni2C11
_symmetry_space_group_name_H-M   'P 1'
_cell_length_a   6.88016400
_cell_length_b   9.50987600
_cell_length_c   11.86627100
_cell_angle_alpha   90.00000000
_cell_angle_beta   90.00000000
_cell_angle_gamma   90.00000000
_symmetry_Int_Tables_number   1
_chemical_formula_structural   Cu3Ni2C11
_chemical_formula_sum   'Cu12 Ni8 C44'
_cell_volume   776.40425552
_cell_formula_units_Z   4
loop_
 _symmetry_equiv_pos_site_id
 _symmetry_equiv_pos_as_xyz
  1  'x, y, z'
loop_
 _atom_site_type_symbol
 _atom_site_label
 _atom_site_symmetry_multiplicity
 _atom_site_fract_x
 _atom_site_fract_y
 _atom_site_fract_z
 _atom_site_occupancy
  C  C0  1  0.84804300  0.96725400  0.34696800  1
  C  C1  1  0.34804300  0.03274600  0.15303200  1
  C  C2  1  0.15195700  0.03274600  0.65303200  1
  C  C3  1  0.84804300  0.53274600  0.34696800  1
  C  C4  1  0.65195700  0.53274600  0.84696800  1
  C  C5  1  0.15195700  0.46725400  0.65303200  1
  C  C6  1  0.65195700  0.96725400  0.84696800  1
  C  C7  1  0.34804300  0.46725400  0.15303200  1
  Ni  Ni8  1  0.59436300  0.05964400  0.56951700  1
  Ni  Ni9  1  0.09436300  0.55964400  0.93048300  1
  Ni  Ni10  1  0.40563700  0.94035600  0.43048300  1
  Ni  Ni11  1  0.40563700  0.55964400  0.43048300  1
  Ni  Ni12  1  0.59436300  0.44035600  0.56951700  1
  Ni  Ni13  1  0.90563700  0.44035600  0.06951700  1
  Ni  Ni14  1  0.90563700  0.05964400  0.06951700  1
  Ni  Ni15  1  0.09436300  0.94035600  0.93048300  1
  Cu  Cu16  1  0.47490700  0.25000000  0.75403900  1
  Cu  Cu17  1  0.39956200  0.75000000  0.99672100  1
  Cu  Cu18  1  0.32866800  0.25000000  0.43767200  1
  Cu  Cu19  1  0.89956200  0.25000000  0.50327900  1
  Cu  Cu20  1  0.02509300  0.25000000  0.25403900  1
  Cu  Cu21  1  0.67133200  0.75000000  0.56232800  1
  Cu  Cu22  1  0.60043800  0.25000000  0.00327900  1
  Cu  Cu23  1  0.52509300  0.75000000  0.24596100  1
  Cu  Cu24  1  0.17133200  0.25000000  0.93767200  1
  Cu  Cu25  1  0.97490700  0.75000000  0.74596100  1
  Cu  Cu26  1  0.10043800  0.75000000  0.49672100  1
  Cu  Cu27  1  0.82866800  0.75000000  0.06232800  1
  C  C28  1  0.75055200  0.75000000  0.19343600  1
  C  C29  1  0.68296000  0.39613300  0.05321600  1
  C  C30  1  0.95347200  0.60887400  0.04038500  1
  C  C31  1  0.45347200  0.39112600  0.45961500  1
  C  C32  1  0.54652800  0.60887400  0.54038500  1
  C  C33  1  0.25055200  0.25000000  0.30656400  1
  C  C34  1  0.99855200  0.89687300  0.81261400  1
  C  C35  1  0.49855200  0.39687300  0.68738600  1
  C  C36  1  0.45347200  0.10887400  0.45961500  1
  C  C37  1  0.50144800  0.89687300  0.31261400  1
  C  C38  1  0.95347200  0.89112600  0.04038500  1
  C  C39  1  0.99855200  0.60312700  0.81261400  1
  C  C40  1  0.81704000  0.10386700  0.55321600  1
  C  C41  1  0.12404100  0.75000000  0.63641900  1
  C  C42  1  0.00144800  0.39687300  0.18738600  1
  C  C43  1  0.24944800  0.25000000  0.80656400  1
  C  C44  1  0.64024300  0.75000000  0.97387900  1
  C  C45  1  0.04652800  0.10887400  0.95961500  1
  C  C46  1  0.74944800  0.75000000  0.69343600  1
  C  C47  1  0.54652800  0.89112600  0.54038500  1
  C  C48  1  0.81704000  0.39613300  0.55321600  1
  C  C49  1  0.00144800  0.10312700  0.18738600  1
  C  C50  1  0.37595900  0.75000000  0.13641900  1
  C  C51  1  0.35975700  0.25000000  0.02612100  1
  C  C52  1  0.31704000  0.60386700  0.94678400  1
  C  C53  1  0.49855200  0.10312700  0.68738600  1
  C  C54  1  0.85975700  0.75000000  0.47387900  1
  C  C55  1  0.87595900  0.25000000  0.36358100  1
  C  C56  1  0.50144800  0.60312700  0.31261400  1
  C  C57  1  0.18296000  0.60386700  0.44678400  1
  C  C58  1  0.18296000  0.89613300  0.44678400  1
  C  C59  1  0.68296000  0.10386700  0.05321600  1
  C  C60  1  0.62404100  0.25000000  0.86358100  1
  C  C61  1  0.04652800  0.39112600  0.95961500  1
  C  C62  1  0.14024300  0.25000000  0.52612100  1
  C  C63  1  0.31704000  0.89613300  0.94678400  1
