# generated using pymatgen
data_Cu(Ni5C3)2
_symmetry_space_group_name_H-M   'P 1'
_cell_length_a   10.40973712
_cell_length_b   10.40973712
_cell_length_c   10.40973712
_cell_angle_alpha   138.65388232
_cell_angle_beta   138.65388232
_cell_angle_gamma   59.90300891
_symmetry_Int_Tables_number   1
_chemical_formula_structural   Cu(Ni5C3)2
_chemical_formula_sum   'Cu1 Ni10 C6'
_cell_volume   487.25614990
_cell_formula_units_Z   1
loop_
 _symmetry_equiv_pos_site_id
 _symmetry_equiv_pos_as_xyz
  1  'x, y, z'
loop_
 _atom_site_type_symbol
 _atom_site_label
 _atom_site_symmetry_multiplicity
 _atom_site_fract_x
 _atom_site_fract_y
 _atom_site_fract_z
 _atom_site_occupancy
  C  C0  1  0.25000000  0.75000000  0.50000000  1
  C  C1  1  0.50000000  0.00000000  0.50000000  1
  C  C2  1  0.75000000  0.25000000  0.50000000  1
  C  C3  1  0.00000000  0.50000000  0.50000000  1
  C  C4  1  0.10658800  0.10658800  0.00000000  1
  C  C5  1  0.89341200  0.89341200  0.00000000  1
  Ni  Ni6  1  0.65054500  0.12560100  0.00000000  1
  Ni  Ni7  1  0.34945500  0.34945500  0.47505600  1
  Ni  Ni8  1  0.75793800  0.75793800  0.00000000  1
  Ni  Ni9  1  0.24206200  0.24206200  0.00000000  1
  Ni  Ni10  1  0.12560100  0.65054500  0.00000000  1
  Ni  Ni11  1  0.87439900  0.34945500  0.00000000  1
  Ni  Ni12  1  0.65054500  0.65054500  0.52494400  1
  Ni  Ni13  1  0.87439900  0.87439900  0.52494400  1
  Ni  Ni14  1  0.12560100  0.12560100  0.47505600  1
  Ni  Ni15  1  0.34945500  0.87439900  0.00000000  1
  Cu  Cu16  1  0.00000000  0.00000000  0.00000000  1
