# generated using pymatgen
data_Cu2NiC26
_symmetry_space_group_name_H-M   'P 1'
_cell_length_a   18.12664500
_cell_length_b   5.08999600
_cell_length_c   7.89685064
_cell_angle_alpha   62.53858392
_cell_angle_beta   90.00000000
_cell_angle_gamma   90.00000000
_symmetry_Int_Tables_number   1
_chemical_formula_structural   Cu2NiC26
_chemical_formula_sum   'Cu4 Ni2 C52'
_cell_volume   646.50194983
_cell_formula_units_Z   2
loop_
 _symmetry_equiv_pos_site_id
 _symmetry_equiv_pos_as_xyz
  1  'x, y, z'
loop_
 _atom_site_type_symbol
 _atom_site_label
 _atom_site_symmetry_multiplicity
 _atom_site_fract_x
 _atom_site_fract_y
 _atom_site_fract_z
 _atom_site_occupancy
  Ni  Ni0  1  0.00000000  0.50000000  0.50000000  1
  Ni  Ni1  1  0.50000000  0.50000000  0.00000000  1
  Cu  Cu2  1  0.21787100  0.87664300  0.00889300  1
  Cu  Cu3  1  0.78212900  0.12335700  0.99110700  1
  Cu  Cu4  1  0.71787100  0.12335700  0.49110700  1
  Cu  Cu5  1  0.28212900  0.87664300  0.50889300  1
  C  C6  1  0.38298300  0.22949700  0.97096400  1
  C  C7  1  0.43991400  0.99162100  0.65692400  1
  C  C8  1  0.44467000  0.24104100  0.82422900  1
  C  C9  1  0.52175200  0.07854400  0.67081700  1
  C  C10  1  0.41131900  0.33532600  0.28413900  1
  C  C11  1  0.11214200  0.67038500  0.64254200  1
  C  C12  1  0.08868100  0.33532600  0.78413900  1
  C  C13  1  0.97824800  0.07854400  0.17081700  1
  C  C14  1  0.47824800  0.92145600  0.32918300  1
  C  C15  1  0.94467000  0.75895900  0.67577100  1
  C  C16  1  0.55533000  0.75895900  0.17577100  1
  C  C17  1  0.06008600  0.99162100  0.15692400  1
  C  C18  1  0.88298300  0.77050300  0.52903600  1
  C  C19  1  0.91131900  0.66467400  0.21586100  1
  C  C20  1  0.05533000  0.24104100  0.32422900  1
  C  C21  1  0.02175200  0.92145600  0.82918300  1
  C  C22  1  0.56008600  0.00837900  0.34307600  1
  C  C23  1  0.61214200  0.32961500  0.85745800  1
  C  C24  1  0.93991400  0.00837900  0.84307600  1
  C  C25  1  0.11701700  0.22949700  0.47096400  1
  C  C26  1  0.61701700  0.77050300  0.02903600  1
  C  C27  1  0.88785800  0.32961500  0.35745800  1
  C  C28  1  0.58868100  0.66467400  0.71586100  1
  C  C29  1  0.38785800  0.67038500  0.14254200  1
  C  C30  1  0.43019400  0.53037300  0.18684400  1
  C  C31  1  0.02486300  0.01891800  0.24292100  1
  C  C32  1  0.56980600  0.46962700  0.81315600  1
  C  C33  1  0.47513700  0.01891800  0.74292100  1
  C  C34  1  0.92228100  0.64171100  0.61412400  1
  C  C35  1  0.97513700  0.98108200  0.75707900  1
  C  C36  1  0.93019400  0.46962700  0.31315600  1
  C  C37  1  0.52486300  0.98108200  0.25707900  1
  C  C38  1  0.57771900  0.64171100  0.11412400  1
  C  C39  1  0.06980600  0.53037300  0.68684400  1
  C  C40  1  0.07771900  0.35828900  0.38587600  1
  C  C41  1  0.42228100  0.35828900  0.88587600  1
  C  C42  1  0.60130500  0.01856100  0.55101100  1
  C  C43  1  0.39869500  0.98143900  0.44898900  1
  C  C44  1  0.18956900  0.93285600  0.23376500  1
  C  C45  1  0.32432400  0.93287100  0.09877400  1
  C  C46  1  0.72449100  0.69380100  0.65077800  1
  C  C47  1  0.77550900  0.69380100  0.15077800  1
  C  C48  1  0.27550900  0.30619900  0.34922200  1
  C  C49  1  0.22449100  0.30619900  0.84922200  1
  C  C50  1  0.68956900  0.06714400  0.26623500  1
  C  C51  1  0.89869500  0.01856100  0.05101100  1
  C  C52  1  0.81043100  0.06714400  0.76623500  1
  C  C53  1  0.67567600  0.06712900  0.90122600  1
  C  C54  1  0.82432400  0.06712900  0.40122600  1
  C  C55  1  0.17567600  0.93287100  0.59877400  1
  C  C56  1  0.31043100  0.93285600  0.73376500  1
  C  C57  1  0.10130500  0.98143900  0.94898900  1
