# generated using pymatgen
data_Cu6NiC6
_symmetry_space_group_name_H-M   'P 1'
_cell_length_a   5.24970400
_cell_length_b   11.60697300
_cell_length_c   13.53468500
_cell_angle_alpha   90.00000000
_cell_angle_beta   90.00000000
_cell_angle_gamma   90.00000000
_symmetry_Int_Tables_number   1
_chemical_formula_structural   Cu6NiC6
_chemical_formula_sum   'Cu24 Ni4 C24'
_cell_volume   824.71129700
_cell_formula_units_Z   4
loop_
 _symmetry_equiv_pos_site_id
 _symmetry_equiv_pos_as_xyz
  1  'x, y, z'
loop_
 _atom_site_type_symbol
 _atom_site_label
 _atom_site_symmetry_multiplicity
 _atom_site_fract_x
 _atom_site_fract_y
 _atom_site_fract_z
 _atom_site_occupancy
  C  C0  1  0.25000000  0.91484000  0.86148900  1
  C  C1  1  0.75000000  0.07630600  0.58701100  1
  C  C2  1  0.25000000  0.42369400  0.08701100  1
  C  C3  1  0.75000000  0.57630600  0.91298900  1
  C  C4  1  0.25000000  0.41484000  0.63851100  1
  C  C5  1  0.25000000  0.92369400  0.41298900  1
  C  C6  1  0.75000000  0.58516000  0.36148900  1
  C  C7  1  0.75000000  0.08516000  0.13851100  1
  C  C8  1  0.25000000  0.16464400  0.99972600  1
  C  C9  1  0.25000000  0.66464400  0.50027400  1
  C  C10  1  0.00641600  0.30013900  0.31676300  1
  C  C11  1  0.75000000  0.47383000  0.70058100  1
  C  C12  1  0.99358400  0.19986100  0.81676300  1
  C  C13  1  0.25000000  0.52617000  0.29941900  1
  C  C14  1  0.99358400  0.69986100  0.68323700  1
  C  C15  1  0.75000000  0.83535600  0.00027400  1
  C  C16  1  0.49358400  0.80013900  0.18323700  1
  C  C17  1  0.75000000  0.97383000  0.79941900  1
  C  C18  1  0.50641600  0.19986100  0.81676300  1
  C  C19  1  0.75000000  0.33535600  0.49972600  1
  C  C20  1  0.25000000  0.02617000  0.20058100  1
  C  C21  1  0.00641600  0.80013900  0.18323700  1
  C  C22  1  0.49358400  0.30013900  0.31676300  1
  C  C23  1  0.50641600  0.69986100  0.68323700  1
  Ni  Ni24  1  0.25000000  0.19630500  0.52919400  1
  Ni  Ni25  1  0.75000000  0.30369500  0.02919400  1
  Ni  Ni26  1  0.25000000  0.69630500  0.97080600  1
  Ni  Ni27  1  0.75000000  0.80369500  0.47080600  1
  Cu  Cu28  1  0.75000000  0.21351900  0.28503600  1
  Cu  Cu29  1  0.50051300  0.06291300  0.76989500  1
  Cu  Cu30  1  0.99948700  0.56291300  0.73010500  1
  Cu  Cu31  1  0.49948700  0.43708700  0.26989500  1
  Cu  Cu32  1  0.75000000  0.71351900  0.21496400  1
  Cu  Cu33  1  0.98129200  0.24412100  0.04139600  1
  Cu  Cu34  1  0.49948700  0.93708700  0.23010500  1
  Cu  Cu35  1  0.99948700  0.06291300  0.76989500  1
  Cu  Cu36  1  0.00051300  0.43708700  0.26989500  1
  Cu  Cu37  1  0.51870800  0.74412100  0.45860400  1
  Cu  Cu38  1  0.01870800  0.25587900  0.54139600  1
  Cu  Cu39  1  0.51870800  0.24412100  0.04139600  1
  Cu  Cu40  1  0.25000000  0.78648100  0.71496400  1
  Cu  Cu41  1  0.25000000  0.28648100  0.78503600  1
  Cu  Cu42  1  0.25000000  0.08304400  0.51944800  1
  Cu  Cu43  1  0.01870800  0.75587900  0.95860400  1
  Cu  Cu44  1  0.98129200  0.74412100  0.45860400  1
  Cu  Cu45  1  0.75000000  0.91695600  0.48055200  1
  Cu  Cu46  1  0.50051300  0.56291300  0.73010500  1
  Cu  Cu47  1  0.48129200  0.25587900  0.54139600  1
  Cu  Cu48  1  0.48129200  0.75587900  0.95860400  1
  Cu  Cu49  1  0.25000000  0.58304400  0.98055200  1
  Cu  Cu50  1  0.75000000  0.41695600  0.01944800  1
  Cu  Cu51  1  0.00051300  0.93708700  0.23010500  1
