# generated using pymatgen
data_CuNi3C7
_symmetry_space_group_name_H-M   'P 1'
_cell_length_a   7.35353121
_cell_length_b   7.35353121
_cell_length_c   7.35353127
_cell_angle_alpha   91.80812226
_cell_angle_beta   91.80812226
_cell_angle_gamma   91.80812559
_symmetry_Int_Tables_number   1
_chemical_formula_structural   CuNi3C7
_chemical_formula_sum   'Cu2 Ni6 C14'
_cell_volume   397.03118589
_cell_formula_units_Z   2
loop_
 _symmetry_equiv_pos_site_id
 _symmetry_equiv_pos_as_xyz
  1  'x, y, z'
loop_
 _atom_site_type_symbol
 _atom_site_label
 _atom_site_symmetry_multiplicity
 _atom_site_fract_x
 _atom_site_fract_y
 _atom_site_fract_z
 _atom_site_occupancy
  Ni  Ni0  1  0.25000000  0.89890300  0.60109700  1
  Ni  Ni1  1  0.75000000  0.10109700  0.39890300  1
  Ni  Ni2  1  0.89890300  0.60109700  0.25000000  1
  Ni  Ni3  1  0.39890300  0.75000000  0.10109700  1
  Ni  Ni4  1  0.10109700  0.39890300  0.75000000  1
  Ni  Ni5  1  0.60109700  0.25000000  0.89890300  1
  Cu  Cu6  1  0.75000000  0.75000000  0.75000000  1
  Cu  Cu7  1  0.25000000  0.25000000  0.25000000  1
  C  C8  1  0.00000000  0.00000000  0.00000000  1
  C  C9  1  0.50000000  0.50000000  0.50000000  1
  C  C10  1  0.72098700  0.91810100  0.05258500  1
  C  C11  1  0.05258500  0.72098700  0.91810100  1
  C  C12  1  0.08189900  0.94741500  0.27901300  1
  C  C13  1  0.91810100  0.05258500  0.72098700  1
  C  C14  1  0.44741500  0.58189900  0.77901300  1
  C  C15  1  0.58189900  0.77901300  0.44741500  1
  C  C16  1  0.27901300  0.08189900  0.94741500  1
  C  C17  1  0.94741500  0.27901300  0.08189900  1
  C  C18  1  0.22098700  0.55258500  0.41810100  1
  C  C19  1  0.55258500  0.41810100  0.22098700  1
  C  C20  1  0.41810100  0.22098700  0.55258500  1
  C  C21  1  0.77901300  0.44741500  0.58189900  1
