# generated using pymatgen
data_Cu6(NiC)5
_symmetry_space_group_name_H-M   'P 1'
_cell_length_a   7.48273390
_cell_length_b   7.48273390
_cell_length_c   11.77357766
_cell_angle_alpha   80.62261886
_cell_angle_beta   80.62261886
_cell_angle_gamma   88.81400602
_symmetry_Int_Tables_number   1
_chemical_formula_structural   Cu6(NiC)5
_chemical_formula_sum   'Cu12 Ni10 C10'
_cell_volume   641.70529317
_cell_formula_units_Z   2
loop_
 _symmetry_equiv_pos_site_id
 _symmetry_equiv_pos_as_xyz
  1  'x, y, z'
loop_
 _atom_site_type_symbol
 _atom_site_label
 _atom_site_symmetry_multiplicity
 _atom_site_fract_x
 _atom_site_fract_y
 _atom_site_fract_z
 _atom_site_occupancy
  C  C0  1  0.41604600  0.91816800  0.33040000  1
  C  C1  1  0.58395400  0.08183200  0.66960000  1
  C  C2  1  0.00000000  0.50000000  0.00000000  1
  C  C3  1  0.91816800  0.41604600  0.33040000  1
  C  C4  1  0.50000000  0.00000000  0.00000000  1
  C  C5  1  0.08183200  0.58395400  0.66960000  1
  C  C6  1  0.18207000  0.89020100  0.85592800  1
  C  C7  1  0.81793000  0.10979900  0.14407200  1
  C  C8  1  0.89020100  0.18207000  0.85592800  1
  C  C9  1  0.10979900  0.81793000  0.14407200  1
  Ni  Ni10  1  0.21934600  0.21934600  0.33872900  1
  Ni  Ni11  1  0.31414100  0.31414100  0.99823500  1
  Ni  Ni12  1  0.78065400  0.78065400  0.66127100  1
  Ni  Ni13  1  0.67257100  0.11630900  0.42085400  1
  Ni  Ni14  1  0.38083800  0.38083800  0.64596600  1
  Ni  Ni15  1  0.32742900  0.88369100  0.57914600  1
  Ni  Ni16  1  0.11630900  0.67257100  0.42085400  1
  Ni  Ni17  1  0.68585900  0.68585900  0.00176500  1
  Ni  Ni18  1  0.61916200  0.61916200  0.35403400  1
  Ni  Ni19  1  0.88369100  0.32742900  0.57914600  1
  Cu  Cu20  1  0.30685600  0.86876500  0.17192900  1
  Cu  Cu21  1  0.69314400  0.13123500  0.82807100  1
  Cu  Cu22  1  0.13123500  0.69314400  0.82807100  1
  Cu  Cu23  1  0.95237800  0.95237800  0.19340000  1
  Cu  Cu24  1  0.95643300  0.39256900  0.82798100  1
  Cu  Cu25  1  0.86876500  0.30685600  0.17192900  1
  Cu  Cu26  1  0.39256900  0.95643300  0.82798100  1
  Cu  Cu27  1  0.14389200  0.85610800  0.00000000  1
  Cu  Cu28  1  0.04356700  0.60743100  0.17201900  1
  Cu  Cu29  1  0.60743100  0.04356700  0.17201900  1
  Cu  Cu30  1  0.04762200  0.04762200  0.80660000  1
  Cu  Cu31  1  0.85610800  0.14389200  0.00000000  1
