# generated using pymatgen
data_Cu10(Ni2C11)3
_symmetry_space_group_name_H-M   'P 1'
_cell_length_a   7.68842500
_cell_length_b   8.48130714
_cell_length_c   11.55226655
_cell_angle_alpha   86.85006834
_cell_angle_beta   78.11979590
_cell_angle_gamma   76.36305204
_symmetry_Int_Tables_number   1
_chemical_formula_structural   Cu10(Ni2C11)3
_chemical_formula_sum   'Cu10 Ni6 C33'
_cell_volume   716.36589764
_cell_formula_units_Z   1
loop_
 _symmetry_equiv_pos_site_id
 _symmetry_equiv_pos_as_xyz
  1  'x, y, z'
loop_
 _atom_site_type_symbol
 _atom_site_label
 _atom_site_symmetry_multiplicity
 _atom_site_fract_x
 _atom_site_fract_y
 _atom_site_fract_z
 _atom_site_occupancy
  Ni  Ni0  1  0.82254800  0.47409000  0.23459500  1
  Ni  Ni1  1  0.17745200  0.52591000  0.76540500  1
  Ni  Ni2  1  0.26651100  0.47142900  0.22172700  1
  Ni  Ni3  1  0.73348900  0.52857100  0.77827300  1
  Ni  Ni4  1  0.35075200  0.99843900  0.24679800  1
  Ni  Ni5  1  0.64924800  0.00156100  0.75320200  1
  Cu  Cu6  1  0.81217900  0.99940600  0.31934300  1
  Cu  Cu7  1  0.18782100  0.00059400  0.68065700  1
  Cu  Cu8  1  0.71307400  0.19948900  0.02149900  1
  Cu  Cu9  1  0.28692600  0.80051100  0.97850100  1
  Cu  Cu10  1  0.84783100  0.80690800  0.01871900  1
  Cu  Cu11  1  0.15216900  0.19309200  0.98128100  1
  Cu  Cu12  1  0.94011500  0.22471400  0.50135100  1
  Cu  Cu13  1  0.05988500  0.77528600  0.49864900  1
  Cu  Cu14  1  0.55847700  0.77656000  0.49836000  1
  Cu  Cu15  1  0.44152300  0.22344000  0.50164000  1
  C  C16  1  0.80651700  0.82780000  0.47551500  1
  C  C17  1  0.19348300  0.17220000  0.52448500  1
  C  C18  1  0.71088400  0.17064800  0.47935400  1
  C  C19  1  0.28911600  0.82935200  0.52064600  1
  C  C20  1  0.60553400  0.62616200  0.39283400  1
  C  C21  1  0.39446600  0.37383800  0.60716600  1
  C  C22  1  0.15836900  0.64953800  0.37706300  1
  C  C23  1  0.84163100  0.35046200  0.62293700  1
  C  C24  1  0.55365800  0.98706100  0.37856200  1
  C  C25  1  0.44634200  0.01293900  0.62143800  1
  C  C26  1  0.02852800  0.00333000  0.38071100  1
  C  C27  1  0.97147200  0.99667000  0.61928900  1
  C  C28  1  0.96808000  0.35585000  0.37898700  1
  C  C29  1  0.03192000  0.64415000  0.62101300  1
  C  C30  1  0.41689400  0.32589800  0.36938100  1
  C  C31  1  0.58310600  0.67410200  0.63061900  1
  C  C32  1  0.00000000  0.00000000  0.00000000  1
  C  C33  1  0.90018100  0.31915600  0.00374200  1
  C  C34  1  0.09981900  0.68084400  0.99625800  1
  C  C35  1  0.34691200  0.00433900  0.92328400  1
  C  C36  1  0.65308800  0.99566100  0.07671600  1
  C  C37  1  0.47886100  0.65854400  0.90894100  1
  C  C38  1  0.52113900  0.34145600  0.09105900  1
  C  C39  1  0.24869100  0.34743100  0.90556300  1
  C  C40  1  0.89234500  0.83750900  0.21994400  1
  C  C41  1  0.80817000  0.80023700  0.87428100  1
  C  C42  1  0.19183000  0.19976300  0.12571900  1
  C  C43  1  0.68518300  0.19815300  0.87461000  1
  C  C44  1  0.31481700  0.80184700  0.12539000  1
  C  C45  1  0.21448700  0.82881800  0.77489500  1
  C  C46  1  0.78551300  0.17118200  0.22510500  1
  C  C47  1  0.10765500  0.16249100  0.78005600  1
  C  C48  1  0.75130900  0.65256900  0.09443700  1
