# generated using pymatgen
data_Cu6Ni4C7
_symmetry_space_group_name_H-M   'P 1'
_cell_length_a   20.28818400
_cell_length_b   6.19073600
_cell_length_c   7.73959486
_cell_angle_alpha   76.14638383
_cell_angle_beta   90.00000000
_cell_angle_gamma   90.00000000
_symmetry_Int_Tables_number   1
_chemical_formula_structural   Cu6Ni4C7
_chemical_formula_sum   'Cu12 Ni8 C14'
_cell_volume   943.80646350
_cell_formula_units_Z   2
loop_
 _symmetry_equiv_pos_site_id
 _symmetry_equiv_pos_as_xyz
  1  'x, y, z'
loop_
 _atom_site_type_symbol
 _atom_site_label
 _atom_site_symmetry_multiplicity
 _atom_site_fract_x
 _atom_site_fract_y
 _atom_site_fract_z
 _atom_site_occupancy
  C  C0  1  0.00000000  0.00000000  0.00000000  1
  C  C1  1  0.50000000  0.00000000  0.50000000  1
  C  C2  1  0.86271700  0.49245500  0.92142600  1
  C  C3  1  0.36271700  0.50754500  0.57857400  1
  C  C4  1  0.13728300  0.50754500  0.07857400  1
  C  C5  1  0.63728300  0.49245500  0.42142600  1
  C  C6  1  0.76786700  0.90961000  0.18816000  1
  C  C7  1  0.26786700  0.09039000  0.31184000  1
  C  C8  1  0.23213300  0.09039000  0.81184000  1
  C  C9  1  0.73213300  0.90961000  0.68816000  1
  C  C10  1  0.91163200  0.21711100  0.50876000  1
  C  C11  1  0.41163200  0.78288900  0.99124000  1
  C  C12  1  0.08836800  0.78288900  0.49124000  1
  C  C13  1  0.58836800  0.21711100  0.00876000  1
  Ni  Ni14  1  0.89741000  0.14242400  0.83591800  1
  Ni  Ni15  1  0.39741000  0.85757600  0.66408200  1
  Ni  Ni16  1  0.10259000  0.85757600  0.16408200  1
  Ni  Ni17  1  0.60259000  0.14242400  0.33591800  1
  Ni  Ni18  1  0.82241500  0.87718000  0.90981400  1
  Ni  Ni19  1  0.32241500  0.12282000  0.59018600  1
  Ni  Ni20  1  0.17758500  0.12282000  0.09018600  1
  Ni  Ni21  1  0.67758500  0.87718000  0.40981400  1
  Cu  Cu22  1  0.97978700  0.39930400  0.22189300  1
  Cu  Cu23  1  0.47978700  0.60069600  0.27810700  1
  Cu  Cu24  1  0.02021300  0.60069600  0.77810700  1
  Cu  Cu25  1  0.52021300  0.39930400  0.72189300  1
  Cu  Cu26  1  0.78847500  0.36215500  0.29429700  1
  Cu  Cu27  1  0.28847500  0.63784500  0.20570300  1
  Cu  Cu28  1  0.21152500  0.63784500  0.70570300  1
  Cu  Cu29  1  0.71152500  0.36215500  0.79429700  1
  Cu  Cu30  1  0.88770700  0.81413900  0.41801900  1
  Cu  Cu31  1  0.38770700  0.18586100  0.08198100  1
  Cu  Cu32  1  0.11229300  0.18586100  0.58198100  1
  Cu  Cu33  1  0.61229300  0.81413900  0.91801900  1
