# generated using pymatgen
data_Cu3NiC12
_symmetry_space_group_name_H-M   'P 1'
_cell_length_a   9.22109990
_cell_length_b   9.22109990
_cell_length_c   11.68939787
_cell_angle_alpha   51.29963546
_cell_angle_beta   51.29963546
_cell_angle_gamma   32.17644558
_symmetry_Int_Tables_number   1
_chemical_formula_structural   Cu3NiC12
_chemical_formula_sum   'Cu6 Ni2 C24'
_cell_volume   401.89963406
_cell_formula_units_Z   2
loop_
 _symmetry_equiv_pos_site_id
 _symmetry_equiv_pos_as_xyz
  1  'x, y, z'
loop_
 _atom_site_type_symbol
 _atom_site_label
 _atom_site_symmetry_multiplicity
 _atom_site_fract_x
 _atom_site_fract_y
 _atom_site_fract_z
 _atom_site_occupancy
  Ni  Ni0  1  0.50000000  0.00000000  0.50000000  1
  Ni  Ni1  1  0.00000000  0.50000000  0.00000000  1
  Cu  Cu2  1  0.08365800  0.67197900  0.15116500  1
  Cu  Cu3  1  0.32802100  0.91634200  0.34883500  1
  Cu  Cu4  1  0.91634200  0.32802100  0.84883500  1
  Cu  Cu5  1  0.78975900  0.21024100  0.25000000  1
  Cu  Cu6  1  0.21024100  0.78975900  0.75000000  1
  Cu  Cu7  1  0.67197900  0.08365800  0.65116500  1
  C  C8  1  0.61959800  0.09117000  0.98942600  1
  C  C9  1  0.90883000  0.38040200  0.51057400  1
  C  C10  1  0.09117000  0.61959800  0.48942600  1
  C  C11  1  0.38040200  0.90883000  0.01057400  1
  C  C12  1  0.13171800  0.32382700  0.32920900  1
  C  C13  1  0.86828200  0.67617300  0.67079100  1
  C  C14  1  0.91379800  0.77599100  0.36596700  1
  C  C15  1  0.89309500  0.04165000  0.92839700  1
  C  C16  1  0.10690500  0.95835000  0.07160300  1
  C  C17  1  0.95835000  0.10690500  0.57160300  1
  C  C18  1  0.28920900  0.44753300  0.97607200  1
  C  C19  1  0.71079100  0.55246700  0.02392800  1
  C  C20  1  0.55246700  0.71079100  0.52392800  1
  C  C21  1  0.44753300  0.28920900  0.47607200  1
  C  C22  1  0.08620200  0.22400900  0.63403300  1
  C  C23  1  0.77599100  0.91379800  0.86596700  1
  C  C24  1  0.32382700  0.13171800  0.82920900  1
  C  C25  1  0.22400900  0.08620200  0.13403300  1
  C  C26  1  0.67617300  0.86828200  0.17079100  1
  C  C27  1  0.04165000  0.89309500  0.42839700  1
  C  C28  1  0.51742400  0.34018800  0.17116300  1
  C  C29  1  0.34018800  0.51742400  0.67116300  1
  C  C30  1  0.65981200  0.48257600  0.32883700  1
  C  C31  1  0.48257600  0.65981200  0.82883700  1
