# generated using pymatgen
data_Cu6NiC2
_symmetry_space_group_name_H-M   'P 1'
_cell_length_a   14.82277800
_cell_length_b   9.09499500
_cell_length_c   9.51236075
_cell_angle_alpha   81.54462902
_cell_angle_beta   90.00000000
_cell_angle_gamma   90.00000000
_symmetry_Int_Tables_number   1
_chemical_formula_structural   Cu6NiC2
_chemical_formula_sum   'Cu48 Ni8 C16'
_cell_volume   1268.45206669
_cell_formula_units_Z   8
loop_
 _symmetry_equiv_pos_site_id
 _symmetry_equiv_pos_as_xyz
  1  'x, y, z'
loop_
 _atom_site_type_symbol
 _atom_site_label
 _atom_site_symmetry_multiplicity
 _atom_site_fract_x
 _atom_site_fract_y
 _atom_site_fract_z
 _atom_site_occupancy
  C  C0  1  0.60149200  0.27487800  0.58792000  1
  C  C1  1  0.10149200  0.72512200  0.91208000  1
  C  C2  1  0.39850800  0.72512200  0.41208000  1
  C  C3  1  0.55400800  0.17875800  0.13280700  1
  C  C4  1  0.44599200  0.82124200  0.86719300  1
  C  C5  1  0.94599200  0.17875800  0.63280700  1
  C  C6  1  0.05400800  0.82124200  0.36719300  1
  C  C7  1  0.89850800  0.27487800  0.08792000  1
  C  C8  1  0.22096900  0.42128500  0.58443100  1
  C  C9  1  0.27903100  0.42128500  0.08443100  1
  C  C10  1  0.82743100  0.77173400  0.11842600  1
  C  C11  1  0.67256900  0.77173400  0.61842600  1
  C  C12  1  0.77903100  0.57871500  0.41556900  1
  C  C13  1  0.72096900  0.57871500  0.91556900  1
  C  C14  1  0.32743100  0.22826600  0.38157400  1
  C  C15  1  0.17256900  0.22826600  0.88157400  1
  Ni  Ni16  1  0.39644200  0.38530900  0.80181600  1
  Ni  Ni17  1  0.60355800  0.61469100  0.19818400  1
  Ni  Ni18  1  0.28035100  0.01577900  0.14625900  1
  Ni  Ni19  1  0.21964900  0.01577900  0.64625900  1
  Ni  Ni20  1  0.89644200  0.61469100  0.69818400  1
  Ni  Ni21  1  0.10355800  0.38530900  0.30181600  1
  Ni  Ni22  1  0.71964900  0.98422100  0.85374100  1
  Ni  Ni23  1  0.78035100  0.98422100  0.35374100  1
  Cu  Cu24  1  0.12585900  0.44872500  0.43908200  1
  Cu  Cu25  1  0.56427600  0.49503800  0.29786100  1
  Cu  Cu26  1  0.69465000  0.66301700  0.25238900  1
  Cu  Cu27  1  0.72264900  0.40727900  0.88653500  1
  Cu  Cu28  1  0.80535000  0.66301700  0.75238900  1
  Cu  Cu29  1  0.69057100  0.59399500  0.54122500  1
  Cu  Cu30  1  0.27622800  0.05897100  0.29649400  1
  Cu  Cu31  1  0.45303200  0.25427300  0.83609100  1
  Cu  Cu32  1  0.43572400  0.50496200  0.70213900  1
  Cu  Cu33  1  0.19465000  0.33698300  0.24761100  1
  Cu  Cu34  1  0.19057100  0.40600500  0.95877500  1
  Cu  Cu35  1  0.30535000  0.33698300  0.74761100  1
  Cu  Cu36  1  0.76450200  0.84092600  0.45798600  1
  Cu  Cu37  1  0.77735100  0.40727900  0.38653500  1
  Cu  Cu38  1  0.26450200  0.15907400  0.04201400  1
  Cu  Cu39  1  0.87414100  0.55127500  0.56091800  1
  Cu  Cu40  1  0.22377200  0.05897100  0.79649400  1
  Cu  Cu41  1  0.37110100  0.96144400  0.12281500  1
  Cu  Cu42  1  0.87110100  0.03855600  0.37718500  1
  Cu  Cu43  1  0.37414100  0.44872500  0.93908200  1
  Cu  Cu44  1  0.36425900  0.31989700  0.21364300  1
  Cu  Cu45  1  0.62585900  0.55127500  0.06091800  1
  Cu  Cu46  1  0.86425900  0.68010300  0.28635700  1
  Cu  Cu47  1  0.12889900  0.96144400  0.62281500  1
  Cu  Cu48  1  0.57890600  0.84115700  0.54788400  1
  Cu  Cu49  1  0.63574100  0.68010300  0.78635700  1
  Cu  Cu50  1  0.73549800  0.84092600  0.95798600  1
  Cu  Cu51  1  0.93572400  0.49503800  0.79786100  1
  Cu  Cu52  1  0.29232400  0.91052200  0.63618100  1
  Cu  Cu53  1  0.95303200  0.74572700  0.66390900  1
  Cu  Cu54  1  0.42109400  0.15884300  0.45211600  1
  Cu  Cu55  1  0.06427600  0.50496200  0.20213900  1
  Cu  Cu56  1  0.27735100  0.59272100  0.11346500  1
  Cu  Cu57  1  0.54696800  0.74572700  0.16390900  1
  Cu  Cu58  1  0.92109400  0.84115700  0.04788400  1
  Cu  Cu59  1  0.30942900  0.40600500  0.45877500  1
  Cu  Cu60  1  0.77622800  0.94102900  0.20350600  1
  Cu  Cu61  1  0.80942900  0.59399500  0.04122500  1
  Cu  Cu62  1  0.23549800  0.15907400  0.54201400  1
  Cu  Cu63  1  0.04696800  0.25427300  0.33609100  1
  Cu  Cu64  1  0.13574100  0.31989700  0.71364300  1
  Cu  Cu65  1  0.79232400  0.08947800  0.86381900  1
  Cu  Cu66  1  0.72377200  0.94102900  0.70350600  1
  Cu  Cu67  1  0.22264900  0.59272100  0.61346500  1
  Cu  Cu68  1  0.07890600  0.15884300  0.95211600  1
  Cu  Cu69  1  0.62889900  0.03855600  0.87718500  1
  Cu  Cu70  1  0.70767600  0.08947800  0.36381900  1
  Cu  Cu71  1  0.20767600  0.91052200  0.13618100  1
