# generated using pymatgen
data_Cu8NiC
_symmetry_space_group_name_H-M   'P 1'
_cell_length_a   6.33779700
_cell_length_b   13.96980000
_cell_length_c   14.40193000
_cell_angle_alpha   90.00000000
_cell_angle_beta   90.00000000
_cell_angle_gamma   90.00000000
_symmetry_Int_Tables_number   1
_chemical_formula_structural   Cu8NiC
_chemical_formula_sum   'Cu32 Ni4 C4'
_cell_volume   1275.11457191
_cell_formula_units_Z   4
loop_
 _symmetry_equiv_pos_site_id
 _symmetry_equiv_pos_as_xyz
  1  'x, y, z'
loop_
 _atom_site_type_symbol
 _atom_site_label
 _atom_site_symmetry_multiplicity
 _atom_site_fract_x
 _atom_site_fract_y
 _atom_site_fract_z
 _atom_site_occupancy
  C  C0  1  0.27346000  0.02644000  0.25000000  1
  C  C1  1  0.27346000  0.47356000  0.75000000  1
  C  C2  1  0.72654000  0.52644000  0.25000000  1
  C  C3  1  0.72654000  0.97356000  0.75000000  1
  Ni  Ni4  1  0.95483000  0.25000000  0.00000000  1
  Ni  Ni5  1  0.04517000  0.75000000  0.50000000  1
  Ni  Ni6  1  0.04517000  0.75000000  0.00000000  1
  Ni  Ni7  1  0.95483000  0.25000000  0.50000000  1
  Cu  Cu8  1  0.40273500  0.96195200  0.12198000  1
  Cu  Cu9  1  0.40273500  0.53804800  0.87802000  1
  Cu  Cu10  1  0.59726500  0.46195200  0.37802000  1
  Cu  Cu11  1  0.59726500  0.03804800  0.62198000  1
  Cu  Cu12  1  0.59726500  0.03804800  0.87802000  1
  Cu  Cu13  1  0.59726500  0.46195200  0.12198000  1
  Cu  Cu14  1  0.40273500  0.53804800  0.62198000  1
  Cu  Cu15  1  0.40273500  0.96195200  0.37802000  1
  Cu  Cu16  1  0.34163700  0.18292500  0.25000000  1
  Cu  Cu17  1  0.34163700  0.31707500  0.75000000  1
  Cu  Cu18  1  0.65836300  0.68292500  0.25000000  1
  Cu  Cu19  1  0.65836300  0.81707500  0.75000000  1
  Cu  Cu20  1  0.92971500  0.00372700  0.25000000  1
  Cu  Cu21  1  0.92971500  0.49627300  0.75000000  1
  Cu  Cu22  1  0.07028500  0.50372700  0.25000000  1
  Cu  Cu23  1  0.07028500  0.99627300  0.75000000  1
  Cu  Cu24  1  0.13460300  0.35158400  0.05025100  1
  Cu  Cu25  1  0.13460300  0.14841600  0.94974900  1
  Cu  Cu26  1  0.86539700  0.85158400  0.44974900  1
  Cu  Cu27  1  0.86539700  0.64841600  0.55025100  1
  Cu  Cu28  1  0.86539700  0.64841600  0.94974900  1
  Cu  Cu29  1  0.86539700  0.85158400  0.05025100  1
  Cu  Cu30  1  0.13460300  0.14841600  0.55025100  1
  Cu  Cu31  1  0.13460300  0.35158400  0.44974900  1
  Cu  Cu32  1  0.77500800  0.19808700  0.09856300  1
  Cu  Cu33  1  0.77500800  0.30191300  0.90143700  1
  Cu  Cu34  1  0.22499200  0.69808700  0.40143700  1
  Cu  Cu35  1  0.22499200  0.80191300  0.59856300  1
  Cu  Cu36  1  0.22499200  0.80191300  0.90143700  1
  Cu  Cu37  1  0.22499200  0.69808700  0.09856300  1
  Cu  Cu38  1  0.77500800  0.30191300  0.59856300  1
  Cu  Cu39  1  0.77500800  0.19808700  0.40143700  1
