# generated using pymatgen
data_CuNi2C9
_symmetry_space_group_name_H-M   'P 1'
_cell_length_a   16.59412900
_cell_length_b   10.12706000
_cell_length_c   13.56895042
_cell_angle_alpha   50.53476690
_cell_angle_beta   90.00000000
_cell_angle_gamma   90.00000000
_symmetry_Int_Tables_number   1
_chemical_formula_structural   CuNi2C9
_chemical_formula_sum   'Cu8 Ni16 C72'
_cell_volume   1760.38337328
_cell_formula_units_Z   8
loop_
 _symmetry_equiv_pos_site_id
 _symmetry_equiv_pos_as_xyz
  1  'x, y, z'
loop_
 _atom_site_type_symbol
 _atom_site_label
 _atom_site_symmetry_multiplicity
 _atom_site_fract_x
 _atom_site_fract_y
 _atom_site_fract_z
 _atom_site_occupancy
  C  C0  1  0.15459000  0.88757500  0.36478000  1
  C  C1  1  0.34541000  0.88757500  0.86478000  1
  C  C2  1  0.56118400  0.42920000  0.30376300  1
  C  C3  1  0.43881600  0.57080000  0.69623700  1
  C  C4  1  0.06118400  0.57080000  0.19623700  1
  C  C5  1  0.93881600  0.42920000  0.80376300  1
  C  C6  1  0.65459000  0.11242500  0.13522000  1
  C  C7  1  0.84541000  0.11242500  0.63522000  1
  Ni  Ni8  1  0.80630200  0.66258800  0.96038700  1
  Ni  Ni9  1  0.20410800  0.16872000  0.96863800  1
  Ni  Ni10  1  0.79589200  0.83128000  0.03136200  1
  Ni  Ni11  1  0.11888000  0.27865700  0.60370400  1
  Ni  Ni12  1  0.29589200  0.16872000  0.46863800  1
  Ni  Ni13  1  0.70410800  0.83128000  0.53136200  1
  Ni  Ni14  1  0.69369800  0.66258800  0.46038700  1
  Ni  Ni15  1  0.88112000  0.72134300  0.39629600  1
  Ni  Ni16  1  0.88824000  0.88351600  0.47193200  1
  Ni  Ni17  1  0.38112000  0.27865700  0.10370400  1
  Ni  Ni18  1  0.38824000  0.11648400  0.02806800  1
  Ni  Ni19  1  0.61176000  0.88351600  0.97193200  1
  Ni  Ni20  1  0.30630200  0.33741200  0.53961300  1
  Ni  Ni21  1  0.19369800  0.33741200  0.03961300  1
  Ni  Ni22  1  0.11176000  0.11648400  0.52806800  1
  Ni  Ni23  1  0.61888000  0.72134300  0.89629600  1
  Cu  Cu24  1  0.10207400  0.90977300  0.80516300  1
  Cu  Cu25  1  0.81235300  0.46267600  0.23686500  1
  Cu  Cu26  1  0.89792600  0.09022700  0.19483700  1
  Cu  Cu27  1  0.31235300  0.53732400  0.26313500  1
  Cu  Cu28  1  0.60207400  0.09022700  0.69483700  1
  Cu  Cu29  1  0.18764700  0.53732400  0.76313500  1
  Cu  Cu30  1  0.39792600  0.90977300  0.30516300  1
  Cu  Cu31  1  0.68764700  0.46267600  0.73686500  1
  C  C32  1  0.60115100  0.08260300  0.81371600  1
  C  C33  1  0.69561400  0.64565200  0.69637800  1
  C  C34  1  0.39010900  0.09109300  0.26758900  1
  C  C35  1  0.39884900  0.91739700  0.18628400  1
  C  C36  1  0.89884900  0.08260300  0.31371600  1
  C  C37  1  0.31531300  0.53374500  0.38004400  1
  C  C38  1  0.89010900  0.90890700  0.23241100  1
  C  C39  1  0.80438600  0.64565200  0.19637800  1
  C  C40  1  0.18468700  0.53374500  0.88004400  1
  C  C41  1  0.60989100  0.90890700  0.73241100  1
  C  C42  1  0.10989100  0.09109300  0.76758900  1
  C  C43  1  0.10115100  0.91739700  0.68628400  1
  C  C44  1  0.30438600  0.35434800  0.30362200  1
  C  C45  1  0.19561400  0.35434800  0.80362200  1
  C  C46  1  0.68468700  0.46625500  0.61995600  1
  C  C47  1  0.81531300  0.46625500  0.11995600  1
  C  C48  1  0.98372400  0.62724200  0.74083900  1
  C  C49  1  0.92866400  0.03119600  0.73973800  1
  C  C50  1  0.13106900  0.45388000  0.33106200  1
  C  C51  1  0.01627600  0.37275800  0.25916100  1
  C  C52  1  0.57133600  0.03119600  0.23973800  1
  C  C53  1  0.86893100  0.54612000  0.66893800  1
  C  C54  1  0.49468600  0.41008900  0.21150200  1
  C  C55  1  0.63851100  0.31896000  0.08485000  1
  C  C56  1  0.63106900  0.54612000  0.16893800  1
  C  C57  1  0.10958100  0.76301800  0.13744800  1
  C  C58  1  0.60958100  0.23698200  0.36255200  1
  C  C59  1  0.13034900  0.54436400  0.10990000  1
  C  C60  1  0.75976100  0.18647800  0.53543900  1
  C  C61  1  0.17396200  0.09765400  0.31271700  1
  C  C62  1  0.99468600  0.58991100  0.28849800  1
  C  C63  1  0.71814100  0.05757000  0.26464300  1
  C  C64  1  0.89041900  0.23698200  0.86255200  1
  C  C65  1  0.48372400  0.37275800  0.75916100  1
  C  C66  1  0.32603800  0.09765400  0.81271700  1
  C  C67  1  0.51627600  0.62724200  0.24083900  1
  C  C68  1  0.99284900  0.68101700  0.06630800  1
  C  C69  1  0.21814100  0.94243000  0.23535700  1
  C  C70  1  0.39041900  0.76301800  0.63744800  1
  C  C71  1  0.49284900  0.31898300  0.43369200  1
  C  C72  1  0.25976100  0.81352200  0.96456100  1
  C  C73  1  0.86148900  0.31896000  0.58485000  1
  C  C74  1  0.13851100  0.68104000  0.41515000  1
  C  C75  1  0.00531400  0.41008900  0.71150200  1
  C  C76  1  0.40741700  0.84486100  0.98847000  1
  C  C77  1  0.90741700  0.15513900  0.51153000  1
  C  C78  1  0.78185900  0.05757000  0.76464300  1
  C  C79  1  0.09258300  0.84486100  0.48847000  1
  C  C80  1  0.82603800  0.90234600  0.68728300  1
  C  C81  1  0.86965100  0.45563600  0.89010000  1
  C  C82  1  0.28185900  0.94243000  0.73535700  1
  C  C83  1  0.07133600  0.96880400  0.26026200  1
  C  C84  1  0.00715100  0.31898300  0.93369200  1
  C  C85  1  0.67396200  0.90234600  0.18728300  1
  C  C86  1  0.42866400  0.96880400  0.76026200  1
  C  C87  1  0.36965100  0.54436400  0.60990000  1
  C  C88  1  0.36148900  0.68104000  0.91515000  1
  C  C89  1  0.74023900  0.18647800  0.03543900  1
  C  C90  1  0.63034900  0.45563600  0.39010000  1
  C  C91  1  0.50531400  0.58991100  0.78849800  1
  C  C92  1  0.59258300  0.15513900  0.01153000  1
  C  C93  1  0.36893100  0.45388000  0.83106200  1
  C  C94  1  0.24023900  0.81352200  0.46456100  1
  C  C95  1  0.50715100  0.68101700  0.56630800  1
