# generated using pymatgen
data_Cu10NiC4
_symmetry_space_group_name_H-M   'P 1'
_cell_length_a   10.92705000
_cell_length_b   5.70519700
_cell_length_c   9.39125755
_cell_angle_alpha   74.71285720
_cell_angle_beta   90.00000000
_cell_angle_gamma   90.00000000
_symmetry_Int_Tables_number   1
_chemical_formula_structural   Cu10NiC4
_chemical_formula_sum   'Cu20 Ni2 C8'
_cell_volume   564.74456669
_cell_formula_units_Z   2
loop_
 _symmetry_equiv_pos_site_id
 _symmetry_equiv_pos_as_xyz
  1  'x, y, z'
loop_
 _atom_site_type_symbol
 _atom_site_label
 _atom_site_symmetry_multiplicity
 _atom_site_fract_x
 _atom_site_fract_y
 _atom_site_fract_z
 _atom_site_occupancy
  C  C0  1  0.98433800  0.82406700  0.75269800  1
  C  C1  1  0.01566200  0.17593300  0.24730200  1
  C  C2  1  0.48433800  0.17593300  0.24730200  1
  C  C3  1  0.51566200  0.82406700  0.75269800  1
  C  C4  1  0.25000000  0.49438400  0.52260100  1
  C  C5  1  0.25000000  0.27491800  0.88639300  1
  C  C6  1  0.75000000  0.72508200  0.11360700  1
  C  C7  1  0.75000000  0.50561600  0.47739900  1
  Ni  Ni8  1  0.25000000  0.50727700  0.71355200  1
  Ni  Ni9  1  0.75000000  0.49272300  0.28644800  1
  Cu  Cu10  1  0.13316100  0.26828300  0.54856000  1
  Cu  Cu11  1  0.91513100  0.73278600  0.10636100  1
  Cu  Cu12  1  0.36430800  0.72708200  0.48338000  1
  Cu  Cu13  1  0.08486900  0.26721400  0.89363900  1
  Cu  Cu14  1  0.25000000  0.02129800  0.81031200  1
  Cu  Cu15  1  0.75000000  0.48809100  0.02322400  1
  Cu  Cu16  1  0.75000000  0.97870200  0.18968800  1
  Cu  Cu17  1  0.86430800  0.27291800  0.51662000  1
  Cu  Cu18  1  0.75000000  0.93525900  0.93368700  1
  Cu  Cu19  1  0.25000000  0.06474100  0.06631300  1
  Cu  Cu20  1  0.63316100  0.73171700  0.45144000  1
  Cu  Cu21  1  0.25000000  0.50109300  0.33092400  1
  Cu  Cu22  1  0.25000000  0.51190900  0.97677600  1
  Cu  Cu23  1  0.13569200  0.72708200  0.48338000  1
  Cu  Cu24  1  0.86683900  0.73171700  0.45144000  1
  Cu  Cu25  1  0.41513100  0.26721400  0.89363900  1
  Cu  Cu26  1  0.63569200  0.27291800  0.51662000  1
  Cu  Cu27  1  0.36683900  0.26828300  0.54856000  1
  Cu  Cu28  1  0.75000000  0.49890700  0.66907600  1
  Cu  Cu29  1  0.58486900  0.73278600  0.10636100  1
