# generated using pymatgen
data_Cu3Ni3C2
_symmetry_space_group_name_H-M   'P 1'
_cell_length_a   12.00282019
_cell_length_b   12.00282019
_cell_length_c   12.00282019
_cell_angle_alpha   101.85650874
_cell_angle_beta   101.85650874
_cell_angle_gamma   126.09155460
_symmetry_Int_Tables_number   1
_chemical_formula_structural   Cu3Ni3C2
_chemical_formula_sum   'Cu24 Ni24 C16'
_cell_volume   1245.54667066
_cell_formula_units_Z   8
loop_
 _symmetry_equiv_pos_site_id
 _symmetry_equiv_pos_as_xyz
  1  'x, y, z'
loop_
 _atom_site_type_symbol
 _atom_site_label
 _atom_site_symmetry_multiplicity
 _atom_site_fract_x
 _atom_site_fract_y
 _atom_site_fract_z
 _atom_site_occupancy
  C  C0  1  0.99761600  0.13740200  0.86021500  1
  C  C1  1  0.97281300  0.61259800  0.36021500  1
  C  C2  1  0.86259800  0.00238400  0.13978500  1
  C  C3  1  0.27718700  0.13740200  0.13978500  1
  C  C4  1  0.38740200  0.02718700  0.63978500  1
  C  C5  1  0.38740200  0.74761600  0.36021500  1
  C  C6  1  0.25238400  0.61259800  0.63978500  1
  C  C7  1  0.86259800  0.72281300  0.86021500  1
  C  C8  1  0.14561200  0.75106800  0.60545600  1
  C  C9  1  0.00106800  0.89561200  0.10545600  1
  C  C10  1  0.45984300  0.85438700  0.60545600  1
  C  C11  1  0.10438800  0.20984300  0.10545600  1
  C  C12  1  0.79015700  0.89561200  0.89454400  1
  C  C13  1  0.24893200  0.85438700  0.39454400  1
  C  C14  1  0.14561200  0.54015700  0.39454400  1
  C  C15  1  0.10438800  0.99893200  0.89454400  1
  Ni  Ni16  1  0.54841500  0.17240500  0.62399000  1
  Ni  Ni17  1  0.70158500  0.57759500  0.87601000  1
  Ni  Ni18  1  0.34557300  0.54311500  0.62324400  1
  Ni  Ni19  1  0.79311500  0.66987100  0.69754200  1
  Ni  Ni20  1  0.79311500  0.09557300  0.12324400  1
  Ni  Ni21  1  0.97232900  0.09557300  0.30245800  1
  Ni  Ni22  1  0.45688500  0.08012900  0.80245800  1
  Ni  Ni23  1  0.33012900  0.20688500  0.30245800  1
  Ni  Ni24  1  0.45688500  0.65442700  0.37675600  1
  Ni  Ni25  1  0.17442600  0.29841500  0.87601000  1
  Ni  Ni26  1  0.54841500  0.92442600  0.37601000  1
  Ni  Ni27  1  0.27767100  0.08012900  0.62324400  1
  Ni  Ni28  1  0.27767100  0.65442700  0.19754200  1
  Ni  Ni29  1  0.34557300  0.72232900  0.80245800  1
  Ni  Ni30  1  0.91987100  0.72232900  0.37675600  1
  Ni  Ni31  1  0.90442700  0.02767100  0.69754200  1
  Ni  Ni32  1  0.97232900  0.66987100  0.87675600  1
  Ni  Ni33  1  0.91987100  0.54311500  0.19754200  1
  Ni  Ni34  1  0.42240500  0.29841500  0.12399000  1
  Ni  Ni35  1  0.33012900  0.02767100  0.12324400  1
  Ni  Ni36  1  0.70158500  0.82557400  0.12399000  1
  Ni  Ni37  1  0.90442700  0.20688500  0.87675600  1
  Ni  Ni38  1  0.07557400  0.45158500  0.62399000  1
  Ni  Ni39  1  0.82759500  0.45158500  0.37601000  1
  Cu  Cu40  1  0.28266400  0.40500100  0.87766300  1
  Cu  Cu41  1  0.72266200  0.34499900  0.37766300  1
  Cu  Cu42  1  0.96733600  0.34499900  0.62233700  1
  Cu  Cu43  1  0.37495000  0.25291200  0.41065000  1
  Cu  Cu44  1  0.03570000  0.15773700  0.41065000  1
  Cu  Cu45  1  0.65500100  0.27733800  0.62233700  1
  Cu  Cu46  1  0.59499900  0.47266200  0.87766300  1
  Cu  Cu47  1  0.40773700  0.49708800  0.62203700  1
  Cu  Cu48  1  0.84226300  0.25291200  0.87796300  1
  Cu  Cu49  1  0.87505000  0.49708800  0.08935000  1
  Cu  Cu50  1  0.74708800  0.15773700  0.12203700  1
  Cu  Cu51  1  0.40773700  0.78570000  0.91065000  1
  Cu  Cu52  1  0.84226300  0.96430000  0.58935000  1
  Cu  Cu53  1  0.87505000  0.78570000  0.37796300  1
  Cu  Cu54  1  0.21430000  0.59226300  0.08935000  1
  Cu  Cu55  1  0.37495000  0.96430000  0.12203700  1
  Cu  Cu56  1  0.52733800  0.40500100  0.12233700  1
  Cu  Cu57  1  0.21430000  0.12495000  0.62203700  1
  Cu  Cu58  1  0.03570000  0.62505000  0.87796300  1
  Cu  Cu59  1  0.50291200  0.59226300  0.37796300  1
  Cu  Cu60  1  0.65500100  0.03266400  0.37766300  1
  Cu  Cu61  1  0.74708800  0.62505000  0.58935000  1
  Cu  Cu62  1  0.50291200  0.12495000  0.91065000  1
  Cu  Cu63  1  0.59499900  0.71733600  0.12233700  1
