# generated using pymatgen
data_Cu4Ni20C21
_symmetry_space_group_name_H-M   'P 1'
_cell_length_a   12.32685838
_cell_length_b   12.32685851
_cell_length_c   14.15477481
_cell_angle_alpha   90.00000000
_cell_angle_beta   90.00000000
_cell_angle_gamma   119.99999964
_symmetry_Int_Tables_number   1
_chemical_formula_structural   Cu4Ni20C21
_chemical_formula_sum   'Cu12 Ni60 C63'
_cell_volume   1862.68070353
_cell_formula_units_Z   3
loop_
 _symmetry_equiv_pos_site_id
 _symmetry_equiv_pos_as_xyz
  1  'x, y, z'
loop_
 _atom_site_type_symbol
 _atom_site_label
 _atom_site_symmetry_multiplicity
 _atom_site_fract_x
 _atom_site_fract_y
 _atom_site_fract_z
 _atom_site_occupancy
  C  C0  1  0.85241294  0.52226896  0.14271835  1
  C  C1  1  0.66747906  0.84689144  0.32980027  1
  C  C2  1  0.33014398  0.47773104  0.14271835  1
  C  C3  1  0.82800438  0.66593162  0.71344376  1
  C  C4  1  0.00000000  0.81721614  0.52414081  1
  C  C5  1  0.84689144  0.66747906  0.32980027  1
  C  C6  1  0.48458322  0.48458322  0.71615597  1
  C  C7  1  0.66389538  0.51006540  0.90959660  1
  C  C8  1  0.33610462  0.84617002  0.90959660  1
  C  C9  1  0.33283957  0.48495018  0.53047664  1
  C  C10  1  0.48993460  0.15382998  0.90959660  1
  C  C11  1  0.82058762  0.15310856  0.32980027  1
  C  C12  1  0.17941238  0.33252094  0.32980027  1
  C  C13  1  0.47773104  0.33014398  0.14271835  1
  C  C14  1  1.00000000  0.82453762  0.13339856  1
  C  C15  1  0.81721614  0.00000000  0.52414081  1
  C  C16  1  0.19019227  0.00000000  0.89647999  1
  C  C17  1  0.48183672  0.48183672  0.32466257  1
  C  C18  1  0.00000000  0.19019227  0.89647999  1
  C  C19  1  0.48495018  0.33283957  0.53047664  1
  C  C20  1  0.18278386  0.18278386  0.52414081  1
  C  C21  1  0.16207276  0.33406838  0.71344376  1
  C  C22  1  0.00000000  0.51541678  0.71615597  1
  C  C23  1  0.33252094  0.17941238  0.32980027  1
  C  C24  1  0.83792724  0.17199562  0.71344376  1
  C  C25  1  0.80980773  0.80980773  0.89647999  1
  C  C26  1  0.51816328  0.00000000  0.32466257  1
  C  C27  1  0.15382998  0.48993460  0.90959660  1
  C  C28  1  0.51541678  0.00000000  0.71615597  1
  C  C29  1  0.15310856  0.82058762  0.32980027  1
  C  C30  1  0.33406838  0.16207276  0.71344376  1
  C  C31  1  0.14758706  0.66985602  0.14271835  1
  C  C32  1  0.66985602  0.14758706  0.14271835  1
  C  C33  1  0.66716043  0.15211061  0.53047664  1
  C  C34  1  0.84788939  0.51504982  0.53047664  1
  C  C35  1  0.51504982  0.84788939  0.53047664  1
  C  C36  1  0.15211061  0.66716043  0.53047664  1
  C  C37  1  0.82453762  0.00000000  0.13339856  1
  C  C38  1  0.17199562  0.83792724  0.71344376  1
  C  C39  1  0.17546238  0.17546238  0.13339856  1
  C  C40  1  1.00000000  0.51816328  0.32466257  1
  C  C41  1  0.52226896  0.85241294  0.14271835  1
  C  C42  1  0.66593162  0.82800438  0.71344376  1
  C  C43  1  0.84617002  0.33610462  0.90959660  1
  C  C44  1  0.51006540  0.66389538  0.90959660  1
  C  C45  1  1.00000000  0.66877354  0.91756422  1
  C  C46  1  0.33681376  0.00000000  0.50758896  1
  C  C47  1  0.66540954  0.66540954  0.12533964  1
  C  C48  1  0.33333300  0.66666700  0.72225936  1
  C  C49  1  0.66877354  0.00000000  0.91756422  1
  C  C50  1  0.00000000  0.00000000  0.69971977  1
  C  C51  1  0.66318624  0.66318624  0.50758896  1
  C  C52  1  0.00000000  0.33681376  0.50758896  1
  C  C53  1  0.33459046  0.00000000  0.12533964  1
  C  C54  1  0.33333300  0.66666700  0.34511504  1
  C  C55  1  0.66666700  0.33333300  0.34511504  1
  C  C56  1  0.66666700  0.33333300  0.72225936  1
  C  C57  1  0.00000000  0.33459046  0.12533964  1
  C  C58  1  0.00000000  0.00000000  0.32877871  1
  C  C59  1  0.33122646  0.33122646  0.91756422  1
  C  C60  1  0.66666700  0.33333300  0.04333293  1
  C  C61  1  0.33333300  0.66666700  0.04333293  1
  C  C62  1  0.00000000  0.00000000  0.99871920  1
  Ni  Ni63  1  0.67204602  0.00000000  0.02272376  1
  Ni  Ni64  1  0.22055190  0.88582152  0.53973914  1
  Ni  Ni65  1  0.55114462  0.33086469  0.68765654  1
  Ni  Ni66  1  0.33086469  0.55114462  0.68765654  1
  Ni  Ni67  1  0.44907252  0.77938160  0.31041126  1
  Ni  Ni68  1  0.22027992  0.66913531  0.68765654  1
  Ni  Ni69  1  0.55151285  0.55151285  0.54821800  1
  Ni  Ni70  1  0.66913531  0.22027992  0.68765654  1
  Ni  Ni71  1  1.00000000  0.44848715  0.54821800  1
  Ni  Ni72  1  0.66666700  0.33333300  0.82794960  1
  Ni  Ni73  1  0.11448839  0.00000000  0.73421508  1
  Ni  Ni74  1  1.00000000  0.33526051  0.01945255  1
  Ni  Ni75  1  0.88535645  0.66674585  0.88032083  1
  Ni  Ni76  1  0.77944810  0.66526962  0.53973914  1
  Ni  Ni77  1  0.21861060  0.33325415  0.88032083  1
  Ni  Ni78  1  0.66674585  0.88535645  0.88032083  1
  Ni  Ni79  1  0.32795398  0.32795398  0.02272376  1
  Ni  Ni80  1  0.00000000  0.11448839  0.73421508  1
  Ni  Ni81  1  0.66526962  0.77944810  0.53973914  1
  Ni  Ni82  1  0.77993340  0.66641105  0.16077918  1
  Ni  Ni83  1  0.00000000  0.44870337  0.16099311  1
  Ni  Ni84  1  0.77938160  0.44907252  0.31041126  1
  Ni  Ni85  1  0.44848715  0.00000000  0.54821800  1
  Ni  Ni86  1  1.00000000  0.34291137  0.40160178  1
  Ni  Ni87  1  0.11464355  0.78138940  0.88032083  1
  Ni  Ni88  1  0.33526051  0.00000000  0.01945255  1
  Ni  Ni89  1  0.66641105  0.77993340  0.16077918  1
  Ni  Ni90  1  0.33325415  0.21861060  0.88032083  1
  Ni  Ni91  1  0.88647765  0.22006660  0.16077918  1
  Ni  Ni92  1  0.22006660  0.88647765  0.16077918  1
  Ni  Ni93  1  0.00000000  0.88568351  0.36382298  1
  Ni  Ni94  1  0.66666700  0.33333300  0.45151198  1
  Ni  Ni95  1  0.33333300  0.66666700  0.45151198  1
  Ni  Ni96  1  0.66473949  0.66473949  0.01945255  1
  Ni  Ni97  1  0.00000000  0.00000000  0.59357769  1
  Ni  Ni98  1  0.44885538  0.77972008  0.68765654  1
  Ni  Ni99  1  0.88551161  0.88551161  0.73421508  1
  Ni  Ni100  1  0.88568351  0.00000000  0.36382298  1
  Ni  Ni101  1  0.11352235  0.33358895  0.16077918  1
  Ni  Ni102  1  0.11431649  0.11431649  0.36382298  1
  Ni  Ni103  1  0.55129663  0.55129663  0.16099311  1
  Ni  Ni104  1  0.77972008  0.44885538  0.68765654  1
  Ni  Ni105  1  0.55092748  0.33030909  0.31041126  1
  Ni  Ni106  1  0.00000000  0.00000000  0.22304709  1
  Ni  Ni107  1  0.33030909  0.55092748  0.31041126  1
  Ni  Ni108  1  0.34291137  0.00000000  0.40160178  1
  Ni  Ni109  1  0.88582152  0.22055190  0.53973914  1
  Ni  Ni110  1  0.00000000  0.67204602  0.02272376  1
  Ni  Ni111  1  0.65708863  0.65708863  0.40160178  1
  Ni  Ni112  1  0.44649370  0.44649370  0.88462152  1
  Ni  Ni113  1  0.00000000  0.55350630  0.88462152  1
  Ni  Ni114  1  0.55350630  0.00000000  0.88462152  1
  Ni  Ni115  1  0.33333300  0.66666700  0.82794960  1
  Ni  Ni116  1  0.66969091  0.22061840  0.31041126  1
  Ni  Ni117  1  0.78138940  0.11464355  0.88032083  1
  Ni  Ni118  1  0.33358895  0.11352235  0.16077918  1
  Ni  Ni119  1  0.33473038  0.11417848  0.53973914  1
  Ni  Ni120  1  0.44870337  0.00000000  0.16099311  1
  Ni  Ni121  1  0.22061840  0.66969091  0.31041126  1
  Ni  Ni122  1  0.11417848  0.33473038  0.53973914  1
  Cu  Cu123  1  0.34054251  0.34054251  0.43268575  1
  Cu  Cu124  1  0.65270847  0.65270847  0.79242384  1
  Cu  Cu125  1  0.34729153  0.00000000  0.79242384  1
  Cu  Cu126  1  0.65945749  0.00000000  0.43268575  1
  Cu  Cu127  1  0.00000000  0.65945749  0.43268575  1
  Cu  Cu128  1  0.31602754  0.31602754  0.64139355  1
  Cu  Cu129  1  0.68397246  0.00000000  0.64139355  1
  Cu  Cu130  1  1.00000000  0.34729153  0.79242384  1
  Cu  Cu131  1  0.00000000  0.68397246  0.64139355  1
  Cu  Cu132  1  0.32328413  0.32328413  0.23220549  1
  Cu  Cu133  1  0.67671587  0.00000000  0.23220549  1
  Cu  Cu134  1  0.00000000  0.67671587  0.23220549  1
