# generated using pymatgen
data_Cu11(Ni2C)2
_symmetry_space_group_name_H-M   'P 1'
_cell_length_a   7.60894000
_cell_length_b   13.04489200
_cell_length_c   16.40679550
_cell_angle_alpha   57.85657979
_cell_angle_beta   90.00000000
_cell_angle_gamma   90.00000000
_symmetry_Int_Tables_number   1
_chemical_formula_structural   Cu11(Ni2C)2
_chemical_formula_sum   'Cu44 Ni16 C8'
_cell_volume   1378.88390585
_cell_formula_units_Z   4
loop_
 _symmetry_equiv_pos_site_id
 _symmetry_equiv_pos_as_xyz
  1  'x, y, z'
loop_
 _atom_site_type_symbol
 _atom_site_label
 _atom_site_symmetry_multiplicity
 _atom_site_fract_x
 _atom_site_fract_y
 _atom_site_fract_z
 _atom_site_occupancy
  C  C0  1  0.75485200  0.37525200  0.06058100  1
  C  C1  1  0.75266300  0.12923300  0.42981800  1
  C  C2  1  0.24733700  0.87076700  0.57018200  1
  C  C3  1  0.25485200  0.62474800  0.43941900  1
  C  C4  1  0.74514800  0.37525200  0.56058100  1
  C  C5  1  0.74733700  0.12923300  0.92981800  1
  C  C6  1  0.25266300  0.87076700  0.07018200  1
  C  C7  1  0.24514800  0.62474800  0.93941900  1
  Ni  Ni8  1  0.72600600  0.73182500  0.26916800  1
  Ni  Ni9  1  0.22013500  0.22953400  0.99436300  1
  Ni  Ni10  1  0.96405000  0.00446600  0.73754400  1
  Ni  Ni11  1  0.01881600  0.49374300  0.73337800  1
  Ni  Ni12  1  0.03595000  0.99553400  0.26245600  1
  Ni  Ni13  1  0.27986500  0.22953400  0.49436300  1
  Ni  Ni14  1  0.48118400  0.49374300  0.23337800  1
  Ni  Ni15  1  0.53595000  0.00446600  0.23754400  1
  Ni  Ni16  1  0.27399400  0.26817500  0.73083200  1
  Ni  Ni17  1  0.46405000  0.99553400  0.76245600  1
  Ni  Ni18  1  0.22600600  0.26817500  0.23083200  1
  Ni  Ni19  1  0.51881600  0.50625700  0.76662200  1
  Ni  Ni20  1  0.77399400  0.73182500  0.76916800  1
  Ni  Ni21  1  0.98118400  0.50625700  0.26662200  1
  Ni  Ni22  1  0.72013500  0.77046600  0.50563700  1
  Ni  Ni23  1  0.77986500  0.77046600  0.00563700  1
  Cu  Cu24  1  0.96664800  0.10489200  0.60709800  1
  Cu  Cu25  1  0.88417200  0.38967100  0.25224900  1
  Cu  Cu26  1  0.82000600  0.65905200  0.89709800  1
  Cu  Cu27  1  0.25361300  0.08784000  0.75483400  1
  Cu  Cu28  1  0.75361300  0.91216000  0.74516600  1
  Cu  Cu29  1  0.17999400  0.34094800  0.10290200  1
  Cu  Cu30  1  0.25480100  0.44008800  0.71930500  1
  Cu  Cu31  1  0.03533700  0.26426300  0.73364700  1
  Cu  Cu32  1  0.38417200  0.61032900  0.24775100  1
  Cu  Cu33  1  0.07782700  0.10154800  0.07751600  1
  Cu  Cu34  1  0.46664800  0.89510800  0.89290200  1
  Cu  Cu35  1  0.74519900  0.55991200  0.28069500  1
  Cu  Cu36  1  0.11386300  0.88560600  0.75451300  1
  Cu  Cu37  1  0.46466300  0.26426300  0.23364700  1
  Cu  Cu38  1  0.24638700  0.08784000  0.25483400  1
  Cu  Cu39  1  0.92217300  0.89845200  0.92248400  1
  Cu  Cu40  1  0.74638700  0.91216000  0.24516600  1
  Cu  Cu41  1  0.79076700  0.82850200  0.58086400  1
  Cu  Cu42  1  0.04571500  0.33604800  0.91978600  1
  Cu  Cu43  1  0.20923300  0.17149800  0.41913600  1
  Cu  Cu44  1  0.61386300  0.11439400  0.74548700  1
  Cu  Cu45  1  0.54571500  0.66395200  0.58021400  1
  Cu  Cu46  1  0.57782700  0.89845200  0.42248400  1
  Cu  Cu47  1  0.88613700  0.11439400  0.24548700  1
  Cu  Cu48  1  0.75480100  0.55991200  0.78069500  1
  Cu  Cu49  1  0.29076700  0.17149800  0.91913600  1
  Cu  Cu50  1  0.03335200  0.89510800  0.39290200  1
  Cu  Cu51  1  0.95428500  0.66395200  0.08021400  1
  Cu  Cu52  1  0.53533700  0.73573700  0.76635300  1
  Cu  Cu53  1  0.32000600  0.34094800  0.60290200  1
  Cu  Cu54  1  0.38613700  0.88560600  0.25451300  1
  Cu  Cu55  1  0.53206800  0.57843600  0.10515900  1
  Cu  Cu56  1  0.11582800  0.61032900  0.74775100  1
  Cu  Cu57  1  0.42217300  0.10154800  0.57751600  1
  Cu  Cu58  1  0.03206800  0.42156400  0.39484100  1
  Cu  Cu59  1  0.53335200  0.10489200  0.10709800  1
  Cu  Cu60  1  0.61582800  0.38967100  0.75224900  1
  Cu  Cu61  1  0.67999400  0.65905200  0.39709800  1
  Cu  Cu62  1  0.24519900  0.44008800  0.21930500  1
  Cu  Cu63  1  0.70923300  0.82850200  0.08086400  1
  Cu  Cu64  1  0.46793200  0.42156400  0.89484100  1
  Cu  Cu65  1  0.45428500  0.33604800  0.41978600  1
  Cu  Cu66  1  0.96793200  0.57843600  0.60515900  1
  Cu  Cu67  1  0.96466300  0.73573700  0.26635300  1
