# generated using pymatgen
data_Cu3NiC
_symmetry_space_group_name_H-M   'P 1'
_cell_length_a   5.89959000
_cell_length_b   6.14251400
_cell_length_c   9.90648900
_cell_angle_alpha   90.00000000
_cell_angle_beta   90.00000000
_cell_angle_gamma   90.00000000
_symmetry_Int_Tables_number   1
_chemical_formula_structural   Cu3NiC
_chemical_formula_sum   'Cu12 Ni4 C4'
_cell_volume   358.99446070
_cell_formula_units_Z   4
loop_
 _symmetry_equiv_pos_site_id
 _symmetry_equiv_pos_as_xyz
  1  'x, y, z'
loop_
 _atom_site_type_symbol
 _atom_site_label
 _atom_site_symmetry_multiplicity
 _atom_site_fract_x
 _atom_site_fract_y
 _atom_site_fract_z
 _atom_site_occupancy
  C  C0  1  0.00000000  0.00000000  0.00000000  1
  C  C1  1  0.50000000  0.50000000  0.50000000  1
  C  C2  1  0.50000000  0.50000000  0.00000000  1
  C  C3  1  0.00000000  0.00000000  0.50000000  1
  Ni  Ni4  1  0.99963000  0.56324800  0.75000000  1
  Ni  Ni5  1  0.00037000  0.43675200  0.25000000  1
  Ni  Ni6  1  0.50037000  0.06324800  0.25000000  1
  Ni  Ni7  1  0.49963000  0.93675200  0.75000000  1
  Cu  Cu8  1  0.38729400  0.58610500  0.75000000  1
  Cu  Cu9  1  0.11038400  0.60748400  0.44156800  1
  Cu  Cu10  1  0.61038400  0.89251600  0.05843200  1
  Cu  Cu11  1  0.38961600  0.10748400  0.55843200  1
  Cu  Cu12  1  0.38961600  0.10748400  0.94156800  1
  Cu  Cu13  1  0.88961600  0.39251600  0.55843200  1
  Cu  Cu14  1  0.11038400  0.60748400  0.05843200  1
  Cu  Cu15  1  0.61038400  0.89251600  0.44156800  1
  Cu  Cu16  1  0.88729400  0.91389500  0.75000000  1
  Cu  Cu17  1  0.11270600  0.08610500  0.25000000  1
  Cu  Cu18  1  0.61270600  0.41389500  0.25000000  1
  Cu  Cu19  1  0.88961600  0.39251600  0.94156800  1
