# generated using pymatgen
data_Cu6Ni13C43
_symmetry_space_group_name_H-M   'P 1'
_cell_length_a   10.38899321
_cell_length_b   10.38899321
_cell_length_c   10.38899375
_cell_angle_alpha   110.64248800
_cell_angle_beta   110.64248800
_cell_angle_gamma   110.64248522
_symmetry_Int_Tables_number   1
_chemical_formula_structural   Cu6Ni13C43
_chemical_formula_sum   'Cu6 Ni13 C43'
_cell_volume   823.62139328
_cell_formula_units_Z   1
loop_
 _symmetry_equiv_pos_site_id
 _symmetry_equiv_pos_as_xyz
  1  'x, y, z'
loop_
 _atom_site_type_symbol
 _atom_site_label
 _atom_site_symmetry_multiplicity
 _atom_site_fract_x
 _atom_site_fract_y
 _atom_site_fract_z
 _atom_site_occupancy
  Ni  Ni0  1  0.56768300  0.08293500  0.87376000  1
  Ni  Ni1  1  0.93003000  0.13688900  0.44446000  1
  Ni  Ni2  1  0.66355900  0.23811100  0.60742600  1
  Ni  Ni3  1  0.39935400  0.34165300  0.76460500  1
  Ni  Ni4  1  0.76460500  0.39935400  0.34165300  1
  Ni  Ni5  1  0.13688900  0.44446000  0.93003000  1
  Ni  Ni6  1  0.53628900  0.53628900  0.53628900  1
  Ni  Ni7  1  0.87376000  0.56768300  0.08293500  1
  Ni  Ni8  1  0.23811100  0.60742600  0.66355900  1
  Ni  Ni9  1  0.60742600  0.66355900  0.23811100  1
  Ni  Ni10  1  0.34165300  0.76460500  0.39935400  1
  Ni  Ni11  1  0.08293500  0.87376000  0.56768300  1
  Ni  Ni12  1  0.44446000  0.93003000  0.13688900  1
  Cu  Cu13  1  0.19766500  0.03668400  0.30926600  1
  Cu  Cu14  1  0.96799800  0.69876400  0.80922100  1
  Cu  Cu15  1  0.30926600  0.19766500  0.03668400  1
  Cu  Cu16  1  0.69876400  0.80922100  0.96799800  1
  Cu  Cu17  1  0.03668400  0.30926600  0.19766500  1
  Cu  Cu18  1  0.80922100  0.96799800  0.69876400  1
  C  C19  1  0.89040000  0.19264000  0.92323800  1
  C  C20  1  0.59627800  0.01602700  0.64284700  1
  C  C21  1  0.87633800  0.18719400  0.65932900  1
  C  C22  1  0.35006300  0.12665300  0.81440100  1
  C  C23  1  0.79937700  0.07797000  0.09461100  1
  C  C24  1  0.69892200  0.16566300  0.37737600  1
  C  C25  1  0.62504800  0.30664400  0.83123000  1
  C  C26  1  0.07797000  0.09461100  0.79937700  1
  C  C27  1  0.16083100  0.09261900  0.53157900  1
  C  C28  1  0.91232400  0.47801800  0.84882700  1
  C  C29  1  0.98709000  0.37217700  0.41110800  1
  C  C30  1  0.43807600  0.28369700  0.53970000  1
  C  C31  1  0.36336300  0.12767600  0.22341300  1
  C  C32  1  0.37217700  0.41110800  0.98709000  1
  C  C33  1  0.53157900  0.16083100  0.09261900  1
  C  C34  1  0.73381600  0.45069300  0.56366100  1
  C  C35  1  0.81440100  0.35006300  0.12665300  1
  C  C36  1  0.12767600  0.22341300  0.36336300  1
  C  C37  1  0.16566300  0.37737600  0.69892200  1
  C  C38  1  0.73988800  0.62021600  0.82042100  1
  C  C39  1  0.53970000  0.43807600  0.28369700  1
  C  C40  1  0.45069300  0.56366100  0.73381500  1
  C  C41  1  0.22341300  0.36336300  0.12767600  1
  C  C42  1  0.83123000  0.62504800  0.30664400  1
  C  C43  1  0.82042100  0.73988800  0.62021600  1
  C  C44  1  0.18719400  0.65932900  0.87633800  1
  C  C45  1  0.91750600  0.91750600  0.91750600  1
  C  C46  1  0.28369700  0.53970000  0.43807600  1
  C  C47  1  0.47801800  0.84882700  0.91232400  1
  C  C48  1  0.64284700  0.59627800  0.01602700  1
  C  C49  1  0.62021600  0.82042100  0.73988800  1
  C  C50  1  0.56366100  0.73381500  0.45069300  1
  C  C51  1  0.01602700  0.64284700  0.59627800  1
  C  C52  1  0.09261900  0.53157900  0.16083100  1
  C  C53  1  0.84882700  0.91232400  0.47801800  1
  C  C54  1  0.92323800  0.89040000  0.19264000  1
  C  C55  1  0.37737600  0.69892200  0.16566300  1
  C  C56  1  0.30664400  0.83123000  0.62504800  1
  C  C57  1  0.19264000  0.92323800  0.89040000  1
  C  C58  1  0.65932900  0.87633800  0.18719400  1
  C  C59  1  0.12665300  0.81440100  0.35006300  1
  C  C60  1  0.41110800  0.98709000  0.37217700  1
  C  C61  1  0.09461100  0.79937700  0.07797000  1
