# generated using pymatgen
data_Cu9Ni4C7
_symmetry_space_group_name_H-M   'P 1'
_cell_length_a   10.88893862
_cell_length_b   10.88893862
_cell_length_c   10.88893862
_cell_angle_alpha   138.49124867
_cell_angle_beta   117.88147512
_cell_angle_gamma   77.49654095
_symmetry_Int_Tables_number   1
_chemical_formula_structural   Cu9Ni4C7
_chemical_formula_sum   'Cu9 Ni4 C7'
_cell_volume   736.36171208
_cell_formula_units_Z   1
loop_
 _symmetry_equiv_pos_site_id
 _symmetry_equiv_pos_as_xyz
  1  'x, y, z'
loop_
 _atom_site_type_symbol
 _atom_site_label
 _atom_site_symmetry_multiplicity
 _atom_site_fract_x
 _atom_site_fract_y
 _atom_site_fract_z
 _atom_site_occupancy
  C  C0  1  0.43743100  0.66092900  0.77650200  1
  C  C1  1  0.88442700  0.66092900  0.22349800  1
  C  C2  1  0.50000000  0.00000000  0.50000000  1
  C  C3  1  0.56256900  0.33907100  0.22349800  1
  C  C4  1  0.11557300  0.33907100  0.77650200  1
  C  C5  1  0.08658300  0.08658300  0.00000000  1
  C  C6  1  0.91341700  0.91341700  0.00000000  1
  Ni  Ni7  1  0.08981500  0.77032200  0.86013700  1
  Ni  Ni8  1  0.91018500  0.77032200  0.68050700  1
  Ni  Ni9  1  0.91018500  0.22967800  0.13986300  1
  Ni  Ni10  1  0.08981500  0.22967800  0.31949300  1
  Cu  Cu11  1  0.20408600  0.44427600  0.24019100  1
  Cu  Cu12  1  0.11723500  0.87295400  0.24428100  1
  Cu  Cu13  1  0.37132800  0.12704600  0.24428100  1
  Cu  Cu14  1  0.20408600  0.96389500  0.75980900  1
  Cu  Cu15  1  0.79591400  0.03610500  0.24019100  1
  Cu  Cu16  1  0.62867200  0.87295400  0.75571900  1
  Cu  Cu17  1  0.79591400  0.55572400  0.75980900  1
  Cu  Cu18  1  0.50000000  0.50000000  0.00000000  1
  Cu  Cu19  1  0.88276500  0.12704600  0.75571900  1
