# generated using pymatgen
data_Cu8Ni2C
_symmetry_space_group_name_H-M   'P 1'
_cell_length_a   11.78180590
_cell_length_b   11.78180590
_cell_length_c   10.82198200
_cell_angle_alpha   90.00000000
_cell_angle_beta   90.00000000
_cell_angle_gamma   118.96429793
_symmetry_Int_Tables_number   1
_chemical_formula_structural   Cu8Ni2C
_chemical_formula_sum   'Cu32 Ni8 C4'
_cell_volume   1314.31567908
_cell_formula_units_Z   4
loop_
 _symmetry_equiv_pos_site_id
 _symmetry_equiv_pos_as_xyz
  1  'x, y, z'
loop_
 _atom_site_type_symbol
 _atom_site_label
 _atom_site_symmetry_multiplicity
 _atom_site_fract_x
 _atom_site_fract_y
 _atom_site_fract_z
 _atom_site_occupancy
  C  C0  1  0.42833200  0.57166800  0.50000000  1
  C  C1  1  0.57166800  0.42833200  0.50000000  1
  C  C2  1  0.92833200  0.07166800  0.00000000  1
  C  C3  1  0.07166800  0.92833200  0.00000000  1
  Ni  Ni4  1  0.49576500  0.87446100  0.51357800  1
  Ni  Ni5  1  0.99576500  0.37446100  0.98642200  1
  Ni  Ni6  1  0.12553900  0.50423500  0.48642200  1
  Ni  Ni7  1  0.62553900  0.00423500  0.01357800  1
  Ni  Ni8  1  0.87446100  0.49576500  0.51357800  1
  Ni  Ni9  1  0.37446100  0.99576500  0.98642200  1
  Ni  Ni10  1  0.00423500  0.62553900  0.01357800  1
  Ni  Ni11  1  0.50423500  0.12553900  0.48642200  1
  Cu  Cu12  1  0.06350300  0.62959700  0.57321400  1
  Cu  Cu13  1  0.79831800  0.56956800  0.39245400  1
  Cu  Cu14  1  0.20168200  0.43043200  0.60754600  1
  Cu  Cu15  1  0.25557500  0.59004700  0.35202800  1
  Cu  Cu16  1  0.40995300  0.74442500  0.64797200  1
  Cu  Cu17  1  0.09004700  0.75557500  0.14797200  1
  Cu  Cu18  1  0.24442500  0.90995300  0.85202800  1
  Cu  Cu19  1  0.51408700  0.51408700  0.30965700  1
  Cu  Cu20  1  0.62959700  0.06350300  0.57321400  1
  Cu  Cu21  1  0.70168200  0.93043200  0.89245400  1
  Cu  Cu22  1  0.36103000  0.36103000  0.38891000  1
  Cu  Cu23  1  0.37040300  0.93649700  0.42678600  1
  Cu  Cu24  1  0.56350300  0.12959700  0.92678600  1
  Cu  Cu25  1  0.48591300  0.48591300  0.69034300  1
  Cu  Cu26  1  0.93043200  0.70168200  0.89245400  1
  Cu  Cu27  1  0.43043200  0.20168200  0.60754600  1
  Cu  Cu28  1  0.13897000  0.13897000  0.88891000  1
  Cu  Cu29  1  0.75557500  0.09004700  0.14797200  1
  Cu  Cu30  1  0.01408700  0.01408700  0.19034300  1
  Cu  Cu31  1  0.63897000  0.63897000  0.61109000  1
  Cu  Cu32  1  0.93649700  0.37040300  0.42678600  1
  Cu  Cu33  1  0.29831800  0.06956800  0.10754600  1
  Cu  Cu34  1  0.56956800  0.79831800  0.39245400  1
  Cu  Cu35  1  0.98591300  0.98591300  0.80965700  1
  Cu  Cu36  1  0.06956800  0.29831800  0.10754600  1
  Cu  Cu37  1  0.43649700  0.87040300  0.07321400  1
  Cu  Cu38  1  0.86103000  0.86103000  0.11109000  1
  Cu  Cu39  1  0.59004700  0.25557500  0.35202800  1
  Cu  Cu40  1  0.90995300  0.24442500  0.85202800  1
  Cu  Cu41  1  0.74442500  0.40995300  0.64797200  1
  Cu  Cu42  1  0.12959700  0.56350300  0.92678600  1
  Cu  Cu43  1  0.87040300  0.43649700  0.07321400  1
