# generated using pymatgen
data_Cu16Ni6C7
_symmetry_space_group_name_H-M   'P 1'
_cell_length_a   7.98776246
_cell_length_b   7.98776246
_cell_length_c   7.98776246
_cell_angle_alpha   60.00000000
_cell_angle_beta   60.00000000
_cell_angle_gamma   60.00000000
_symmetry_Int_Tables_number   1
_chemical_formula_structural   Cu16Ni6C7
_chemical_formula_sum   'Cu16 Ni6 C7'
_cell_volume   360.37978824
_cell_formula_units_Z   1
loop_
 _symmetry_equiv_pos_site_id
 _symmetry_equiv_pos_as_xyz
  1  'x, y, z'
loop_
 _atom_site_type_symbol
 _atom_site_label
 _atom_site_symmetry_multiplicity
 _atom_site_fract_x
 _atom_site_fract_y
 _atom_site_fract_z
 _atom_site_occupancy
  Ni  Ni0  1  0.20394700  0.20394700  0.79605300  1
  Ni  Ni1  1  0.20394700  0.79605300  0.20394700  1
  Ni  Ni2  1  0.20394700  0.79605300  0.79605300  1
  Ni  Ni3  1  0.79605300  0.20394700  0.79605300  1
  Ni  Ni4  1  0.79605300  0.20394700  0.20394700  1
  Ni  Ni5  1  0.79605300  0.79605300  0.20394700  1
  C  C6  1  0.50000000  0.50000000  0.00000000  1
  C  C7  1  0.00000000  0.00000000  0.50000000  1
  C  C8  1  0.50000000  0.50000000  0.50000000  1
  C  C9  1  0.00000000  0.50000000  0.00000000  1
  C  C10  1  0.50000000  0.00000000  0.00000000  1
  C  C11  1  0.50000000  0.00000000  0.50000000  1
  C  C12  1  0.00000000  0.50000000  0.50000000  1
  Cu  Cu13  1  0.16788200  0.49635400  0.16788200  1
  Cu  Cu14  1  0.38211400  0.85365900  0.38211400  1
  Cu  Cu15  1  0.61788600  0.61788600  0.61788600  1
  Cu  Cu16  1  0.16788200  0.16788200  0.49635400  1
  Cu  Cu17  1  0.61788600  0.14634100  0.61788600  1
  Cu  Cu18  1  0.61788600  0.61788600  0.14634100  1
  Cu  Cu19  1  0.83211800  0.50364600  0.83211800  1
  Cu  Cu20  1  0.14634100  0.61788600  0.61788600  1
  Cu  Cu21  1  0.38211400  0.38211400  0.38211400  1
  Cu  Cu22  1  0.16788200  0.16788200  0.16788200  1
  Cu  Cu23  1  0.83211800  0.83211800  0.83211800  1
  Cu  Cu24  1  0.83211800  0.83211800  0.50364600  1
  Cu  Cu25  1  0.38211400  0.38211400  0.85365900  1
  Cu  Cu26  1  0.50364600  0.83211800  0.83211800  1
  Cu  Cu27  1  0.85365900  0.38211400  0.38211400  1
  Cu  Cu28  1  0.49635400  0.16788200  0.16788200  1
