# generated using pymatgen
data_Cu6Ni2C3
_symmetry_space_group_name_H-M   'P 1'
_cell_length_a   12.33154400
_cell_length_b   6.19405000
_cell_length_c   8.84887198
_cell_angle_alpha   58.03146436
_cell_angle_beta   90.00000000
_cell_angle_gamma   90.00000000
_symmetry_Int_Tables_number   1
_chemical_formula_structural   Cu6Ni2C3
_chemical_formula_sum   'Cu12 Ni4 C6'
_cell_volume   573.38918424
_cell_formula_units_Z   2
loop_
 _symmetry_equiv_pos_site_id
 _symmetry_equiv_pos_as_xyz
  1  'x, y, z'
loop_
 _atom_site_type_symbol
 _atom_site_label
 _atom_site_symmetry_multiplicity
 _atom_site_fract_x
 _atom_site_fract_y
 _atom_site_fract_z
 _atom_site_occupancy
  C  C0  1  0.31719600  0.69122200  0.52940400  1
  C  C1  1  0.81719600  0.30877800  0.97059600  1
  C  C2  1  0.68280400  0.30877800  0.47059600  1
  C  C3  1  0.18280400  0.69122200  0.02940400  1
  C  C4  1  0.00000000  0.00000000  0.50000000  1
  C  C5  1  0.50000000  0.00000000  0.00000000  1
  Ni  Ni6  1  0.53624500  0.64912800  0.86937000  1
  Ni  Ni7  1  0.03624500  0.35087200  0.63063000  1
  Ni  Ni8  1  0.46375500  0.35087200  0.13063000  1
  Ni  Ni9  1  0.96375500  0.64912800  0.36937000  1
  Cu  Cu10  1  0.56571400  0.44939500  0.75094600  1
  Cu  Cu11  1  0.06571400  0.55060500  0.74905400  1
  Cu  Cu12  1  0.43428600  0.55060500  0.24905400  1
  Cu  Cu13  1  0.93428600  0.44939500  0.25094600  1
  Cu  Cu14  1  0.57710200  0.07032400  0.24780500  1
  Cu  Cu15  1  0.07710200  0.92967600  0.25219500  1
  Cu  Cu16  1  0.42289800  0.92967600  0.75219500  1
  Cu  Cu17  1  0.92289800  0.07032400  0.74780500  1
  Cu  Cu18  1  0.33264700  0.21466900  0.06771800  1
  Cu  Cu19  1  0.83264700  0.78533100  0.43228200  1
  Cu  Cu20  1  0.66735300  0.78533100  0.93228200  1
  Cu  Cu21  1  0.16735300  0.21466900  0.56771800  1
