# generated using pymatgen
data_Cu3Ni3C14
_symmetry_space_group_name_H-M   'P 1'
_cell_length_a   8.63283000
_cell_length_b   9.28751981
_cell_length_c   15.15940487
_cell_angle_alpha   80.97972736
_cell_angle_beta   75.97627261
_cell_angle_gamma   87.39783025
_symmetry_Int_Tables_number   1
_chemical_formula_structural   Cu3Ni3C14
_chemical_formula_sum   'Cu12 Ni12 C56'
_cell_volume   1164.60033808
_cell_formula_units_Z   4
loop_
 _symmetry_equiv_pos_site_id
 _symmetry_equiv_pos_as_xyz
  1  'x, y, z'
loop_
 _atom_site_type_symbol
 _atom_site_label
 _atom_site_symmetry_multiplicity
 _atom_site_fract_x
 _atom_site_fract_y
 _atom_site_fract_z
 _atom_site_occupancy
  C  C0  1  0.49614500  0.20436100  0.26542900  1
  C  C1  1  0.50385500  0.79563900  0.73457100  1
  C  C2  1  0.23751800  0.55406800  0.84104300  1
  C  C3  1  0.25777500  0.27425500  0.45621500  1
  C  C4  1  0.74222500  0.72574500  0.54378500  1
  C  C5  1  0.45771000  0.92987100  0.16541600  1
  C  C6  1  0.54229000  0.07012900  0.83458400  1
  C  C7  1  0.76248200  0.44593200  0.15895700  1
  C  C8  1  0.76989800  0.01995200  0.05174900  1
  C  C9  1  0.29422100  0.00714000  0.58097000  1
  C  C10  1  0.14393800  0.64408100  0.45366800  1
  C  C11  1  0.34827200  0.58079900  0.43497200  1
  C  C12  1  0.70577900  0.99286000  0.41903000  1
  C  C13  1  0.85606200  0.35591900  0.54633200  1
  C  C14  1  0.20115800  0.13965900  0.86888000  1
  C  C15  1  0.64351100  0.44908600  0.99471000  1
  C  C16  1  0.81662800  0.53893100  0.91885400  1
  C  C17  1  0.14317400  0.82885500  0.27381600  1
  C  C18  1  0.19377500  0.96549700  0.49714100  1
  C  C19  1  0.23010200  0.98004800  0.94825100  1
  C  C20  1  0.35648900  0.55091400  0.00529000  1
  C  C21  1  0.18337200  0.46106900  0.08114600  1
  C  C22  1  0.79884200  0.86034100  0.13112000  1
  C  C23  1  0.06891600  0.81651000  0.17419300  1
  C  C24  1  0.08327500  0.97033400  0.61345300  1
  C  C25  1  0.85682600  0.17114500  0.72618400  1
  C  C26  1  0.18408600  0.15429600  0.98748200  1
  C  C27  1  0.65172800  0.41920100  0.56502800  1
  C  C28  1  0.80622500  0.03450300  0.50285900  1
  C  C29  1  0.91672500  0.02966600  0.38654700  1
  C  C30  1  0.83367500  0.35621100  0.97620500  1
  C  C31  1  0.11716000  0.36006000  0.68708600  1
  C  C32  1  0.76723600  0.43797500  0.64660300  1
  C  C33  1  0.93108400  0.18349000  0.82580700  1
  C  C34  1  0.16632500  0.64378900  0.02379500  1
  C  C35  1  0.30082100  0.45730100  0.66348600  1
  C  C36  1  0.69917900  0.54269900  0.33651400  1
  C  C37  1  0.88684000  0.44452400  0.32195900  1
  C  C38  1  0.88425900  0.00836000  0.80289200  1
  C  C39  1  0.23276400  0.56202500  0.35339700  1
  C  C40  1  0.11316000  0.55547600  0.67804100  1
  C  C41  1  0.11574100  0.99164000  0.19710800  1
  C  C42  1  0.81591400  0.84570400  0.01251800  1
  C  C43  1  0.88284000  0.63994000  0.31291400  1
  Ni  Ni44  1  0.22676000  0.53790600  0.01817000  1
  Ni  Ni45  1  0.81777100  0.98140900  0.44162300  1
  Ni  Ni46  1  0.17429500  0.45480600  0.70005100  1
  Ni  Ni47  1  0.75411500  0.90135900  0.06988600  1
  Ni  Ni48  1  0.24588500  0.09864100  0.93011400  1
  Ni  Ni49  1  0.77133400  0.43864300  0.57353600  1
  Ni  Ni50  1  0.77324000  0.46209400  0.98183000  1
  Ni  Ni51  1  0.85093400  0.12453600  0.79815000  1
  Ni  Ni52  1  0.14906600  0.87546400  0.20185000  1
  Ni  Ni53  1  0.22866600  0.56135700  0.42646400  1
  Ni  Ni54  1  0.82570500  0.54519400  0.29994900  1
  Ni  Ni55  1  0.18222900  0.01859100  0.55837700  1
  Cu  Cu56  1  0.55781400  0.84708700  0.87239200  1
  Cu  Cu57  1  0.51758900  0.45787900  0.20410000  1
  Cu  Cu58  1  0.48241100  0.54212100  0.79590000  1
  Cu  Cu59  1  0.48506100  0.26218600  0.45487700  1
  Cu  Cu60  1  0.16028600  0.75537200  0.81718400  1
  Cu  Cu61  1  0.83971400  0.24462800  0.18281600  1
  Cu  Cu62  1  0.48839000  0.88209700  0.29073300  1
  Cu  Cu63  1  0.51161000  0.11790300  0.70926700  1
  Cu  Cu64  1  0.44218600  0.15291300  0.12760800  1
  Cu  Cu65  1  0.51493900  0.73781400  0.54512300  1
  Cu  Cu66  1  0.21708800  0.23355800  0.33350400  1
  Cu  Cu67  1  0.78291200  0.76644200  0.66649600  1
  C  C68  1  0.18722500  0.47414300  0.94503600  1
  C  C69  1  0.14148200  0.17181700  0.53869700  1
  C  C70  1  0.81277500  0.52585700  0.05496400  1
  C  C71  1  0.15890900  0.43601900  0.79876400  1
  C  C72  1  0.30732700  0.85636200  0.14542500  1
  C  C73  1  0.41290400  0.13485800  0.91349600  1
  C  C74  1  0.85851800  0.82818300  0.46130300  1
  C  C75  1  0.69267300  0.14363800  0.85457500  1
  C  C76  1  0.58709600  0.86514200  0.08650400  1
  C  C77  1  0.84109100  0.56398100  0.20123600  1
  C  C78  1  0.16807800  0.42315100  0.47992100  1
  C  C79  1  0.83192200  0.57684900  0.52007900  1
