# generated using pymatgen
data_CuNi3C5
_symmetry_space_group_name_H-M   'P 1'
_cell_length_a   11.79479166
_cell_length_b   11.79479166
_cell_length_c   10.90966500
_cell_angle_alpha   90.00000000
_cell_angle_beta   90.00000000
_cell_angle_gamma   139.43323692
_symmetry_Int_Tables_number   1
_chemical_formula_structural   CuNi3C5
_chemical_formula_sum   'Cu4 Ni12 C20'
_cell_volume   987.02509667
_cell_formula_units_Z   4
loop_
 _symmetry_equiv_pos_site_id
 _symmetry_equiv_pos_as_xyz
  1  'x, y, z'
loop_
 _atom_site_type_symbol
 _atom_site_label
 _atom_site_symmetry_multiplicity
 _atom_site_fract_x
 _atom_site_fract_y
 _atom_site_fract_z
 _atom_site_occupancy
  C  C0  1  0.79645500  0.79645500  0.50000000  1
  C  C1  1  0.29645500  0.29645500  0.00000000  1
  C  C2  1  0.70354500  0.70354500  0.00000000  1
  C  C3  1  0.20354500  0.20354500  0.50000000  1
  C  C4  1  0.61975900  0.38024100  0.29364200  1
  C  C5  1  0.28277000  0.71723000  0.47328300  1
  C  C6  1  0.44458300  0.28070500  0.45905500  1
  C  C7  1  0.71929500  0.55541700  0.45905500  1
  C  C8  1  0.05541700  0.21929500  0.95905500  1
  C  C9  1  0.94458300  0.78070500  0.04094500  1
  C  C10  1  0.88024100  0.11975900  0.79364200  1
  C  C11  1  0.78070500  0.94458300  0.95905500  1
  C  C12  1  0.11975900  0.88024100  0.20635800  1
  C  C13  1  0.21929500  0.05541700  0.04094500  1
  C  C14  1  0.21723000  0.78277000  0.97328300  1
  C  C15  1  0.55541700  0.71929500  0.54094500  1
  C  C16  1  0.71723000  0.28277000  0.52671700  1
  C  C17  1  0.38024100  0.61975900  0.70635800  1
  C  C18  1  0.28070500  0.44458300  0.54094500  1
  C  C19  1  0.78277000  0.21723000  0.02671700  1
  Ni  Ni20  1  0.14360900  0.45989200  0.43634100  1
  Ni  Ni21  1  0.28696500  0.71303500  0.66859100  1
  Ni  Ni22  1  0.54010800  0.85639100  0.43634100  1
  Ni  Ni23  1  0.78696500  0.21303500  0.83140900  1
  Ni  Ni24  1  0.64360900  0.95989200  0.06365900  1
  Ni  Ni25  1  0.71303500  0.28696500  0.33140900  1
  Ni  Ni26  1  0.85639100  0.54010800  0.56365900  1
  Ni  Ni27  1  0.04010800  0.35639100  0.06365900  1
  Ni  Ni28  1  0.95989200  0.64360900  0.93634100  1
  Ni  Ni29  1  0.21303500  0.78696500  0.16859100  1
  Ni  Ni30  1  0.45989200  0.14360900  0.56365900  1
  Ni  Ni31  1  0.35639100  0.04010800  0.93634100  1
  Cu  Cu32  1  0.46821000  0.53179000  0.17649100  1
  Cu  Cu33  1  0.96821000  0.03179000  0.32350900  1
  Cu  Cu34  1  0.53179000  0.46821000  0.82350900  1
  Cu  Cu35  1  0.03179000  0.96821000  0.67649100  1
