# generated using pymatgen
data_Cu16Ni2C21
_symmetry_space_group_name_H-M   'P 1'
_cell_length_a   7.11576000
_cell_length_b   7.51058183
_cell_length_c   7.90691896
_cell_angle_alpha   99.49801589
_cell_angle_beta   108.33307457
_cell_angle_gamma   88.28894691
_symmetry_Int_Tables_number   1
_chemical_formula_structural   Cu16Ni2C21
_chemical_formula_sum   'Cu16 Ni2 C21'
_cell_volume   395.51671331
_cell_formula_units_Z   1
loop_
 _symmetry_equiv_pos_site_id
 _symmetry_equiv_pos_as_xyz
  1  'x, y, z'
loop_
 _atom_site_type_symbol
 _atom_site_label
 _atom_site_symmetry_multiplicity
 _atom_site_fract_x
 _atom_site_fract_y
 _atom_site_fract_z
 _atom_site_occupancy
  C  C0  1  0.00000000  0.50000000  0.00000000  1
  C  C1  1  0.75196800  0.79492700  0.74356100  1
  C  C2  1  0.24803200  0.20507300  0.25643900  1
  C  C3  1  0.16657900  0.74739300  0.74449400  1
  C  C4  1  0.83342100  0.25260700  0.25550600  1
  C  C5  1  0.43588500  0.73432600  0.58010900  1
  C  C6  1  0.56411500  0.26567400  0.41989100  1
  C  C7  1  0.24217200  0.97361200  0.97715800  1
  C  C8  1  0.75782800  0.02638800  0.02284200  1
  C  C9  1  0.55302400  0.30721700  0.89285500  1
  C  C10  1  0.44697600  0.69278300  0.10714500  1
  C  C11  1  0.42415000  0.27471000  0.66807700  1
  C  C12  1  0.57585000  0.72529000  0.33192300  1
  C  C13  1  0.32666600  0.39600700  0.82101400  1
  C  C14  1  0.67333400  0.60399300  0.17898600  1
  C  C15  1  0.34978300  0.16939600  0.81008100  1
  C  C16  1  0.65021700  0.83060400  0.18991900  1
  C  C17  1  0.88117200  0.16573500  0.78350200  1
  C  C18  1  0.11882800  0.83426500  0.21649800  1
  C  C19  1  0.88076800  0.29489600  0.64166800  1
  C  C20  1  0.11923200  0.70510400  0.35833200  1
  Ni  Ni21  1  0.41378400  0.28679300  0.79803100  1
  Ni  Ni22  1  0.58621600  0.71320700  0.20196900  1
  Cu  Cu23  1  0.75549600  0.65360400  0.85961400  1
  Cu  Cu24  1  0.24450400  0.34639600  0.14038600  1
  Cu  Cu25  1  0.57145400  0.76565900  0.56348900  1
  Cu  Cu26  1  0.42854600  0.23434100  0.43651100  1
  Cu  Cu27  1  0.76609100  0.99015700  0.83945300  1
  Cu  Cu28  1  0.23390900  0.00984300  0.16054700  1
  Cu  Cu29  1  0.93004400  0.76624900  0.65434300  1
  Cu  Cu30  1  0.06995600  0.23375100  0.34565700  1
  Cu  Cu31  1  0.20486000  0.61812000  0.88126300  1
  Cu  Cu32  1  0.79514000  0.38188000  0.11873700  1
  Cu  Cu33  1  0.24085500  0.69113700  0.58469700  1
  Cu  Cu34  1  0.75914500  0.30886300  0.41530300  1
  Cu  Cu35  1  0.25222200  0.94117300  0.84479400  1
  Cu  Cu36  1  0.74777800  0.05882700  0.15520600  1
  Cu  Cu37  1  0.94103400  0.27782700  0.76919000  1
  Cu  Cu38  1  0.05896600  0.72217300  0.23081000  1
