# generated using pymatgen
data_Cu2NiC5
_symmetry_space_group_name_H-M   'P 1'
_cell_length_a   5.89903900
_cell_length_b   11.42641400
_cell_length_c   17.74190500
_cell_angle_alpha   90.00000000
_cell_angle_beta   90.00000000
_cell_angle_gamma   90.00000000
_symmetry_Int_Tables_number   1
_chemical_formula_structural   Cu2NiC5
_chemical_formula_sum   'Cu16 Ni8 C40'
_cell_volume   1195.89065488
_cell_formula_units_Z   8
loop_
 _symmetry_equiv_pos_site_id
 _symmetry_equiv_pos_as_xyz
  1  'x, y, z'
loop_
 _atom_site_type_symbol
 _atom_site_label
 _atom_site_symmetry_multiplicity
 _atom_site_fract_x
 _atom_site_fract_y
 _atom_site_fract_z
 _atom_site_occupancy
  C  C0  1  0.34767300  0.17149000  0.94652400  1
  C  C1  1  0.19225300  0.61927800  0.73644100  1
  C  C2  1  0.19225300  0.11927800  0.76355900  1
  C  C3  1  0.30774700  0.61927800  0.23644100  1
  C  C4  1  0.23729600  0.37901300  0.59112800  1
  C  C5  1  0.84767300  0.32851000  0.94652400  1
  C  C6  1  0.23729600  0.87901300  0.90887200  1
  C  C7  1  0.80774700  0.38072200  0.26355900  1
  C  C8  1  0.26270400  0.87901300  0.40887200  1
  C  C9  1  0.69225300  0.38072200  0.76355900  1
  C  C10  1  0.65232700  0.82851000  0.05347600  1
  C  C11  1  0.76270400  0.62098700  0.40887200  1
  C  C12  1  0.15232700  0.67149000  0.05347600  1
  C  C13  1  0.73729600  0.12098700  0.59112800  1
  C  C14  1  0.80774700  0.88072200  0.23644100  1
  C  C15  1  0.26270400  0.37901300  0.09112800  1
  C  C16  1  0.69225300  0.88072200  0.73644100  1
  C  C17  1  0.73729600  0.62098700  0.90887200  1
  C  C18  1  0.15232700  0.17149000  0.44652400  1
  C  C19  1  0.30774700  0.11927800  0.26355900  1
  C  C20  1  0.76270400  0.12098700  0.09112800  1
  C  C21  1  0.34767300  0.67149000  0.55347600  1
  C  C22  1  0.84767300  0.82851000  0.55347600  1
  C  C23  1  0.65232700  0.32851000  0.44652400  1
  Ni  Ni24  1  0.82385400  0.05856200  0.88971800  1
  Ni  Ni25  1  0.32385400  0.94143800  0.61028200  1
  Ni  Ni26  1  0.32385400  0.44143800  0.88971800  1
  Ni  Ni27  1  0.67614600  0.05856200  0.38971800  1
  Ni  Ni28  1  0.17614600  0.94143800  0.11028200  1
  Ni  Ni29  1  0.67614600  0.55856200  0.11028200  1
  Ni  Ni30  1  0.82385400  0.55856200  0.61028200  1
  Ni  Ni31  1  0.17614600  0.44143800  0.38971800  1
  Cu  Cu32  1  0.22608400  0.11712400  0.60207500  1
  Cu  Cu33  1  0.31185400  0.37591900  0.29086900  1
  Cu  Cu34  1  0.81185400  0.12408100  0.29086900  1
  Cu  Cu35  1  0.72608400  0.88287600  0.89792500  1
  Cu  Cu36  1  0.72608400  0.38287600  0.60207500  1
  Cu  Cu37  1  0.77391600  0.88287600  0.39792500  1
  Cu  Cu38  1  0.81185400  0.62408100  0.20913100  1
  Cu  Cu39  1  0.22608400  0.61712400  0.89792500  1
  Cu  Cu40  1  0.31185400  0.87591900  0.20913100  1
  Cu  Cu41  1  0.68814600  0.12408100  0.79086900  1
  Cu  Cu42  1  0.18814600  0.87591900  0.70913100  1
  Cu  Cu43  1  0.27391600  0.11712400  0.10207500  1
  Cu  Cu44  1  0.27391600  0.61712400  0.39792500  1
  Cu  Cu45  1  0.68814600  0.62408100  0.70913100  1
  Cu  Cu46  1  0.77391600  0.38287600  0.10207500  1
  Cu  Cu47  1  0.18814600  0.37591900  0.79086900  1
  C  C48  1  0.58520700  0.93816400  0.61479200  1
  C  C49  1  0.23252900  0.86991300  0.54280800  1
  C  C50  1  0.26747100  0.36991300  0.45719200  1
  C  C51  1  0.26747100  0.86991300  0.04280800  1
  C  C52  1  0.08520700  0.06183600  0.88520800  1
  C  C53  1  0.23252900  0.36991300  0.95719200  1
  C  C54  1  0.58520700  0.43816400  0.88520800  1
  C  C55  1  0.41479300  0.06183600  0.38520800  1
  C  C56  1  0.91479300  0.93816400  0.11479200  1
  C  C57  1  0.41479300  0.56183600  0.11479200  1
  C  C58  1  0.73252900  0.13008700  0.95719200  1
  C  C59  1  0.08520700  0.56183600  0.61479200  1
  C  C60  1  0.91479300  0.43816400  0.38520800  1
  C  C61  1  0.76747100  0.13008700  0.45719200  1
  C  C62  1  0.73252900  0.63008700  0.54280800  1
  C  C63  1  0.76747100  0.63008700  0.04280800  1
