# generated using pymatgen
data_Cu2NiC4
_symmetry_space_group_name_H-M   'P 1'
_cell_length_a   5.77533481
_cell_length_b   5.77533481
_cell_length_c   33.20920048
_cell_angle_alpha   85.04121647
_cell_angle_beta   85.04121647
_cell_angle_gamma   59.92625382
_symmetry_Int_Tables_number   1
_chemical_formula_structural   Cu2NiC4
_chemical_formula_sum   'Cu28 Ni14 C56'
_cell_volume   953.77879707
_cell_formula_units_Z   14
loop_
 _symmetry_equiv_pos_site_id
 _symmetry_equiv_pos_as_xyz
  1  'x, y, z'
loop_
 _atom_site_type_symbol
 _atom_site_label
 _atom_site_symmetry_multiplicity
 _atom_site_fract_x
 _atom_site_fract_y
 _atom_site_fract_z
 _atom_site_occupancy
  Ni  Ni0  1  0.00000000  0.50000000  0.00000000  1
  Ni  Ni1  1  0.80644800  0.80644800  0.08719800  1
  Ni  Ni2  1  0.50000000  0.00000000  0.00000000  1
  Ni  Ni3  1  0.08930700  0.08930700  0.23256000  1
  Ni  Ni4  1  0.37513500  0.37513500  0.37486100  1
  Ni  Ni5  1  0.76818600  0.76818600  0.19553400  1
  Ni  Ni6  1  0.66081900  0.66081900  0.51782000  1
  Ni  Ni7  1  0.05352800  0.05352800  0.33926800  1
  Ni  Ni8  1  0.94647200  0.94647200  0.66073200  1
  Ni  Ni9  1  0.33918100  0.33918100  0.48218000  1
  Ni  Ni10  1  0.23181400  0.23181400  0.80446600  1
  Ni  Ni11  1  0.62486500  0.62486500  0.62513900  1
  Ni  Ni12  1  0.91069300  0.91069300  0.76744000  1
  Ni  Ni13  1  0.19355200  0.19355200  0.91280200  1
  Cu  Cu14  1  0.52206500  0.52206500  0.94482200  1
  Cu  Cu15  1  0.85757600  0.85757600  0.92704000  1
  Cu  Cu16  1  0.00000000  0.00000000  0.00000000  1
  Cu  Cu17  1  0.28474300  0.78857200  0.14325100  1
  Cu  Cu18  1  0.14242400  0.14242400  0.07296000  1
  Cu  Cu19  1  0.28424200  0.28424200  0.14308600  1
  Cu  Cu20  1  0.57162300  0.07136800  0.28553000  1
  Cu  Cu21  1  0.78857200  0.28474300  0.14325100  1
  Cu  Cu22  1  0.47793500  0.47793500  0.05517800  1
  Cu  Cu23  1  0.42852900  0.42852900  0.21419600  1
  Cu  Cu24  1  0.57152500  0.57152500  0.28551600  1
  Cu  Cu25  1  0.71431800  0.71431800  0.35703000  1
  Cu  Cu26  1  0.07136800  0.57162300  0.28553000  1
  Cu  Cu27  1  0.85715900  0.85715900  0.42853700  1
  Cu  Cu28  1  0.14295800  0.64279700  0.57145200  1
  Cu  Cu29  1  0.64279700  0.14295800  0.57145200  1
  Cu  Cu30  1  0.35720300  0.85704200  0.42854800  1
  Cu  Cu31  1  0.00000000  0.00000000  0.50000000  1
  Cu  Cu32  1  0.14284100  0.14284100  0.57146300  1
  Cu  Cu33  1  0.85704200  0.35720300  0.42854800  1
  Cu  Cu34  1  0.42837700  0.92863200  0.71447000  1
  Cu  Cu35  1  0.28568200  0.28568200  0.64297000  1
  Cu  Cu36  1  0.71525700  0.21142800  0.85674900  1
  Cu  Cu37  1  0.42847500  0.42847500  0.71448400  1
  Cu  Cu38  1  0.57147100  0.57147100  0.78580400  1
  Cu  Cu39  1  0.92863200  0.42837700  0.71447000  1
  Cu  Cu40  1  0.71575800  0.71575800  0.85691400  1
  Cu  Cu41  1  0.21142800  0.71525700  0.85674900  1
  C  C42  1  0.68910600  0.68910600  0.95949800  1
  C  C43  1  0.83600500  0.83600500  0.02868400  1
  C  C44  1  0.16831300  0.69518000  0.96132600  1
  C  C45  1  0.69518000  0.16831300  0.96132600  1
  C  C46  1  0.30482000  0.83168700  0.03867400  1
  C  C47  1  0.98103300  0.98103300  0.11078400  1
  C  C48  1  0.16399500  0.16399500  0.97131600  1
  C  C49  1  0.83168700  0.30482000  0.03867400  1
  C  C50  1  0.10953500  0.10953500  0.17361300  1
  C  C51  1  0.43003500  0.97847700  0.11048100  1
  C  C52  1  0.31089400  0.31089400  0.04050200  1
  C  C53  1  0.97847700  0.43003500  0.11048100  1
  C  C54  1  0.58879700  0.14681100  0.17621500  1
  C  C55  1  0.26780900  0.26780900  0.25185200  1
  C  C56  1  0.14681100  0.58879700  0.17621500  1
  C  C57  1  0.46336300  0.46336300  0.11064700  1
  C  C58  1  0.71285200  0.26742700  0.25187400  1
  C  C59  1  0.39493800  0.39493800  0.31548500  1
  C  C60  1  0.26742700  0.71285200  0.25187400  1
  C  C61  1  0.58841900  0.58841900  0.17638100  1
  C  C62  1  0.87560400  0.42981300  0.31929200  1
  C  C63  1  0.55332400  0.55332400  0.39472100  1
  C  C64  1  0.42981300  0.87560400  0.31929200  1
  C  C65  1  0.74813500  0.74813500  0.25537800  1
  C  C66  1  0.68064500  0.68064500  0.45841100  1
  C  C67  1  0.99889500  0.55304100  0.39475200  1
  C  C68  1  0.87533100  0.87533100  0.31933300  1
  C  C69  1  0.55304100  0.99889500  0.39475200  1
  C  C70  1  0.16132000  0.71542200  0.46231100  1
  C  C71  1  0.83901800  0.83901800  0.53764600  1
  C  C72  1  0.96634100  0.96634100  0.60132500  1
  C  C73  1  0.71542200  0.16132000  0.46231100  1
  C  C74  1  0.03365900  0.03365900  0.39867500  1
  C  C75  1  0.28457800  0.83868000  0.53768900  1
  C  C76  1  0.16098200  0.16098200  0.46235400  1
  C  C77  1  0.83868000  0.28457800  0.53768900  1
  C  C78  1  0.44695900  0.00110500  0.60524800  1
  C  C79  1  0.12466900  0.12466900  0.68066700  1
  C  C80  1  0.00110500  0.44695900  0.60524800  1
  C  C81  1  0.25186500  0.25186500  0.74462200  1
  C  C82  1  0.31935500  0.31935500  0.54158900  1
  C  C83  1  0.57018700  0.12439600  0.68070800  1
  C  C84  1  0.44667600  0.44667600  0.60527900  1
  C  C85  1  0.12439600  0.57018700  0.68070800  1
  C  C86  1  0.73257300  0.28714800  0.74812600  1
  C  C87  1  0.41158100  0.41158100  0.82361900  1
  C  C88  1  0.28714800  0.73257300  0.74812600  1
  C  C89  1  0.60506200  0.60506200  0.68451500  1
  C  C90  1  0.53663700  0.53663700  0.88935300  1
  C  C91  1  0.85318900  0.41120300  0.82378500  1
  C  C92  1  0.41120300  0.85318900  0.82378500  1
  C  C93  1  0.73219100  0.73219100  0.74814800  1
  C  C94  1  0.02152300  0.56996500  0.88951900  1
  C  C95  1  0.89046500  0.89046500  0.82638700  1
  C  C96  1  0.56996500  0.02152300  0.88951900  1
  C  C97  1  0.01896700  0.01896700  0.88921600  1
