# generated using pymatgen
data_Cu6Ni3C2
_symmetry_space_group_name_H-M   'P 1'
_cell_length_a   11.28883200
_cell_length_b   11.28883200
_cell_length_c   11.28883200
_cell_angle_alpha   90.00000000
_cell_angle_beta   90.00000000
_cell_angle_gamma   90.00000000
_symmetry_Int_Tables_number   1
_chemical_formula_structural   Cu6Ni3C2
_chemical_formula_sum   'Cu48 Ni24 C16'
_cell_volume   1438.62310100
_cell_formula_units_Z   8
loop_
 _symmetry_equiv_pos_site_id
 _symmetry_equiv_pos_as_xyz
  1  'x, y, z'
loop_
 _atom_site_type_symbol
 _atom_site_label
 _atom_site_symmetry_multiplicity
 _atom_site_fract_x
 _atom_site_fract_y
 _atom_site_fract_z
 _atom_site_occupancy
  C  C0  1  0.50000000  0.50000000  0.00000000  1
  C  C1  1  0.50000000  0.00000000  0.50000000  1
  C  C2  1  0.25000000  0.75000000  0.75000000  1
  C  C3  1  0.75000000  0.25000000  0.25000000  1
  C  C4  1  0.75000000  0.25000000  0.75000000  1
  C  C5  1  0.00000000  0.00000000  0.00000000  1
  C  C6  1  0.75000000  0.75000000  0.25000000  1
  C  C7  1  0.25000000  0.75000000  0.25000000  1
  C  C8  1  0.00000000  0.50000000  0.50000000  1
  C  C9  1  0.25000000  0.25000000  0.75000000  1
  C  C10  1  0.25000000  0.25000000  0.25000000  1
  C  C11  1  0.75000000  0.75000000  0.75000000  1
  C  C12  1  0.00000000  0.00000000  0.50000000  1
  C  C13  1  0.50000000  0.00000000  0.00000000  1
  C  C14  1  0.00000000  0.50000000  0.00000000  1
  C  C15  1  0.50000000  0.50000000  0.50000000  1
  Ni  Ni16  1  0.51042000  0.50893500  0.68953700  1
  Ni  Ni17  1  0.81046300  0.98958000  0.50893500  1
  Ni  Ni18  1  0.68953700  0.98958000  0.99106500  1
  Ni  Ni19  1  0.50893500  0.81046300  0.98958000  1
  Ni  Ni20  1  0.98958000  0.99106500  0.68953700  1
  Ni  Ni21  1  0.00893500  0.31046300  0.01042000  1
  Ni  Ni22  1  0.31046300  0.01042000  0.00893500  1
  Ni  Ni23  1  0.81046300  0.51042000  0.99106500  1
  Ni  Ni24  1  0.50893500  0.68953700  0.51042000  1
  Ni  Ni25  1  0.01042000  0.49106500  0.18953700  1
  Ni  Ni26  1  0.99106500  0.81046300  0.51042000  1
  Ni  Ni27  1  0.48958000  0.49106500  0.31046300  1
  Ni  Ni28  1  0.51042000  0.99106500  0.81046300  1
  Ni  Ni29  1  0.00893500  0.18953700  0.48958000  1
  Ni  Ni30  1  0.68953700  0.51042000  0.50893500  1
  Ni  Ni31  1  0.49106500  0.18953700  0.01042000  1
  Ni  Ni32  1  0.49106500  0.31046300  0.48958000  1
  Ni  Ni33  1  0.18953700  0.01042000  0.49106500  1
  Ni  Ni34  1  0.99106500  0.68953700  0.98958000  1
  Ni  Ni35  1  0.98958000  0.50893500  0.81046300  1
  Ni  Ni36  1  0.48958000  0.00893500  0.18953700  1
  Ni  Ni37  1  0.01042000  0.00893500  0.31046300  1
  Ni  Ni38  1  0.18953700  0.48958000  0.00893500  1
  Ni  Ni39  1  0.31046300  0.48958000  0.49106500  1
  Cu  Cu40  1  0.50041700  0.24315000  0.91348700  1
  Cu  Cu41  1  0.00041700  0.74315000  0.08651300  1
  Cu  Cu42  1  0.41348700  0.00041700  0.75685000  1
  Cu  Cu43  1  0.25685000  0.58651300  0.50041700  1
  Cu  Cu44  1  0.91348700  0.50041700  0.24315000  1
  Cu  Cu45  1  0.24712100  0.09949900  0.45326900  1
  Cu  Cu46  1  0.40050100  0.45326900  0.25287900  1
  Cu  Cu47  1  0.95326900  0.75287900  0.59949900  1
  Cu  Cu48  1  0.58651300  0.99958300  0.24315000  1
  Cu  Cu49  1  0.04673100  0.24712100  0.40050100  1
  Cu  Cu50  1  0.08651300  0.00041700  0.74315000  1
  Cu  Cu51  1  0.40050100  0.04673100  0.24712100  1
  Cu  Cu52  1  0.75685000  0.41348700  0.00041700  1
  Cu  Cu53  1  0.90050100  0.95326900  0.74712100  1
  Cu  Cu54  1  0.04673100  0.25287900  0.09949900  1
  Cu  Cu55  1  0.91348700  0.99958300  0.25685000  1
  Cu  Cu56  1  0.90050100  0.54673100  0.75287900  1
  Cu  Cu57  1  0.24315000  0.91348700  0.50041700  1
  Cu  Cu58  1  0.08651300  0.49958300  0.75685000  1
  Cu  Cu59  1  0.09949900  0.04673100  0.25287900  1
  Cu  Cu60  1  0.54673100  0.75287900  0.90050100  1
  Cu  Cu61  1  0.24315000  0.58651300  0.99958300  1
  Cu  Cu62  1  0.24712100  0.40050100  0.04673100  1
  Cu  Cu63  1  0.75685000  0.08651300  0.49958300  1
  Cu  Cu64  1  0.00041700  0.75685000  0.41348700  1
  Cu  Cu65  1  0.25287900  0.40050100  0.45326900  1
  Cu  Cu66  1  0.41348700  0.49958300  0.74315000  1
  Cu  Cu67  1  0.99958300  0.24315000  0.58651300  1
  Cu  Cu68  1  0.58651300  0.50041700  0.25685000  1
  Cu  Cu69  1  0.54673100  0.74712100  0.59949900  1
  Cu  Cu70  1  0.75287900  0.59949900  0.95326900  1
  Cu  Cu71  1  0.59949900  0.95326900  0.75287900  1
  Cu  Cu72  1  0.25685000  0.91348700  0.99958300  1
  Cu  Cu73  1  0.74712100  0.90050100  0.95326900  1
  Cu  Cu74  1  0.74315000  0.08651300  0.00041700  1
  Cu  Cu75  1  0.50041700  0.25685000  0.58651300  1
  Cu  Cu76  1  0.75287900  0.90050100  0.54673100  1
  Cu  Cu77  1  0.74315000  0.41348700  0.49958300  1
  Cu  Cu78  1  0.99958300  0.25685000  0.91348700  1
  Cu  Cu79  1  0.49958300  0.75685000  0.08651300  1
  Cu  Cu80  1  0.09949900  0.45326900  0.24712100  1
  Cu  Cu81  1  0.25287900  0.09949900  0.04673100  1
  Cu  Cu82  1  0.45326900  0.25287900  0.40050100  1
  Cu  Cu83  1  0.59949900  0.54673100  0.74712100  1
  Cu  Cu84  1  0.49958300  0.74315000  0.41348700  1
  Cu  Cu85  1  0.95326900  0.74712100  0.90050100  1
  Cu  Cu86  1  0.74712100  0.59949900  0.54673100  1
  Cu  Cu87  1  0.45326900  0.24712100  0.09949900  1
