# generated using pymatgen
data_Cu6Ni2C
_symmetry_space_group_name_H-M   'P 1'
_cell_length_a   9.24851911
_cell_length_b   9.24851911
_cell_length_c   9.24851911
_cell_angle_alpha   109.47122063
_cell_angle_beta   109.47122063
_cell_angle_gamma   109.47122063
_symmetry_Int_Tables_number   1
_chemical_formula_structural   Cu6Ni2C
_chemical_formula_sum   'Cu24 Ni8 C4'
_cell_volume   608.96832621
_cell_formula_units_Z   4
loop_
 _symmetry_equiv_pos_site_id
 _symmetry_equiv_pos_as_xyz
  1  'x, y, z'
loop_
 _atom_site_type_symbol
 _atom_site_label
 _atom_site_symmetry_multiplicity
 _atom_site_fract_x
 _atom_site_fract_y
 _atom_site_fract_z
 _atom_site_occupancy
  C  C0  1  0.00000000  0.00000000  0.00000000  1
  C  C1  1  0.50000000  0.50000000  0.00000000  1
  C  C2  1  0.00000000  0.50000000  0.50000000  1
  C  C3  1  0.50000000  0.00000000  0.50000000  1
  Ni  Ni4  1  0.56463900  0.56463900  0.56463900  1
  Ni  Ni5  1  0.93536100  0.50000000  0.00000000  1
  Ni  Ni6  1  0.00000000  0.93536100  0.50000000  1
  Ni  Ni7  1  0.50000000  0.00000000  0.93536100  1
  Ni  Ni8  1  0.43536100  0.43536100  0.43536100  1
  Ni  Ni9  1  0.06463900  0.50000000  0.00000000  1
  Ni  Ni10  1  0.00000000  0.06463900  0.50000000  1
  Ni  Ni11  1  0.50000000  0.00000000  0.06463900  1
  Cu  Cu12  1  0.07767300  0.04204200  0.23223800  1
  Cu  Cu13  1  0.45795800  0.53563000  0.19019600  1
  Cu  Cu14  1  0.96437000  0.42232700  0.65456600  1
  Cu  Cu15  1  0.84543400  0.26776200  0.30980400  1
  Cu  Cu16  1  0.53563000  0.19019600  0.45795800  1
  Cu  Cu17  1  0.65456600  0.96437000  0.42232700  1
  Cu  Cu18  1  0.26776200  0.30980400  0.84543400  1
  Cu  Cu19  1  0.23223800  0.07767300  0.04204200  1
  Cu  Cu20  1  0.04204200  0.23223800  0.07767300  1
  Cu  Cu21  1  0.19019600  0.45795800  0.53563000  1
  Cu  Cu22  1  0.42232700  0.65456600  0.96437000  1
  Cu  Cu23  1  0.30980400  0.84543400  0.26776200  1
  Cu  Cu24  1  0.92232700  0.95795800  0.76776200  1
  Cu  Cu25  1  0.54204200  0.46437000  0.80980400  1
  Cu  Cu26  1  0.03563000  0.57767300  0.34543400  1
  Cu  Cu27  1  0.15456600  0.73223800  0.69019600  1
  Cu  Cu28  1  0.46437000  0.80980400  0.54204200  1
  Cu  Cu29  1  0.34543400  0.03563000  0.57767300  1
  Cu  Cu30  1  0.73223800  0.69019600  0.15456600  1
  Cu  Cu31  1  0.76776200  0.92232700  0.95795800  1
  Cu  Cu32  1  0.95795800  0.76776200  0.92232700  1
  Cu  Cu33  1  0.80980400  0.54204200  0.46437000  1
  Cu  Cu34  1  0.57767300  0.34543400  0.03563000  1
  Cu  Cu35  1  0.69019600  0.15456600  0.73223800  1
