# generated using pymatgen
data_Cu2Ni2C
_symmetry_space_group_name_H-M   'P 1'
_cell_length_a   4.93026900
_cell_length_b   5.00686500
_cell_length_c   11.07051694
_cell_angle_alpha   88.51024767
_cell_angle_beta   90.00000000
_cell_angle_gamma   90.00000000
_symmetry_Int_Tables_number   1
_chemical_formula_structural   Cu2Ni2C
_chemical_formula_sum   'Cu4 Ni4 C2'
_cell_volume   273.18545791
_cell_formula_units_Z   2
loop_
 _symmetry_equiv_pos_site_id
 _symmetry_equiv_pos_as_xyz
  1  'x, y, z'
loop_
 _atom_site_type_symbol
 _atom_site_label
 _atom_site_symmetry_multiplicity
 _atom_site_fract_x
 _atom_site_fract_y
 _atom_site_fract_z
 _atom_site_occupancy
  C  C0  1  0.75000000  0.25799500  0.24107800  1
  C  C1  1  0.25000000  0.74200500  0.75892200  1
  Ni  Ni2  1  0.75000000  0.21363600  0.88144600  1
  Ni  Ni3  1  0.25000000  0.24884200  0.49908900  1
  Ni  Ni4  1  0.75000000  0.75115800  0.50091100  1
  Ni  Ni5  1  0.25000000  0.78636400  0.11855400  1
  Cu  Cu6  1  0.25000000  0.75333300  0.37342400  1
  Cu  Cu7  1  0.25000000  0.30369700  0.99919700  1
  Cu  Cu8  1  0.75000000  0.24666700  0.62657600  1
  Cu  Cu9  1  0.75000000  0.69630300  0.00080300  1
