# generated using pymatgen
data_Cu4NiC3
_symmetry_space_group_name_H-M   'P 1'
_cell_length_a   6.77408722
_cell_length_b   6.77408722
_cell_length_c   6.77408722
_cell_angle_alpha   115.80427981
_cell_angle_beta   111.54357801
_cell_angle_gamma   101.39038725
_symmetry_Int_Tables_number   1
_chemical_formula_structural   Cu4NiC3
_chemical_formula_sum   'Cu4 Ni1 C3'
_cell_volume   235.41360111
_cell_formula_units_Z   1
loop_
 _symmetry_equiv_pos_site_id
 _symmetry_equiv_pos_as_xyz
  1  'x, y, z'
loop_
 _atom_site_type_symbol
 _atom_site_label
 _atom_site_symmetry_multiplicity
 _atom_site_fract_x
 _atom_site_fract_y
 _atom_site_fract_z
 _atom_site_occupancy
  C  C0  1  0.00000000  0.00000000  0.00000000  1
  C  C1  1  0.30961900  0.80961900  0.50000000  1
  C  C2  1  0.69038100  0.19038100  0.50000000  1
  Ni  Ni3  1  0.50000000  0.50000000  0.00000000  1
  Cu  Cu4  1  0.52146300  0.53162300  0.40091000  1
  Cu  Cu5  1  0.47853700  0.87944700  0.01016000  1
  Cu  Cu6  1  0.13071200  0.12055300  0.59909000  1
  Cu  Cu7  1  0.86928800  0.46837700  0.98984000  1
