# generated using pymatgen
data_CuNi4
_symmetry_space_group_name_H-M   'P 1'
_cell_length_a   5.17473800
_cell_length_b   5.17473800
_cell_length_c   5.17473800
_cell_angle_alpha   91.20952889
_cell_angle_beta   91.20952889
_cell_angle_gamma   91.20952949
_symmetry_Int_Tables_number   1
_chemical_formula_structural   CuNi4
_chemical_formula_sum   'Cu3 Ni12'
_cell_volume   138.47473610
_cell_formula_units_Z   3
loop_
 _symmetry_equiv_pos_site_id
 _symmetry_equiv_pos_as_xyz
  1  'x, y, z'
loop_
 _atom_site_type_symbol
 _atom_site_label
 _atom_site_symmetry_multiplicity
 _atom_site_fract_x
 _atom_site_fract_y
 _atom_site_fract_z
 _atom_site_occupancy
  Ni  Ni0  1  0.61364900  0.61364900  0.96146800  1
  Ni  Ni1  1  0.83739400  0.83739400  0.08003100  1
  Ni  Ni2  1  0.38635100  0.38635100  0.03853200  1
  Ni  Ni3  1  0.91996900  0.16260600  0.16260600  1
  Ni  Ni4  1  0.08003100  0.83739400  0.83739400  1
  Ni  Ni5  1  0.03853200  0.38635100  0.38635100  1
  Ni  Ni6  1  0.83739400  0.08003100  0.83739400  1
  Ni  Ni7  1  0.96146800  0.61364900  0.61364900  1
  Ni  Ni8  1  0.16260600  0.91996900  0.16260600  1
  Ni  Ni9  1  0.38635100  0.03853200  0.38635100  1
  Ni  Ni10  1  0.16260600  0.16260600  0.91996900  1
  Ni  Ni11  1  0.61364900  0.96146800  0.61364900  1
  Cu  Cu12  1  0.35054100  0.35054100  0.35054100  1
  Cu  Cu13  1  0.64945900  0.64945900  0.64945900  1
  Cu  Cu14  1  0.50000000  0.50000000  0.50000000  1
