# generated using pymatgen
data_Cu9(NiC2)2
_symmetry_space_group_name_H-M   'P 1'
_cell_length_a   7.34275547
_cell_length_b   7.34275547
_cell_length_c   19.60804242
_cell_angle_alpha   87.78478771
_cell_angle_beta   87.78478771
_cell_angle_gamma   94.45295725
_symmetry_Int_Tables_number   1
_chemical_formula_structural   Cu9(NiC2)2
_chemical_formula_sum   'Cu18 Ni4 C8'
_cell_volume   1052.28846011
_cell_formula_units_Z   2
loop_
 _symmetry_equiv_pos_site_id
 _symmetry_equiv_pos_as_xyz
  1  'x, y, z'
loop_
 _atom_site_type_symbol
 _atom_site_label
 _atom_site_symmetry_multiplicity
 _atom_site_fract_x
 _atom_site_fract_y
 _atom_site_fract_z
 _atom_site_occupancy
  C  C0  1  0.78042500  0.28254000  0.52539300  1
  C  C1  1  0.21957500  0.71746000  0.47460700  1
  C  C2  1  0.56449500  0.75202000  0.67910900  1
  C  C3  1  0.43550500  0.24798000  0.32089100  1
  C  C4  1  0.24798000  0.43550500  0.82089100  1
  C  C5  1  0.28254000  0.78042500  0.02539300  1
  C  C6  1  0.71746000  0.21957500  0.97460700  1
  C  C7  1  0.75202000  0.56449500  0.17910900  1
  Ni  Ni8  1  0.25448300  0.26904200  0.61848300  1
  Ni  Ni9  1  0.73095800  0.74551700  0.88151700  1
  Ni  Ni10  1  0.74551700  0.73095800  0.38151700  1
  Ni  Ni11  1  0.26904200  0.25448300  0.11848300  1
  Cu  Cu12  1  0.95241700  0.98880300  0.35261700  1
  Cu  Cu13  1  0.51677600  0.12035600  0.14158800  1
  Cu  Cu14  1  0.04758300  0.01119700  0.64738300  1
  Cu  Cu15  1  0.49965800  0.24551200  0.67684700  1
  Cu  Cu16  1  0.27628600  0.21184700  0.50896300  1
  Cu  Cu17  1  0.72371400  0.78815300  0.49103700  1
  Cu  Cu18  1  0.48322400  0.87964400  0.85841200  1
  Cu  Cu19  1  0.01119700  0.04758300  0.14738300  1
  Cu  Cu20  1  0.75448800  0.50034100  0.82315300  1
  Cu  Cu21  1  0.98880300  0.95241700  0.85261700  1
  Cu  Cu22  1  0.21184700  0.27628600  0.00896300  1
  Cu  Cu23  1  0.50034100  0.75448800  0.32315300  1
  Cu  Cu24  1  0.24551200  0.49965900  0.17684700  1
  Cu  Cu25  1  0.78815300  0.72371400  0.99103700  1
  Cu  Cu26  1  0.90100900  0.09899100  0.75000000  1
  Cu  Cu27  1  0.12035600  0.51677600  0.64158800  1
  Cu  Cu28  1  0.87964400  0.48322400  0.35841200  1
  Cu  Cu29  1  0.09899100  0.90100900  0.25000000  1
