# generated using pymatgen
data_Cu2NiC4
_symmetry_space_group_name_H-M   'P 1'
_cell_length_a   6.23952735
_cell_length_b   6.23952735
_cell_length_c   30.74804400
_cell_angle_alpha   90.00000000
_cell_angle_beta   90.00000000
_cell_angle_gamma   119.99999306
_symmetry_Int_Tables_number   1
_chemical_formula_structural   Cu2NiC4
_chemical_formula_sum   'Cu24 Ni12 C48'
_cell_volume   1036.69628144
_cell_formula_units_Z   12
loop_
 _symmetry_equiv_pos_site_id
 _symmetry_equiv_pos_as_xyz
  1  'x, y, z'
loop_
 _atom_site_type_symbol
 _atom_site_label
 _atom_site_symmetry_multiplicity
 _atom_site_fract_x
 _atom_site_fract_y
 _atom_site_fract_z
 _atom_site_occupancy
  Ni  Ni0  1  0.33333300  0.66666700  0.95691000  1
  Ni  Ni1  1  0.66666700  0.33333300  0.98123600  1
  Ni  Ni2  1  0.66666700  0.33333300  0.66831000  1
  Ni  Ni3  1  0.66666700  0.33333300  0.78974200  1
  Ni  Ni4  1  0.00000000  0.00000000  0.81102700  1
  Ni  Ni5  1  0.00000000  0.00000000  0.50001000  1
  Ni  Ni6  1  0.00000000  0.00000000  0.62336600  1
  Ni  Ni7  1  0.33333300  0.66666700  0.33349900  1
  Ni  Ni8  1  0.33333300  0.66666700  0.45907100  1
  Ni  Ni9  1  0.66666700  0.33333300  0.29238500  1
  Ni  Ni10  1  0.66666700  0.33333300  0.16599300  1
  Ni  Ni11  1  0.00000000  0.00000000  0.12519400  1
  Cu  Cu12  1  0.00000000  0.00000000  0.00146600  1
  Cu  Cu13  1  0.33333300  0.66666700  0.83565000  1
  Cu  Cu14  1  0.82997300  0.17002700  0.89569800  1
  Cu  Cu15  1  0.34005400  0.17002700  0.89569800  1
  Cu  Cu16  1  0.82997300  0.65994600  0.89569800  1
  Cu  Cu17  1  0.16529300  0.83470700  0.72746900  1
  Cu  Cu18  1  0.66941400  0.83470700  0.72746900  1
  Cu  Cu19  1  0.16529300  0.33058600  0.72746900  1
  Cu  Cu20  1  0.50013500  0.49986500  0.56268200  1
  Cu  Cu21  1  0.33333300  0.66666700  0.64532100  1
  Cu  Cu22  1  0.99973100  0.49986500  0.56268200  1
  Cu  Cu23  1  0.50013500  0.00026900  0.56268200  1
  Cu  Cu24  1  0.83302400  0.16697600  0.39619100  1
  Cu  Cu25  1  0.66666700  0.33333300  0.47968100  1
  Cu  Cu26  1  0.33395100  0.16697600  0.39619100  1
  Cu  Cu27  1  0.83302400  0.66604900  0.39619100  1
  Cu  Cu28  1  0.16600100  0.83399900  0.22983200  1
  Cu  Cu29  1  0.00000000  0.00000000  0.31330200  1
  Cu  Cu30  1  0.66799800  0.83399900  0.22983200  1
  Cu  Cu31  1  0.16600100  0.33200200  0.22983200  1
  Cu  Cu32  1  0.49651600  0.50348400  0.06388400  1
  Cu  Cu33  1  0.33333300  0.66666700  0.14798000  1
  Cu  Cu34  1  0.00696800  0.50348400  0.06388400  1
  Cu  Cu35  1  0.49651600  0.99303200  0.06388400  1
  C  C36  1  0.51701400  0.03402800  0.93017000  1
  C  C37  1  0.96597200  0.48298600  0.93017000  1
  C  C38  1  0.66666700  0.33333300  0.86095500  1
  C  C39  1  0.51701400  0.48298600  0.93017000  1
  C  C40  1  0.84704900  0.69409800  0.76015200  1
  C  C41  1  0.16362300  0.83637700  0.85981400  1
  C  C42  1  0.67275400  0.83637700  0.85981400  1
  C  C43  1  0.00000000  0.00000000  0.69346300  1
  C  C44  1  0.30590200  0.15295100  0.76015200  1
  C  C45  1  0.00000000  0.00000000  0.93601800  1
  C  C46  1  0.84704900  0.15295100  0.76015200  1
  C  C47  1  0.16362300  0.32724600  0.85981400  1
  C  C48  1  0.18977700  0.37955400  0.60045800  1
  C  C49  1  0.47403800  0.52596200  0.68945300  1
  C  C50  1  0.05192400  0.52596200  0.68945300  1
  C  C51  1  0.33333300  0.66666700  0.52935400  1
  C  C52  1  0.33333300  0.66666700  0.77119100  1
  C  C53  1  0.62044600  0.81022300  0.60045800  1
  C  C54  1  0.18977700  0.81022300  0.60045800  1
  C  C55  1  0.47403800  0.94807600  0.68945300  1
  C  C56  1  0.52278700  0.04557400  0.43435000  1
  C  C57  1  0.81007100  0.18992900  0.52341500  1
  C  C58  1  0.37985800  0.18992900  0.52341500  1
  C  C59  1  0.66666700  0.33333300  0.59602300  1
  C  C60  1  0.95442600  0.47721300  0.43435000  1
  C  C61  1  0.66666700  0.33333300  0.36286600  1
  C  C62  1  0.52278700  0.47721300  0.43435000  1
  C  C63  1  0.81007100  0.62014200  0.52341500  1
  C  C64  1  0.14351000  0.85649000  0.35683800  1
  C  C65  1  0.85625900  0.71251800  0.26794800  1
  C  C66  1  0.00000000  0.00000000  0.19615000  1
  C  C67  1  0.71298000  0.85649000  0.35683800  1
  C  C68  1  0.00000000  0.00000000  0.42869400  1
  C  C69  1  0.28748200  0.14374100  0.26794800  1
  C  C70  1  0.85625900  0.14374100  0.26794800  1
  C  C71  1  0.14351000  0.28702000  0.35683800  1
  C  C72  1  0.19141500  0.38283000  0.10286200  1
  C  C73  1  0.47795000  0.52205000  0.19074400  1
  C  C74  1  0.33333300  0.66666700  0.02952400  1
  C  C75  1  0.04410000  0.52205000  0.19074400  1
  C  C76  1  0.33333300  0.66666700  0.26213900  1
  C  C77  1  0.61717000  0.80858500  0.10286200  1
  C  C78  1  0.19141500  0.80858500  0.10286200  1
  C  C79  1  0.47795000  0.95590000  0.19074400  1
  C  C80  1  0.83557800  0.16442200  0.02802600  1
  C  C81  1  0.32884400  0.16442200  0.02802600  1
  C  C82  1  0.66666700  0.33333300  0.09352500  1
  C  C83  1  0.83557800  0.67115600  0.02802600  1
