# generated using pymatgen
data_Cu8Ni2C3
_symmetry_space_group_name_H-M   'P 1'
_cell_length_a   10.62520001
_cell_length_b   10.62520001
_cell_length_c   10.62520082
_cell_angle_alpha   51.61761932
_cell_angle_beta   51.61761932
_cell_angle_gamma   51.61761596
_symmetry_Int_Tables_number   1
_chemical_formula_structural   Cu8Ni2C3
_chemical_formula_sum   'Cu16 Ni4 C6'
_cell_volume   680.85894688
_cell_formula_units_Z   2
loop_
 _symmetry_equiv_pos_site_id
 _symmetry_equiv_pos_as_xyz
  1  'x, y, z'
loop_
 _atom_site_type_symbol
 _atom_site_label
 _atom_site_symmetry_multiplicity
 _atom_site_fract_x
 _atom_site_fract_y
 _atom_site_fract_z
 _atom_site_occupancy
  C  C0  1  0.25000000  0.57088700  0.92911300  1
  C  C1  1  0.42911300  0.07088700  0.75000000  1
  C  C2  1  0.75000000  0.42911300  0.07088700  1
  C  C3  1  0.92911300  0.25000000  0.57088700  1
  C  C4  1  0.57088700  0.92911300  0.25000000  1
  C  C5  1  0.07088700  0.75000000  0.42911300  1
  Ni  Ni6  1  0.84041300  0.84041300  0.84041300  1
  Ni  Ni7  1  0.65958700  0.65958700  0.65958700  1
  Ni  Ni8  1  0.34041300  0.34041300  0.34041300  1
  Ni  Ni9  1  0.15958700  0.15958700  0.15958700  1
  Cu  Cu10  1  0.22344000  0.94330800  0.38951200  1
  Cu  Cu11  1  0.72344000  0.88951200  0.44330800  1
  Cu  Cu12  1  0.42120400  0.42120400  0.42120300  1
  Cu  Cu13  1  0.27656000  0.11048800  0.55669200  1
  Cu  Cu14  1  0.92120300  0.92120400  0.92120400  1
  Cu  Cu15  1  0.05669200  0.61048800  0.77656000  1
  Cu  Cu16  1  0.57879700  0.57879700  0.57879600  1
  Cu  Cu17  1  0.11048800  0.55669200  0.27656000  1
  Cu  Cu18  1  0.44330800  0.72344000  0.88951200  1
  Cu  Cu19  1  0.77656000  0.05669200  0.61048800  1
  Cu  Cu20  1  0.61048800  0.77656000  0.05669200  1
  Cu  Cu21  1  0.07879700  0.07879700  0.07879700  1
  Cu  Cu22  1  0.88951200  0.44330800  0.72344000  1
  Cu  Cu23  1  0.38951200  0.22344000  0.94330800  1
  Cu  Cu24  1  0.55669200  0.27656000  0.11048800  1
  Cu  Cu25  1  0.94330800  0.38951200  0.22344000  1
