# generated using pymatgen
data_Cu(NiC5)2
_symmetry_space_group_name_H-M   'P 1'
_cell_length_a   8.84993200
_cell_length_b   10.26951400
_cell_length_c   12.93175500
_cell_angle_alpha   90.00000000
_cell_angle_beta   90.00000000
_cell_angle_gamma   90.00000000
_symmetry_Int_Tables_number   1
_chemical_formula_structural   Cu(NiC5)2
_chemical_formula_sum   'Cu8 Ni16 C80'
_cell_volume   1175.29609471
_cell_formula_units_Z   8
loop_
 _symmetry_equiv_pos_site_id
 _symmetry_equiv_pos_as_xyz
  1  'x, y, z'
loop_
 _atom_site_type_symbol
 _atom_site_label
 _atom_site_symmetry_multiplicity
 _atom_site_fract_x
 _atom_site_fract_y
 _atom_site_fract_z
 _atom_site_occupancy
  C  C0  1  0.89888100  0.02998500  0.34089500  1
  C  C1  1  0.01958200  0.76073800  0.33993100  1
  C  C2  1  0.79199100  0.11687100  0.67275700  1
  C  C3  1  0.40115000  0.15270500  0.01653300  1
  C  C4  1  0.02524100  0.86317100  0.23961700  1
  C  C5  1  0.40115000  0.84729500  0.98346700  1
  C  C6  1  0.10986900  0.41341700  0.05461500  1
  C  C7  1  0.45260700  0.66257100  0.75197800  1
  C  C8  1  0.17836200  0.98275300  0.66084700  1
  C  C9  1  0.82163800  0.51724700  0.16084700  1
  C  C10  1  0.20800900  0.38312900  0.17275700  1
  C  C11  1  0.66413000  0.30189100  0.77217500  1
  C  C12  1  0.60895300  0.42660500  0.39349500  1
  C  C13  1  0.69424800  0.73024400  0.58835300  1
  C  C14  1  0.01958200  0.23926200  0.66006900  1
  C  C15  1  0.54764800  0.67662000  0.05947500  1
  C  C16  1  0.30575200  0.76975600  0.08835300  1
  C  C17  1  0.59885000  0.65270500  0.48346700  1
  C  C18  1  0.59885000  0.34729500  0.51653300  1
  C  C19  1  0.89013100  0.91341700  0.44538500  1
  C  C20  1  0.98041800  0.73926200  0.83993100  1
  C  C21  1  0.20800900  0.61687100  0.82724300  1
  C  C22  1  0.54739300  0.83742900  0.25197800  1
  C  C23  1  0.73224500  0.63939500  0.82650200  1
  C  C24  1  0.66413000  0.69810900  0.22782500  1
  C  C25  1  0.45235200  0.17662000  0.44052500  1
  C  C26  1  0.63611100  0.17762700  0.92636600  1
  C  C27  1  0.73224500  0.36060500  0.17349800  1
  C  C28  1  0.39104700  0.07339500  0.89349500  1
  C  C29  1  0.39104700  0.92660500  0.10650500  1
  C  C30  1  0.89888100  0.97001500  0.65910500  1
  C  C31  1  0.63611100  0.82237300  0.07363400  1
  C  C32  1  0.26775500  0.13939500  0.67349800  1
  C  C33  1  0.17836200  0.01724700  0.33915300  1
  C  C34  1  0.10986900  0.58658300  0.94538500  1
  C  C35  1  0.36388900  0.67762700  0.57363400  1
  C  C36  1  0.82469300  0.40173500  0.05594200  1
  C  C37  1  0.26775500  0.86060500  0.32650200  1
  C  C38  1  0.45260700  0.33742900  0.24802200  1
  C  C39  1  0.30575200  0.23024400  0.91164700  1
  C  C40  1  0.17530700  0.09826500  0.55594200  1
  C  C41  1  0.33587000  0.80189100  0.72782500  1
  C  C42  1  0.10111900  0.52998500  0.15910500  1
  C  C43  1  0.60895300  0.57339500  0.60650500  1
  C  C44  1  0.46262500  0.67992400  0.23477600  1
  C  C45  1  0.02524100  0.13682900  0.76038300  1
  C  C46  1  0.17530700  0.90173500  0.44405800  1
  C  C47  1  0.97475900  0.36317100  0.26038300  1
  C  C48  1  0.33587000  0.19810900  0.27217500  1
  C  C49  1  0.36388900  0.32237300  0.42636600  1
  C  C50  1  0.54764800  0.32338000  0.94052500  1
  C  C51  1  0.82163800  0.48275300  0.83915300  1
  C  C52  1  0.82469300  0.59826500  0.94405800  1
  C  C53  1  0.69424800  0.26975600  0.41164700  1
  C  C54  1  0.53737500  0.82007600  0.73477600  1
  C  C55  1  0.97475900  0.63682900  0.73961700  1
  C  C56  1  0.98041800  0.26073800  0.16006900  1
  C  C57  1  0.89013100  0.08658300  0.55461500  1
  C  C58  1  0.54739300  0.16257100  0.74802200  1
  C  C59  1  0.53737500  0.17992400  0.26522400  1
  C  C60  1  0.79199100  0.88312900  0.32724300  1
  C  C61  1  0.10111900  0.47001500  0.84089500  1
  C  C62  1  0.45235200  0.82338000  0.55947500  1
  C  C63  1  0.46262500  0.32007600  0.76522400  1
  C  C64  1  0.91956100  0.00000000  0.00000000  1
  C  C65  1  0.08043900  0.50000000  0.50000000  1
  Ni  Ni66  1  0.40085100  0.16736300  0.93280000  1
  Ni  Ni67  1  0.44480400  0.24420300  0.28894800  1
  Ni  Ni68  1  0.55519600  0.74420300  0.21105200  1
  Ni  Ni69  1  0.17300000  0.08588200  0.63993100  1
  Ni  Ni70  1  0.59914900  0.33263700  0.43280000  1
  Ni  Ni71  1  0.10730900  0.42673100  0.13848500  1
  Ni  Ni72  1  0.89269100  0.07326900  0.63848500  1
  Ni  Ni73  1  0.89269100  0.92673100  0.36151500  1
  Ni  Ni74  1  0.10730900  0.57326900  0.86151500  1
  Ni  Ni75  1  0.82700000  0.41411800  0.13993100  1
  Ni  Ni76  1  0.55519600  0.25579700  0.78894800  1
  Ni  Ni77  1  0.40085100  0.83263700  0.06720000  1
  Ni  Ni78  1  0.59914900  0.66736300  0.56720000  1
  Ni  Ni79  1  0.17300000  0.91411800  0.36006900  1
  Ni  Ni80  1  0.44480400  0.75579700  0.71105200  1
  Ni  Ni81  1  0.82700000  0.58588200  0.86006900  1
  Cu  Cu82  1  0.45594800  0.26786100  0.40199500  1
  Cu  Cu83  1  0.54405200  0.76786100  0.09800500  1
  Cu  Cu84  1  0.54405200  0.23213900  0.90199500  1
  Cu  Cu85  1  0.97126300  0.64083400  0.82017800  1
  Cu  Cu86  1  0.02873700  0.14083400  0.67982200  1
  Cu  Cu87  1  0.97126300  0.35916600  0.17982200  1
  Cu  Cu88  1  0.02873700  0.85916600  0.32017800  1
  Cu  Cu89  1  0.45594800  0.73213900  0.59800500  1
  C  C90  1  0.10580400  0.92459800  0.88012900  1
  C  C91  1  0.72494900  0.07401500  0.11429500  1
  C  C92  1  0.89419600  0.57540200  0.38012900  1
  C  C93  1  0.10580400  0.07540200  0.11987100  1
  C  C94  1  0.27505100  0.57401500  0.38570500  1
  C  C95  1  0.07518700  0.29015900  0.41568900  1
  C  C96  1  0.07518700  0.70984100  0.58431100  1
  C  C97  1  0.51161400  0.00000000  0.50000000  1
  C  C98  1  0.48838600  0.50000000  0.00000000  1
  C  C99  1  0.92481300  0.79015900  0.08431100  1
  C  C100  1  0.27505100  0.42598500  0.61429500  1
  C  C101  1  0.92481300  0.20984100  0.91568900  1
  C  C102  1  0.72494900  0.92598500  0.88570500  1
  C  C103  1  0.89419600  0.42459800  0.61987100  1
