# generated using pymatgen
data_Cu7NiC37
_symmetry_space_group_name_H-M   'P 1'
_cell_length_a   13.93474455
_cell_length_b   13.93474455
_cell_length_c   13.93474521
_cell_angle_alpha   44.30900280
_cell_angle_beta   44.30900280
_cell_angle_gamma   44.30900382
_symmetry_Int_Tables_number   1
_chemical_formula_structural   Cu7NiC37
_chemical_formula_sum   'Cu14 Ni2 C74'
_cell_volume   1199.94113255
_cell_formula_units_Z   2
loop_
 _symmetry_equiv_pos_site_id
 _symmetry_equiv_pos_as_xyz
  1  'x, y, z'
loop_
 _atom_site_type_symbol
 _atom_site_label
 _atom_site_symmetry_multiplicity
 _atom_site_fract_x
 _atom_site_fract_y
 _atom_site_fract_z
 _atom_site_occupancy
  C  C0  1  0.43193200  0.85564200  0.40676700  1
  C  C1  1  0.15225600  0.57759900  0.56408200  1
  C  C2  1  0.40676700  0.43193200  0.85564200  1
  C  C3  1  0.57759900  0.56408200  0.15225600  1
  C  C4  1  0.35564200  0.93193200  0.90676700  1
  C  C5  1  0.90676700  0.35564200  0.93193200  1
  C  C6  1  0.05026900  0.47188900  0.45318200  1
  C  C7  1  0.47188900  0.45318200  0.05026900  1
  C  C8  1  0.95318200  0.97188900  0.55026900  1
  C  C9  1  0.85564200  0.40676700  0.43193200  1
  C  C10  1  0.55026900  0.95318200  0.97188900  1
  C  C11  1  0.97188900  0.55026900  0.95318200  1
  C  C12  1  0.93193200  0.90676700  0.35564200  1
  C  C13  1  0.06408200  0.07759900  0.65225600  1
  C  C14  1  0.56408200  0.15225600  0.57759900  1
  C  C15  1  0.65225600  0.06408200  0.07759900  1
  C  C16  1  0.07759900  0.65225600  0.06408200  1
  C  C17  1  0.45318200  0.05026900  0.47188900  1
  Ni  Ni18  1  0.99947700  0.99947700  0.99947700  1
  Ni  Ni19  1  0.49947700  0.49947700  0.49947700  1
  Cu  Cu20  1  0.76893200  0.76893200  0.76893200  1
  Cu  Cu21  1  0.26893200  0.26893200  0.26893200  1
  Cu  Cu22  1  0.18673700  0.22064800  0.68521700  1
  Cu  Cu23  1  0.30857700  0.81991700  0.27440200  1
  Cu  Cu24  1  0.81991700  0.27440200  0.30857700  1
  Cu  Cu25  1  0.27440200  0.30857700  0.81991700  1
  Cu  Cu26  1  0.72064800  0.68673700  0.18521700  1
  Cu  Cu27  1  0.22064800  0.68521700  0.18673700  1
  Cu  Cu28  1  0.80857700  0.77440200  0.31991700  1
  Cu  Cu29  1  0.18521700  0.72064800  0.68673700  1
  Cu  Cu30  1  0.68673700  0.18521700  0.72064800  1
  Cu  Cu31  1  0.31991700  0.80857700  0.77440200  1
  Cu  Cu32  1  0.77440200  0.31991700  0.80857700  1
  Cu  Cu33  1  0.68521700  0.18673700  0.22064800  1
  C  C34  1  0.77087200  0.39280400  0.85671800  1
  C  C35  1  0.89280400  0.27087200  0.35671800  1
  C  C36  1  0.68443100  0.66857800  0.11857600  1
  C  C37  1  0.39190400  0.11036900  0.26612700  1
  C  C38  1  0.38827300  0.83881400  0.11076900  1
  C  C39  1  0.86857900  0.13955900  0.87580600  1
  C  C40  1  0.63955900  0.36857900  0.37580600  1
  C  C41  1  0.59541700  0.14431800  0.89236100  1
  C  C42  1  0.88827300  0.61076900  0.33881400  1
  C  C43  1  0.27087200  0.35671800  0.89280400  1
  C  C44  1  0.11036900  0.26612700  0.39190400  1
  C  C45  1  0.26612700  0.39190400  0.11036900  1
  C  C46  1  0.35671800  0.89280400  0.27087200  1
  C  C47  1  0.16857800  0.18443100  0.61857600  1
  C  C48  1  0.85616000  0.12971800  0.66242100  1
  C  C49  1  0.18443100  0.61857600  0.16857800  1
  C  C50  1  0.36382400  0.63581300  0.61794200  1
  C  C51  1  0.63581300  0.61794200  0.36382400  1
  C  C52  1  0.13581300  0.86382400  0.11794200  1
  C  C53  1  0.66242100  0.85616000  0.12971800  1
  C  C54  1  0.62971800  0.35616000  0.16242100  1
  C  C55  1  0.39280400  0.85671800  0.77087200  1
  C  C56  1  0.76612700  0.61036900  0.89190400  1
  C  C57  1  0.86382400  0.11794200  0.13581300  1
  C  C58  1  0.61036900  0.89190400  0.76612700  1
  C  C59  1  0.13629300  0.87256700  0.35062300  1
  C  C60  1  0.66857800  0.11857600  0.68443100  1
  C  C61  1  0.61857600  0.16857800  0.18443100  1
  C  C62  1  0.09541700  0.39236100  0.64431800  1
  C  C63  1  0.35616000  0.16242100  0.62971800  1
  C  C64  1  0.36857900  0.37580600  0.63955900  1
  C  C65  1  0.11794200  0.13581300  0.86382400  1
  C  C66  1  0.35062300  0.13629300  0.87256700  1
  C  C67  1  0.89190400  0.76612700  0.61036900  1
  C  C68  1  0.33881400  0.88827300  0.61076900  1
  C  C69  1  0.12971800  0.66242100  0.85616000  1
  C  C70  1  0.37580600  0.63955900  0.36857900  1
  C  C71  1  0.63629300  0.85062300  0.37256700  1
  C  C72  1  0.61794200  0.36382400  0.63581300  1
  C  C73  1  0.85062300  0.37256700  0.63629300  1
  C  C74  1  0.64431800  0.09541700  0.39236100  1
  C  C75  1  0.87256700  0.35062300  0.13629300  1
  C  C76  1  0.81033700  0.81033700  0.81033700  1
  C  C77  1  0.61076900  0.33881400  0.88827300  1
  C  C78  1  0.31033700  0.31033700  0.31033700  1
  C  C79  1  0.39236100  0.64431800  0.09541700  1
  C  C80  1  0.16242100  0.62971800  0.35616000  1
  C  C81  1  0.89236100  0.59541700  0.14431800  1
  C  C82  1  0.85671800  0.77087200  0.39280400  1
  C  C83  1  0.14431800  0.89236100  0.59541700  1
  C  C84  1  0.83881400  0.11076900  0.38827300  1
  C  C85  1  0.11076900  0.38827300  0.83881400  1
  C  C86  1  0.13955900  0.87580600  0.86857900  1
  C  C87  1  0.87580600  0.86857900  0.13955900  1
  C  C88  1  0.37256700  0.63629300  0.85062300  1
  C  C89  1  0.11857600  0.68443100  0.66857800  1
