# generated using pymatgen
data_Cu4Ni4C27
_symmetry_space_group_name_H-M   'P 1'
_cell_length_a   7.35005400
_cell_length_b   7.35005400
_cell_length_c   7.35005400
_cell_angle_alpha   90.00000000
_cell_angle_beta   90.00000000
_cell_angle_gamma   90.00000000
_symmetry_Int_Tables_number   1
_chemical_formula_structural   Cu4Ni4C27
_chemical_formula_sum   'Cu4 Ni4 C27'
_cell_volume   397.07412671
_cell_formula_units_Z   1
loop_
 _symmetry_equiv_pos_site_id
 _symmetry_equiv_pos_as_xyz
  1  'x, y, z'
loop_
 _atom_site_type_symbol
 _atom_site_label
 _atom_site_symmetry_multiplicity
 _atom_site_fract_x
 _atom_site_fract_y
 _atom_site_fract_z
 _atom_site_occupancy
  C  C0  1  0.34082600  0.65917400  0.34082600  1
  C  C1  1  0.65917400  0.65917400  0.65917400  1
  C  C2  1  0.00000000  0.00000000  0.50000000  1
  C  C3  1  0.65917400  0.34082600  0.34082600  1
  C  C4  1  0.50000000  0.50000000  0.00000000  1
  C  C5  1  0.34082600  0.34082600  0.65917400  1
  C  C6  1  0.00000000  0.50000000  0.50000000  1
  C  C7  1  0.00000000  0.50000000  0.00000000  1
  C  C8  1  0.50000000  0.00000000  0.50000000  1
  C  C9  1  0.50000000  0.00000000  0.00000000  1
  Ni  Ni10  1  0.86746300  0.86746300  0.86746300  1
  Ni  Ni11  1  0.13253700  0.86746300  0.13253700  1
  Ni  Ni12  1  0.86746300  0.13253700  0.13253700  1
  Ni  Ni13  1  0.13253700  0.13253700  0.86746300  1
  Cu  Cu14  1  0.78018600  0.78018600  0.21981400  1
  Cu  Cu15  1  0.21981400  0.21981400  0.21981400  1
  Cu  Cu16  1  0.78018600  0.21981400  0.78018600  1
  Cu  Cu17  1  0.21981400  0.78018600  0.78018600  1
  C  C18  1  0.26036600  0.99976200  0.26036600  1
  C  C19  1  0.34634800  0.65365200  0.65365200  1
  C  C20  1  0.99976200  0.73963400  0.73963400  1
  C  C21  1  0.73963400  0.99976200  0.73963400  1
  C  C22  1  0.00023800  0.26036600  0.73963400  1
  C  C23  1  0.99976200  0.26036600  0.26036600  1
  C  C24  1  0.26036600  0.26036600  0.99976200  1
  C  C25  1  0.65365200  0.65365200  0.34634800  1
  C  C26  1  0.73963400  0.26036600  0.00023800  1
  C  C27  1  0.73963400  0.73963400  0.99976200  1
  C  C28  1  0.26036600  0.00023800  0.73963400  1
  C  C29  1  0.65365200  0.34634800  0.65365200  1
  C  C30  1  0.34634800  0.34634800  0.34634800  1
  C  C31  1  0.00023800  0.73963400  0.26036600  1
  C  C32  1  0.73963400  0.00023800  0.26036600  1
  C  C33  1  0.26036600  0.73963400  0.00023800  1
  C  C34  1  0.00000000  0.00000000  0.00000000  1
