# generated using pymatgen
data_Cu(Ni3C14)2
_symmetry_space_group_name_H-M   'P 1'
_cell_length_a   9.07382857
_cell_length_b   9.07382857
_cell_length_c   9.07382845
_cell_angle_alpha   55.47130425
_cell_angle_beta   55.47130425
_cell_angle_gamma   55.47130007
_symmetry_Int_Tables_number   1
_chemical_formula_structural   Cu(Ni3C14)2
_chemical_formula_sum   'Cu1 Ni6 C28'
_cell_volume   472.71732822
_cell_formula_units_Z   1
loop_
 _symmetry_equiv_pos_site_id
 _symmetry_equiv_pos_as_xyz
  1  'x, y, z'
loop_
 _atom_site_type_symbol
 _atom_site_label
 _atom_site_symmetry_multiplicity
 _atom_site_fract_x
 _atom_site_fract_y
 _atom_site_fract_z
 _atom_site_occupancy
  C  C0  1  0.84991100  0.84991100  0.84991100  1
  C  C1  1  0.15008900  0.15008900  0.15008900  1
  C  C2  1  0.35452000  0.35452000  0.35452000  1
  C  C3  1  0.64548000  0.64548000  0.64548000  1
  Ni  Ni4  1  0.75050000  0.46382900  0.03024800  1
  Ni  Ni5  1  0.96975200  0.24950000  0.53617100  1
  Ni  Ni6  1  0.24950000  0.53617100  0.96975200  1
  Ni  Ni7  1  0.03024800  0.75050000  0.46382900  1
  Ni  Ni8  1  0.53617100  0.96975200  0.24950000  1
  Ni  Ni9  1  0.46382900  0.03024800  0.75050000  1
  Cu  Cu10  1  0.00000000  0.00000000  0.00000000  1
  C  C11  1  0.90169500  0.09346000  0.72926000  1
  C  C12  1  0.15920000  0.22949500  0.51778400  1
  C  C13  1  0.09346000  0.72926000  0.90169500  1
  C  C14  1  0.46505500  0.18464600  0.55030800  1
  C  C15  1  0.37198700  0.99728100  0.21497800  1
  C  C16  1  0.78502200  0.62801300  0.00271900  1
  C  C17  1  0.72926000  0.90169500  0.09346000  1
  C  C18  1  0.21497800  0.37198700  0.99728100  1
  C  C19  1  0.90654000  0.27074000  0.09830500  1
  C  C20  1  0.77050500  0.48221600  0.84080000  1
  C  C21  1  0.99728100  0.21497800  0.37198700  1
  C  C22  1  0.00271900  0.78502200  0.62801300  1
  C  C23  1  0.44969200  0.53494500  0.81535400  1
  C  C24  1  0.09830500  0.90654000  0.27074000  1
  C  C25  1  0.55030800  0.46505500  0.18464600  1
  C  C26  1  0.62801300  0.00271900  0.78502200  1
  C  C27  1  0.48221600  0.84080000  0.77050500  1
  C  C28  1  0.18464600  0.55030800  0.46505500  1
  C  C29  1  0.81535400  0.44969200  0.53494500  1
  C  C30  1  0.22949500  0.51778400  0.15920000  1
  C  C31  1  0.84080000  0.77050500  0.48221600  1
  C  C32  1  0.27074000  0.09830500  0.90654000  1
  C  C33  1  0.51778400  0.15920000  0.22949500  1
  C  C34  1  0.53494500  0.81535400  0.44969200  1
