# generated using pymatgen
data_Cu(NiC5)3
_symmetry_space_group_name_H-M   'P 1'
_cell_length_a   6.44154900
_cell_length_b   9.90013500
_cell_length_c   10.60756800
_cell_angle_alpha   90.00000000
_cell_angle_beta   90.00000000
_cell_angle_gamma   90.00000000
_symmetry_Int_Tables_number   1
_chemical_formula_structural   Cu(NiC5)3
_chemical_formula_sum   'Cu4 Ni12 C60'
_cell_volume   676.46799796
_cell_formula_units_Z   4
loop_
 _symmetry_equiv_pos_site_id
 _symmetry_equiv_pos_as_xyz
  1  'x, y, z'
loop_
 _atom_site_type_symbol
 _atom_site_label
 _atom_site_symmetry_multiplicity
 _atom_site_fract_x
 _atom_site_fract_y
 _atom_site_fract_z
 _atom_site_occupancy
  C  C0  1  0.44759100  0.37408700  0.09862300  1
  C  C1  1  0.84080500  0.14072600  0.24450000  1
  C  C2  1  0.67577000  0.62506300  0.36510000  1
  C  C3  1  0.62483300  0.75000000  0.08955700  1
  C  C4  1  0.84080500  0.35927400  0.24450000  1
  C  C5  1  0.26850600  0.46254600  0.99786600  1
  C  C6  1  0.05240900  0.37408700  0.59862300  1
  C  C7  1  0.15919500  0.64072600  0.75550000  1
  C  C8  1  0.76850600  0.53745400  0.50213400  1
  C  C9  1  0.15919500  0.85927400  0.75550000  1
  C  C10  1  0.73149400  0.96254600  0.00213400  1
  C  C11  1  0.67577000  0.87493700  0.36510000  1
  C  C12  1  0.03920600  0.15891100  0.86081800  1
  C  C13  1  0.34080500  0.64072600  0.25550000  1
  C  C14  1  0.03920600  0.34108900  0.86081800  1
  C  C15  1  0.56711900  0.25000000  0.49212400  1
  C  C16  1  0.34080500  0.85927400  0.25550000  1
  C  C17  1  0.17577000  0.37493700  0.13490000  1
  C  C18  1  0.32423000  0.37493700  0.63490000  1
  C  C19  1  0.87516700  0.75000000  0.58955700  1
  C  C20  1  0.26850600  0.03745400  0.99786600  1
  C  C21  1  0.43288100  0.75000000  0.50787600  1
  C  C22  1  0.96079400  0.65891100  0.13918200  1
  C  C23  1  0.37516700  0.25000000  0.91044300  1
  C  C24  1  0.23149400  0.03745400  0.49786600  1
  C  C25  1  0.93288100  0.25000000  0.99212400  1
  C  C26  1  0.17577000  0.12506300  0.13490000  1
  C  C27  1  0.44759100  0.12591300  0.09862300  1
  C  C28  1  0.53920600  0.65891100  0.63918200  1
  C  C29  1  0.73149400  0.53745400  0.00213400  1
  C  C30  1  0.65919500  0.35927400  0.74450000  1
  C  C31  1  0.55240900  0.87408700  0.90137700  1
  C  C32  1  0.05240900  0.12591300  0.59862300  1
  C  C33  1  0.06711900  0.75000000  0.00787600  1
  C  C34  1  0.32423000  0.12506300  0.63490000  1
  C  C35  1  0.65919500  0.14072600  0.74450000  1
  C  C36  1  0.23149400  0.46254600  0.49786600  1
  C  C37  1  0.94759100  0.87408700  0.40137700  1
  C  C38  1  0.76850600  0.96254600  0.50213400  1
  C  C39  1  0.82423000  0.62506300  0.86510000  1
  C  C40  1  0.12483300  0.25000000  0.41044300  1
  C  C41  1  0.82423000  0.87493700  0.86510000  1
  C  C42  1  0.96079400  0.84108900  0.13918200  1
  C  C43  1  0.46079400  0.34108900  0.36081800  1
  C  C44  1  0.46079400  0.15891100  0.36081800  1
  C  C45  1  0.55240900  0.62591300  0.90137700  1
  C  C46  1  0.53920600  0.84108900  0.63918200  1
  C  C47  1  0.94759100  0.62591300  0.40137700  1
  Ni  Ni48  1  0.29061900  0.12551600  0.05883700  1
  Ni  Ni49  1  0.20938100  0.37448400  0.55883700  1
  Ni  Ni50  1  0.05282800  0.25000000  0.91882400  1
  Ni  Ni51  1  0.70938100  0.62551600  0.94116300  1
  Ni  Ni52  1  0.20938100  0.12551600  0.55883700  1
  Ni  Ni53  1  0.29061900  0.37448400  0.05883700  1
  Ni  Ni54  1  0.70938100  0.87448400  0.94116300  1
  Ni  Ni55  1  0.55282800  0.75000000  0.58117600  1
  Ni  Ni56  1  0.94717200  0.75000000  0.08117600  1
  Ni  Ni57  1  0.79061900  0.62551600  0.44116300  1
  Ni  Ni58  1  0.44717200  0.25000000  0.41882400  1
  Ni  Ni59  1  0.79061900  0.87448400  0.44116300  1
  Cu  Cu60  1  0.23932700  0.25000000  0.48129100  1
  Cu  Cu61  1  0.76067300  0.75000000  0.51870900  1
  Cu  Cu62  1  0.26067300  0.25000000  0.98129100  1
  Cu  Cu63  1  0.73932700  0.75000000  0.01870900  1
  C  C64  1  0.77143900  0.06531500  0.19634400  1
  C  C65  1  0.77143900  0.43468500  0.19634400  1
  C  C66  1  0.06835800  0.75000000  0.69518500  1
  C  C67  1  0.22856100  0.93468500  0.80365600  1
  C  C68  1  0.27143900  0.93468500  0.30365600  1
  C  C69  1  0.56835800  0.25000000  0.80481500  1
  C  C70  1  0.72856100  0.06531500  0.69634400  1
  C  C71  1  0.93164200  0.25000000  0.30481500  1
  C  C72  1  0.27143900  0.56531500  0.30365600  1
  C  C73  1  0.43164200  0.75000000  0.19518500  1
  C  C74  1  0.22856100  0.56531500  0.80365600  1
  C  C75  1  0.72856100  0.43468500  0.69634400  1
