# generated using pymatgen
data_Cu9Ni18C25
_symmetry_space_group_name_H-M   'P 1'
_cell_length_a   13.47599524
_cell_length_b   13.47599524
_cell_length_c   7.67476900
_cell_angle_alpha   90.00000000
_cell_angle_beta   90.00000000
_cell_angle_gamma   119.99999627
_symmetry_Int_Tables_number   1
_chemical_formula_structural   Cu9Ni18C25
_chemical_formula_sum   'Cu18 Ni36 C50'
_cell_volume   1207.02887208
_cell_formula_units_Z   2
loop_
 _symmetry_equiv_pos_site_id
 _symmetry_equiv_pos_as_xyz
  1  'x, y, z'
loop_
 _atom_site_type_symbol
 _atom_site_label
 _atom_site_symmetry_multiplicity
 _atom_site_fract_x
 _atom_site_fract_y
 _atom_site_fract_z
 _atom_site_occupancy
  C  C0  1  0.33333300  0.66666700  0.25000000  1
  C  C1  1  0.66666700  0.33333300  0.75000000  1
  C  C2  1  0.34823800  0.44199300  0.14605700  1
  C  C3  1  0.90624500  0.34823800  0.64605700  1
  C  C4  1  0.44199300  0.09375500  0.64605700  1
  C  C5  1  0.55800700  0.90624500  0.14605700  1
  C  C6  1  0.09375500  0.65176200  0.14605700  1
  C  C7  1  0.65176200  0.55800700  0.64605700  1
  C  C8  1  0.65176200  0.55800700  0.85394300  1
  C  C9  1  0.09375500  0.65176200  0.35394300  1
  C  C10  1  0.55800700  0.90624500  0.35394300  1
  C  C11  1  0.44199300  0.09375500  0.85394300  1
  C  C12  1  0.90624500  0.34823800  0.85394300  1
  C  C13  1  0.34823800  0.44199300  0.35394300  1
  C  C14  1  0.12903000  0.48824100  0.43547900  1
  C  C15  1  0.64078900  0.12903000  0.93547900  1
  C  C16  1  0.48824100  0.35921100  0.93547900  1
  C  C17  1  0.51175900  0.64078900  0.43547900  1
  C  C18  1  0.35921100  0.87097000  0.43547900  1
  C  C19  1  0.87097000  0.51175900  0.93547900  1
  C  C20  1  0.87097000  0.51175900  0.56452100  1
  C  C21  1  0.35921100  0.87097000  0.06452100  1
  C  C22  1  0.51175900  0.64078900  0.06452100  1
  C  C23  1  0.48824100  0.35921100  0.56452100  1
  C  C24  1  0.64078900  0.12903000  0.56452100  1
  C  C25  1  0.12903000  0.48824100  0.06452100  1
  C  C26  1  0.23462900  0.51606400  0.55883100  1
  C  C27  1  0.71856400  0.23462900  0.05883100  1
  C  C28  1  0.51606400  0.28143600  0.05883100  1
  C  C29  1  0.48393600  0.71856400  0.55883100  1
  C  C30  1  0.28143600  0.76537100  0.55883100  1
  C  C31  1  0.76537100  0.48393600  0.05883100  1
  C  C32  1  0.76537100  0.48393600  0.44116900  1
  C  C33  1  0.28143600  0.76537100  0.94116900  1
  C  C34  1  0.48393600  0.71856400  0.94116900  1
  C  C35  1  0.51606400  0.28143600  0.44116900  1
  C  C36  1  0.71856400  0.23462900  0.44116900  1
  C  C37  1  0.23462900  0.51606400  0.94116900  1
  C  C38  1  0.18390400  0.23999700  0.75000000  1
  C  C39  1  0.94390700  0.18390400  0.25000000  1
  C  C40  1  0.23999700  0.05609300  0.25000000  1
  C  C41  1  0.76000300  0.94390700  0.75000000  1
  C  C42  1  0.05609300  0.81609600  0.75000000  1
  C  C43  1  0.81609600  0.76000300  0.25000000  1
  C  C44  1  0.31250800  0.38694000  0.75000000  1
  C  C45  1  0.92556800  0.31250800  0.25000000  1
  C  C46  1  0.38694000  0.07443200  0.25000000  1
  C  C47  1  0.61306000  0.92556800  0.75000000  1
  C  C48  1  0.07443200  0.68749200  0.75000000  1
  C  C49  1  0.68749200  0.61306000  0.25000000  1
  Ni  Ni50  1  0.34646100  0.48338200  0.25000000  1
  Ni  Ni51  1  0.86307900  0.34646100  0.75000000  1
  Ni  Ni52  1  0.48338200  0.13692100  0.75000000  1
  Ni  Ni53  1  0.51661800  0.86307900  0.25000000  1
  Ni  Ni54  1  0.13692100  0.65353900  0.25000000  1
  Ni  Ni55  1  0.65353900  0.51661800  0.75000000  1
  Ni  Ni56  1  0.21005500  0.54487400  0.45880800  1
  Ni  Ni57  1  0.66518100  0.21005500  0.95880800  1
  Ni  Ni58  1  0.54487400  0.33481900  0.95880800  1
  Ni  Ni59  1  0.45512600  0.66518100  0.45880800  1
  Ni  Ni60  1  0.33481900  0.78994500  0.45880800  1
  Ni  Ni61  1  0.78994500  0.45512600  0.95880800  1
  Ni  Ni62  1  0.78994500  0.45512600  0.54119200  1
  Ni  Ni63  1  0.33481900  0.78994500  0.04119200  1
  Ni  Ni64  1  0.45512600  0.66518100  0.04119200  1
  Ni  Ni65  1  0.54487400  0.33481900  0.54119200  1
  Ni  Ni66  1  0.66518100  0.21005500  0.54119200  1
  Ni  Ni67  1  0.21005500  0.54487400  0.04119200  1
  Ni  Ni68  1  0.26256000  0.46216800  0.75000000  1
  Ni  Ni69  1  0.80039200  0.26256000  0.25000000  1
  Ni  Ni70  1  0.46216800  0.19960800  0.25000000  1
  Ni  Ni71  1  0.53783200  0.80039200  0.75000000  1
  Ni  Ni72  1  0.19960800  0.73744000  0.75000000  1
  Ni  Ni73  1  0.73744000  0.53783200  0.25000000  1
  Ni  Ni74  1  0.37284800  0.39200200  0.58877900  1
  Ni  Ni75  1  0.98084600  0.37284800  0.08877900  1
  Ni  Ni76  1  0.39200200  0.01915400  0.08877900  1
  Ni  Ni77  1  0.60799800  0.98084600  0.58877900  1
  Ni  Ni78  1  0.01915400  0.62715200  0.58877900  1
  Ni  Ni79  1  0.62715200  0.60799800  0.08877900  1
  Ni  Ni80  1  0.62715200  0.60799800  0.41122100  1
  Ni  Ni81  1  0.01915400  0.62715200  0.91122100  1
  Ni  Ni82  1  0.60799800  0.98084600  0.91122100  1
  Ni  Ni83  1  0.39200200  0.01915400  0.41122100  1
  Ni  Ni84  1  0.98084600  0.37284800  0.41122100  1
  Ni  Ni85  1  0.37284800  0.39200200  0.91122100  1
  Cu  Cu86  1  0.21627300  0.15996000  0.75000000  1
  Cu  Cu87  1  0.05631300  0.21627300  0.25000000  1
  Cu  Cu88  1  0.15996000  0.94368700  0.25000000  1
  Cu  Cu89  1  0.84004000  0.05631300  0.75000000  1
  Cu  Cu90  1  0.94368700  0.78372700  0.75000000  1
  Cu  Cu91  1  0.78372700  0.84004000  0.25000000  1
  Cu  Cu92  1  0.11947800  0.22552600  0.60690000  1
  Cu  Cu93  1  0.89395200  0.11947800  0.10690000  1
  Cu  Cu94  1  0.22552600  0.10604800  0.10690000  1
  Cu  Cu95  1  0.77447400  0.89395200  0.60690000  1
  Cu  Cu96  1  0.10604800  0.88052200  0.60690000  1
  Cu  Cu97  1  0.88052200  0.77447400  0.10690000  1
  Cu  Cu98  1  0.88052200  0.77447400  0.39310000  1
  Cu  Cu99  1  0.10604800  0.88052200  0.89310000  1
  Cu  Cu100  1  0.77447400  0.89395200  0.89310000  1
  Cu  Cu101  1  0.22552600  0.10604800  0.39310000  1
  Cu  Cu102  1  0.89395200  0.11947800  0.39310000  1
  Cu  Cu103  1  0.11947800  0.22552600  0.89310000  1
