# generated using pymatgen
data_Cu4NiC8
_symmetry_space_group_name_H-M   'P 1'
_cell_length_a   10.98338100
_cell_length_b   8.72729800
_cell_length_c   12.36883222
_cell_angle_alpha   45.50419594
_cell_angle_beta   90.00000000
_cell_angle_gamma   90.00000000
_symmetry_Int_Tables_number   1
_chemical_formula_structural   Cu4NiC8
_chemical_formula_sum   'Cu16 Ni4 C32'
_cell_volume   845.70297598
_cell_formula_units_Z   4
loop_
 _symmetry_equiv_pos_site_id
 _symmetry_equiv_pos_as_xyz
  1  'x, y, z'
loop_
 _atom_site_type_symbol
 _atom_site_label
 _atom_site_symmetry_multiplicity
 _atom_site_fract_x
 _atom_site_fract_y
 _atom_site_fract_z
 _atom_site_occupancy
  Ni  Ni0  1  0.98629800  0.79081800  0.77062800  1
  Ni  Ni1  1  0.48629800  0.20918200  0.72937200  1
  Ni  Ni2  1  0.51370200  0.79081800  0.27062800  1
  Ni  Ni3  1  0.01370200  0.20918200  0.22937200  1
  Cu  Cu4  1  0.63417100  0.06886500  0.77101000  1
  Cu  Cu5  1  0.09805700  0.61396300  0.54921200  1
  Cu  Cu6  1  0.40194300  0.61396300  0.04921200  1
  Cu  Cu7  1  0.57498700  0.43559700  0.16115000  1
  Cu  Cu8  1  0.12851300  0.21496900  0.84261400  1
  Cu  Cu9  1  0.87148700  0.78503100  0.15738600  1
  Cu  Cu10  1  0.36582900  0.93113500  0.22899000  1
  Cu  Cu11  1  0.62851300  0.78503100  0.65738600  1
  Cu  Cu12  1  0.59805700  0.38603700  0.95078800  1
  Cu  Cu13  1  0.90194300  0.38603700  0.45078800  1
  Cu  Cu14  1  0.13417100  0.93113500  0.72899000  1
  Cu  Cu15  1  0.86582900  0.06886500  0.27101000  1
  Cu  Cu16  1  0.92501300  0.43559700  0.66115000  1
  Cu  Cu17  1  0.42501300  0.56440300  0.83885000  1
  Cu  Cu18  1  0.07498700  0.56440300  0.33885000  1
  Cu  Cu19  1  0.37148700  0.21496900  0.34261400  1
  C  C20  1  0.51425100  0.23120300  0.32005500  1
  C  C21  1  0.01425100  0.76879700  0.17994500  1
  C  C22  1  0.68319600  0.56559300  0.80778800  1
  C  C23  1  0.31680400  0.43440700  0.19221200  1
  C  C24  1  0.98574900  0.23120300  0.82005500  1
  C  C25  1  0.48574900  0.76879700  0.67994500  1
  C  C26  1  0.18319600  0.43440700  0.69221200  1
  C  C27  1  0.81680400  0.56559300  0.30778800  1
  C  C28  1  0.17327200  0.84372800  0.87609200  1
  C  C29  1  0.59679700  0.84108100  0.87748900  1
  C  C30  1  0.40320300  0.15891900  0.12251100  1
  C  C31  1  0.20935400  0.87667000  0.66317700  1
  C  C32  1  0.32672800  0.84372800  0.37609200  1
  C  C33  1  0.67327200  0.15627200  0.62390800  1
  C  C34  1  0.79064600  0.12333000  0.33682300  1
  C  C35  1  0.09679700  0.15891900  0.62251100  1
  C  C36  1  0.70935400  0.12333000  0.83682300  1
  C  C37  1  0.82672800  0.15627200  0.12390800  1
  C  C38  1  0.90320300  0.84108100  0.37748900  1
  C  C39  1  0.29064600  0.87667000  0.16317700  1
  C  C40  1  0.57109400  0.87843300  0.14039100  1
  C  C41  1  0.50581000  0.41986600  0.64740100  1
  C  C42  1  0.49419000  0.58013400  0.35259900  1
  C  C43  1  0.42890600  0.12156700  0.85960900  1
  C  C44  1  0.99419000  0.41986600  0.14740100  1
  C  C45  1  0.00581000  0.58013400  0.85259900  1
  C  C46  1  0.91011100  0.80535500  0.84940400  1
  C  C47  1  0.58988900  0.80535500  0.34940400  1
  C  C48  1  0.07109400  0.12156700  0.35960900  1
  C  C49  1  0.92890600  0.87843300  0.64039100  1
  C  C50  1  0.08988900  0.19464500  0.15059600  1
  C  C51  1  0.41011100  0.19464500  0.65059600  1
