# generated using pymatgen
data_Cu19Ni2C7
_symmetry_space_group_name_H-M   'P 1'
_cell_length_a   13.16024882
_cell_length_b   16.21341645
_cell_length_c   22.70485800
_cell_angle_alpha   90.00000000
_cell_angle_beta   90.00000000
_cell_angle_gamma   93.53081658
_symmetry_Int_Tables_number   1
_chemical_formula_structural   Cu19Ni2C7
_chemical_formula_sum   'Cu76 Ni8 C28'
_cell_volume   4835.39854659
_cell_formula_units_Z   4
loop_
 _symmetry_equiv_pos_site_id
 _symmetry_equiv_pos_as_xyz
  1  'x, y, z'
loop_
 _atom_site_type_symbol
 _atom_site_label
 _atom_site_symmetry_multiplicity
 _atom_site_fract_x
 _atom_site_fract_y
 _atom_site_fract_z
 _atom_site_occupancy
  C  C0  1  0.62748260  0.23360694  0.91036184  1
  C  C1  1  0.65505166  0.21821551  0.50425849  1
  C  C2  1  0.75362658  0.69771852  0.88690023  1
  C  C3  1  0.24637342  0.80228148  0.38690023  1
  C  C4  1  0.24637342  0.30228148  0.11309977  1
  C  C5  1  0.37251740  0.76639306  0.08963816  1
  C  C6  1  0.13130712  0.28342573  0.00856375  1
  C  C7  1  0.37251740  0.26639306  0.41036184  1
  C  C8  1  0.65505166  0.71821551  0.99574151  1
  C  C9  1  0.84115280  0.73396238  0.58525992  1
  C  C10  1  0.84115280  0.23396238  0.91474008  1
  C  C11  1  0.25880880  0.92499431  0.79014976  1
  C  C12  1  0.13130712  0.78342573  0.49143625  1
  C  C13  1  0.73887209  0.20792448  0.80665297  1
  C  C14  1  0.26112791  0.79207552  0.19334703  1
  C  C15  1  0.26112791  0.29207552  0.30665297  1
  C  C16  1  0.73887209  0.70792448  0.69334703  1
  C  C17  1  0.15884720  0.26603762  0.41474008  1
  C  C18  1  0.74119120  0.07500569  0.20985024  1
  C  C19  1  0.86869288  0.21657427  0.50856375  1
  C  C20  1  0.86869288  0.71657427  0.99143625  1
  C  C21  1  0.25880880  0.42499431  0.70985024  1
  C  C22  1  0.75362658  0.19771852  0.61309977  1
  C  C23  1  0.34494834  0.78178449  0.49574151  1
  C  C24  1  0.15884720  0.76603762  0.08525992  1
  C  C25  1  0.62748260  0.73360694  0.58963816  1
  C  C26  1  0.74119120  0.57500569  0.29014976  1
  C  C27  1  0.34494834  0.28178449  0.00425849  1
  Ni  Ni28  1  0.76828223  0.82207502  0.94743719  1
  Ni  Ni29  1  0.25514848  0.16383924  0.36341003  1
  Ni  Ni30  1  0.23171777  0.17792498  0.05256281  1
  Ni  Ni31  1  0.76828223  0.32207502  0.55256281  1
  Ni  Ni32  1  0.23171777  0.67792498  0.44743719  1
  Ni  Ni33  1  0.74485152  0.83616076  0.63658997  1
  Ni  Ni34  1  0.74485152  0.33616076  0.86341003  1
  Ni  Ni35  1  0.25514848  0.66383924  0.13658997  1
  Cu  Cu36  1  0.26538313  0.41974232  0.21324650  1
  Cu  Cu37  1  0.23560510  0.26095694  0.71223181  1
  Cu  Cu38  1  0.19319746  0.49718217  0.61257175  1
  Cu  Cu39  1  0.48939288  0.62648898  0.06335656  1
  Cu  Cu40  1  0.45592470  0.64143430  0.52776743  1
  Cu  Cu41  1  0.75793341  0.31818313  0.70680806  1
  Cu  Cu42  1  0.19319746  0.99718217  0.88742825  1
  Cu  Cu43  1  0.02576138  0.12485625  0.44511967  1
  Cu  Cu44  1  0.51060712  0.87351102  0.56335656  1
  Cu  Cu45  1  0.97423862  0.37514375  0.94511967  1
  Cu  Cu46  1  0.26538313  0.91974232  0.28675350  1
  Cu  Cu47  1  0.25273982  0.93424724  0.47200085  1
  Cu  Cu48  1  0.02576138  0.62485625  0.05488033  1
  Cu  Cu49  1  0.52264668  0.20040941  0.80282033  1
  Cu  Cu50  1  0.96714180  0.68040712  0.88397085  1
  Cu  Cu51  1  0.95350124  0.19702901  0.81228165  1
  Cu  Cu52  1  0.54407530  0.35856570  0.47223257  1
  Cu  Cu53  1  0.72893938  0.74646946  0.47920003  1
  Cu  Cu54  1  0.46244866  0.81287894  0.39229037  1
  Cu  Cu55  1  0.55141870  0.57815956  0.33861102  1
  Cu  Cu56  1  0.46244866  0.31287894  0.10770963  1
  Cu  Cu57  1  0.72326322  0.08117833  0.89478598  1
  Cu  Cu58  1  0.24206659  0.18181687  0.20680806  1
  Cu  Cu59  1  0.27106062  0.25353054  0.52079997  1
  Cu  Cu60  1  0.07460622  0.44242777  0.76178130  1
  Cu  Cu61  1  0.76439490  0.23904306  0.21223181  1
  Cu  Cu62  1  0.03285820  0.81959288  0.38397085  1
  Cu  Cu63  1  0.53755134  0.18712106  0.60770963  1
  Cu  Cu64  1  0.25273982  0.43424724  0.02799915  1
  Cu  Cu65  1  0.92539378  0.05757223  0.26178130  1
  Cu  Cu66  1  0.99219160  0.64437632  0.51652807  1
  Cu  Cu67  1  0.72893938  0.24646946  0.02079997  1
  Cu  Cu68  1  0.47735332  0.79959059  0.19717967  1
  Cu  Cu69  1  0.44858130  0.92184044  0.83861102  1
  Cu  Cu70  1  0.80680254  0.50281783  0.38742825  1
  Cu  Cu71  1  0.54407530  0.85856570  0.02776743  1
  Cu  Cu72  1  0.65371197  0.49566671  0.19700917  1
  Cu  Cu73  1  0.52264668  0.70040941  0.69717967  1
  Cu  Cu74  1  0.03285820  0.31959288  0.11602915  1
  Cu  Cu75  1  0.51060712  0.37351102  0.93664344  1
  Cu  Cu76  1  0.95350124  0.69702901  0.68771835  1
  Cu  Cu77  1  0.23560510  0.76095694  0.78776819  1
  Cu  Cu78  1  0.45592470  0.14143430  0.97223257  1
  Cu  Cu79  1  0.97423862  0.87514375  0.55488033  1
  Cu  Cu80  1  0.92539378  0.55757223  0.23821870  1
  Cu  Cu81  1  0.48939288  0.12648898  0.43664344  1
  Cu  Cu82  1  0.23095094  0.77413963  0.60171593  1
  Cu  Cu83  1  0.34628803  0.00433329  0.69700917  1
  Cu  Cu84  1  0.76439490  0.73904306  0.28776819  1
  Cu  Cu85  1  0.96714180  0.18040712  0.61602915  1
  Cu  Cu86  1  0.00780840  0.35562368  0.48347193  1
  Cu  Cu87  1  0.07460622  0.94242777  0.73821870  1
  Cu  Cu88  1  0.73461687  0.08025768  0.71324650  1
  Cu  Cu89  1  0.76904906  0.22586037  0.39828407  1
  Cu  Cu90  1  0.00780840  0.85562368  0.01652807  1
  Cu  Cu91  1  0.23095094  0.27413963  0.89828407  1
  Cu  Cu92  1  0.04649876  0.80297099  0.18771835  1
  Cu  Cu93  1  0.74726018  0.56575276  0.97200085  1
  Cu  Cu94  1  0.27673678  0.41882167  0.39478598  1
  Cu  Cu95  1  0.27106062  0.75353054  0.97920003  1
  Cu  Cu96  1  0.24206659  0.68181687  0.29319194  1
  Cu  Cu97  1  0.80680254  0.00281783  0.11257175  1
  Cu  Cu98  1  0.73461687  0.58025768  0.78675350  1
  Cu  Cu99  1  0.99219160  0.14437632  0.98347193  1
  Cu  Cu100  1  0.44858130  0.42184044  0.66138898  1
  Cu  Cu101  1  0.76904906  0.72586037  0.10171593  1
  Cu  Cu102  1  0.53755134  0.68712106  0.89229037  1
  Cu  Cu103  1  0.47735332  0.29959059  0.30282033  1
  Cu  Cu104  1  0.55141870  0.07815956  0.16138898  1
  Cu  Cu105  1  0.34628803  0.50433329  0.80299083  1
  Cu  Cu106  1  0.72326322  0.58117833  0.60521402  1
  Cu  Cu107  1  0.74726018  0.06575276  0.52799915  1
  Cu  Cu108  1  0.04649876  0.30297099  0.31228165  1
  Cu  Cu109  1  0.27673678  0.91882167  0.10521402  1
  Cu  Cu110  1  0.65371197  0.99566671  0.30299083  1
  Cu  Cu111  1  0.75793341  0.81818313  0.79319194  1
