# generated using pymatgen
data_Cu(Ni2C)3
_symmetry_space_group_name_H-M   'P 1'
_cell_length_a   6.80914200
_cell_length_b   12.06641700
_cell_length_c   25.69676800
_cell_angle_alpha   90.00000000
_cell_angle_beta   90.00000000
_cell_angle_gamma   90.00000000
_symmetry_Int_Tables_number   1
_chemical_formula_structural   Cu(Ni2C)3
_chemical_formula_sum   'Cu12 Ni72 C36'
_cell_volume   2111.29648494
_cell_formula_units_Z   12
loop_
 _symmetry_equiv_pos_site_id
 _symmetry_equiv_pos_as_xyz
  1  'x, y, z'
loop_
 _atom_site_type_symbol
 _atom_site_label
 _atom_site_symmetry_multiplicity
 _atom_site_fract_x
 _atom_site_fract_y
 _atom_site_fract_z
 _atom_site_occupancy
  C  C0  1  0.71185200  0.78639700  0.40979700  1
  C  C1  1  0.71185200  0.28639700  0.09020300  1
  C  C2  1  0.68815600  0.29367900  0.73904700  1
  C  C3  1  0.65040600  0.78801300  0.07690200  1
  C  C4  1  0.31184400  0.29367900  0.23904700  1
  C  C5  1  0.28814800  0.78639700  0.90979700  1
  C  C6  1  0.28814800  0.28639700  0.59020300  1
  C  C7  1  0.31184400  0.79367900  0.26095300  1
  C  C8  1  0.68815600  0.79367900  0.76095300  1
  C  C9  1  0.34959400  0.28801300  0.92309800  1
  C  C10  1  0.65040600  0.28801300  0.42309800  1
  C  C11  1  0.34959400  0.78801300  0.57690200  1
  C  C12  1  0.10144500  0.54170400  0.03885900  1
  C  C13  1  0.10061500  0.49183200  0.37048800  1
  C  C14  1  0.09895300  0.55662000  0.70375100  1
  C  C15  1  0.09895300  0.05662000  0.79624900  1
  C  C16  1  0.10144500  0.04170400  0.46114100  1
  C  C17  1  0.89938500  0.49183200  0.87048800  1
  C  C18  1  0.89855500  0.04170400  0.96114100  1
  C  C19  1  0.90104700  0.05662000  0.29624900  1
  C  C20  1  0.90104700  0.55662000  0.20375100  1
  C  C21  1  0.10061500  0.99183200  0.12951200  1
  C  C22  1  0.89855500  0.54170400  0.53885900  1
  C  C23  1  0.89938500  0.99183200  0.62951200  1
  C  C24  1  0.40409700  0.02800900  0.68147700  1
  C  C25  1  0.40409700  0.52800900  0.81852300  1
  C  C26  1  0.59590300  0.02800900  0.18147700  1
  C  C27  1  0.40784900  0.55018700  0.15304000  1
  C  C28  1  0.59543800  0.04479500  0.51398500  1
  C  C29  1  0.40456200  0.54479500  0.48601500  1
  C  C30  1  0.40784900  0.05018700  0.34696000  1
  C  C31  1  0.59590300  0.52800900  0.31852300  1
  C  C32  1  0.40456200  0.04479500  0.01398500  1
  C  C33  1  0.59543800  0.54479500  0.98601500  1
  C  C34  1  0.59215100  0.05018700  0.84696000  1
  C  C35  1  0.59215100  0.55018700  0.65304000  1
  Ni  Ni36  1  0.09211800  0.69660400  0.72842500  1
  Ni  Ni37  1  0.09397400  0.91500100  0.81908200  1
  Ni  Ni38  1  0.24741400  0.07748800  0.30876400  1
  Ni  Ni39  1  0.10413600  0.14144600  0.13007900  1
  Ni  Ni40  1  0.56063100  0.66304200  0.97917300  1
  Ni  Ni41  1  0.10834400  0.68254900  0.01493700  1
  Ni  Ni42  1  0.24694700  0.48997800  0.85552400  1
  Ni  Ni43  1  0.43936900  0.66304200  0.47917300  1
  Ni  Ni44  1  0.10834400  0.18254900  0.48506300  1
  Ni  Ni45  1  0.08974900  0.90118600  0.43757700  1
  Ni  Ni46  1  0.44209900  0.14621700  0.67581000  1
  Ni  Ni47  1  0.58292600  0.45904400  0.82970500  1
  Ni  Ni48  1  0.75305300  0.98997800  0.14447600  1
  Ni  Ni49  1  0.65414100  0.48853600  0.93633400  1
  Ni  Ni50  1  0.56063100  0.16304200  0.52082700  1
  Ni  Ni51  1  0.41501200  0.48458000  0.00420200  1
  Ni  Ni52  1  0.34585900  0.48853600  0.43633400  1
  Ni  Ni53  1  0.75258600  0.07748800  0.80876400  1
  Ni  Ni54  1  0.41501200  0.98458000  0.49579800  1
  Ni  Ni55  1  0.55177100  0.93167900  0.84793600  1
  Ni  Ni56  1  0.08890600  0.84243100  0.12947300  1
  Ni  Ni57  1  0.65775000  0.99807300  0.23569400  1
  Ni  Ni58  1  0.44822900  0.93167900  0.34793600  1
  Ni  Ni59  1  0.75317500  0.02428200  0.47421800  1
  Ni  Ni60  1  0.09211800  0.19660400  0.77157500  1
  Ni  Ni61  1  0.24741400  0.57748800  0.19123600  1
  Ni  Ni62  1  0.75305300  0.48997800  0.35552400  1
  Ni  Ni63  1  0.65775000  0.49807300  0.26430600  1
  Ni  Ni64  1  0.89586400  0.64144600  0.86992100  1
  Ni  Ni65  1  0.90788200  0.19660400  0.27157500  1
  Ni  Ni66  1  0.43936900  0.16304200  0.02082700  1
  Ni  Ni67  1  0.41707400  0.45904400  0.32970500  1
  Ni  Ni68  1  0.41525000  0.11659600  0.83114000  1
  Ni  Ni69  1  0.58475000  0.11659600  0.33114000  1
  Ni  Ni70  1  0.44209900  0.64621700  0.82419000  1
  Ni  Ni71  1  0.08890600  0.34243100  0.37052700  1
  Ni  Ni72  1  0.58475000  0.61659600  0.16886000  1
  Ni  Ni73  1  0.75258600  0.57748800  0.69123600  1
  Ni  Ni74  1  0.65256300  0.59383700  0.60066800  1
  Ni  Ni75  1  0.34743700  0.09383700  0.39933200  1
  Ni  Ni76  1  0.55790100  0.64621700  0.32419000  1
  Ni  Ni77  1  0.89165600  0.18254900  0.98506300  1
  Ni  Ni78  1  0.90602600  0.91500100  0.31908200  1
  Ni  Ni79  1  0.24682500  0.02428200  0.97421800  1
  Ni  Ni80  1  0.58498800  0.98458000  0.99579800  1
  Ni  Ni81  1  0.24694700  0.98997800  0.64447600  1
  Ni  Ni82  1  0.09397400  0.41500100  0.68091800  1
  Ni  Ni83  1  0.41707400  0.95904400  0.17029500  1
  Ni  Ni84  1  0.65414100  0.98853600  0.56366600  1
  Ni  Ni85  1  0.34743700  0.59383700  0.10066800  1
  Ni  Ni86  1  0.75317500  0.52428200  0.02578200  1
  Ni  Ni87  1  0.90602600  0.41500100  0.18091800  1
  Ni  Ni88  1  0.89586400  0.14144600  0.63007900  1
  Ni  Ni89  1  0.65256300  0.09383700  0.89933200  1
  Ni  Ni90  1  0.34225000  0.49807300  0.76430600  1
  Ni  Ni91  1  0.44822900  0.43167900  0.15206400  1
  Ni  Ni92  1  0.89165600  0.68254900  0.51493700  1
  Ni  Ni93  1  0.58292600  0.95904400  0.67029500  1
  Ni  Ni94  1  0.08974900  0.40118600  0.06242300  1
  Ni  Ni95  1  0.34225000  0.99807300  0.73569400  1
  Ni  Ni96  1  0.91025100  0.40118600  0.56242300  1
  Ni  Ni97  1  0.55177100  0.43167900  0.65206400  1
  Ni  Ni98  1  0.90788200  0.69660400  0.22842500  1
  Ni  Ni99  1  0.10413600  0.64144600  0.36992100  1
  Ni  Ni100  1  0.91109400  0.34243100  0.87052700  1
  Ni  Ni101  1  0.34585900  0.98853600  0.06366600  1
  Ni  Ni102  1  0.41525000  0.61659600  0.66886000  1
  Ni  Ni103  1  0.55790100  0.14621700  0.17581000  1
  Ni  Ni104  1  0.91025100  0.90118600  0.93757700  1
  Ni  Ni105  1  0.58498800  0.48458000  0.50420200  1
  Ni  Ni106  1  0.24682500  0.52428200  0.52578200  1
  Ni  Ni107  1  0.91109400  0.84243100  0.62947300  1
  Cu  Cu108  1  0.05515800  0.48931200  0.95167900  1
  Cu  Cu109  1  0.94395600  0.59996600  0.11535000  1
  Cu  Cu110  1  0.94484200  0.98931200  0.04832100  1
  Cu  Cu111  1  0.05515800  0.98931200  0.54832100  1
  Cu  Cu112  1  0.05749800  0.49862100  0.28031900  1
  Cu  Cu113  1  0.94484200  0.48931200  0.45167900  1
  Cu  Cu114  1  0.94250200  0.49862100  0.78031900  1
  Cu  Cu115  1  0.94250200  0.99862100  0.71968100  1
  Cu  Cu116  1  0.94395600  0.09996600  0.38465000  1
  Cu  Cu117  1  0.05604400  0.09996600  0.88465000  1
  Cu  Cu118  1  0.05749800  0.99862100  0.21968100  1
  Cu  Cu119  1  0.05604400  0.59996600  0.61535000  1
