# generated using pymatgen
data_Cu(NiC3)4
_symmetry_space_group_name_H-M   'P 1'
_cell_length_a   7.33240652
_cell_length_b   7.33240652
_cell_length_c   11.29037200
_cell_angle_alpha   90.00000000
_cell_angle_beta   90.00000000
_cell_angle_gamma   111.76964962
_symmetry_Int_Tables_number   1
_chemical_formula_structural   Cu(NiC3)4
_chemical_formula_sum   'Cu2 Ni8 C24'
_cell_volume   563.72662016
_cell_formula_units_Z   2
loop_
 _symmetry_equiv_pos_site_id
 _symmetry_equiv_pos_as_xyz
  1  'x, y, z'
loop_
 _atom_site_type_symbol
 _atom_site_label
 _atom_site_symmetry_multiplicity
 _atom_site_fract_x
 _atom_site_fract_y
 _atom_site_fract_z
 _atom_site_occupancy
  Ni  Ni0  1  0.48977600  0.51022400  0.00000000  1
  Ni  Ni1  1  0.32733800  0.77411100  0.75000000  1
  Ni  Ni2  1  0.96041300  0.03958700  0.00000000  1
  Ni  Ni3  1  0.22588900  0.67266200  0.25000000  1
  Ni  Ni4  1  0.96041300  0.03958700  0.50000000  1
  Ni  Ni5  1  0.48977600  0.51022400  0.50000000  1
  Ni  Ni6  1  0.75236000  0.76543900  0.25000000  1
  Ni  Ni7  1  0.23456100  0.24764000  0.75000000  1
  Cu  Cu8  1  0.74017500  0.26601700  0.75000000  1
  Cu  Cu9  1  0.73398300  0.25982500  0.25000000  1
  C  C10  1  0.80775800  0.73664000  0.75000000  1
  C  C11  1  0.01906900  0.58698500  0.52705800  1
  C  C12  1  0.26336000  0.19224200  0.25000000  1
  C  C13  1  0.41301500  0.98093100  0.47294200  1
  C  C14  1  0.41301500  0.98093100  0.02705800  1
  C  C15  1  0.01906900  0.58698500  0.97294200  1
  C  C16  1  0.05093700  0.39998200  0.91395400  1
  C  C17  1  0.24481100  0.75518900  0.00000000  1
  C  C18  1  0.30964400  0.07573800  0.36803000  1
  C  C19  1  0.60001800  0.94906300  0.41395400  1
  C  C20  1  0.92426200  0.69035600  0.86803000  1
  C  C21  1  0.44438900  0.11316600  0.59147200  1
  C  C22  1  0.42085900  0.41679700  0.25000000  1
  C  C23  1  0.88683400  0.55561100  0.40852800  1
  C  C24  1  0.88683400  0.55561100  0.09147200  1
  C  C25  1  0.60001800  0.94906300  0.08604600  1
  C  C26  1  0.03290700  0.15533200  0.25000000  1
  C  C27  1  0.24481100  0.75518900  0.50000000  1
  C  C28  1  0.58320300  0.57914100  0.75000000  1
  C  C29  1  0.30964400  0.07573800  0.13197000  1
  C  C30  1  0.44438900  0.11316600  0.90852800  1
  C  C31  1  0.92426200  0.69035600  0.63197000  1
  C  C32  1  0.05093700  0.39998200  0.58604600  1
  C  C33  1  0.84466800  0.96709300  0.75000000  1
