# generated using pymatgen
data_Cu2Ni2C19
_symmetry_space_group_name_H-M   'P 1'
_cell_length_a   9.97804100
_cell_length_b   11.02366000
_cell_length_c   13.09967800
_cell_angle_alpha   90.00000000
_cell_angle_beta   90.00000000
_cell_angle_gamma   90.00000000
_symmetry_Int_Tables_number   1
_chemical_formula_structural   Cu2Ni2C19
_chemical_formula_sum   'Cu8 Ni8 C76'
_cell_volume   1440.89294376
_cell_formula_units_Z   4
loop_
 _symmetry_equiv_pos_site_id
 _symmetry_equiv_pos_as_xyz
  1  'x, y, z'
loop_
 _atom_site_type_symbol
 _atom_site_label
 _atom_site_symmetry_multiplicity
 _atom_site_fract_x
 _atom_site_fract_y
 _atom_site_fract_z
 _atom_site_occupancy
  C  C0  1  0.50000000  0.00000000  0.50000000  1
  C  C1  1  0.50000000  0.50000000  0.00000000  1
  C  C2  1  0.00000000  0.00000000  0.00000000  1
  C  C3  1  0.00000000  0.50000000  0.50000000  1
  C  C4  1  0.27332800  0.42298400  0.80611100  1
  C  C5  1  0.72667200  0.07701600  0.30611100  1
  C  C6  1  0.22667200  0.92298400  0.19388900  1
  C  C7  1  0.72667200  0.57701600  0.19388900  1
  C  C8  1  0.22667200  0.42298400  0.30611100  1
  C  C9  1  0.27332800  0.92298400  0.69388900  1
  C  C10  1  0.77332800  0.57701600  0.69388900  1
  C  C11  1  0.77332800  0.07701600  0.80611100  1
  Ni  Ni12  1  0.64666100  0.73780300  0.02212100  1
  Ni  Ni13  1  0.35333900  0.76219700  0.52212100  1
  Ni  Ni14  1  0.14666100  0.76219700  0.02212100  1
  Ni  Ni15  1  0.14666100  0.26219700  0.47787900  1
  Ni  Ni16  1  0.35333900  0.26219700  0.97787900  1
  Ni  Ni17  1  0.64666100  0.23780300  0.47787900  1
  Ni  Ni18  1  0.85333900  0.23780300  0.97787900  1
  Ni  Ni19  1  0.85333900  0.73780300  0.52212100  1
  Cu  Cu20  1  0.37115800  0.37686400  0.93216500  1
  Cu  Cu21  1  0.12884200  0.87686400  0.06783500  1
  Cu  Cu22  1  0.87115800  0.12313600  0.93216500  1
  Cu  Cu23  1  0.62884200  0.62313600  0.06783500  1
  Cu  Cu24  1  0.12884200  0.37686400  0.43216500  1
  Cu  Cu25  1  0.37115800  0.87686400  0.56783500  1
  Cu  Cu26  1  0.87115800  0.62313600  0.56783500  1
  Cu  Cu27  1  0.62884200  0.12313600  0.43216500  1
  C  C28  1  0.17469300  0.27839500  0.79667400  1
  C  C29  1  0.90337300  0.64142200  0.78188200  1
  C  C30  1  0.88686500  0.33263900  0.91614400  1
  C  C31  1  0.67469300  0.72160500  0.70332600  1
  C  C32  1  0.13282600  0.07162200  0.19082200  1
  C  C33  1  0.27614800  0.74043100  0.99101400  1
  C  C34  1  0.61313500  0.33263900  0.41614400  1
  C  C35  1  0.13160000  0.99576400  0.62214300  1
  C  C36  1  0.72385200  0.25956900  0.00898600  1
  C  C37  1  0.36840000  0.49576400  0.37785700  1
  C  C38  1  0.09662700  0.35857800  0.21811800  1
  C  C39  1  0.86717400  0.42837800  0.69082200  1
  C  C40  1  0.32530700  0.77839500  0.20332600  1
  C  C41  1  0.90337300  0.14142200  0.71811800  1
  C  C42  1  0.22385200  0.24043100  0.00898600  1
  C  C43  1  0.82530700  0.22160500  0.29667400  1
  C  C44  1  0.11313500  0.66736100  0.08385600  1
  C  C45  1  0.93232700  0.24383300  0.06274400  1
  C  C46  1  0.63160000  0.00423600  0.87785700  1
  C  C47  1  0.67469300  0.22160500  0.79667400  1
  C  C48  1  0.63282600  0.42837800  0.19082200  1
  C  C49  1  0.86840000  0.00423600  0.37785700  1
  C  C50  1  0.63160000  0.50423600  0.62214300  1
  C  C51  1  0.59662700  0.14142200  0.21811800  1
  C  C52  1  0.88686500  0.83263900  0.58385600  1
  C  C53  1  0.59662700  0.64142200  0.28188200  1
  C  C54  1  0.93232700  0.74383300  0.43725600  1
  C  C55  1  0.22385200  0.74043100  0.49101400  1
  C  C56  1  0.18657800  0.47804600  0.68686800  1
  C  C57  1  0.61313500  0.83263900  0.08385600  1
  C  C58  1  0.06767300  0.25616700  0.56274400  1
  C  C59  1  0.68657800  0.52195400  0.81313200  1
  C  C60  1  0.11313500  0.16736100  0.41614400  1
  C  C61  1  0.38686500  0.16736100  0.91614400  1
  C  C62  1  0.68657800  0.02195400  0.68686800  1
  C  C63  1  0.31342200  0.97804600  0.31313200  1
  C  C64  1  0.77614800  0.75956900  0.99101400  1
  C  C65  1  0.86717400  0.92837800  0.80917800  1
  C  C66  1  0.06767300  0.75616700  0.93725600  1
  C  C67  1  0.86840000  0.50423600  0.12214300  1
  C  C68  1  0.13160000  0.49576400  0.87785700  1
  C  C69  1  0.77614800  0.25956900  0.50898600  1
  C  C70  1  0.18657800  0.97804600  0.81313200  1
  C  C71  1  0.27614800  0.24043100  0.50898600  1
  C  C72  1  0.32530700  0.27839500  0.29667400  1
  C  C73  1  0.17469300  0.77839500  0.70332600  1
  C  C74  1  0.56767300  0.24383300  0.56274400  1
  C  C75  1  0.63282600  0.92837800  0.30917800  1
  C  C76  1  0.56767300  0.74383300  0.93725600  1
  C  C77  1  0.40337300  0.35857800  0.71811800  1
  C  C78  1  0.09662700  0.85857800  0.28188200  1
  C  C79  1  0.36840000  0.99576400  0.12214300  1
  C  C80  1  0.40337300  0.85857800  0.78188200  1
  C  C81  1  0.36717400  0.57162200  0.80917800  1
  C  C82  1  0.82530700  0.72160500  0.20332600  1
  C  C83  1  0.43232700  0.75616700  0.43725600  1
  C  C84  1  0.81342200  0.52195400  0.31313200  1
  C  C85  1  0.38686500  0.66736100  0.58385600  1
  C  C86  1  0.36717400  0.07162200  0.69082200  1
  C  C87  1  0.31342200  0.47804600  0.18686800  1
  C  C88  1  0.72385200  0.75956900  0.49101400  1
  C  C89  1  0.43232700  0.25616700  0.06274400  1
  C  C90  1  0.81342200  0.02195400  0.18686800  1
  C  C91  1  0.13282600  0.57162200  0.30917800  1
