# generated using pymatgen
data_Cu2Ni2C9
_symmetry_space_group_name_H-M   'P 1'
_cell_length_a   7.86720900
_cell_length_b   8.92748400
_cell_length_c   12.16763638
_cell_angle_alpha   75.54280134
_cell_angle_beta   90.00000000
_cell_angle_gamma   90.00000000
_symmetry_Int_Tables_number   1
_chemical_formula_structural   Cu2Ni2C9
_chemical_formula_sum   'Cu8 Ni8 C36'
_cell_volume   827.52544421
_cell_formula_units_Z   4
loop_
 _symmetry_equiv_pos_site_id
 _symmetry_equiv_pos_as_xyz
  1  'x, y, z'
loop_
 _atom_site_type_symbol
 _atom_site_label
 _atom_site_symmetry_multiplicity
 _atom_site_fract_x
 _atom_site_fract_y
 _atom_site_fract_z
 _atom_site_occupancy
  C  C0  1  0.37211000  0.46695100  0.12696600  1
  C  C1  1  0.37451100  0.94670400  0.65136300  1
  C  C2  1  0.62548900  0.05329600  0.34863700  1
  C  C3  1  0.87451100  0.05329600  0.84863700  1
  C  C4  1  0.87211000  0.53304900  0.37303400  1
  C  C5  1  0.12789000  0.46695100  0.62696600  1
  C  C6  1  0.12548900  0.94670400  0.15136300  1
  C  C7  1  0.62789000  0.53304900  0.87303400  1
  Ni  Ni8  1  0.56897300  0.31466900  0.63336000  1
  Ni  Ni9  1  0.12152000  0.15439300  0.38566200  1
  Ni  Ni10  1  0.62152000  0.84560700  0.11433800  1
  Ni  Ni11  1  0.37848000  0.15439300  0.88566200  1
  Ni  Ni12  1  0.06897300  0.68533100  0.86664000  1
  Ni  Ni13  1  0.87848000  0.84560700  0.61433800  1
  Ni  Ni14  1  0.93102700  0.31466900  0.13336000  1
  Ni  Ni15  1  0.43102700  0.68533100  0.36664000  1
  Cu  Cu16  1  0.09216700  0.34546500  0.91297700  1
  Cu  Cu17  1  0.62938800  0.18487600  0.06082600  1
  Cu  Cu18  1  0.40783300  0.34546500  0.41297700  1
  Cu  Cu19  1  0.37061200  0.81512400  0.93917400  1
  Cu  Cu20  1  0.87061200  0.18487600  0.56082600  1
  Cu  Cu21  1  0.90783300  0.65453500  0.08702300  1
  Cu  Cu22  1  0.59216700  0.65453500  0.58702300  1
  Cu  Cu23  1  0.12938800  0.81512400  0.43917400  1
  C  C24  1  0.99107200  0.51618700  0.13412000  1
  C  C25  1  0.80692600  0.71607300  0.15842200  1
  C  C26  1  0.00892800  0.48381300  0.86588000  1
  C  C27  1  0.21415300  0.95508000  0.41863000  1
  C  C28  1  0.02773200  0.21279500  0.50920700  1
  C  C29  1  0.53423800  0.17626500  0.77072100  1
  C  C30  1  0.49107200  0.48381300  0.36588000  1
  C  C31  1  0.52773200  0.78720500  0.99079300  1
  C  C32  1  0.20147900  0.69085300  0.40573300  1
  C  C33  1  0.50892800  0.51618700  0.63412000  1
  C  C34  1  0.71415300  0.04492000  0.08137000  1
  C  C35  1  0.79852100  0.30914700  0.59426700  1
  C  C36  1  0.19307400  0.28392700  0.84157800  1
  C  C37  1  0.96576200  0.17626500  0.27072100  1
  C  C38  1  0.30692600  0.28392700  0.34157800  1
  C  C39  1  0.47226800  0.21279500  0.00920700  1
  C  C40  1  0.43228200  0.26065700  0.52342900  1
  C  C41  1  0.29852100  0.69085300  0.90573300  1
  C  C42  1  0.97226800  0.78720500  0.49079300  1
  C  C43  1  0.69307400  0.71607300  0.65842200  1
  C  C44  1  0.56771800  0.73934300  0.47657100  1
  C  C45  1  0.46576200  0.82373500  0.22927900  1
  C  C46  1  0.28584700  0.95508000  0.91863000  1
  C  C47  1  0.06771800  0.26065700  0.02342900  1
  C  C48  1  0.70147900  0.30914700  0.09426700  1
  C  C49  1  0.78584700  0.04492000  0.58137000  1
  C  C50  1  0.93228200  0.73934300  0.97657100  1
  C  C51  1  0.03423800  0.82373500  0.72927900  1
