# generated using pymatgen
data_Cu25Ni21
_symmetry_space_group_name_H-M   'P 1'
_cell_length_a   15.27741473
_cell_length_b   15.27741473
_cell_length_c   15.27741519
_cell_angle_alpha   116.38836935
_cell_angle_beta   116.38836935
_cell_angle_gamma   116.38836968
_symmetry_Int_Tables_number   1
_chemical_formula_structural   Cu25Ni21
_chemical_formula_sum   'Cu50 Ni42'
_cell_volume   1716.71055734
_cell_formula_units_Z   2
loop_
 _symmetry_equiv_pos_site_id
 _symmetry_equiv_pos_as_xyz
  1  'x, y, z'
loop_
 _atom_site_type_symbol
 _atom_site_label
 _atom_site_symmetry_multiplicity
 _atom_site_fract_x
 _atom_site_fract_y
 _atom_site_fract_z
 _atom_site_occupancy
  Ni  Ni0  1  0.55033000  0.31933600  0.43532300  1
  Ni  Ni1  1  0.05435100  0.75000000  0.44564900  1
  Ni  Ni2  1  0.31538000  0.54815100  0.77401300  1
  Ni  Ni3  1  0.45573800  0.36139400  0.93781100  1
  Ni  Ni4  1  0.27401300  0.04815100  0.81538000  1
  Ni  Ni5  1  0.95573800  0.43781100  0.86139400  1
  Ni  Ni6  1  0.63860600  0.06218900  0.54426200  1
  Ni  Ni7  1  0.54815100  0.77401300  0.31538000  1
  Ni  Ni8  1  0.13860600  0.04426200  0.56218900  1
  Ni  Ni9  1  0.43781100  0.86139400  0.95573800  1
  Ni  Ni10  1  0.43532300  0.55033000  0.31933600  1
  Ni  Ni11  1  0.94564900  0.25000000  0.55435100  1
  Ni  Ni12  1  0.93781100  0.45573800  0.36139400  1
  Ni  Ni13  1  0.77401300  0.31538000  0.54815100  1
  Ni  Ni14  1  0.36139400  0.93781100  0.45573800  1
  Ni  Ni15  1  0.18066400  0.94967000  0.06467700  1
  Ni  Ni16  1  0.81538000  0.27401300  0.04815100  1
  Ni  Ni17  1  0.06218900  0.54426200  0.63860600  1
  Ni  Ni18  1  0.68462000  0.45184900  0.22598700  1
  Ni  Ni19  1  0.54426200  0.63860600  0.06218900  1
  Ni  Ni20  1  0.55435100  0.94564900  0.25000000  1
  Ni  Ni21  1  0.18462000  0.72598700  0.95184900  1
  Ni  Ni22  1  0.04815100  0.81538000  0.27401300  1
  Ni  Ni23  1  0.06467700  0.18066400  0.94967000  1
  Ni  Ni24  1  0.68066400  0.56467700  0.44967000  1
  Ni  Ni25  1  0.31933600  0.43532300  0.55033000  1
  Ni  Ni26  1  0.04426300  0.56218900  0.13860600  1
  Ni  Ni27  1  0.95184900  0.18462000  0.72598700  1
  Ni  Ni28  1  0.56467700  0.44967000  0.68066400  1
  Ni  Ni29  1  0.44967000  0.68066400  0.56467700  1
  Ni  Ni30  1  0.72598700  0.95184900  0.18462000  1
  Ni  Ni31  1  0.86139400  0.95573800  0.43781100  1
  Ni  Ni32  1  0.25000000  0.55435100  0.94564900  1
  Ni  Ni33  1  0.75000000  0.44564900  0.05435100  1
  Ni  Ni34  1  0.93532300  0.81933600  0.05033000  1
  Ni  Ni35  1  0.45184900  0.22598700  0.68462000  1
  Ni  Ni36  1  0.44564900  0.05435100  0.75000000  1
  Ni  Ni37  1  0.94967000  0.06467700  0.18066400  1
  Ni  Ni38  1  0.81933600  0.05033000  0.93532300  1
  Ni  Ni39  1  0.05033000  0.93532300  0.81933600  1
  Ni  Ni40  1  0.22598700  0.68462000  0.45184900  1
  Ni  Ni41  1  0.56218900  0.13860600  0.04426200  1
  Cu  Cu42  1  0.68895000  0.57205800  0.98171200  1
  Cu  Cu43  1  0.88536400  0.88190800  0.23551600  1
  Cu  Cu44  1  0.31105000  0.42794200  0.01828800  1
  Cu  Cu45  1  0.73551600  0.38190800  0.38536400  1
  Cu  Cu46  1  0.42794200  0.01828800  0.31105000  1
  Cu  Cu47  1  0.63270100  0.69392700  0.92982400  1
  Cu  Cu48  1  0.07205800  0.18895000  0.48171200  1
  Cu  Cu49  1  0.38536400  0.73551600  0.38190800  1
  Cu  Cu50  1  0.75000000  0.19469900  0.30530100  1
  Cu  Cu51  1  0.07017600  0.36729900  0.30607300  1
  Cu  Cu52  1  0.36729900  0.30607300  0.07017600  1
  Cu  Cu53  1  0.81071100  0.68928900  0.75000000  1
  Cu  Cu54  1  0.57205800  0.98171200  0.68895000  1
  Cu  Cu55  1  0.18928900  0.31071100  0.25000000  1
  Cu  Cu56  1  0.26448400  0.61809200  0.61463600  1
  Cu  Cu57  1  0.81105000  0.51828800  0.92794200  1
  Cu  Cu58  1  0.92982400  0.63270100  0.69392700  1
  Cu  Cu59  1  0.19469900  0.30530100  0.75000000  1
  Cu  Cu60  1  0.42982400  0.19392700  0.13270100  1
  Cu  Cu61  1  0.76448400  0.11463600  0.11809200  1
  Cu  Cu62  1  0.92794200  0.81105000  0.51828800  1
  Cu  Cu63  1  0.57017600  0.80607300  0.86729900  1
  Cu  Cu64  1  0.69392700  0.92982400  0.63270100  1
  Cu  Cu65  1  0.11809200  0.76448400  0.11463600  1
  Cu  Cu66  1  0.61809200  0.61463600  0.26448400  1
  Cu  Cu67  1  0.13270100  0.42982400  0.19392700  1
  Cu  Cu68  1  0.86729900  0.57017600  0.80607300  1
  Cu  Cu69  1  0.19392700  0.13270100  0.42982400  1
  Cu  Cu70  1  0.30607300  0.07017600  0.36729900  1
  Cu  Cu71  1  0.88190800  0.23551600  0.88536400  1
  Cu  Cu72  1  0.51828800  0.92794200  0.81105000  1
  Cu  Cu73  1  0.50000000  0.50000000  0.50000000  1
  Cu  Cu74  1  0.00000000  0.00000000  0.00000000  1
  Cu  Cu75  1  0.25000000  0.18928900  0.31071100  1
  Cu  Cu76  1  0.30530100  0.75000000  0.19469900  1
  Cu  Cu77  1  0.31071100  0.25000000  0.18928900  1
  Cu  Cu78  1  0.23551600  0.88536400  0.88190800  1
  Cu  Cu79  1  0.75000000  0.81071100  0.68928900  1
  Cu  Cu80  1  0.11463600  0.11809200  0.76448400  1
  Cu  Cu81  1  0.01828800  0.31105000  0.42794200  1
  Cu  Cu82  1  0.68928900  0.75000000  0.81071100  1
  Cu  Cu83  1  0.61463600  0.26448400  0.61809200  1
  Cu  Cu84  1  0.38190800  0.38536400  0.73551600  1
  Cu  Cu85  1  0.48171200  0.07205800  0.18895000  1
  Cu  Cu86  1  0.69469900  0.25000000  0.80530100  1
  Cu  Cu87  1  0.25000000  0.80530100  0.69469900  1
  Cu  Cu88  1  0.80530100  0.69469900  0.25000000  1
  Cu  Cu89  1  0.18895000  0.48171200  0.07205800  1
  Cu  Cu90  1  0.80607300  0.86729900  0.57017600  1
  Cu  Cu91  1  0.98171200  0.68895000  0.57205800  1
