# generated using pymatgen
data_Cu3(Ni2C)2
_symmetry_space_group_name_H-M   'P 1'
_cell_length_a   21.38813430
_cell_length_b   21.38813430
_cell_length_c   21.38813430
_cell_angle_alpha   167.88168362
_cell_angle_beta   167.88168362
_cell_angle_gamma   17.17013822
_symmetry_Int_Tables_number   1
_chemical_formula_structural   Cu3(Ni2C)2
_chemical_formula_sum   'Cu6 Ni8 C4'
_cell_volume   431.16631975
_cell_formula_units_Z   2
loop_
 _symmetry_equiv_pos_site_id
 _symmetry_equiv_pos_as_xyz
  1  'x, y, z'
loop_
 _atom_site_type_symbol
 _atom_site_label
 _atom_site_symmetry_multiplicity
 _atom_site_fract_x
 _atom_site_fract_y
 _atom_site_fract_z
 _atom_site_occupancy
  C  C0  1  0.81252400  0.81252400  0.00000000  1
  C  C1  1  0.18747600  0.18747600  0.00000000  1
  C  C2  1  0.94451500  0.94451500  0.00000000  1
  C  C3  1  0.05548500  0.05548500  0.00000000  1
  Ni  Ni4  1  0.61822200  0.11822200  0.50000000  1
  Ni  Ni5  1  0.71558100  0.71558100  0.00000000  1
  Ni  Ni6  1  0.88177800  0.38177800  0.50000000  1
  Ni  Ni7  1  0.53724200  0.53724200  0.00000000  1
  Ni  Ni8  1  0.38177800  0.88177800  0.50000000  1
  Ni  Ni9  1  0.46275800  0.46275800  0.00000000  1
  Ni  Ni10  1  0.11822200  0.61822200  0.50000000  1
  Ni  Ni11  1  0.28441900  0.28441900  0.00000000  1
  Cu  Cu12  1  0.65391700  0.65391700  0.00000000  1
  Cu  Cu13  1  0.75000000  0.25000000  0.50000000  1
  Cu  Cu14  1  0.25000000  0.75000000  0.50000000  1
  Cu  Cu15  1  0.34608300  0.34608300  0.00000000  1
  Cu  Cu16  1  0.50000000  0.00000000  0.50000000  1
  Cu  Cu17  1  0.00000000  0.50000000  0.50000000  1
