# generated using pymatgen
data_CuNiC11
_symmetry_space_group_name_H-M   'P 1'
_cell_length_a   18.01440000
_cell_length_b   5.79558600
_cell_length_c   9.47184875
_cell_angle_alpha   53.38691726
_cell_angle_beta   90.00000000
_cell_angle_gamma   90.00000000
_symmetry_Int_Tables_number   1
_chemical_formula_structural   CuNiC11
_chemical_formula_sum   'Cu4 Ni4 C44'
_cell_volume   793.77069965
_cell_formula_units_Z   4
loop_
 _symmetry_equiv_pos_site_id
 _symmetry_equiv_pos_as_xyz
  1  'x, y, z'
loop_
 _atom_site_type_symbol
 _atom_site_label
 _atom_site_symmetry_multiplicity
 _atom_site_fract_x
 _atom_site_fract_y
 _atom_site_fract_z
 _atom_site_occupancy
  C  C0  1  0.96392400  0.95286200  0.80229800  1
  C  C1  1  0.46392400  0.04713800  0.69770200  1
  C  C2  1  0.03607600  0.04713800  0.19770200  1
  C  C3  1  0.53607600  0.95286200  0.30229800  1
  C  C4  1  0.71731400  0.21127800  0.57150600  1
  C  C5  1  0.21731400  0.78872200  0.92849400  1
  C  C6  1  0.28268600  0.78872200  0.42849400  1
  C  C7  1  0.78268600  0.21127800  0.07150600  1
  Ni  Ni8  1  0.62570200  0.64715300  0.08768300  1
  Ni  Ni9  1  0.12570200  0.35284700  0.41231700  1
  Ni  Ni10  1  0.37429800  0.35284700  0.91231700  1
  Ni  Ni11  1  0.87429800  0.64715300  0.58768300  1
  Cu  Cu12  1  0.91285900  0.45975200  0.27147600  1
  Cu  Cu13  1  0.41285900  0.54024800  0.22852400  1
  Cu  Cu14  1  0.08714100  0.54024800  0.72852400  1
  Cu  Cu15  1  0.58714100  0.45975200  0.77147600  1
  C  C16  1  0.58526200  0.89586200  0.60123900  1
  C  C17  1  0.08526200  0.10413800  0.89876100  1
  C  C18  1  0.41473800  0.10413800  0.39876100  1
  C  C19  1  0.91473800  0.89586200  0.10123900  1
  C  C20  1  0.80549300  0.39196300  0.29587900  1
  C  C21  1  0.30549300  0.60803700  0.20412100  1
  C  C22  1  0.19450700  0.60803700  0.70412100  1
  C  C23  1  0.69450700  0.39196300  0.79587900  1
  C  C24  1  0.70927700  0.75471600  0.93526200  1
  C  C25  1  0.20927700  0.24528400  0.56473800  1
  C  C26  1  0.29072300  0.24528400  0.06473800  1
  C  C27  1  0.79072300  0.75471600  0.43526200  1
  C  C28  1  0.53293000  0.51558500  0.24061200  1
  C  C29  1  0.03293000  0.48441500  0.25938800  1
  C  C30  1  0.46707000  0.48441500  0.75938800  1
  C  C31  1  0.96707000  0.51558500  0.74061200  1
  C  C32  1  0.91792300  0.43161800  0.06843100  1
  C  C33  1  0.41792300  0.56838200  0.43156900  1
  C  C34  1  0.08207700  0.56838200  0.93156900  1
  C  C35  1  0.58207700  0.43161800  0.56843100  1
  C  C36  1  0.83463100  0.78869200  0.71285300  1
  C  C37  1  0.33463100  0.21130800  0.78714700  1
  C  C38  1  0.16536900  0.21130800  0.28714700  1
  C  C39  1  0.66536900  0.78869200  0.21285300  1
  C  C40  1  0.66378000  0.26043400  0.25961100  1
  C  C41  1  0.16378000  0.73956600  0.24038900  1
  C  C42  1  0.33622000  0.73956600  0.74038900  1
  C  C43  1  0.83622000  0.26043400  0.75961100  1
  C  C44  1  0.92347000  0.47558300  0.48191600  1
  C  C45  1  0.42347000  0.52441700  0.01808400  1
  C  C46  1  0.07653000  0.52441700  0.51808400  1
  C  C47  1  0.57653000  0.47558300  0.98191600  1
  C  C48  1  0.57103500  0.00800300  0.92770100  1
  C  C49  1  0.07103500  0.99199700  0.57229900  1
  C  C50  1  0.42896500  0.99199700  0.07229900  1
  C  C51  1  0.92896500  0.00800300  0.42770100  1
