# generated using pymatgen
data_Cu3NiC6
_symmetry_space_group_name_H-M   'P 1'
_cell_length_a   15.33175100
_cell_length_b   7.71704000
_cell_length_c   7.72470242
_cell_angle_alpha   60.53722996
_cell_angle_beta   90.00000000
_cell_angle_gamma   90.00000000
_symmetry_Int_Tables_number   1
_chemical_formula_structural   Cu3NiC6
_chemical_formula_sum   'Cu12 Ni4 C24'
_cell_volume   795.75720869
_cell_formula_units_Z   4
loop_
 _symmetry_equiv_pos_site_id
 _symmetry_equiv_pos_as_xyz
  1  'x, y, z'
loop_
 _atom_site_type_symbol
 _atom_site_label
 _atom_site_symmetry_multiplicity
 _atom_site_fract_x
 _atom_site_fract_y
 _atom_site_fract_z
 _atom_site_occupancy
  Ni  Ni0  1  0.40246400  0.37911000  0.39497500  1
  Ni  Ni1  1  0.90246400  0.62089000  0.10502500  1
  Ni  Ni2  1  0.59753600  0.62089000  0.60502500  1
  Ni  Ni3  1  0.09753600  0.37911000  0.89497500  1
  Cu  Cu4  1  0.36288800  0.88937400  0.42080800  1
  Cu  Cu5  1  0.86288800  0.11062600  0.07919200  1
  Cu  Cu6  1  0.54415100  0.17183900  0.12962400  1
  Cu  Cu7  1  0.83619200  0.59926700  0.60870700  1
  Cu  Cu8  1  0.04415100  0.82816100  0.37037600  1
  Cu  Cu9  1  0.66380800  0.59926700  0.10870700  1
  Cu  Cu10  1  0.63711200  0.11062600  0.57919200  1
  Cu  Cu11  1  0.95584900  0.17183900  0.62962400  1
  Cu  Cu12  1  0.33619200  0.40073300  0.89129300  1
  Cu  Cu13  1  0.13711200  0.88937400  0.92080800  1
  Cu  Cu14  1  0.16380800  0.40073300  0.39129300  1
  Cu  Cu15  1  0.45584900  0.82816100  0.87037600  1
  C  C16  1  0.60004700  0.93174600  0.92924500  1
  C  C17  1  0.10004700  0.06825400  0.57075500  1
  C  C18  1  0.81668400  0.24241500  0.73757000  1
  C  C19  1  0.68331600  0.24241500  0.23757000  1
  C  C20  1  0.31668400  0.75758500  0.76243000  1
  C  C21  1  0.18331600  0.75758500  0.26243000  1
  C  C22  1  0.39995300  0.06825400  0.07075500  1
  C  C23  1  0.89995300  0.93174600  0.42924500  1
  C  C24  1  0.53976600  0.82505600  0.45701200  1
  C  C25  1  0.81066000  0.68984400  0.17539000  1
  C  C26  1  0.12475400  0.50551200  0.01059700  1
  C  C27  1  0.37524600  0.50551200  0.51059700  1
  C  C28  1  0.87524600  0.49448800  0.98940300  1
  C  C29  1  0.62475400  0.49448800  0.48940300  1
  C  C30  1  0.96282100  0.48299800  0.30629700  1
  C  C31  1  0.53717900  0.48299800  0.80629700  1
  C  C32  1  0.46282100  0.51700200  0.19370300  1
  C  C33  1  0.03717900  0.51700200  0.69370300  1
  C  C34  1  0.68934000  0.68984400  0.67539000  1
  C  C35  1  0.18934000  0.31015600  0.82461000  1
  C  C36  1  0.31066000  0.31015600  0.32461000  1
  C  C37  1  0.96023400  0.82505600  0.95701200  1
  C  C38  1  0.46023400  0.17494400  0.54298800  1
  C  C39  1  0.03976600  0.17494400  0.04298800  1
