# generated using pymatgen
data_Cu2Ni2C
_symmetry_space_group_name_H-M   'P 1'
_cell_length_a   5.64072800
_cell_length_b   9.31866000
_cell_length_c   13.93470200
_cell_angle_alpha   90.00000000
_cell_angle_beta   90.00000000
_cell_angle_gamma   90.00000000
_symmetry_Int_Tables_number   1
_chemical_formula_structural   Cu2Ni2C
_chemical_formula_sum   'Cu16 Ni16 C8'
_cell_volume   732.46404359
_cell_formula_units_Z   8
loop_
 _symmetry_equiv_pos_site_id
 _symmetry_equiv_pos_as_xyz
  1  'x, y, z'
loop_
 _atom_site_type_symbol
 _atom_site_label
 _atom_site_symmetry_multiplicity
 _atom_site_fract_x
 _atom_site_fract_y
 _atom_site_fract_z
 _atom_site_occupancy
  C  C0  1  0.41322900  0.25000000  0.08420800  1
  C  C1  1  0.58677100  0.25000000  0.58420800  1
  C  C2  1  0.41322900  0.75000000  0.41579200  1
  C  C3  1  0.58677100  0.75000000  0.91579200  1
  C  C4  1  0.81231700  0.25000000  0.37736000  1
  C  C5  1  0.18768300  0.25000000  0.87736000  1
  C  C6  1  0.81231700  0.75000000  0.12264000  1
  C  C7  1  0.18768300  0.75000000  0.62264000  1
  Ni  Ni8  1  0.63693900  0.90427400  0.12315700  1
  Ni  Ni9  1  0.98758800  0.75000000  0.22533900  1
  Ni  Ni10  1  0.36306100  0.90427400  0.62315700  1
  Ni  Ni11  1  0.96999300  0.75000000  0.53448700  1
  Ni  Ni12  1  0.63693900  0.09572600  0.37684300  1
  Ni  Ni13  1  0.01241200  0.75000000  0.72533900  1
  Ni  Ni14  1  0.36306100  0.40427400  0.87684300  1
  Ni  Ni15  1  0.36306100  0.09572600  0.87684300  1
  Ni  Ni16  1  0.36306100  0.59572600  0.62315700  1
  Ni  Ni17  1  0.63693900  0.59572600  0.12315700  1
  Ni  Ni18  1  0.63693900  0.40427400  0.37684300  1
  Ni  Ni19  1  0.96999300  0.25000000  0.96551300  1
  Ni  Ni20  1  0.98758800  0.25000000  0.27466100  1
  Ni  Ni21  1  0.01241200  0.25000000  0.77466100  1
  Ni  Ni22  1  0.03000700  0.25000000  0.46551300  1
  Ni  Ni23  1  0.03000700  0.75000000  0.03448700  1
  Cu  Cu24  1  0.11644300  0.25000000  0.20853200  1
  Cu  Cu25  1  0.19180400  0.75000000  0.98122200  1
  Cu  Cu26  1  0.52137800  0.99077900  0.37446600  1
  Cu  Cu27  1  0.47862200  0.99077900  0.87446600  1
  Cu  Cu28  1  0.88355700  0.25000000  0.70853200  1
  Cu  Cu29  1  0.52137800  0.00922100  0.12553400  1
  Cu  Cu30  1  0.80819600  0.75000000  0.48122200  1
  Cu  Cu31  1  0.52137800  0.50922100  0.37446600  1
  Cu  Cu32  1  0.80819600  0.25000000  0.01877800  1
  Cu  Cu33  1  0.52137800  0.49077900  0.12553400  1
  Cu  Cu34  1  0.47862200  0.00922100  0.62553400  1
  Cu  Cu35  1  0.19180400  0.25000000  0.51877800  1
  Cu  Cu36  1  0.47862200  0.50922100  0.87446600  1
  Cu  Cu37  1  0.11644300  0.75000000  0.29146800  1
  Cu  Cu38  1  0.47862200  0.49077900  0.62553400  1
  Cu  Cu39  1  0.88355700  0.75000000  0.79146800  1
