# generated using pymatgen
data_Cu7NiC7
_symmetry_space_group_name_H-M   'P 1'
_cell_length_a   8.42969100
_cell_length_b   10.22557100
_cell_length_c   13.60510500
_cell_angle_alpha   90.00000000
_cell_angle_beta   90.00000000
_cell_angle_gamma   90.00000000
_symmetry_Int_Tables_number   1
_chemical_formula_structural   Cu7NiC7
_chemical_formula_sum   'Cu56 Ni8 C56'
_cell_volume   1172.73833492
_cell_formula_units_Z   8
loop_
 _symmetry_equiv_pos_site_id
 _symmetry_equiv_pos_as_xyz
  1  'x, y, z'
loop_
 _atom_site_type_symbol
 _atom_site_label
 _atom_site_symmetry_multiplicity
 _atom_site_fract_x
 _atom_site_fract_y
 _atom_site_fract_z
 _atom_site_occupancy
  C  C0  1  0.90577900  0.17534000  0.57165800  1
  C  C1  1  0.56622700  0.56445000  0.76282500  1
  C  C2  1  0.56622700  0.06445000  0.73717500  1
  C  C3  1  0.69086900  0.55966700  0.61144700  1
  C  C4  1  0.44757700  0.61068800  0.35799700  1
  C  C5  1  0.48650200  0.22623300  0.65656500  1
  C  C6  1  0.06622700  0.93555000  0.76282500  1
  C  C7  1  0.93377300  0.06445000  0.23717500  1
  C  C8  1  0.44757700  0.11068800  0.14200300  1
  C  C9  1  0.95738700  0.03479200  0.12363600  1
  C  C10  1  0.54261300  0.53479200  0.87636400  1
  C  C11  1  0.78448300  0.46164600  0.68016800  1
  C  C12  1  0.69086900  0.05966700  0.88855300  1
  C  C13  1  0.09422100  0.32466000  0.07165800  1
  C  C14  1  0.04261300  0.96520800  0.87636400  1
  C  C15  1  0.09422100  0.82466000  0.42834200  1
  C  C16  1  0.28448300  0.03835400  0.68016800  1
  C  C17  1  0.55242300  0.88931200  0.85799700  1
  C  C18  1  0.21551700  0.53835400  0.31983200  1
  C  C19  1  0.95738700  0.53479200  0.37636400  1
  C  C20  1  0.93377300  0.56445000  0.26282500  1
  C  C21  1  0.48650200  0.72623300  0.84343500  1
  C  C22  1  0.01349800  0.22623300  0.15656500  1
  C  C23  1  0.30913100  0.94033300  0.11144700  1
  C  C24  1  0.06622700  0.43555000  0.73717500  1
  C  C25  1  0.45738700  0.46520800  0.12363600  1
  C  C26  1  0.80913100  0.55966700  0.11144700  1
  C  C27  1  0.51349800  0.77376700  0.34343500  1
  C  C28  1  0.59422100  0.67534000  0.42834200  1
  C  C29  1  0.04261300  0.46520800  0.62363600  1
  C  C30  1  0.19086900  0.44033300  0.88855300  1
  C  C31  1  0.01349800  0.72623300  0.34343500  1
  C  C32  1  0.43377300  0.43555000  0.23717500  1
  C  C33  1  0.98650200  0.27376700  0.65656500  1
  C  C34  1  0.94757700  0.38931200  0.14200300  1
  C  C35  1  0.80913100  0.05966700  0.38855300  1
  C  C36  1  0.19086900  0.94033300  0.61144700  1
  C  C37  1  0.51349800  0.27376700  0.15656500  1
  C  C38  1  0.71551700  0.96164600  0.31983200  1
  C  C39  1  0.21551700  0.03835400  0.18016800  1
  C  C40  1  0.71551700  0.46164600  0.18016800  1
  C  C41  1  0.40577900  0.32466000  0.57165800  1
  C  C42  1  0.78448300  0.96164600  0.81983200  1
  C  C43  1  0.30913100  0.44033300  0.38855300  1
  C  C44  1  0.94757700  0.88931200  0.35799700  1
  C  C45  1  0.05242300  0.11068800  0.64200300  1
  C  C46  1  0.98650200  0.77376700  0.84343500  1
  C  C47  1  0.40577900  0.82466000  0.92834200  1
  C  C48  1  0.05242300  0.61068800  0.85799700  1
  C  C49  1  0.28448300  0.53835400  0.81983200  1
  C  C50  1  0.90577900  0.67534000  0.92834200  1
  C  C51  1  0.54261300  0.03479200  0.62363600  1
  C  C52  1  0.43377300  0.93555000  0.26282500  1
  C  C53  1  0.55242300  0.38931200  0.64200300  1
  C  C54  1  0.59422100  0.17534000  0.07165800  1
  C  C55  1  0.45738700  0.96520800  0.37636400  1
  Ni  Ni56  1  0.73842800  0.82171000  0.57955600  1
  Ni  Ni57  1  0.76157200  0.82171000  0.07955600  1
  Ni  Ni58  1  0.23842800  0.17829000  0.92044400  1
  Ni  Ni59  1  0.26157200  0.67829000  0.07955600  1
  Ni  Ni60  1  0.73842800  0.32171000  0.92044400  1
  Ni  Ni61  1  0.26157200  0.17829000  0.42044400  1
  Ni  Ni62  1  0.76157200  0.32171000  0.42044400  1
  Ni  Ni63  1  0.23842800  0.67829000  0.57955600  1
  Cu  Cu64  1  0.00003600  0.08740600  0.17885700  1
  Cu  Cu65  1  0.50003500  0.91259400  0.32114300  1
  Cu  Cu66  1  0.23157300  0.30429200  0.97589800  1
  Cu  Cu67  1  0.73157300  0.69570800  0.52410200  1
  Cu  Cu68  1  0.70967100  0.79527300  0.68261300  1
  Cu  Cu69  1  0.88474600  0.40822800  0.46022000  1
  Cu  Cu70  1  0.95786700  0.67596400  0.86235600  1
  Cu  Cu71  1  0.20967100  0.20472700  0.81738700  1
  Cu  Cu72  1  0.23157300  0.80429200  0.52410200  1
  Cu  Cu73  1  0.10677800  0.61982300  0.06539700  1
  Cu  Cu74  1  0.11525400  0.59177200  0.53978000  1
  Cu  Cu75  1  0.17647200  0.00652400  0.66378800  1
  Cu  Cu76  1  0.04213300  0.32403600  0.13764400  1
  Cu  Cu77  1  0.89322200  0.88017700  0.56539700  1
  Cu  Cu78  1  0.39322200  0.11982300  0.93460300  1
  Cu  Cu79  1  0.82352800  0.49347600  0.16378800  1
  Cu  Cu80  1  0.32352800  0.50652400  0.33621200  1
  Cu  Cu81  1  0.49996400  0.58740600  0.82114300  1
  Cu  Cu82  1  0.26842700  0.30429200  0.47589800  1
  Cu  Cu83  1  0.89322200  0.38017700  0.93460300  1
  Cu  Cu84  1  0.67647200  0.49347600  0.66378800  1
  Cu  Cu85  1  0.10677800  0.11982300  0.43460300  1
  Cu  Cu86  1  0.88474600  0.90822800  0.03978000  1
  Cu  Cu87  1  0.26842700  0.80429200  0.02410200  1
  Cu  Cu88  1  0.79032900  0.29527300  0.31738700  1
  Cu  Cu89  1  0.70967100  0.29527300  0.81738700  1
  Cu  Cu90  1  0.54213300  0.67596400  0.36235600  1
  Cu  Cu91  1  0.32352800  0.00652400  0.16378800  1
  Cu  Cu92  1  0.61525400  0.40822800  0.96022000  1
  Cu  Cu93  1  0.11525400  0.09177200  0.96022000  1
  Cu  Cu94  1  0.60677800  0.38017700  0.43460300  1
  Cu  Cu95  1  0.99996500  0.41259400  0.67885700  1
  Cu  Cu96  1  0.82352800  0.99347600  0.33621200  1
  Cu  Cu97  1  0.45786700  0.32403600  0.63764400  1
  Cu  Cu98  1  0.67647200  0.99347600  0.83621200  1
  Cu  Cu99  1  0.38474600  0.09177200  0.46022000  1
  Cu  Cu100  1  0.29032900  0.70472700  0.18261300  1
  Cu  Cu101  1  0.00003600  0.58740600  0.32114300  1
  Cu  Cu102  1  0.95786700  0.17596400  0.63764400  1
  Cu  Cu103  1  0.99996500  0.91259400  0.82114300  1
  Cu  Cu104  1  0.29032900  0.20472700  0.31738700  1
  Cu  Cu105  1  0.73157300  0.19570800  0.97589800  1
  Cu  Cu106  1  0.76842700  0.69570800  0.02410200  1
  Cu  Cu107  1  0.39322200  0.61982300  0.56539700  1
  Cu  Cu108  1  0.38474600  0.59177200  0.03978000  1
  Cu  Cu109  1  0.20967100  0.70472700  0.68261300  1
  Cu  Cu110  1  0.50003500  0.41259400  0.17885700  1
  Cu  Cu111  1  0.79032900  0.79527300  0.18261300  1
  Cu  Cu112  1  0.17647200  0.50652400  0.83621200  1
  Cu  Cu113  1  0.04213300  0.82403600  0.36235600  1
  Cu  Cu114  1  0.45786700  0.82403600  0.86235600  1
  Cu  Cu115  1  0.49996400  0.08740600  0.67885700  1
  Cu  Cu116  1  0.61525400  0.90822800  0.53978000  1
  Cu  Cu117  1  0.60677800  0.88017700  0.06539700  1
  Cu  Cu118  1  0.76842700  0.19570800  0.47589800  1
  Cu  Cu119  1  0.54213300  0.17596400  0.13764400  1
