# generated using pymatgen
data_Cu9Ni3C
_symmetry_space_group_name_H-M   'P 1'
_cell_length_a   8.73374300
_cell_length_b   7.34740800
_cell_length_c   13.70298045
_cell_angle_alpha   80.28305601
_cell_angle_beta   90.00000000
_cell_angle_gamma   90.00000000
_symmetry_Int_Tables_number   1
_chemical_formula_structural   Cu9Ni3C
_chemical_formula_sum   'Cu36 Ni12 C4'
_cell_volume   866.71021507
_cell_formula_units_Z   4
loop_
 _symmetry_equiv_pos_site_id
 _symmetry_equiv_pos_as_xyz
  1  'x, y, z'
loop_
 _atom_site_type_symbol
 _atom_site_label
 _atom_site_symmetry_multiplicity
 _atom_site_fract_x
 _atom_site_fract_y
 _atom_site_fract_z
 _atom_site_occupancy
  C  C0  1  0.74381100  0.82562300  0.14461200  1
  C  C1  1  0.75618900  0.82562300  0.64461200  1
  C  C2  1  0.24381100  0.17437700  0.35538800  1
  C  C3  1  0.25618900  0.17437700  0.85538800  1
  Ni  Ni4  1  0.29733600  0.83434000  0.60805000  1
  Ni  Ni5  1  0.04968000  0.67236800  0.85455100  1
  Ni  Ni6  1  0.70266400  0.16566000  0.39195000  1
  Ni  Ni7  1  0.20266400  0.83434000  0.10805000  1
  Ni  Ni8  1  0.02381200  0.26502400  0.60931800  1
  Ni  Ni9  1  0.52381200  0.73497600  0.89068200  1
  Ni  Ni10  1  0.97618800  0.73497600  0.39068200  1
  Ni  Ni11  1  0.45032000  0.67236800  0.35455100  1
  Ni  Ni12  1  0.95032000  0.32763200  0.14544900  1
  Ni  Ni13  1  0.79733600  0.16566000  0.89195000  1
  Ni  Ni14  1  0.47618800  0.26502400  0.10931800  1
  Ni  Ni15  1  0.54968000  0.32763200  0.64544900  1
  Cu  Cu16  1  0.18018200  0.48010800  0.85574900  1
  Cu  Cu17  1  0.20768900  0.22827900  0.67566600  1
  Cu  Cu18  1  0.30860000  0.85710600  0.32257800  1
  Cu  Cu19  1  0.52581900  0.16534000  0.32000400  1
  Cu  Cu20  1  0.97418100  0.16534000  0.82000400  1
  Cu  Cu21  1  0.52842200  0.66951000  0.23068100  1
  Cu  Cu22  1  0.79231100  0.77172100  0.32433400  1
  Cu  Cu23  1  0.41555600  0.32143200  0.98069700  1
  Cu  Cu24  1  0.19140000  0.85710600  0.82257800  1
  Cu  Cu25  1  0.70768900  0.77172100  0.82433400  1
  Cu  Cu26  1  0.80860000  0.14289400  0.17742200  1
  Cu  Cu27  1  0.97348200  0.02315800  0.61071200  1
  Cu  Cu28  1  0.68018200  0.51989200  0.64425100  1
  Cu  Cu29  1  0.31981800  0.48010800  0.35574900  1
  Cu  Cu30  1  0.47418100  0.83466000  0.67999600  1
  Cu  Cu31  1  0.29231100  0.22827900  0.17566600  1
  Cu  Cu32  1  0.02651800  0.97684200  0.38928800  1
  Cu  Cu33  1  0.16522400  0.64540900  0.04010700  1
  Cu  Cu34  1  0.97157800  0.66951000  0.73068100  1
  Cu  Cu35  1  0.47348200  0.97684200  0.88928800  1
  Cu  Cu36  1  0.33377000  0.03523500  0.51267200  1
  Cu  Cu37  1  0.02842200  0.33049000  0.26931900  1
  Cu  Cu38  1  0.47157800  0.33049000  0.76931900  1
  Cu  Cu39  1  0.58444400  0.67856800  0.01930300  1
  Cu  Cu40  1  0.83377000  0.96476500  0.98732800  1
  Cu  Cu41  1  0.83477600  0.35459100  0.95989300  1
  Cu  Cu42  1  0.52651800  0.02315800  0.11071200  1
  Cu  Cu43  1  0.91555600  0.67856800  0.51930300  1
  Cu  Cu44  1  0.69140000  0.14289400  0.67742200  1
  Cu  Cu45  1  0.33477600  0.64540900  0.54010700  1
  Cu  Cu46  1  0.66522400  0.35459100  0.45989300  1
  Cu  Cu47  1  0.08444400  0.32143200  0.48069700  1
  Cu  Cu48  1  0.66623000  0.96476500  0.48732800  1
  Cu  Cu49  1  0.81981800  0.51989200  0.14425100  1
  Cu  Cu50  1  0.16623000  0.03523500  0.01267200  1
  Cu  Cu51  1  0.02581900  0.83466000  0.17999600  1
