# generated using pymatgen
data_Cu2Ni2C17
_symmetry_space_group_name_H-M   'P 1'
_cell_length_a   5.20344730
_cell_length_b   15.93532821
_cell_length_c   8.78006424
_cell_angle_alpha   93.57322769
_cell_angle_beta   91.30298891
_cell_angle_gamma   97.94694256
_symmetry_Int_Tables_number   1
_chemical_formula_structural   Cu2Ni2C17
_chemical_formula_sum   'Cu4 Ni4 C34'
_cell_volume   719.27546145
_cell_formula_units_Z   2
loop_
 _symmetry_equiv_pos_site_id
 _symmetry_equiv_pos_as_xyz
  1  'x, y, z'
loop_
 _atom_site_type_symbol
 _atom_site_label
 _atom_site_symmetry_multiplicity
 _atom_site_fract_x
 _atom_site_fract_y
 _atom_site_fract_z
 _atom_site_occupancy
  C  C0  1  0.50000000  0.75000000  0.50000000  1
  C  C1  1  0.49999900  0.25000000  0.50000000  1
  Ni  Ni2  1  0.96856000  0.13114400  0.73531900  1
  Ni  Ni3  1  0.96875900  0.63079900  0.73545700  1
  Ni  Ni4  1  0.03144000  0.36885600  0.26468100  1
  Ni  Ni5  1  0.03124100  0.86920100  0.26454300  1
  Cu  Cu6  1  0.50080400  0.39895400  0.78556700  1
  Cu  Cu7  1  0.50003600  0.89944200  0.78643700  1
  Cu  Cu8  1  0.49919500  0.10104600  0.21443300  1
  Cu  Cu9  1  0.49996400  0.60055700  0.21356200  1
  C  C10  1  0.59441600  0.15397500  0.35332200  1
  C  C11  1  0.59648600  0.65360400  0.35212600  1
  C  C12  1  0.40558500  0.34602500  0.64667900  1
  C  C13  1  0.40351400  0.84639600  0.64787400  1
  C  C14  1  0.75269000  0.38847200  0.84571400  1
  C  C15  1  0.75197600  0.88866200  0.84623700  1
  C  C16  1  0.24731200  0.11152700  0.15428700  1
  C  C17  1  0.24802300  0.61133800  0.15376200  1
  C  C18  1  0.15908400  0.22480200  0.85142300  1
  C  C19  1  0.15892700  0.72451100  0.85163200  1
  C  C20  1  0.84091500  0.27519800  0.14857700  1
  C  C21  1  0.84107400  0.77548900  0.14836800  1
  C  C22  1  0.83504100  0.32895400  0.44400700  1
  C  C23  1  0.83498400  0.82913400  0.44385700  1
  C  C24  1  0.16495800  0.17104600  0.55599300  1
  C  C25  1  0.16501700  0.67086600  0.55614200  1
  C  C26  1  0.22174100  0.05937600  0.77381400  1
  C  C27  1  0.22171400  0.55904400  0.77406800  1
  C  C28  1  0.77826000  0.44062400  0.22618600  1
  C  C29  1  0.77828600  0.94095600  0.22593200  1
  C  C30  1  0.22625200  0.45583000  0.39577800  1
  C  C31  1  0.22620400  0.95633700  0.39517400  1
  C  C32  1  0.77374800  0.04417000  0.60422200  1
  C  C33  1  0.77379600  0.54366300  0.60482600  1
  C  C34  1  0.71767500  0.20685400  0.67540900  1
  C  C35  1  0.71680900  0.70620100  0.67481900  1
  C  C36  1  0.28232400  0.29314600  0.32459100  1
  C  C37  1  0.28319300  0.79380000  0.32518100  1
  C  C38  1  0.23627000  0.40072700  0.09576700  1
  C  C39  1  0.23590300  0.90107500  0.09559000  1
  C  C40  1  0.76373000  0.09927300  0.90423300  1
  C  C41  1  0.76409700  0.59892500  0.90441000  1
