# generated using pymatgen
data_Cu32NiC17
_symmetry_space_group_name_H-M   'P 1'
_cell_length_a   7.74897800
_cell_length_b   11.97036500
_cell_length_c   21.59945300
_cell_angle_alpha   90.00000000
_cell_angle_beta   90.00000000
_cell_angle_gamma   90.00000000
_symmetry_Int_Tables_number   1
_chemical_formula_structural   Cu32NiC17
_chemical_formula_sum   'Cu64 Ni2 C34'
_cell_volume   2003.52411412
_cell_formula_units_Z   2
loop_
 _symmetry_equiv_pos_site_id
 _symmetry_equiv_pos_as_xyz
  1  'x, y, z'
loop_
 _atom_site_type_symbol
 _atom_site_label
 _atom_site_symmetry_multiplicity
 _atom_site_fract_x
 _atom_site_fract_y
 _atom_site_fract_z
 _atom_site_occupancy
  C  C0  1  0.54042600  0.50000000  0.27697700  1
  C  C1  1  0.44794000  0.69049000  0.10165900  1
  C  C2  1  0.45957400  0.00000000  0.22302300  1
  C  C3  1  0.74602100  0.50000000  0.50000000  1
  C  C4  1  0.55206000  0.19049000  0.39834100  1
  C  C5  1  0.55206000  0.19049000  0.60165900  1
  C  C6  1  0.44794000  0.30951000  0.89834100  1
  C  C7  1  0.54042600  0.50000000  0.72302300  1
  C  C8  1  0.45957400  0.00000000  0.77697700  1
  C  C9  1  0.55206000  0.80951000  0.39834100  1
  C  C10  1  0.25397900  0.00000000  0.00000000  1
  C  C11  1  0.44794000  0.69049000  0.89834100  1
  C  C12  1  0.55206000  0.80951000  0.60165900  1
  C  C13  1  0.44794000  0.30951000  0.10165900  1
  C  C14  1  0.05068700  0.69436600  0.32598100  1
  C  C15  1  0.94931300  0.19436600  0.17401900  1
  C  C16  1  0.94740800  0.71569500  0.00000000  1
  C  C17  1  0.00418600  0.00000000  0.65572200  1
  C  C18  1  0.99581400  0.50000000  0.84427800  1
  C  C19  1  0.00418600  0.00000000  0.34427800  1
  C  C20  1  0.94931300  0.80563400  0.82598100  1
  C  C21  1  0.05068700  0.69436600  0.67401900  1
  C  C22  1  0.05259200  0.78430500  0.50000000  1
  C  C23  1  0.94740800  0.28430500  0.00000000  1
  C  C24  1  0.94931300  0.19436600  0.82598100  1
  C  C25  1  0.05068700  0.30563400  0.32598100  1
  C  C26  1  0.05068700  0.30563400  0.67401900  1
  C  C27  1  0.05259200  0.21569500  0.50000000  1
  C  C28  1  0.94931300  0.80563400  0.17401900  1
  C  C29  1  0.99581400  0.50000000  0.15572200  1
  C  C30  1  0.77911800  0.00000000  0.08831200  1
  C  C31  1  0.22088200  0.50000000  0.58831200  1
  C  C32  1  0.22088200  0.50000000  0.41168800  1
  C  C33  1  0.77911800  0.00000000  0.91168800  1
  Ni  Ni34  1  0.88794400  0.00000000  0.50000000  1
  Ni  Ni35  1  0.11205600  0.50000000  0.00000000  1
  Cu  Cu36  1  0.12462200  0.62736000  0.56469400  1
  Cu  Cu37  1  0.71682600  0.77808800  0.81346900  1
  Cu  Cu38  1  0.75708000  0.50000000  0.84052800  1
  Cu  Cu39  1  0.56374400  0.00000000  0.91732200  1
  Cu  Cu40  1  0.28317400  0.72191200  0.68653100  1
  Cu  Cu41  1  0.97442800  0.33572200  0.89937100  1
  Cu  Cu42  1  0.87537800  0.12736000  0.06469400  1
  Cu  Cu43  1  0.82425300  0.26144700  0.50000000  1
  Cu  Cu44  1  0.98731400  0.14521400  0.27535400  1
  Cu  Cu45  1  0.76397300  0.00000000  0.65200800  1
  Cu  Cu46  1  0.87537800  0.87264000  0.06469400  1
  Cu  Cu47  1  0.56374400  0.00000000  0.08267800  1
  Cu  Cu48  1  0.97442800  0.66427800  0.89937100  1
  Cu  Cu49  1  0.02557200  0.16427800  0.39937100  1
  Cu  Cu50  1  0.82451700  0.65305400  0.34156000  1
  Cu  Cu51  1  0.72185900  0.33367100  0.00000000  1
  Cu  Cu52  1  0.75708000  0.50000000  0.15947200  1
  Cu  Cu53  1  0.82451700  0.65305400  0.65844000  1
  Cu  Cu54  1  0.02557200  0.16427800  0.60062900  1
  Cu  Cu55  1  0.87537800  0.87264000  0.93530600  1
  Cu  Cu56  1  0.76397300  0.00000000  0.34799200  1
  Cu  Cu57  1  0.28317400  0.72191200  0.31346900  1
  Cu  Cu58  1  0.72185900  0.66632900  0.00000000  1
  Cu  Cu59  1  0.27814100  0.83367100  0.50000000  1
  Cu  Cu60  1  0.87537800  0.12736000  0.93530600  1
  Cu  Cu61  1  0.97442800  0.66427800  0.10062900  1
  Cu  Cu62  1  0.84512000  0.00000000  0.16655600  1
  Cu  Cu63  1  0.12462200  0.62736000  0.43530600  1
  Cu  Cu64  1  0.17574700  0.23855300  0.00000000  1
  Cu  Cu65  1  0.02557200  0.83572200  0.60062900  1
  Cu  Cu66  1  0.24292000  0.00000000  0.34052800  1
  Cu  Cu67  1  0.98731400  0.85478600  0.72464600  1
  Cu  Cu68  1  0.43625600  0.50000000  0.41732200  1
  Cu  Cu69  1  0.23602700  0.50000000  0.15200800  1
  Cu  Cu70  1  0.82425300  0.73855300  0.50000000  1
  Cu  Cu71  1  0.28317400  0.27808800  0.31346900  1
  Cu  Cu72  1  0.71682600  0.22191200  0.81346900  1
  Cu  Cu73  1  0.17548300  0.84694600  0.15844000  1
  Cu  Cu74  1  0.15488000  0.50000000  0.66655600  1
  Cu  Cu75  1  0.82451700  0.34694600  0.34156000  1
  Cu  Cu76  1  0.98731400  0.14521400  0.72464600  1
  Cu  Cu77  1  0.12462200  0.37264000  0.43530600  1
  Cu  Cu78  1  0.17548300  0.15305400  0.84156000  1
  Cu  Cu79  1  0.97442800  0.33572200  0.10062900  1
  Cu  Cu80  1  0.43625600  0.50000000  0.58267800  1
  Cu  Cu81  1  0.84512000  0.00000000  0.83344400  1
  Cu  Cu82  1  0.01268600  0.35478600  0.22464600  1
  Cu  Cu83  1  0.17574700  0.76144700  0.00000000  1
  Cu  Cu84  1  0.27814100  0.16632900  0.50000000  1
  Cu  Cu85  1  0.12462200  0.37264000  0.56469400  1
  Cu  Cu86  1  0.17548300  0.84694600  0.84156000  1
  Cu  Cu87  1  0.01268600  0.35478600  0.77535400  1
  Cu  Cu88  1  0.82451700  0.34694600  0.65844000  1
  Cu  Cu89  1  0.15488000  0.50000000  0.33344400  1
  Cu  Cu90  1  0.01268600  0.64521400  0.77535400  1
  Cu  Cu91  1  0.28317400  0.27808800  0.68653100  1
  Cu  Cu92  1  0.01268600  0.64521400  0.22464600  1
  Cu  Cu93  1  0.17548300  0.15305400  0.15844000  1
  Cu  Cu94  1  0.98731400  0.85478600  0.27535400  1
  Cu  Cu95  1  0.24292000  0.00000000  0.65947200  1
  Cu  Cu96  1  0.71682600  0.77808800  0.18653100  1
  Cu  Cu97  1  0.71682600  0.22191200  0.18653100  1
  Cu  Cu98  1  0.02557200  0.83572200  0.39937100  1
  Cu  Cu99  1  0.23602700  0.50000000  0.84799200  1
