# generated using pymatgen
data_Cu6Ni15C11
_symmetry_space_group_name_H-M   'P 1'
_cell_length_a   12.46944240
_cell_length_b   12.46944240
_cell_length_c   13.86577000
_cell_angle_alpha   90.00000000
_cell_angle_beta   90.00000000
_cell_angle_gamma   120.00000210
_symmetry_Int_Tables_number   1
_chemical_formula_structural   Cu6Ni15C11
_chemical_formula_sum   'Cu12 Ni30 C22'
_cell_volume   1867.10473826
_cell_formula_units_Z   2
loop_
 _symmetry_equiv_pos_site_id
 _symmetry_equiv_pos_as_xyz
  1  'x, y, z'
loop_
 _atom_site_type_symbol
 _atom_site_label
 _atom_site_symmetry_multiplicity
 _atom_site_fract_x
 _atom_site_fract_y
 _atom_site_fract_z
 _atom_site_occupancy
  C  C0  1  0.00000000  0.00000000  0.25000000  1
  C  C1  1  0.00000000  0.00000000  0.75000000  1
  C  C2  1  0.97530400  0.41792100  0.25000000  1
  C  C3  1  0.72243000  0.18416600  0.06506900  1
  C  C4  1  0.18416600  0.46173600  0.56506900  1
  C  C5  1  0.81583400  0.53826400  0.43493100  1
  C  C6  1  0.27757000  0.81583400  0.93493100  1
  C  C7  1  0.58207900  0.55738300  0.25000000  1
  C  C8  1  0.53826400  0.72243000  0.93493100  1
  C  C9  1  0.53826400  0.72243000  0.56506900  1
  C  C10  1  0.81583400  0.53826400  0.06506900  1
  C  C11  1  0.27757000  0.81583400  0.56506900  1
  C  C12  1  0.46173600  0.27757000  0.43493100  1
  C  C13  1  0.18416600  0.46173600  0.93493100  1
  C  C14  1  0.44261700  0.02469600  0.25000000  1
  C  C15  1  0.55738300  0.97530400  0.75000000  1
  C  C16  1  0.46173600  0.27757000  0.06506900  1
  C  C17  1  0.02469600  0.58207900  0.75000000  1
  C  C18  1  0.41792100  0.44261700  0.75000000  1
  C  C19  1  0.72243000  0.18416600  0.43493100  1
  C  C20  1  0.66666700  0.33333300  0.25000000  1
  C  C21  1  0.33333300  0.66666700  0.75000000  1
  Ni  Ni22  1  0.13612100  0.61231500  0.09161200  1
  Ni  Ni23  1  0.05705400  0.32710900  0.75000000  1
  Ni  Ni24  1  0.86387900  0.38768500  0.59161200  1
  Ni  Ni25  1  0.75525600  0.01146800  0.59584000  1
  Ni  Ni26  1  0.67289100  0.72994400  0.75000000  1
  Ni  Ni27  1  0.01146800  0.25621300  0.09584000  1
  Ni  Ni28  1  0.98853200  0.74378700  0.90416000  1
  Ni  Ni29  1  0.61231500  0.47619400  0.59161200  1
  Ni  Ni30  1  0.72994400  0.05705400  0.25000000  1
  Ni  Ni31  1  0.32710900  0.27005600  0.25000000  1
  Ni  Ni32  1  0.86387900  0.38768500  0.90838800  1
  Ni  Ni33  1  0.98853200  0.74378700  0.59584000  1
  Ni  Ni34  1  0.38768500  0.52380600  0.09161200  1
  Ni  Ni35  1  0.27005600  0.94294600  0.75000000  1
  Ni  Ni36  1  0.13612100  0.61231500  0.40838800  1
  Ni  Ni37  1  0.94294600  0.67289100  0.25000000  1
  Ni  Ni38  1  0.24474400  0.98853200  0.09584000  1
  Ni  Ni39  1  0.01146800  0.25621300  0.40416000  1
  Ni  Ni40  1  0.25621300  0.24474400  0.59584000  1
  Ni  Ni41  1  0.52380600  0.13612100  0.59161200  1
  Ni  Ni42  1  0.61231500  0.47619400  0.90838800  1
  Ni  Ni43  1  0.74378700  0.75525600  0.09584000  1
  Ni  Ni44  1  0.24474400  0.98853200  0.40416000  1
  Ni  Ni45  1  0.38768500  0.52380600  0.40838800  1
  Ni  Ni46  1  0.47619400  0.86387900  0.09161200  1
  Ni  Ni47  1  0.75525600  0.01146800  0.90416000  1
  Ni  Ni48  1  0.25621300  0.24474400  0.90416000  1
  Ni  Ni49  1  0.47619400  0.86387900  0.40838800  1
  Ni  Ni50  1  0.74378700  0.75525600  0.40416000  1
  Ni  Ni51  1  0.52380600  0.13612100  0.90838800  1
  Cu  Cu52  1  0.37267600  0.56043900  0.85116900  1
  Cu  Cu53  1  0.37267600  0.56043900  0.64883100  1
  Cu  Cu54  1  0.43956100  0.81223600  0.85116900  1
  Cu  Cu55  1  0.81223600  0.37267600  0.35116900  1
  Cu  Cu56  1  0.56043900  0.18776400  0.35116900  1
  Cu  Cu57  1  0.56043900  0.18776400  0.14883100  1
  Cu  Cu58  1  0.18776400  0.62732400  0.85116900  1
  Cu  Cu59  1  0.62732400  0.43956100  0.35116900  1
  Cu  Cu60  1  0.81223600  0.37267600  0.14883100  1
  Cu  Cu61  1  0.18776400  0.62732400  0.64883100  1
  Cu  Cu62  1  0.62732400  0.43956100  0.14883100  1
  Cu  Cu63  1  0.43956100  0.81223600  0.64883100  1
