# generated using pymatgen
data_Cu2NiC15
_symmetry_space_group_name_H-M   'P 1'
_cell_length_a   6.73043801
_cell_length_b   6.73043801
_cell_length_c   9.28061230
_cell_angle_alpha   69.99879815
_cell_angle_beta   69.99879815
_cell_angle_gamma   77.19427150
_symmetry_Int_Tables_number   1
_chemical_formula_structural   Cu2NiC15
_chemical_formula_sum   'Cu4 Ni2 C30'
_cell_volume   368.60087855
_cell_formula_units_Z   2
loop_
 _symmetry_equiv_pos_site_id
 _symmetry_equiv_pos_as_xyz
  1  'x, y, z'
loop_
 _atom_site_type_symbol
 _atom_site_label
 _atom_site_symmetry_multiplicity
 _atom_site_fract_x
 _atom_site_fract_y
 _atom_site_fract_z
 _atom_site_occupancy
  C  C0  1  0.36980100  0.63019900  0.25000000  1
  C  C1  1  0.63019900  0.36980100  0.75000000  1
  C  C2  1  0.00000000  0.50000000  0.00000000  1
  C  C3  1  0.50000000  0.00000000  0.50000000  1
  Ni  Ni4  1  0.02761700  0.97238300  0.75000000  1
  Ni  Ni5  1  0.97238300  0.02761700  0.25000000  1
  Cu  Cu6  1  0.20829200  0.34537300  0.67681800  1
  Cu  Cu7  1  0.65462700  0.79170800  0.82318200  1
  Cu  Cu8  1  0.79170800  0.65462700  0.32318200  1
  Cu  Cu9  1  0.34537300  0.20829200  0.17681800  1
  C  C10  1  0.18734300  0.84048900  0.92407400  1
  C  C11  1  0.15951100  0.81265700  0.57592600  1
  C  C12  1  0.81265700  0.15951100  0.07592600  1
  C  C13  1  0.84048900  0.18734300  0.42407400  1
  C  C14  1  0.00000000  0.50000000  0.50000000  1
  C  C15  1  0.50000000  0.00000000  0.00000000  1
  C  C16  1  0.06662800  0.81502000  0.89830800  1
  C  C17  1  0.18498000  0.93337200  0.60169200  1
  C  C18  1  0.93337200  0.18498000  0.10169200  1
  C  C19  1  0.81502000  0.06662800  0.39830800  1
  C  C20  1  0.22084600  0.42946600  0.80746600  1
  C  C21  1  0.57053400  0.77915400  0.69253400  1
  C  C22  1  0.77915400  0.57053400  0.19253400  1
  C  C23  1  0.42946600  0.22084600  0.30746600  1
  C  C24  1  0.03185900  0.19001000  0.75016600  1
  C  C25  1  0.80999000  0.96814100  0.74983400  1
  C  C26  1  0.96814100  0.80999000  0.24983400  1
  C  C27  1  0.19001000  0.03185900  0.25016600  1
  C  C28  1  0.77014900  0.57148000  0.88812800  1
  C  C29  1  0.42852000  0.22985100  0.61187200  1
  C  C30  1  0.22985100  0.42852000  0.11187200  1
  C  C31  1  0.57148000  0.77014900  0.38812800  1
  C  C32  1  0.13809400  0.53326700  0.54247300  1
  C  C33  1  0.46673300  0.86190600  0.95752700  1
  C  C34  1  0.86190600  0.46673300  0.45752700  1
  C  C35  1  0.53326700  0.13809400  0.04247300  1
