# generated using pymatgen
data_CuNiC16
_symmetry_space_group_name_H-M   'P 1'
_cell_length_a   7.40107800
_cell_length_b   11.31001100
_cell_length_c   16.01979070
_cell_angle_alpha   72.94109917
_cell_angle_beta   90.00000000
_cell_angle_gamma   90.00000000
_symmetry_Int_Tables_number   1
_chemical_formula_structural   CuNiC16
_chemical_formula_sum   'Cu4 Ni4 C64'
_cell_volume   1281.95982223
_cell_formula_units_Z   4
loop_
 _symmetry_equiv_pos_site_id
 _symmetry_equiv_pos_as_xyz
  1  'x, y, z'
loop_
 _atom_site_type_symbol
 _atom_site_label
 _atom_site_symmetry_multiplicity
 _atom_site_fract_x
 _atom_site_fract_y
 _atom_site_fract_z
 _atom_site_occupancy
  C  C0  1  0.74806700  0.50021500  0.54699400  1
  C  C1  1  0.24806700  0.49978500  0.95300600  1
  C  C2  1  0.24578100  0.74974900  0.13753300  1
  C  C3  1  0.25193300  0.49978500  0.45300600  1
  C  C4  1  0.75421900  0.25025100  0.86246700  1
  C  C5  1  0.74578100  0.25025100  0.36246700  1
  C  C6  1  0.75193300  0.50021500  0.04699400  1
  C  C7  1  0.25421900  0.74974900  0.63753300  1
  Ni  Ni8  1  0.50984000  0.83114400  0.86418600  1
  Ni  Ni9  1  0.99016000  0.83114400  0.36418600  1
  Ni  Ni10  1  0.49016000  0.16885600  0.13581400  1
  Ni  Ni11  1  0.00984000  0.16885600  0.63581400  1
  Cu  Cu12  1  0.26534500  0.07723300  0.94681900  1
  Cu  Cu13  1  0.73465500  0.92276700  0.05318100  1
  Cu  Cu14  1  0.23465500  0.07723300  0.44681900  1
  Cu  Cu15  1  0.76534500  0.92276700  0.55318100  1
  C  C16  1  0.98461000  0.17101800  0.10703600  1
  C  C17  1  0.48461000  0.82898200  0.39296400  1
  C  C18  1  0.01539000  0.82898200  0.89296400  1
  C  C19  1  0.28020900  0.40223200  0.22891900  1
  C  C20  1  0.51539000  0.17101800  0.60703600  1
  C  C21  1  0.71979100  0.59776800  0.77108100  1
  C  C22  1  0.21979100  0.40223200  0.72891900  1
  C  C23  1  0.78020900  0.59776800  0.27108100  1
  C  C24  1  0.01413700  0.03193200  0.73017500  1
  C  C25  1  0.81347800  0.06824800  0.56124900  1
  C  C26  1  0.67891200  0.78206600  0.33594500  1
  C  C27  1  0.61674300  0.50735300  0.70661900  1
  C  C28  1  0.79655600  0.48900800  0.37900500  1
  C  C29  1  0.10873000  0.18198400  0.38122500  1
  C  C30  1  0.20593400  0.08091900  0.55232900  1
  C  C31  1  0.47690200  0.69548000  0.48847600  1
  C  C32  1  0.97828900  0.69950600  0.27444100  1
  C  C33  1  0.79406600  0.91908100  0.44767100  1
  C  C34  1  0.05463800  0.10496400  0.92034500  1
  C  C35  1  0.02309800  0.69548000  0.98847600  1
  C  C36  1  0.47828900  0.30049400  0.22555900  1
  C  C37  1  0.68652200  0.06824800  0.06124900  1
  C  C38  1  0.70281200  0.21550200  0.66883200  1
  C  C39  1  0.55463800  0.89503600  0.57965500  1
  C  C40  1  0.94536200  0.89503600  0.07965500  1
  C  C41  1  0.51413700  0.96806800  0.76982500  1
  C  C42  1  0.97690200  0.30452000  0.01152400  1
  C  C43  1  0.29655600  0.51099200  0.12099500  1
  C  C44  1  0.70344400  0.48900800  0.87900500  1
  C  C45  1  0.39127000  0.18198400  0.88122500  1
  C  C46  1  0.89127000  0.81801600  0.61877500  1
  C  C47  1  0.38325700  0.49264700  0.29338100  1
  C  C48  1  0.50424500  0.69407200  0.95927100  1
  C  C49  1  0.00424500  0.30592800  0.54072900  1
  C  C50  1  0.32108800  0.21793400  0.66405500  1
  C  C51  1  0.29406600  0.08091900  0.05232900  1
  C  C52  1  0.52309800  0.30452000  0.51152400  1
  C  C53  1  0.02171100  0.30049400  0.72555900  1
  C  C54  1  0.20281200  0.78449800  0.83116800  1
  C  C55  1  0.31347800  0.93175200  0.93875100  1
  C  C56  1  0.52171100  0.69950600  0.77444100  1
  C  C57  1  0.49575500  0.30592800  0.04072900  1
  C  C58  1  0.70593400  0.91908100  0.94767100  1
  C  C59  1  0.98586300  0.96806800  0.26982500  1
  C  C60  1  0.11674300  0.49264700  0.79338100  1
  C  C61  1  0.88325700  0.50735300  0.20661900  1
  C  C62  1  0.20344400  0.51099200  0.62099500  1
  C  C63  1  0.17891200  0.21793400  0.16405500  1
  C  C64  1  0.99575500  0.69407200  0.45927100  1
  C  C65  1  0.18652200  0.93175200  0.43875100  1
  C  C66  1  0.82108800  0.78206600  0.83594500  1
  C  C67  1  0.48586300  0.03193200  0.23017500  1
  C  C68  1  0.44536200  0.10496400  0.42034500  1
  C  C69  1  0.60873000  0.81801600  0.11877500  1
  C  C70  1  0.79718800  0.21550200  0.16883200  1
  C  C71  1  0.29718800  0.78449800  0.33116800  1
