# generated using pymatgen
data_CuNiC7
_symmetry_space_group_name_H-M   'P 1'
_cell_length_a   10.60052600
_cell_length_b   5.48778800
_cell_length_c   8.80331328
_cell_angle_alpha   89.20647292
_cell_angle_beta   90.00000000
_cell_angle_gamma   90.00000000
_symmetry_Int_Tables_number   1
_chemical_formula_structural   CuNiC7
_chemical_formula_sum   'Cu4 Ni4 C28'
_cell_volume   512.06989673
_cell_formula_units_Z   4
loop_
 _symmetry_equiv_pos_site_id
 _symmetry_equiv_pos_as_xyz
  1  'x, y, z'
loop_
 _atom_site_type_symbol
 _atom_site_label
 _atom_site_symmetry_multiplicity
 _atom_site_fract_x
 _atom_site_fract_y
 _atom_site_fract_z
 _atom_site_occupancy
  Ni  Ni0  1  0.68667200  0.30151900  0.49678800  1
  Ni  Ni1  1  0.81332800  0.30151900  0.99678800  1
  Ni  Ni2  1  0.31332800  0.69848100  0.50321200  1
  Ni  Ni3  1  0.18667200  0.69848100  0.00321200  1
  Cu  Cu4  1  0.91130200  0.75921800  0.67913100  1
  Cu  Cu5  1  0.08869800  0.24078200  0.32086900  1
  Cu  Cu6  1  0.41130200  0.24078200  0.82086900  1
  Cu  Cu7  1  0.58869800  0.75921800  0.17913100  1
  C  C8  1  0.91178200  0.76085900  0.26911500  1
  C  C9  1  0.41178200  0.23914100  0.23088500  1
  C  C10  1  0.08821800  0.23914100  0.73088500  1
  C  C11  1  0.58821800  0.76085900  0.76911500  1
  C  C12  1  0.24726600  0.39822500  0.25793800  1
  C  C13  1  0.00652200  0.53887100  0.80108600  1
  C  C14  1  0.08175300  0.89627600  0.29206700  1
  C  C15  1  0.75273400  0.60177500  0.74206200  1
  C  C16  1  0.49347800  0.53887100  0.30108600  1
  C  C17  1  0.60435400  0.65859300  0.97844400  1
  C  C18  1  0.91824700  0.10372400  0.70793300  1
  C  C19  1  0.58175300  0.10372400  0.20793300  1
  C  C20  1  0.83986200  0.07655600  0.30881600  1
  C  C21  1  0.89564600  0.65859300  0.47844400  1
  C  C22  1  0.16013800  0.92344400  0.69118400  1
  C  C23  1  0.40702400  0.16040600  0.44729600  1
  C  C24  1  0.59297600  0.83959400  0.55270400  1
  C  C25  1  0.50652200  0.46112900  0.69891400  1
  C  C26  1  0.25273400  0.39822500  0.75793800  1
  C  C27  1  0.74726600  0.60177500  0.24206200  1
  C  C28  1  0.33986200  0.92344400  0.19118400  1
  C  C29  1  0.99347800  0.46112900  0.19891400  1
  C  C30  1  0.39564600  0.34140700  0.02155600  1
  C  C31  1  0.66013800  0.07655600  0.80881600  1
  C  C32  1  0.10435400  0.34140700  0.52155600  1
  C  C33  1  0.09297600  0.16040600  0.94729600  1
  C  C34  1  0.90702400  0.83959400  0.05270400  1
  C  C35  1  0.41824700  0.89627600  0.79206700  1
