# generated using pymatgen
data_Cu3NiC2
_symmetry_space_group_name_H-M   'P 1'
_cell_length_a   5.29712443
_cell_length_b   5.29712443
_cell_length_c   9.90590831
_cell_angle_alpha   74.45669371
_cell_angle_beta   74.45669371
_cell_angle_gamma   43.45717468
_symmetry_Int_Tables_number   1
_chemical_formula_structural   Cu3NiC2
_chemical_formula_sum   'Cu6 Ni2 C4'
_cell_volume   183.05404152
_cell_formula_units_Z   2
loop_
 _symmetry_equiv_pos_site_id
 _symmetry_equiv_pos_as_xyz
  1  'x, y, z'
loop_
 _atom_site_type_symbol
 _atom_site_label
 _atom_site_symmetry_multiplicity
 _atom_site_fract_x
 _atom_site_fract_y
 _atom_site_fract_z
 _atom_site_occupancy
  C  C0  1  0.77833100  0.77833100  0.20488300  1
  C  C1  1  0.22166900  0.22166900  0.79511700  1
  C  C2  1  0.61870100  0.61870100  0.57011700  1
  C  C3  1  0.38129900  0.38129900  0.42988300  1
  Ni  Ni4  1  0.11403500  0.11403500  0.09478700  1
  Ni  Ni5  1  0.88596500  0.88596500  0.90521300  1
  Cu  Cu6  1  0.16782700  0.16782700  0.56494100  1
  Cu  Cu7  1  0.57785600  0.57785600  0.37526000  1
  Cu  Cu8  1  0.65064800  0.65064800  0.74790200  1
  Cu  Cu9  1  0.34935200  0.34935200  0.25209800  1
  Cu  Cu10  1  0.83217300  0.83217300  0.43505900  1
  Cu  Cu11  1  0.42214400  0.42214400  0.62474000  1
