# generated using pymatgen
data_Cu2Ni2C15
_symmetry_space_group_name_H-M   'P 1'
_cell_length_a   9.09245300
_cell_length_b   7.59296600
_cell_length_c   7.97918075
_cell_angle_alpha   64.69062461
_cell_angle_beta   90.00000000
_cell_angle_gamma   90.00000000
_symmetry_Int_Tables_number   1
_chemical_formula_structural   Cu2Ni2C15
_chemical_formula_sum   'Cu4 Ni4 C30'
_cell_volume   497.99537645
_cell_formula_units_Z   2
loop_
 _symmetry_equiv_pos_site_id
 _symmetry_equiv_pos_as_xyz
  1  'x, y, z'
loop_
 _atom_site_type_symbol
 _atom_site_label
 _atom_site_symmetry_multiplicity
 _atom_site_fract_x
 _atom_site_fract_y
 _atom_site_fract_z
 _atom_site_occupancy
  C  C0  1  0.00000000  0.00000000  0.00000000  1
  C  C1  1  0.50000000  0.50000000  0.00000000  1
  C  C2  1  0.05756100  0.15543300  0.24616700  1
  C  C3  1  0.55756100  0.34456700  0.75383300  1
  C  C4  1  0.46247100  0.10749600  0.20852500  1
  C  C5  1  0.96247100  0.39250400  0.79147500  1
  C  C6  1  0.94243900  0.84456700  0.75383300  1
  C  C7  1  0.87946700  0.05487600  0.67477200  1
  C  C8  1  0.80581000  0.32002800  0.87590300  1
  C  C9  1  0.62053300  0.55487600  0.67477200  1
  C  C10  1  0.69419000  0.82002800  0.87590300  1
  C  C11  1  0.53752900  0.89250400  0.79147500  1
  C  C12  1  0.30581000  0.17997200  0.12409700  1
  C  C13  1  0.37946700  0.44512400  0.32522800  1
  C  C14  1  0.03752900  0.60749600  0.20852500  1
  C  C15  1  0.19419000  0.67997200  0.12409700  1
  C  C16  1  0.12053300  0.94512400  0.32522800  1
  C  C17  1  0.44243900  0.65543300  0.24616700  1
  Ni  Ni18  1  0.29079900  0.14077300  0.73096700  1
  Ni  Ni19  1  0.70920100  0.85922700  0.26903300  1
  Ni  Ni20  1  0.79079900  0.35922700  0.26903300  1
  Ni  Ni21  1  0.20920100  0.64077300  0.73096700  1
  Cu  Cu22  1  0.43943300  0.18916900  0.60350300  1
  Cu  Cu23  1  0.56056700  0.81083100  0.39649700  1
  Cu  Cu24  1  0.93943300  0.31083100  0.39649700  1
  Cu  Cu25  1  0.06056700  0.68916900  0.60350300  1
  C  C26  1  0.18388800  0.10280500  0.82354800  1
  C  C27  1  0.31611200  0.60280500  0.82354800  1
  C  C28  1  0.81611200  0.89719500  0.17645200  1
  C  C29  1  0.68388800  0.39719500  0.17645200  1
  C  C30  1  0.38620800  0.56588300  0.20822700  1
  C  C31  1  0.40962900  0.22039700  0.11524400  1
  C  C32  1  0.88620800  0.93411700  0.79177300  1
  C  C33  1  0.90962900  0.27960300  0.88475600  1
  C  C34  1  0.09037100  0.72039700  0.11524400  1
  C  C35  1  0.59037100  0.77960300  0.88475600  1
  C  C36  1  0.61379200  0.43411700  0.79177300  1
  C  C37  1  0.11379200  0.06588300  0.20822700  1
