# generated using pymatgen
data_Cu2NiC3
_symmetry_space_group_name_H-M   'P 1'
_cell_length_a   9.02561700
_cell_length_b   11.58325600
_cell_length_c   19.78619110
_cell_angle_alpha   80.27677063
_cell_angle_beta   90.00000000
_cell_angle_gamma   90.00000000
_symmetry_Int_Tables_number   1
_chemical_formula_structural   Cu2NiC3
_chemical_formula_sum   'Cu16 Ni8 C24'
_cell_volume   2038.85295765
_cell_formula_units_Z   8
loop_
 _symmetry_equiv_pos_site_id
 _symmetry_equiv_pos_as_xyz
  1  'x, y, z'
loop_
 _atom_site_type_symbol
 _atom_site_label
 _atom_site_symmetry_multiplicity
 _atom_site_fract_x
 _atom_site_fract_y
 _atom_site_fract_z
 _atom_site_occupancy
  C  C0  1  0.92072600  0.37546100  0.88920700  1
  C  C1  1  0.42072600  0.62453900  0.61079300  1
  C  C2  1  0.07927400  0.62453900  0.11079300  1
  C  C3  1  0.57927400  0.37546100  0.38920700  1
  C  C4  1  0.37911600  0.29255200  0.83985600  1
  C  C5  1  0.87911600  0.70744800  0.66014400  1
  C  C6  1  0.62088400  0.70744800  0.16014400  1
  C  C7  1  0.12088400  0.29255200  0.33985600  1
  C  C8  1  0.52805000  0.15368100  0.03122700  1
  C  C9  1  0.02805000  0.84631900  0.46877300  1
  C  C10  1  0.47195000  0.84631900  0.96877300  1
  C  C11  1  0.97195000  0.15368100  0.53122700  1
  C  C12  1  0.40810700  0.25894000  0.57601700  1
  C  C13  1  0.90810700  0.74106000  0.92398300  1
  C  C14  1  0.59189300  0.74106000  0.42398300  1
  C  C15  1  0.09189300  0.25894000  0.07601700  1
  C  C16  1  0.04788600  0.07814000  0.75838800  1
  C  C17  1  0.54788600  0.92186000  0.74161200  1
  C  C18  1  0.95211400  0.92186000  0.24161200  1
  C  C19  1  0.45211400  0.07814000  0.25838800  1
  C  C20  1  0.74556700  0.36003000  0.70801700  1
  C  C21  1  0.24556700  0.63997000  0.79198300  1
  C  C22  1  0.25443300  0.63997000  0.29198300  1
  C  C23  1  0.75443300  0.36003000  0.20801700  1
  Ni  Ni24  1  0.88062800  0.04641500  0.94381500  1
  Ni  Ni25  1  0.38062800  0.95358500  0.55618500  1
  Ni  Ni26  1  0.11937200  0.95358500  0.05618500  1
  Ni  Ni27  1  0.61937200  0.04641500  0.44381500  1
  Ni  Ni28  1  0.05572600  0.46107400  0.57605400  1
  Ni  Ni29  1  0.55572600  0.53892600  0.92394600  1
  Ni  Ni30  1  0.94427400  0.53892600  0.42394600  1
  Ni  Ni31  1  0.44427400  0.46107400  0.07605400  1
  Cu  Cu32  1  0.69973600  0.10511800  0.85829300  1
  Cu  Cu33  1  0.19973600  0.89488200  0.64170700  1
  Cu  Cu34  1  0.30026400  0.89488200  0.14170700  1
  Cu  Cu35  1  0.80026400  0.10511800  0.35829300  1
  Cu  Cu36  1  0.84447500  0.95428200  0.06544800  1
  Cu  Cu37  1  0.34447500  0.04571800  0.43455200  1
  Cu  Cu38  1  0.15552500  0.04571800  0.93455200  1
  Cu  Cu39  1  0.65552500  0.95428200  0.56544800  1
  Cu  Cu40  1  0.79631600  0.49188000  0.53152600  1
  Cu  Cu41  1  0.29631600  0.50812000  0.96847400  1
  Cu  Cu42  1  0.20368400  0.50812000  0.46847400  1
  Cu  Cu43  1  0.70368400  0.49188000  0.03152600  1
  Cu  Cu44  1  0.14311800  0.39929500  0.69052000  1
  Cu  Cu45  1  0.64311800  0.60070500  0.80948000  1
  Cu  Cu46  1  0.85688200  0.60070500  0.30948000  1
  Cu  Cu47  1  0.35688200  0.39929500  0.19052000  1
