# generated using pymatgen
data_Cu5Ni2C3
_symmetry_space_group_name_H-M   'P 1'
_cell_length_a   8.96324400
_cell_length_b   8.96324400
_cell_length_c   11.59719000
_cell_angle_alpha   90.00000000
_cell_angle_beta   90.00000000
_cell_angle_gamma   119.99999997
_symmetry_Int_Tables_number   1
_chemical_formula_structural   Cu5Ni2C3
_chemical_formula_sum   'Cu30 Ni12 C18'
_cell_volume   806.88908741
_cell_formula_units_Z   6
loop_
 _symmetry_equiv_pos_site_id
 _symmetry_equiv_pos_as_xyz
  1  'x, y, z'
loop_
 _atom_site_type_symbol
 _atom_site_label
 _atom_site_symmetry_multiplicity
 _atom_site_fract_x
 _atom_site_fract_y
 _atom_site_fract_z
 _atom_site_occupancy
  C  C0  1  0.00000000  0.00000000  0.66666700  1
  C  C1  1  0.00000000  0.00000000  0.33333300  1
  C  C2  1  0.00000000  0.00000000  0.00000000  1
  C  C3  1  0.00000000  0.50000000  0.66666700  1
  C  C4  1  0.50000000  0.50000000  0.33333300  1
  C  C5  1  0.50000000  0.00000000  0.00000000  1
  C  C6  1  0.34679800  0.09862900  0.48414200  1
  C  C7  1  0.75183200  0.09862900  0.51585800  1
  C  C8  1  0.65320200  0.75183200  0.84919100  1
  C  C9  1  0.90137100  0.24816800  0.15080900  1
  C  C10  1  0.90137100  0.65320200  0.18252400  1
  C  C11  1  0.09862900  0.34679800  0.18252400  1
  C  C12  1  0.09862900  0.75183200  0.15080900  1
  C  C13  1  0.75183200  0.65320200  0.81747600  1
  C  C14  1  0.24816800  0.90137100  0.51585800  1
  C  C15  1  0.24816800  0.34679800  0.81747600  1
  C  C16  1  0.34679800  0.24816800  0.84919100  1
  C  C17  1  0.65320200  0.90137100  0.48414200  1
  Ni  Ni18  1  0.21054000  0.42108000  0.50000000  1
  Ni  Ni19  1  0.61848800  0.30924400  0.16666700  1
  Ni  Ni20  1  0.30924400  0.69075600  0.83333300  1
  Ni  Ni21  1  0.69075600  0.38151200  0.50000000  1
  Ni  Ni22  1  0.69075600  0.30924400  0.83333300  1
  Ni  Ni23  1  0.78946000  0.21054000  0.83333300  1
  Ni  Ni24  1  0.78946000  0.57892000  0.50000000  1
  Ni  Ni25  1  0.38151200  0.69075600  0.16666700  1
  Ni  Ni26  1  0.57892000  0.78946000  0.16666700  1
  Ni  Ni27  1  0.21054000  0.78946000  0.83333300  1
  Ni  Ni28  1  0.42108000  0.21054000  0.16666700  1
  Ni  Ni29  1  0.30924400  0.61848800  0.50000000  1
  Cu  Cu30  1  0.31062400  0.75941600  0.10996000  1
  Cu  Cu31  1  0.00000000  0.76811900  0.16666700  1
  Cu  Cu32  1  0.68937600  0.44879100  0.22337300  1
  Cu  Cu33  1  0.24058400  0.68937600  0.55670600  1
  Cu  Cu34  1  0.00000000  0.23188100  0.16666700  1
  Cu  Cu35  1  0.73342400  0.65307900  0.43492000  1
  Cu  Cu36  1  0.23188100  0.23188100  0.83333300  1
  Cu  Cu37  1  0.55120900  0.24058400  0.89004000  1
  Cu  Cu38  1  0.65307900  0.91965600  0.10158700  1
  Cu  Cu39  1  0.76811900  0.00000000  0.50000000  1
  Cu  Cu40  1  0.65307900  0.73342400  0.23174600  1
  Cu  Cu41  1  0.44879100  0.68937600  0.44329400  1
  Cu  Cu42  1  0.08034400  0.34692100  0.56508000  1
  Cu  Cu43  1  0.34692100  0.08034400  0.10158700  1
  Cu  Cu44  1  0.73342400  0.08034400  0.89841300  1
  Cu  Cu45  1  0.08034400  0.73342400  0.76825400  1
  Cu  Cu46  1  0.91965600  0.26657600  0.76825400  1
  Cu  Cu47  1  0.26657600  0.34692100  0.43492000  1
  Cu  Cu48  1  0.91965600  0.65307900  0.56508000  1
  Cu  Cu49  1  0.23188100  0.00000000  0.50000000  1
  Cu  Cu50  1  0.24058400  0.55120900  0.77662700  1
  Cu  Cu51  1  0.55120900  0.31062400  0.44329400  1
  Cu  Cu52  1  0.31062400  0.55120900  0.22337300  1
  Cu  Cu53  1  0.26657600  0.91965600  0.89841300  1
  Cu  Cu54  1  0.44879100  0.75941600  0.89004000  1
  Cu  Cu55  1  0.76811900  0.76811900  0.83333300  1
  Cu  Cu56  1  0.75941600  0.31062400  0.55670600  1
  Cu  Cu57  1  0.68937600  0.24058400  0.10996000  1
  Cu  Cu58  1  0.34692100  0.26657600  0.23174600  1
  Cu  Cu59  1  0.75941600  0.44879100  0.77662700  1
