# generated using pymatgen
data_Cu7NiC13
_symmetry_space_group_name_H-M   'P 1'
_cell_length_a   6.74918728
_cell_length_b   6.74918728
_cell_length_c   22.37051218
_cell_angle_alpha   88.76360106
_cell_angle_beta   88.76360106
_cell_angle_gamma   120.29675047
_symmetry_Int_Tables_number   1
_chemical_formula_structural   Cu7NiC13
_chemical_formula_sum   'Cu28 Ni4 C52'
_cell_volume   879.01166461
_cell_formula_units_Z   4
loop_
 _symmetry_equiv_pos_site_id
 _symmetry_equiv_pos_as_xyz
  1  'x, y, z'
loop_
 _atom_site_type_symbol
 _atom_site_label
 _atom_site_symmetry_multiplicity
 _atom_site_fract_x
 _atom_site_fract_y
 _atom_site_fract_z
 _atom_site_occupancy
  C  C0  1  0.83937900  0.16960200  0.94186200  1
  C  C1  1  0.16062100  0.83039800  0.05813800  1
  C  C2  1  0.83039800  0.16062100  0.55813800  1
  C  C3  1  0.16960200  0.83937900  0.44186200  1
  Ni  Ni4  1  0.54120500  0.73568700  0.19977600  1
  Ni  Ni5  1  0.45879500  0.26431300  0.80022400  1
  Ni  Ni6  1  0.73568700  0.54120500  0.69977600  1
  Ni  Ni7  1  0.26431300  0.45879500  0.30022400  1
  Cu  Cu8  1  0.83754000  0.29271600  0.19169000  1
  Cu  Cu9  1  0.41729900  0.65532700  0.56339400  1
  Cu  Cu10  1  0.65532700  0.41729900  0.06339400  1
  Cu  Cu11  1  0.34467300  0.58270100  0.93660600  1
  Cu  Cu12  1  0.58270100  0.34467300  0.43660600  1
  Cu  Cu13  1  0.13711100  0.23031200  0.69208000  1
  Cu  Cu14  1  0.73884400  0.66736900  0.90743700  1
  Cu  Cu15  1  0.17496800  0.83990500  0.91596500  1
  Cu  Cu16  1  0.03651900  0.72345600  0.21130700  1
  Cu  Cu17  1  0.73123900  0.57332400  0.56376600  1
  Cu  Cu18  1  0.33263100  0.26115600  0.59256300  1
  Cu  Cu19  1  0.86288900  0.76968800  0.30792000  1
  Cu  Cu20  1  0.76968800  0.86288900  0.80792000  1
  Cu  Cu21  1  0.66736900  0.73884400  0.40743700  1
  Cu  Cu22  1  0.42667600  0.26876100  0.93623400  1
  Cu  Cu23  1  0.70728400  0.16246000  0.30831000  1
  Cu  Cu24  1  0.83990500  0.17496800  0.41596500  1
  Cu  Cu25  1  0.23031200  0.13711100  0.19208000  1
  Cu  Cu26  1  0.82503200  0.16009500  0.08403500  1
  Cu  Cu27  1  0.27654400  0.96348100  0.28869300  1
  Cu  Cu28  1  0.16009500  0.82503200  0.58403500  1
  Cu  Cu29  1  0.16246000  0.70728400  0.80831000  1
  Cu  Cu30  1  0.29271600  0.83754000  0.69169000  1
  Cu  Cu31  1  0.96348100  0.27654400  0.78869300  1
  Cu  Cu32  1  0.26876100  0.42667600  0.43623400  1
  Cu  Cu33  1  0.72345600  0.03651900  0.71130700  1
  Cu  Cu34  1  0.26115600  0.33263100  0.09256300  1
  Cu  Cu35  1  0.57332400  0.73123900  0.06376600  1
  C  C36  1  0.26253300  0.42671000  0.56796000  1
  C  C37  1  0.84120300  0.71085200  0.24866200  1
  C  C38  1  0.04185100  0.17517500  0.06923400  1
  C  C39  1  0.42337800  0.65604100  0.42716600  1
  C  C40  1  0.17517500  0.04185100  0.56923400  1
  C  C41  1  0.87697300  0.07680800  0.83269500  1
  C  C42  1  0.04290600  0.36210700  0.44642400  1
  C  C43  1  0.20858100  0.79141900  0.75000000  1
  C  C44  1  0.04574200  0.47858600  0.82409600  1
  C  C45  1  0.82482500  0.95814900  0.43076600  1
  C  C46  1  0.95709400  0.63789300  0.55357600  1
  C  C47  1  0.33199600  0.27907200  0.65880700  1
  C  C48  1  0.65604100  0.42337800  0.92716600  1
  C  C49  1  0.36210700  0.04290600  0.94642400  1
  C  C50  1  0.65423400  0.73024700  0.56350900  1
  C  C51  1  0.57329000  0.73746700  0.93204000  1
  C  C52  1  0.34576600  0.26975300  0.43649100  1
  C  C53  1  0.82610400  0.36670500  0.05616200  1
  C  C54  1  0.28914800  0.15879700  0.25133800  1
  C  C55  1  0.92319200  0.12302700  0.66730500  1
  C  C56  1  0.95425800  0.52141400  0.17590400  1
  C  C57  1  0.76066000  0.12909100  0.14840100  1
  C  C58  1  0.36670500  0.82610400  0.55616200  1
  C  C59  1  0.17389600  0.63329500  0.94383800  1
  C  C60  1  0.63789300  0.95709400  0.05357600  1
  C  C61  1  0.26975300  0.34576600  0.93649100  1
  C  C62  1  0.63329500  0.17389600  0.44383800  1
  C  C63  1  0.79141900  0.20858100  0.25000000  1
  C  C64  1  0.47858600  0.04574200  0.32409600  1
  C  C65  1  0.73024700  0.65423400  0.06350900  1
  C  C66  1  0.72092800  0.66800400  0.84119300  1
  C  C67  1  0.15879700  0.28914800  0.75133800  1
  C  C68  1  0.23060900  0.76939100  0.25000000  1
  C  C69  1  0.12302700  0.92319200  0.16730500  1
  C  C70  1  0.66800400  0.72092800  0.34119300  1
  C  C71  1  0.34395900  0.57662200  0.07283400  1
  C  C72  1  0.95814900  0.82482500  0.93076600  1
  C  C73  1  0.73746700  0.57329000  0.43204000  1
  C  C74  1  0.07680800  0.87697300  0.33269500  1
  C  C75  1  0.12909100  0.76066000  0.64840100  1
  C  C76  1  0.71085200  0.84120300  0.74866200  1
  C  C77  1  0.27907200  0.33199600  0.15880700  1
  C  C78  1  0.23934000  0.87090900  0.85159900  1
  C  C79  1  0.57662200  0.34395900  0.57283400  1
  C  C80  1  0.52141400  0.95425800  0.67590400  1
  C  C81  1  0.42671000  0.26253300  0.06796000  1
  C  C82  1  0.87090900  0.23934000  0.35159900  1
  C  C83  1  0.76939100  0.23060900  0.75000000  1
