# generated using pymatgen
data_CuNiC9
_symmetry_space_group_name_H-M   'P 1'
_cell_length_a   5.72812000
_cell_length_b   9.29199100
_cell_length_c   14.35654900
_cell_angle_alpha   90.00000000
_cell_angle_beta   90.00000000
_cell_angle_gamma   90.00000000
_symmetry_Int_Tables_number   1
_chemical_formula_structural   CuNiC9
_chemical_formula_sum   'Cu4 Ni4 C36'
_cell_volume   764.13650135
_cell_formula_units_Z   4
loop_
 _symmetry_equiv_pos_site_id
 _symmetry_equiv_pos_as_xyz
  1  'x, y, z'
loop_
 _atom_site_type_symbol
 _atom_site_label
 _atom_site_symmetry_multiplicity
 _atom_site_fract_x
 _atom_site_fract_y
 _atom_site_fract_z
 _atom_site_occupancy
  C  C0  1  0.98032200  0.81410700  0.11075400  1
  C  C1  1  0.01967800  0.31410700  0.38924600  1
  C  C2  1  0.49588000  0.49134800  0.19150600  1
  C  C3  1  0.50412000  0.99134800  0.30849400  1
  C  C4  1  0.00412000  0.50865200  0.69150600  1
  C  C5  1  0.48032200  0.68589300  0.88924600  1
  C  C6  1  0.99588000  0.00865200  0.80849400  1
  C  C7  1  0.51967800  0.18589300  0.61075400  1
  Ni  Ni8  1  0.46793100  0.05723200  0.02176900  1
  Ni  Ni9  1  0.96793100  0.44276800  0.97823100  1
  Ni  Ni10  1  0.03206900  0.94276800  0.52176900  1
  Ni  Ni11  1  0.53206900  0.55723200  0.47823100  1
  Cu  Cu12  1  0.97554300  0.70688800  0.33873300  1
  Cu  Cu13  1  0.52445700  0.29311200  0.83873300  1
  Cu  Cu14  1  0.47554300  0.79311200  0.66126700  1
  Cu  Cu15  1  0.02445700  0.20688800  0.16126700  1
  C  C16  1  0.34664000  0.36713300  0.78253700  1
  C  C17  1  0.57247500  0.64789600  0.63092600  1
  C  C18  1  0.07392700  0.12067800  0.07377900  1
  C  C19  1  0.92607300  0.62067800  0.42622100  1
  C  C20  1  0.92752500  0.35210400  0.13092600  1
  C  C21  1  0.74331700  0.27042600  0.78579600  1
  C  C22  1  0.65336000  0.86713300  0.71746300  1
  C  C23  1  0.57392700  0.37932200  0.92622100  1
  C  C24  1  0.15336000  0.63286700  0.28253700  1
  C  C25  1  0.42607300  0.87932200  0.57377900  1
  C  C26  1  0.75668300  0.72957400  0.28579600  1
  C  C27  1  0.25668300  0.77042600  0.71420400  1
  C  C28  1  0.42752500  0.14789600  0.86907400  1
  C  C29  1  0.84664000  0.13286700  0.21746300  1
  C  C30  1  0.24331700  0.22957400  0.21420400  1
  C  C31  1  0.07247500  0.85210400  0.36907400  1
  C  C32  1  0.54233700  0.40682400  0.37431600  1
  C  C33  1  0.74805300  0.42023700  0.54026800  1
  C  C34  1  0.71392400  0.92719900  0.96413800  1
  C  C35  1  0.04233700  0.09317600  0.62568400  1
  C  C36  1  0.25194700  0.92023700  0.95973200  1
  C  C37  1  0.78607600  0.07280100  0.46413800  1
  C  C38  1  0.95766300  0.59317600  0.87431600  1
  C  C39  1  0.28607600  0.42719900  0.53586200  1
  C  C40  1  0.24805300  0.07976300  0.45973200  1
  C  C41  1  0.75194700  0.57976300  0.04026800  1
  C  C42  1  0.45766300  0.90682400  0.12568400  1
  C  C43  1  0.21392400  0.57280100  0.03586200  1
