# generated using pymatgen
data_Cu4NiC5
_symmetry_space_group_name_H-M   'P 1'
_cell_length_a   8.39837937
_cell_length_b   8.39837937
_cell_length_c   8.39837937
_cell_angle_alpha   60.00000000
_cell_angle_beta   60.00000000
_cell_angle_gamma   60.00000000
_symmetry_Int_Tables_number   1
_chemical_formula_structural   Cu4NiC5
_chemical_formula_sum   'Cu8 Ni2 C10'
_cell_volume   418.86248721
_cell_formula_units_Z   2
loop_
 _symmetry_equiv_pos_site_id
 _symmetry_equiv_pos_as_xyz
  1  'x, y, z'
loop_
 _atom_site_type_symbol
 _atom_site_label
 _atom_site_symmetry_multiplicity
 _atom_site_fract_x
 _atom_site_fract_y
 _atom_site_fract_z
 _atom_site_occupancy
  C  C0  1  0.25000000  0.25000000  0.25000000  1
  C  C1  1  0.00000000  0.00000000  0.00000000  1
  Ni  Ni2  1  0.50000000  0.50000000  0.50000000  1
  Ni  Ni3  1  0.75000000  0.75000000  0.75000000  1
  Cu  Cu4  1  0.73160900  0.42279700  0.42279700  1
  Cu  Cu5  1  0.51839100  0.82720300  0.82720300  1
  Cu  Cu6  1  0.82720300  0.82720300  0.51839100  1
  Cu  Cu7  1  0.82720300  0.51839100  0.82720300  1
  Cu  Cu8  1  0.42279700  0.42279700  0.73160900  1
  Cu  Cu9  1  0.82720300  0.82720300  0.82720300  1
  Cu  Cu10  1  0.42279700  0.42279700  0.42279700  1
  Cu  Cu11  1  0.42279700  0.73160900  0.42279700  1
  C  C12  1  0.88376700  0.88376700  0.34870000  1
  C  C13  1  0.88376700  0.88376700  0.88376700  1
  C  C14  1  0.36623300  0.90130000  0.36623300  1
  C  C15  1  0.36623300  0.36623300  0.36623300  1
  C  C16  1  0.88376700  0.34870000  0.88376700  1
  C  C17  1  0.90130000  0.36623300  0.36623300  1
  C  C18  1  0.36623300  0.36623300  0.90130000  1
  C  C19  1  0.34870000  0.88376700  0.88376700  1
