# generated using pymatgen
data_Cu4NiC3
_symmetry_space_group_name_H-M   'P 1'
_cell_length_a   5.07784360
_cell_length_b   5.07784360
_cell_length_c   13.79945700
_cell_angle_alpha   90.00000000
_cell_angle_beta   90.00000000
_cell_angle_gamma   123.23830760
_symmetry_Int_Tables_number   1
_chemical_formula_structural   Cu4NiC3
_chemical_formula_sum   'Cu8 Ni2 C6'
_cell_volume   297.60048758
_cell_formula_units_Z   2
loop_
 _symmetry_equiv_pos_site_id
 _symmetry_equiv_pos_as_xyz
  1  'x, y, z'
loop_
 _atom_site_type_symbol
 _atom_site_label
 _atom_site_symmetry_multiplicity
 _atom_site_fract_x
 _atom_site_fract_y
 _atom_site_fract_z
 _atom_site_occupancy
  C  C0  1  0.83273500  0.22969200  0.88662300  1
  C  C1  1  0.22969200  0.83273500  0.38662300  1
  C  C2  1  0.22969200  0.83273500  0.11337700  1
  C  C3  1  0.83273500  0.22969200  0.61337700  1
  C  C4  1  0.18956400  0.91643700  0.75000000  1
  C  C5  1  0.91643700  0.18956400  0.25000000  1
  Ni  Ni6  1  0.45545900  0.45545900  0.00000000  1
  Ni  Ni7  1  0.45545900  0.45545900  0.50000000  1
  Cu  Cu8  1  0.12896900  0.72468200  0.84354100  1
  Cu  Cu9  1  0.19524400  0.54726000  0.25000000  1
  Cu  Cu10  1  0.99112100  0.06730100  0.75000000  1
  Cu  Cu11  1  0.72468200  0.12896900  0.15645900  1
  Cu  Cu12  1  0.12896900  0.72468200  0.65645900  1
  Cu  Cu13  1  0.72468200  0.12896900  0.34354100  1
  Cu  Cu14  1  0.54726000  0.19524400  0.75000000  1
  Cu  Cu15  1  0.06730100  0.99112100  0.25000000  1
