# generated using pymatgen
data_Cu4Ni3C26
_symmetry_space_group_name_H-M   'P 1'
_cell_length_a   10.26423419
_cell_length_b   10.26423419
_cell_length_c   10.26423419
_cell_angle_alpha   148.18284933
_cell_angle_beta   126.05562319
_cell_angle_gamma   64.00419791
_symmetry_Int_Tables_number   1
_chemical_formula_structural   Cu4Ni3C26
_chemical_formula_sum   'Cu4 Ni3 C26'
_cell_volume   456.03377672
_cell_formula_units_Z   1
loop_
 _symmetry_equiv_pos_site_id
 _symmetry_equiv_pos_as_xyz
  1  'x, y, z'
loop_
 _atom_site_type_symbol
 _atom_site_label
 _atom_site_symmetry_multiplicity
 _atom_site_fract_x
 _atom_site_fract_y
 _atom_site_fract_z
 _atom_site_occupancy
  Ni  Ni0  1  0.40881200  0.62603600  0.78277500  1
  Ni  Ni1  1  0.15673900  0.37396300  0.78277600  1
  Ni  Ni2  1  0.94478600  0.00000000  0.94478600  1
  Cu  Cu3  1  0.02161000  0.67043400  0.35117600  1
  Cu  Cu4  1  0.46195800  0.85824900  0.60370800  1
  Cu  Cu5  1  0.74545900  0.14175000  0.60370800  1
  Cu  Cu6  1  0.68074200  0.32956600  0.35117600  1
  C  C7  1  0.23303400  0.21413300  0.01890000  1
  C  C8  1  0.70418600  0.50000000  0.20418600  1
  C  C9  1  0.80476700  0.78586600  0.01890000  1
  C  C10  1  0.31383000  0.00000000  0.31383000  1
  C  C11  1  0.28289700  0.06629900  0.78298000  1
  C  C12  1  0.78099600  0.78585500  0.42546800  1
  C  C13  1  0.88643400  0.63775400  0.81415300  1
  C  C14  1  0.17639900  0.36224600  0.24868000  1
  C  C15  1  0.63961300  0.21414500  0.99514100  1
  C  C16  1  0.42613800  0.22593800  0.20019900  1
  C  C17  1  0.17639900  0.92771900  0.81415300  1
  C  C18  1  0.88643400  0.07228100  0.24868000  1
  C  C19  1  0.88934800  0.50000000  0.38934800  1
  C  C20  1  0.46587500  0.06716200  0.39871300  1
  C  C21  1  0.33155000  0.93283700  0.39871300  1
  C  C22  1  0.22511700  0.79396800  0.01908500  1
  C  C23  1  0.52327500  0.50000000  0.02327500  1
  C  C24  1  0.28289700  0.49991700  0.21659800  1
  C  C25  1  0.63961300  0.64447200  0.42546800  1
  C  C26  1  0.71668100  0.93370100  0.21659800  1
  C  C27  1  0.22511700  0.20603200  0.43114800  1
  C  C28  1  0.63034300  0.79673300  0.83361000  1
  C  C29  1  0.71668100  0.50008300  0.78298000  1
  C  C30  1  0.03687600  0.20326600  0.83361000  1
  C  C31  1  0.97426100  0.77406100  0.20019900  1
  C  C32  1  0.78099600  0.35552800  0.99514100  1
