# generated using pymatgen
data_Cu2NiC3
_symmetry_space_group_name_H-M   'P 1'
_cell_length_a   4.12824300
_cell_length_b   5.66298800
_cell_length_c   10.08263500
_cell_angle_alpha   90.00000000
_cell_angle_beta   90.00000000
_cell_angle_gamma   90.00000000
_symmetry_Int_Tables_number   1
_chemical_formula_structural   Cu2NiC3
_chemical_formula_sum   'Cu4 Ni2 C6'
_cell_volume   235.71376248
_cell_formula_units_Z   2
loop_
 _symmetry_equiv_pos_site_id
 _symmetry_equiv_pos_as_xyz
  1  'x, y, z'
loop_
 _atom_site_type_symbol
 _atom_site_label
 _atom_site_symmetry_multiplicity
 _atom_site_fract_x
 _atom_site_fract_y
 _atom_site_fract_z
 _atom_site_occupancy
  Ni  Ni0  1  0.50000000  0.50000000  0.00000000  1
  Ni  Ni1  1  0.00000000  0.00000000  0.50000000  1
  Cu  Cu2  1  0.50000000  0.07761200  0.22985700  1
  Cu  Cu3  1  0.00000000  0.57761200  0.27014300  1
  Cu  Cu4  1  0.50000000  0.92238800  0.77014300  1
  Cu  Cu5  1  0.00000000  0.42238800  0.72985700  1
  C  C6  1  0.00000000  0.00000000  0.00000000  1
  C  C7  1  0.50000000  0.50000000  0.50000000  1
  C  C8  1  0.50000000  0.72726200  0.34265300  1
  C  C9  1  0.50000000  0.27273800  0.65734700  1
  C  C10  1  0.00000000  0.77273800  0.84265300  1
  C  C11  1  0.00000000  0.22726200  0.15734700  1
