# generated using pymatgen
data_Cu4NiC3
_symmetry_space_group_name_H-M   'P 1'
_cell_length_a   6.41068800
_cell_length_b   7.18524600
_cell_length_c   11.17560400
_cell_angle_alpha   90.00000000
_cell_angle_beta   90.00000000
_cell_angle_gamma   90.00000000
_symmetry_Int_Tables_number   1
_chemical_formula_structural   Cu4NiC3
_chemical_formula_sum   'Cu16 Ni4 C12'
_cell_volume   514.77480988
_cell_formula_units_Z   4
loop_
 _symmetry_equiv_pos_site_id
 _symmetry_equiv_pos_as_xyz
  1  'x, y, z'
loop_
 _atom_site_type_symbol
 _atom_site_label
 _atom_site_symmetry_multiplicity
 _atom_site_fract_x
 _atom_site_fract_y
 _atom_site_fract_z
 _atom_site_occupancy
  C  C0  1  0.85993300  0.97637900  0.25000000  1
  C  C1  1  0.14006700  0.02362100  0.75000000  1
  C  C2  1  0.14006700  0.47637900  0.25000000  1
  C  C3  1  0.85993300  0.52362100  0.75000000  1
  C  C4  1  0.62443500  0.25000000  0.50000000  1
  C  C5  1  0.62443500  0.25000000  0.00000000  1
  C  C6  1  0.37556500  0.75000000  0.50000000  1
  C  C7  1  0.37556500  0.75000000  0.00000000  1
  C  C8  1  0.12898200  0.25000000  0.00000000  1
  C  C9  1  0.87101800  0.75000000  0.50000000  1
  C  C10  1  0.12898200  0.25000000  0.50000000  1
  C  C11  1  0.87101800  0.75000000  0.00000000  1
  Ni  Ni12  1  0.50241200  0.70083700  0.25000000  1
  Ni  Ni13  1  0.49758800  0.20083700  0.25000000  1
  Ni  Ni14  1  0.50241200  0.79916300  0.75000000  1
  Ni  Ni15  1  0.49758800  0.29916300  0.75000000  1
  Cu  Cu16  1  0.96869100  0.26340500  0.62383000  1
  Cu  Cu17  1  0.29260700  0.06609700  0.52855800  1
  Cu  Cu18  1  0.29260700  0.43390300  0.02855800  1
  Cu  Cu19  1  0.29260700  0.43390300  0.47144200  1
  Cu  Cu20  1  0.70739300  0.56609700  0.52855800  1
  Cu  Cu21  1  0.03130900  0.73659500  0.37617000  1
  Cu  Cu22  1  0.96869100  0.23659500  0.12383000  1
  Cu  Cu23  1  0.03130900  0.76340500  0.62383000  1
  Cu  Cu24  1  0.03130900  0.73659500  0.12383000  1
  Cu  Cu25  1  0.03130900  0.76340500  0.87617000  1
  Cu  Cu26  1  0.96869100  0.23659500  0.37617000  1
  Cu  Cu27  1  0.29260700  0.06609700  0.97144200  1
  Cu  Cu28  1  0.70739300  0.93390300  0.47144200  1
  Cu  Cu29  1  0.70739300  0.56609700  0.97144200  1
  Cu  Cu30  1  0.70739300  0.93390300  0.02855800  1
  Cu  Cu31  1  0.96869100  0.26340500  0.87617000  1
