# generated using pymatgen
data_Cu(NiC5)2
_symmetry_space_group_name_H-M   'P 1'
_cell_length_a   14.02641100
_cell_length_b   6.82581400
_cell_length_c   7.38640100
_cell_angle_alpha   73.89110458
_cell_angle_beta   90.00000000
_cell_angle_gamma   90.00000000
_symmetry_Int_Tables_number   1
_chemical_formula_structural   Cu(NiC5)2
_chemical_formula_sum   'Cu4 Ni8 C40'
_cell_volume   679.41948190
_cell_formula_units_Z   4
loop_
 _symmetry_equiv_pos_site_id
 _symmetry_equiv_pos_as_xyz
  1  'x, y, z'
loop_
 _atom_site_type_symbol
 _atom_site_label
 _atom_site_symmetry_multiplicity
 _atom_site_fract_x
 _atom_site_fract_y
 _atom_site_fract_z
 _atom_site_occupancy
  C  C0  1  0.50972200  0.81186100  0.79075400  1
  C  C1  1  0.49027800  0.18813900  0.20924600  1
  C  C2  1  0.75000000  0.08028800  0.45893300  1
  C  C3  1  0.00972200  0.18813900  0.20924600  1
  C  C4  1  0.99027800  0.81186100  0.79075400  1
  C  C5  1  0.25000000  0.91971200  0.54106700  1
  Ni  Ni6  1  0.37791000  0.32794800  0.68095300  1
  Ni  Ni7  1  0.25000000  0.97308800  0.05213700  1
  Ni  Ni8  1  0.25000000  0.48414000  0.03855600  1
  Ni  Ni9  1  0.87791000  0.67205200  0.31904700  1
  Ni  Ni10  1  0.62209000  0.67205200  0.31904700  1
  Ni  Ni11  1  0.12209000  0.32794800  0.68095300  1
  Ni  Ni12  1  0.75000000  0.02691200  0.94786300  1
  Ni  Ni13  1  0.75000000  0.51586000  0.96144400  1
  Cu  Cu14  1  0.10225600  0.65276300  0.28471600  1
  Cu  Cu15  1  0.89774400  0.34723700  0.71528400  1
  Cu  Cu16  1  0.39774400  0.65276300  0.28471600  1
  Cu  Cu17  1  0.60225600  0.34723700  0.71528400  1
  C  C18  1  0.84597600  0.13760400  0.77653000  1
  C  C19  1  0.10523100  0.57686400  0.50182400  1
  C  C20  1  0.65032200  0.50085000  0.80495200  1
  C  C21  1  0.89476900  0.42313600  0.49817600  1
  C  C22  1  0.00150500  0.31668800  0.78862600  1
  C  C23  1  0.60523100  0.42313600  0.49817600  1
  C  C24  1  0.34597600  0.86239600  0.22347000  1
  C  C25  1  0.15032200  0.49915000  0.19504800  1
  C  C26  1  0.65402400  0.13760400  0.77653000  1
  C  C27  1  0.15402400  0.86239600  0.22347000  1
  C  C28  1  0.34967800  0.49915000  0.19504800  1
  C  C29  1  0.39476900  0.57686400  0.50182400  1
  C  C30  1  0.49849500  0.31668800  0.78862600  1
  C  C31  1  0.84967800  0.50085000  0.80495200  1
  C  C32  1  0.99849500  0.68331200  0.21137400  1
  C  C33  1  0.50150500  0.68331200  0.21137400  1
  C  C34  1  0.25000000  0.20454000  0.13208900  1
  C  C35  1  0.09193100  0.15482600  0.54619200  1
  C  C36  1  0.75000000  0.79546000  0.86791100  1
  C  C37  1  0.15609800  0.09118700  0.87889200  1
  C  C38  1  0.25000000  0.32265700  0.60994300  1
  C  C39  1  0.34390200  0.09118700  0.87889200  1
  C  C40  1  0.25000000  0.76553800  0.93518100  1
  C  C41  1  0.66101300  0.52684000  0.14716400  1
  C  C42  1  0.75000000  0.23446200  0.06481900  1
  C  C43  1  0.75000000  0.67734300  0.39005700  1
  C  C44  1  0.16101300  0.47316000  0.85283600  1
  C  C45  1  0.40806900  0.15482600  0.54619200  1
  C  C46  1  0.90806900  0.84517400  0.45380800  1
  C  C47  1  0.83898700  0.52684000  0.14716400  1
  C  C48  1  0.33898700  0.47316000  0.85283600  1
  C  C49  1  0.59193100  0.84517400  0.45380800  1
  C  C50  1  0.84390200  0.90881300  0.12110800  1
  C  C51  1  0.65609800  0.90881300  0.12110800  1
