# generated using pymatgen
data_Cu4Ni9C16
_symmetry_space_group_name_H-M   'P 1'
_cell_length_a   10.57428600
_cell_length_b   10.57428600
_cell_length_c   10.57428529
_cell_angle_alpha   108.37494123
_cell_angle_beta   108.37494123
_cell_angle_gamma   108.37494239
_symmetry_Int_Tables_number   1
_chemical_formula_structural   Cu4Ni9C16
_chemical_formula_sum   'Cu8 Ni18 C32'
_cell_volume   945.32723264
_cell_formula_units_Z   2
loop_
 _symmetry_equiv_pos_site_id
 _symmetry_equiv_pos_as_xyz
  1  'x, y, z'
loop_
 _atom_site_type_symbol
 _atom_site_label
 _atom_site_symmetry_multiplicity
 _atom_site_fract_x
 _atom_site_fract_y
 _atom_site_fract_z
 _atom_site_occupancy
  Ni  Ni0  1  0.45196400  0.40255600  0.18136900  1
  Ni  Ni1  1  0.40255600  0.18136900  0.45196400  1
  Ni  Ni2  1  0.18136900  0.45196400  0.40255600  1
  Ni  Ni3  1  0.90255600  0.95196400  0.68136900  1
  Ni  Ni4  1  0.95196400  0.68136900  0.90255600  1
  Ni  Ni5  1  0.68136900  0.90255600  0.95196400  1
  Ni  Ni6  1  0.27384100  0.19684200  0.64103400  1
  Ni  Ni7  1  0.19684200  0.64103400  0.27384100  1
  Ni  Ni8  1  0.64103400  0.27384100  0.19684200  1
  Ni  Ni9  1  0.69684200  0.77384100  0.14103400  1
  Ni  Ni10  1  0.77384100  0.14103400  0.69684200  1
  Ni  Ni11  1  0.14103400  0.69684200  0.77384100  1
  Ni  Ni12  1  0.96617100  0.35145800  0.10851300  1
  Ni  Ni13  1  0.35145800  0.10851300  0.96617100  1
  Ni  Ni14  1  0.10851300  0.96617100  0.35145800  1
  Ni  Ni15  1  0.85145800  0.46617100  0.60851300  1
  Ni  Ni16  1  0.46617100  0.60851300  0.85145800  1
  Ni  Ni17  1  0.60851300  0.85145800  0.46617100  1
  Cu  Cu18  1  0.16487400  0.38276900  0.88485500  1
  Cu  Cu19  1  0.38276900  0.88485500  0.16487400  1
  Cu  Cu20  1  0.88485500  0.16487400  0.38276900  1
  Cu  Cu21  1  0.88276900  0.66487400  0.38485500  1
  Cu  Cu22  1  0.66487400  0.38485500  0.88276900  1
  Cu  Cu23  1  0.38485500  0.88276900  0.66487400  1
  Cu  Cu24  1  0.06255700  0.06255700  0.06255700  1
  Cu  Cu25  1  0.56255700  0.56255700  0.56255700  1
  C  C26  1  0.90921200  0.09619600  0.99407800  1
  C  C27  1  0.09619600  0.99407800  0.90921200  1
  C  C28  1  0.99407800  0.90921200  0.09619600  1
  C  C29  1  0.59619600  0.40921200  0.49407800  1
  C  C30  1  0.40921200  0.49407800  0.59619600  1
  C  C31  1  0.49407800  0.59619600  0.40921200  1
  C  C32  1  0.15104300  0.20905200  0.78243100  1
  C  C33  1  0.20905200  0.78243100  0.15104300  1
  C  C34  1  0.78243100  0.15104300  0.20905200  1
  C  C35  1  0.70905200  0.65104300  0.28243100  1
  C  C36  1  0.65104300  0.28243100  0.70905200  1
  C  C37  1  0.28243100  0.70905200  0.65104300  1
  C  C38  1  0.28094400  0.46340900  0.07455400  1
  C  C39  1  0.46340900  0.07455400  0.28094400  1
  C  C40  1  0.07455400  0.28094400  0.46340900  1
  C  C41  1  0.96340900  0.78094400  0.57455400  1
  C  C42  1  0.78094400  0.57455400  0.96340900  1
  C  C43  1  0.57455400  0.96340900  0.78094400  1
  C  C44  1  0.99143000  0.36181200  0.87503100  1
  C  C45  1  0.36181200  0.87503100  0.99143000  1
  C  C46  1  0.87503100  0.99143000  0.36181200  1
  C  C47  1  0.86181200  0.49143000  0.37503100  1
  C  C48  1  0.49143000  0.37503100  0.86181200  1
  C  C49  1  0.37503100  0.86181200  0.49143000  1
  C  C50  1  0.72478500  0.31081700  0.00037500  1
  C  C51  1  0.31081700  0.00037500  0.72478500  1
  C  C52  1  0.00037500  0.72478500  0.31081700  1
  C  C53  1  0.81081700  0.22478500  0.50037500  1
  C  C54  1  0.22478500  0.50037500  0.81081700  1
  C  C55  1  0.50037500  0.81081700  0.22478500  1
  C  C56  1  0.21480700  0.21480700  0.21480700  1
  C  C57  1  0.71480700  0.71480700  0.71480700  1
