# generated using pymatgen
data_Cu3NiC14
_symmetry_space_group_name_H-M   'P 1'
_cell_length_a   6.31898400
_cell_length_b   7.22139990
_cell_length_c   13.37401907
_cell_angle_alpha   95.59998721
_cell_angle_beta   96.66692612
_cell_angle_gamma   104.08669524
_symmetry_Int_Tables_number   1
_chemical_formula_structural   Cu3NiC14
_chemical_formula_sum   'Cu6 Ni2 C28'
_cell_volume   582.88984602
_cell_formula_units_Z   2
loop_
 _symmetry_equiv_pos_site_id
 _symmetry_equiv_pos_as_xyz
  1  'x, y, z'
loop_
 _atom_site_type_symbol
 _atom_site_label
 _atom_site_symmetry_multiplicity
 _atom_site_fract_x
 _atom_site_fract_y
 _atom_site_fract_z
 _atom_site_occupancy
  C  C0  1  0.48267700  0.75734000  0.83020700  1
  C  C1  1  0.51732300  0.24266000  0.16979300  1
  Ni  Ni2  1  0.07187000  0.75870400  0.27071700  1
  Ni  Ni3  1  0.92813000  0.24129600  0.72928300  1
  Cu  Cu4  1  0.18676900  0.74949300  0.40322200  1
  Cu  Cu5  1  0.81323100  0.25050700  0.59677800  1
  Cu  Cu6  1  0.87383800  0.85416300  0.12602400  1
  Cu  Cu7  1  0.88084900  0.38975100  0.83065600  1
  Cu  Cu8  1  0.12616200  0.14583700  0.87397600  1
  Cu  Cu9  1  0.11915100  0.61024900  0.16934400  1
  C  C10  1  0.98446100  0.69149000  0.08327700  1
  C  C11  1  0.04830100  0.12528700  0.75279000  1
  C  C12  1  0.01553900  0.30851000  0.91672300  1
  C  C13  1  0.95169900  0.87471300  0.24721000  1
  C  C14  1  0.25474400  0.20867100  0.09354000  1
  C  C15  1  0.35881300  0.76023100  0.94230900  1
  C  C16  1  0.52840200  0.01232700  0.83682000  1
  C  C17  1  0.22152500  0.72454600  0.75696600  1
  C  C18  1  0.17075000  0.52350700  0.37327900  1
  C  C19  1  0.94136000  0.69499700  0.43278300  1
  C  C20  1  0.74525600  0.79132900  0.90646000  1
  C  C21  1  0.47159800  0.98767300  0.16318000  1
  C  C22  1  0.38859000  0.24650100  0.27946900  1
  C  C23  1  0.79446200  0.02628200  0.56715000  1
  C  C24  1  0.77847500  0.27545400  0.24303400  1
  C  C25  1  0.56753100  0.19785700  0.62774100  1
  C  C26  1  0.82925000  0.47649300  0.62672100  1
  C  C27  1  0.28651200  0.73654400  0.51616700  1
  C  C28  1  0.64118700  0.23976900  0.05769100  1
  C  C29  1  0.43246900  0.80214300  0.37225900  1
  C  C30  1  0.56040300  0.49778900  0.17553400  1
  C  C31  1  0.61141000  0.75349900  0.72053100  1
  C  C32  1  0.20553800  0.97371800  0.43285000  1
  C  C33  1  0.71348800  0.26345600  0.48383300  1
  C  C34  1  0.43959700  0.50221100  0.82446600  1
  C  C35  1  0.05864000  0.30500300  0.56721700  1
