# generated using pymatgen
data_CuNiC2
_symmetry_space_group_name_H-M   'P 1'
_cell_length_a   13.24858741
_cell_length_b   13.24858741
_cell_length_c   7.60257400
_cell_angle_alpha   90.00000000
_cell_angle_beta   90.00000000
_cell_angle_gamma   109.20466082
_symmetry_Int_Tables_number   1
_chemical_formula_structural   CuNiC2
_chemical_formula_sum   'Cu16 Ni16 C32'
_cell_volume   1260.18009282
_cell_formula_units_Z   16
loop_
 _symmetry_equiv_pos_site_id
 _symmetry_equiv_pos_as_xyz
  1  'x, y, z'
loop_
 _atom_site_type_symbol
 _atom_site_label
 _atom_site_symmetry_multiplicity
 _atom_site_fract_x
 _atom_site_fract_y
 _atom_site_fract_z
 _atom_site_occupancy
  C  C0  1  0.63093400  0.36906600  0.51508600  1
  C  C1  1  0.35211200  0.36109500  0.25000000  1
  C  C2  1  0.63890500  0.64788800  0.25000000  1
  C  C3  1  0.12758400  0.36984900  0.01784600  1
  C  C4  1  0.63015100  0.87241600  0.01784600  1
  C  C5  1  0.36906600  0.63093400  0.01508600  1
  C  C6  1  0.63093400  0.36906600  0.98491400  1
  C  C7  1  0.62943500  0.14026800  0.75000000  1
  C  C8  1  0.36084900  0.87079800  0.75000000  1
  C  C9  1  0.12920200  0.63915100  0.75000000  1
  C  C10  1  0.85973200  0.37056500  0.75000000  1
  C  C11  1  0.64788800  0.63890500  0.75000000  1
  C  C12  1  0.36109500  0.35211200  0.75000000  1
  C  C13  1  0.13054100  0.86945900  0.51825600  1
  C  C14  1  0.36984900  0.12758400  0.51784600  1
  C  C15  1  0.87241600  0.63015100  0.51784600  1
  C  C16  1  0.63015100  0.87241600  0.48215400  1
  C  C17  1  0.12758400  0.36984900  0.48215400  1
  C  C18  1  0.36906600  0.63093400  0.48491400  1
  C  C19  1  0.12640000  0.13713600  0.25000000  1
  C  C20  1  0.86286400  0.87360000  0.25000000  1
  C  C21  1  0.63915100  0.12920200  0.25000000  1
  C  C22  1  0.37056500  0.85973200  0.25000000  1
  C  C23  1  0.14026800  0.62943500  0.25000000  1
  C  C24  1  0.87079800  0.36084900  0.25000000  1
  C  C25  1  0.86945900  0.13054100  0.01825600  1
  C  C26  1  0.13054100  0.86945900  0.98174400  1
  C  C27  1  0.36984900  0.12758400  0.98215400  1
  C  C28  1  0.87241600  0.63015100  0.98215400  1
  C  C29  1  0.13713600  0.12640000  0.75000000  1
  C  C30  1  0.87360000  0.86286400  0.75000000  1
  C  C31  1  0.86945900  0.13054100  0.48174400  1
  Ni  Ni32  1  0.74949000  0.25051000  0.99950500  1
  Ni  Ni33  1  0.74949000  0.25051000  0.50049500  1
  Ni  Ni34  1  0.24707700  0.24707700  0.00000000  1
  Ni  Ni35  1  0.75292300  0.75292300  0.00000000  1
  Ni  Ni36  1  0.74767000  0.50045700  0.75000000  1
  Ni  Ni37  1  0.49954300  0.25233000  0.75000000  1
  Ni  Ni38  1  0.25051000  0.74949000  0.49950500  1
  Ni  Ni39  1  0.75292300  0.75292300  0.50000000  1
  Ni  Ni40  1  0.24707700  0.24707700  0.50000000  1
  Ni  Ni41  1  0.50045700  0.74767000  0.25000000  1
  Ni  Ni42  1  0.25233000  0.49954300  0.25000000  1
  Ni  Ni43  1  0.99925900  0.24850500  0.25000000  1
  Ni  Ni44  1  0.75149500  0.00074100  0.25000000  1
  Ni  Ni45  1  0.25051000  0.74949000  0.00049500  1
  Ni  Ni46  1  0.00074100  0.75149500  0.75000000  1
  Ni  Ni47  1  0.24850500  0.99925900  0.75000000  1
  Cu  Cu48  1  0.54928600  0.45071400  0.25000000  1
  Cu  Cu49  1  0.78591100  0.51100200  0.25000000  1
  Cu  Cu50  1  0.45071400  0.54928600  0.75000000  1
  Cu  Cu51  1  0.51100200  0.78591100  0.75000000  1
  Cu  Cu52  1  0.21408900  0.48899800  0.75000000  1
  Cu  Cu53  1  0.75276500  0.00278200  0.75000000  1
  Cu  Cu54  1  0.00000000  0.50000000  0.50000000  1
  Cu  Cu55  1  0.50000000  0.00000000  0.50000000  1
  Cu  Cu56  1  0.00278200  0.75276500  0.25000000  1
  Cu  Cu57  1  0.48899800  0.21408900  0.25000000  1
  Cu  Cu58  1  0.24723500  0.99721800  0.25000000  1
  Cu  Cu59  1  0.00000000  0.00000000  0.00000000  1
  Cu  Cu60  1  0.50000000  0.00000000  0.00000000  1
  Cu  Cu61  1  0.00000000  0.50000000  0.00000000  1
  Cu  Cu62  1  0.99721800  0.24723500  0.75000000  1
  Cu  Cu63  1  0.00000000  0.00000000  0.50000000  1
