# generated using pymatgen
data_Cu2(NiC2)3
_symmetry_space_group_name_H-M   'P 1'
_cell_length_a   14.16764560
_cell_length_b   14.16764560
_cell_length_c   14.16764560
_cell_angle_alpha   109.47122063
_cell_angle_beta   109.47122063
_cell_angle_gamma   109.47122063
_symmetry_Int_Tables_number   1
_chemical_formula_structural   Cu2(NiC2)3
_chemical_formula_sum   'Cu16 Ni24 C48'
_cell_volume   2189.12803486
_cell_formula_units_Z   8
loop_
 _symmetry_equiv_pos_site_id
 _symmetry_equiv_pos_as_xyz
  1  'x, y, z'
loop_
 _atom_site_type_symbol
 _atom_site_label
 _atom_site_symmetry_multiplicity
 _atom_site_fract_x
 _atom_site_fract_y
 _atom_site_fract_z
 _atom_site_occupancy
  C  C0  1  0.15806100  0.47807000  0.66028500  1
  C  C1  1  0.31778500  0.32000900  0.47807000  1
  C  C2  1  0.00222400  0.18221500  0.66028500  1
  C  C3  1  0.67999100  0.65806100  0.99777600  1
  C  C4  1  0.66028500  0.15806100  0.47807000  1
  C  C5  1  0.33971500  0.84193900  0.52193000  1
  C  C6  1  0.18221500  0.66028500  0.00222400  1
  C  C7  1  0.50222400  0.16028500  0.68221500  1
  C  C8  1  0.16028500  0.68221500  0.50222400  1
  C  C9  1  0.32000900  0.47807000  0.31778500  1
  C  C10  1  0.65806100  0.16028500  0.97807000  1
  C  C11  1  0.02193000  0.17999100  0.18221500  1
  C  C12  1  0.34193900  0.00222400  0.32000900  1
  C  C13  1  0.18221500  0.02193000  0.17999100  1
  C  C14  1  0.81778500  0.33971500  0.99777600  1
  C  C15  1  0.68221500  0.50222400  0.16028500  1
  C  C16  1  0.47807000  0.66028500  0.15806100  1
  C  C17  1  0.99777600  0.67999100  0.65806100  1
  C  C18  1  0.49777600  0.83971500  0.31778500  1
  C  C19  1  0.99777600  0.81778500  0.33971500  1
  C  C20  1  0.65806100  0.99777600  0.67999100  1
  C  C21  1  0.52193000  0.33971500  0.84193900  1
  C  C22  1  0.33971500  0.99777600  0.81778500  1
  C  C23  1  0.17999100  0.18221500  0.02193000  1
  C  C24  1  0.52193000  0.68221500  0.67999100  1
  C  C25  1  0.67999100  0.52193000  0.68221500  1
  C  C26  1  0.83971500  0.31778500  0.49777600  1
  C  C27  1  0.31778500  0.49777600  0.83971500  1
  C  C28  1  0.00222400  0.32000900  0.34193900  1
  C  C29  1  0.97807000  0.82000900  0.81778500  1
  C  C30  1  0.32000900  0.34193900  0.00222400  1
  C  C31  1  0.15806100  0.17999100  0.49777600  1
  C  C32  1  0.81778500  0.97807000  0.82000900  1
  C  C33  1  0.34193900  0.83971500  0.02193000  1
  C  C34  1  0.82000900  0.50222400  0.84193900  1
  C  C35  1  0.82000900  0.81778500  0.97807000  1
  C  C36  1  0.84193900  0.82000900  0.50222400  1
  C  C37  1  0.97807000  0.65806100  0.16028500  1
  C  C38  1  0.49777600  0.15806100  0.17999100  1
  C  C39  1  0.02193000  0.34193900  0.83971500  1
  C  C40  1  0.16028500  0.97807000  0.65806100  1
  C  C41  1  0.66028500  0.00222400  0.18221500  1
  C  C42  1  0.50222400  0.84193900  0.82000900  1
  C  C43  1  0.83971500  0.02193000  0.34193900  1
  C  C44  1  0.47807000  0.31778500  0.32000900  1
  C  C45  1  0.84193900  0.52193000  0.33971500  1
  C  C46  1  0.17999100  0.49777600  0.15806100  1
  C  C47  1  0.68221500  0.67999100  0.52193000  1
  Ni  Ni48  1  0.98685100  0.51314900  0.75000000  1
  Ni  Ni49  1  0.47370100  0.48685100  0.73685100  1
  Ni  Ni50  1  0.23685100  0.75000000  0.26314900  1
  Ni  Ni51  1  0.25000000  0.01314900  0.48685100  1
  Ni  Ni52  1  0.26314900  0.23685100  0.75000000  1
  Ni  Ni53  1  0.97370100  0.23685100  0.98685100  1
  Ni  Ni54  1  0.76314900  0.25000000  0.73685100  1
  Ni  Ni55  1  0.23685100  0.98685100  0.97370100  1
  Ni  Ni56  1  0.51314900  0.75000000  0.98685100  1
  Ni  Ni57  1  0.25000000  0.73685100  0.76314900  1
  Ni  Ni58  1  0.98685100  0.97370100  0.23685100  1
  Ni  Ni59  1  0.73685100  0.76314900  0.25000000  1
  Ni  Ni60  1  0.26314900  0.52629900  0.51314900  1
  Ni  Ni61  1  0.76314900  0.01314900  0.02629900  1
  Ni  Ni62  1  0.01314900  0.02629900  0.76314900  1
  Ni  Ni63  1  0.48685100  0.25000000  0.01314900  1
  Ni  Ni64  1  0.75000000  0.98685100  0.51314900  1
  Ni  Ni65  1  0.01314900  0.48685100  0.25000000  1
  Ni  Ni66  1  0.73685100  0.47370100  0.48685100  1
  Ni  Ni67  1  0.52629900  0.51314900  0.26314900  1
  Ni  Ni68  1  0.75000000  0.26314900  0.23685100  1
  Ni  Ni69  1  0.48685100  0.73685100  0.47370100  1
  Ni  Ni70  1  0.02629900  0.76314900  0.01314900  1
  Ni  Ni71  1  0.51314900  0.26314900  0.52629900  1
  Cu  Cu72  1  0.00000000  0.90309300  0.50000000  1
  Cu  Cu73  1  0.00000000  0.09690700  0.50000000  1
  Cu  Cu74  1  0.59690700  0.50000000  0.00000000  1
  Cu  Cu75  1  0.40309300  0.50000000  0.00000000  1
  Cu  Cu76  1  0.40309300  0.40309300  0.40309300  1
  Cu  Cu77  1  0.50000000  0.00000000  0.09690700  1
  Cu  Cu78  1  0.59690700  0.59690700  0.59690700  1
  Cu  Cu79  1  0.00000000  0.59690700  0.50000000  1
  Cu  Cu80  1  0.09690700  0.09690700  0.09690700  1
  Cu  Cu81  1  0.50000000  0.00000000  0.40309300  1
  Cu  Cu82  1  0.00000000  0.40309300  0.50000000  1
  Cu  Cu83  1  0.50000000  0.00000000  0.90309300  1
  Cu  Cu84  1  0.90309300  0.50000000  0.00000000  1
  Cu  Cu85  1  0.50000000  0.00000000  0.59690700  1
  Cu  Cu86  1  0.09690700  0.50000000  0.00000000  1
  Cu  Cu87  1  0.90309300  0.90309300  0.90309300  1
