# generated using pymatgen
data_CuNi3C7
_symmetry_space_group_name_H-M   'P 1'
_cell_length_a   6.86458367
_cell_length_b   6.86458367
_cell_length_c   6.86458373
_cell_angle_alpha   91.47602588
_cell_angle_beta   91.47602588
_cell_angle_gamma   91.47601696
_symmetry_Int_Tables_number   1
_chemical_formula_structural   CuNi3C7
_chemical_formula_sum   'Cu2 Ni6 C14'
_cell_volume   323.14877086
_cell_formula_units_Z   2
loop_
 _symmetry_equiv_pos_site_id
 _symmetry_equiv_pos_as_xyz
  1  'x, y, z'
loop_
 _atom_site_type_symbol
 _atom_site_label
 _atom_site_symmetry_multiplicity
 _atom_site_fract_x
 _atom_site_fract_y
 _atom_site_fract_z
 _atom_site_occupancy
  Ni  Ni0  1  0.88626800  0.25000000  0.61373200  1
  Ni  Ni1  1  0.38626800  0.11373200  0.75000000  1
  Ni  Ni2  1  0.75000000  0.38626800  0.11373200  1
  Ni  Ni3  1  0.25000000  0.61373200  0.88626800  1
  Ni  Ni4  1  0.61373200  0.88626800  0.25000000  1
  Ni  Ni5  1  0.11373200  0.75000000  0.38626800  1
  Cu  Cu6  1  0.75000000  0.75000000  0.75000000  1
  Cu  Cu7  1  0.25000000  0.25000000  0.25000000  1
  C  C8  1  0.50000000  0.50000000  0.50000000  1
  C  C9  1  0.00000000  0.00000000  0.00000000  1
  C  C10  1  0.91853500  0.71425400  0.05044400  1
  C  C11  1  0.44955600  0.78574600  0.58146500  1
  C  C12  1  0.05044400  0.91853500  0.71425400  1
  C  C13  1  0.28574600  0.94955600  0.08146500  1
  C  C14  1  0.94955600  0.08146500  0.28574600  1
  C  C15  1  0.71425400  0.05044400  0.91853500  1
  C  C16  1  0.58146500  0.44955600  0.78574600  1
  C  C17  1  0.78574600  0.58146500  0.44955600  1
  C  C18  1  0.41853500  0.55044400  0.21425400  1
  C  C19  1  0.21425400  0.41853500  0.55044400  1
  C  C20  1  0.55044400  0.21425400  0.41853500  1
  C  C21  1  0.08146500  0.28574600  0.94955600  1
