# generated using pymatgen
data_Cu2NiC9
_symmetry_space_group_name_H-M   'P 1'
_cell_length_a   10.43084104
_cell_length_b   10.43084104
_cell_length_c   5.59831800
_cell_angle_alpha   90.00000000
_cell_angle_beta   90.00000000
_cell_angle_gamma   148.53083121
_symmetry_Int_Tables_number   1
_chemical_formula_structural   Cu2NiC9
_chemical_formula_sum   'Cu4 Ni2 C18'
_cell_volume   317.97994611
_cell_formula_units_Z   2
loop_
 _symmetry_equiv_pos_site_id
 _symmetry_equiv_pos_as_xyz
  1  'x, y, z'
loop_
 _atom_site_type_symbol
 _atom_site_label
 _atom_site_symmetry_multiplicity
 _atom_site_fract_x
 _atom_site_fract_y
 _atom_site_fract_z
 _atom_site_occupancy
  Ni  Ni0  1  0.74758300  0.74758300  0.75000000  1
  Ni  Ni1  1  0.25241700  0.25241700  0.25000000  1
  Cu  Cu2  1  0.44783800  0.08251700  0.25000000  1
  Cu  Cu3  1  0.08251700  0.44783800  0.25000000  1
  Cu  Cu4  1  0.91748300  0.55216200  0.75000000  1
  Cu  Cu5  1  0.55216200  0.91748300  0.75000000  1
  C  C6  1  0.65171200  0.85116300  0.25000000  1
  C  C7  1  0.34828800  0.14883700  0.75000000  1
  C  C8  1  0.14883700  0.34828800  0.75000000  1
  C  C9  1  0.85116300  0.65171200  0.25000000  1
  C  C10  1  0.39895100  0.60104900  0.00000000  1
  C  C11  1  0.60104900  0.39895100  0.50000000  1
  C  C12  1  0.91644100  0.51373700  0.25000000  1
  C  C13  1  0.08355900  0.48626300  0.75000000  1
  C  C14  1  0.11087600  0.88912400  0.50000000  1
  C  C15  1  0.88912400  0.11087600  0.00000000  1
  C  C16  1  0.76762100  0.76762100  0.25000000  1
  C  C17  1  0.39895100  0.60104900  0.50000000  1
  C  C18  1  0.48626300  0.08355900  0.75000000  1
  C  C19  1  0.88912400  0.11087600  0.50000000  1
  C  C20  1  0.60104900  0.39895100  0.00000000  1
  C  C21  1  0.11087600  0.88912400  0.00000000  1
  C  C22  1  0.51373700  0.91644100  0.25000000  1
  C  C23  1  0.23237900  0.23237900  0.75000000  1
