# generated using pymatgen
data_CuNiC5
_symmetry_space_group_name_H-M   'P 1'
_cell_length_a   6.15305000
_cell_length_b   6.65900900
_cell_length_c   23.13776500
_cell_angle_alpha   90.00000000
_cell_angle_beta   90.00000000
_cell_angle_gamma   90.00000000
_symmetry_Int_Tables_number   1
_chemical_formula_structural   CuNiC5
_chemical_formula_sum   'Cu8 Ni8 C40'
_cell_volume   948.02862754
_cell_formula_units_Z   8
loop_
 _symmetry_equiv_pos_site_id
 _symmetry_equiv_pos_as_xyz
  1  'x, y, z'
loop_
 _atom_site_type_symbol
 _atom_site_label
 _atom_site_symmetry_multiplicity
 _atom_site_fract_x
 _atom_site_fract_y
 _atom_site_fract_z
 _atom_site_occupancy
  C  C0  1  0.47758000  0.00528400  0.50390200  1
  C  C1  1  0.97758000  0.49471600  0.49609800  1
  C  C2  1  0.02242000  0.99471600  0.00390200  1
  C  C3  1  0.52242000  0.50528400  0.99609800  1
  Ni  Ni4  1  0.48780400  0.99083000  0.88529300  1
  Ni  Ni5  1  0.53498700  0.54889800  0.35736700  1
  Ni  Ni6  1  0.51219600  0.49083000  0.61470700  1
  Ni  Ni7  1  0.96501300  0.45110200  0.85736700  1
  Ni  Ni8  1  0.98780400  0.50917000  0.11470700  1
  Ni  Ni9  1  0.03498700  0.95110200  0.64263300  1
  Ni  Ni10  1  0.46501300  0.04889800  0.14263300  1
  Ni  Ni11  1  0.01219600  0.00917000  0.38529300  1
  Cu  Cu12  1  0.67932600  0.44347700  0.23541300  1
  Cu  Cu13  1  0.68211100  0.37524600  0.75503000  1
  Cu  Cu14  1  0.17932600  0.05652300  0.76458700  1
  Cu  Cu15  1  0.32067400  0.94347700  0.26458700  1
  Cu  Cu16  1  0.18211100  0.12475400  0.24497000  1
  Cu  Cu17  1  0.82067400  0.55652300  0.73541300  1
  Cu  Cu18  1  0.81788900  0.62475400  0.25503000  1
  Cu  Cu19  1  0.31788900  0.87524600  0.74497000  1
  C  C20  1  0.69654300  0.38193900  0.18407900  1
  C  C21  1  0.05203300  0.20536400  0.27816300  1
  C  C22  1  0.78536100  0.68146600  0.30868600  1
  C  C23  1  0.21463900  0.18146600  0.19131400  1
  C  C24  1  0.28536100  0.81853400  0.69131400  1
  C  C25  1  0.55203300  0.29463600  0.72183700  1
  C  C26  1  0.19654300  0.11806100  0.81592100  1
  C  C27  1  0.55280900  0.36854400  0.27338200  1
  C  C28  1  0.94719100  0.63145600  0.77338200  1
  C  C29  1  0.94796700  0.70536400  0.22183700  1
  C  C30  1  0.80345700  0.61806100  0.68407900  1
  C  C31  1  0.30345700  0.88193900  0.31592100  1
  C  C32  1  0.71463900  0.31853400  0.80868600  1
  C  C33  1  0.44796700  0.79463600  0.77816300  1
  C  C34  1  0.05280900  0.13145600  0.72661800  1
  C  C35  1  0.44719100  0.86854400  0.22661800  1
  C  C36  1  0.75106200  0.70302000  0.09698500  1
  C  C37  1  0.74500800  0.34593500  0.38773800  1
  C  C38  1  0.17881700  0.76565900  0.58297700  1
  C  C39  1  0.32118300  0.23434100  0.08297700  1
  C  C40  1  0.74893800  0.29698000  0.59698500  1
  C  C41  1  0.57720000  0.92735800  0.96800800  1
  C  C42  1  0.82118300  0.26565900  0.91702300  1
  C  C43  1  0.24500800  0.15406500  0.61226200  1
  C  C44  1  0.07720000  0.57264200  0.03199200  1
  C  C45  1  0.24893800  0.20302000  0.40301500  1
  C  C46  1  0.25499200  0.84593500  0.11226200  1
  C  C47  1  0.25106200  0.79698000  0.90301500  1
  C  C48  1  0.31893300  0.20848000  0.92461900  1
  C  C49  1  0.75499200  0.65406500  0.88773800  1
  C  C50  1  0.67881700  0.73434100  0.41702300  1
  C  C51  1  0.81893300  0.29152000  0.07538100  1
  C  C52  1  0.18106700  0.79152000  0.42461900  1
  C  C53  1  0.92280000  0.07264200  0.46800800  1
  C  C54  1  0.42280000  0.42735800  0.53199200  1
  C  C55  1  0.68106700  0.70848000  0.57538100  1
