# generated using pymatgen
data_Cu4NiC3
_symmetry_space_group_name_H-M   'P 1'
_cell_length_a   7.09026278
_cell_length_b   7.09026278
_cell_length_c   7.09026278
_cell_angle_alpha   104.52193868
_cell_angle_beta   104.52193868
_cell_angle_gamma   119.90071889
_symmetry_Int_Tables_number   1
_chemical_formula_structural   Cu4NiC3
_chemical_formula_sum   'Cu4 Ni1 C3'
_cell_volume   267.46342998
_cell_formula_units_Z   1
loop_
 _symmetry_equiv_pos_site_id
 _symmetry_equiv_pos_as_xyz
  1  'x, y, z'
loop_
 _atom_site_type_symbol
 _atom_site_label
 _atom_site_symmetry_multiplicity
 _atom_site_fract_x
 _atom_site_fract_y
 _atom_site_fract_z
 _atom_site_occupancy
  C  C0  1  0.50000000  0.50000000  0.00000000  1
  C  C1  1  0.00000000  0.50000000  0.50000000  1
  C  C2  1  0.50000000  0.00000000  0.50000000  1
  Ni  Ni3  1  0.00000000  0.00000000  0.00000000  1
  Cu  Cu4  1  0.57025700  0.92234900  0.00000000  1
  Cu  Cu5  1  0.07765100  0.07765100  0.64790800  1
  Cu  Cu6  1  0.92234900  0.57025700  0.00000000  1
  Cu  Cu7  1  0.42974300  0.42974300  0.35209200  1
