# generated using pymatgen
data_CuNiC5
_symmetry_space_group_name_H-M   'P 1'
_cell_length_a   4.99201000
_cell_length_b   6.69859800
_cell_length_c   10.07220300
_cell_angle_alpha   90.00000000
_cell_angle_beta   90.00000000
_cell_angle_gamma   90.00000000
_symmetry_Int_Tables_number   1
_chemical_formula_structural   CuNiC5
_chemical_formula_sum   'Cu4 Ni4 C20'
_cell_volume   336.80911194
_cell_formula_units_Z   4
loop_
 _symmetry_equiv_pos_site_id
 _symmetry_equiv_pos_as_xyz
  1  'x, y, z'
loop_
 _atom_site_type_symbol
 _atom_site_label
 _atom_site_symmetry_multiplicity
 _atom_site_fract_x
 _atom_site_fract_y
 _atom_site_fract_z
 _atom_site_occupancy
  C  C0  1  0.25662400  0.98496900  0.35520700  1
  C  C1  1  0.75662400  0.48496900  0.14479300  1
  C  C2  1  0.75662400  0.01503100  0.64479300  1
  C  C3  1  0.25662400  0.51503100  0.85520700  1
  Ni  Ni4  1  0.75149500  0.51491900  0.67242200  1
  Ni  Ni5  1  0.25149500  0.01491900  0.82757800  1
  Ni  Ni6  1  0.25149500  0.48508100  0.32757800  1
  Ni  Ni7  1  0.75149500  0.98508100  0.17242200  1
  Cu  Cu8  1  0.25067900  0.27969200  0.59381300  1
  Cu  Cu9  1  0.25067900  0.22030800  0.09381300  1
  Cu  Cu10  1  0.75067900  0.77969200  0.90618700  1
  Cu  Cu11  1  0.75067900  0.72030800  0.40618700  1
  C  C12  1  0.40389800  0.03674300  0.17032700  1
  C  C13  1  0.90389800  0.96325700  0.82967300  1
  C  C14  1  0.92702700  0.29799700  0.62227100  1
  C  C15  1  0.42702700  0.70200300  0.37772900  1
  C  C16  1  0.90389800  0.53674300  0.32967300  1
  C  C17  1  0.81022600  0.72441800  0.56628600  1
  C  C18  1  0.42702700  0.79799700  0.87772900  1
  C  C19  1  0.40389800  0.46325700  0.67032700  1
  C  C20  1  0.85445100  0.56987400  0.83797800  1
  C  C21  1  0.31022600  0.27558200  0.43371400  1
  C  C22  1  0.35445100  0.43012600  0.16202200  1
  C  C23  1  0.85445100  0.93012600  0.33797800  1
  C  C24  1  0.35445100  0.06987400  0.66202200  1
  C  C25  1  0.31022600  0.22441800  0.93371400  1
  C  C26  1  0.92702700  0.20200300  0.12227100  1
  C  C27  1  0.81022600  0.77558200  0.06628600  1
