# generated using pymatgen
data_Cu4Ni4C5
_symmetry_space_group_name_H-M   'P 1'
_cell_length_a   9.23679831
_cell_length_b   9.23679831
_cell_length_c   7.59835594
_cell_angle_alpha   81.63160190
_cell_angle_beta   81.63160190
_cell_angle_gamma   84.24164912
_symmetry_Int_Tables_number   1
_chemical_formula_structural   Cu4Ni4C5
_chemical_formula_sum   'Cu8 Ni8 C10'
_cell_volume   632.47050663
_cell_formula_units_Z   2
loop_
 _symmetry_equiv_pos_site_id
 _symmetry_equiv_pos_as_xyz
  1  'x, y, z'
loop_
 _atom_site_type_symbol
 _atom_site_label
 _atom_site_symmetry_multiplicity
 _atom_site_fract_x
 _atom_site_fract_y
 _atom_site_fract_z
 _atom_site_occupancy
  C  C0  1  0.30634500  0.05084300  0.41146900  1
  C  C1  1  0.05084300  0.30634500  0.91146900  1
  C  C2  1  0.49767600  0.03080200  0.99178100  1
  C  C3  1  0.74406900  0.82783800  0.11728500  1
  C  C4  1  0.29835200  0.81967100  0.09905500  1
  C  C5  1  0.81967100  0.29835200  0.59905500  1
  C  C6  1  0.82783800  0.74406900  0.61728500  1
  C  C7  1  0.59947900  0.53010300  0.73048900  1
  C  C8  1  0.53010300  0.59947900  0.23048900  1
  C  C9  1  0.03080200  0.49767600  0.49178100  1
  Ni  Ni10  1  0.95396200  0.65821700  0.50517100  1
  Ni  Ni11  1  0.37536200  0.95854000  0.15630900  1
  Ni  Ni12  1  0.70252600  0.65593800  0.74236600  1
  Ni  Ni13  1  0.65593800  0.70252600  0.24236600  1
  Ni  Ni14  1  0.38807900  0.66658700  0.15016200  1
  Ni  Ni15  1  0.66658700  0.38807900  0.65016200  1
  Ni  Ni16  1  0.95854000  0.37536200  0.65630900  1
  Ni  Ni17  1  0.65821700  0.95396200  0.00517100  1
  Cu  Cu18  1  0.04058400  0.05408200  0.82646900  1
  Cu  Cu19  1  0.79178700  0.30520400  0.05496000  1
  Cu  Cu20  1  0.32564400  0.28839200  0.19826500  1
  Cu  Cu21  1  0.04738300  0.57331900  0.93907000  1
  Cu  Cu22  1  0.30520400  0.79178700  0.55496000  1
  Cu  Cu23  1  0.57331900  0.04738300  0.43907000  1
  Cu  Cu24  1  0.28839200  0.32564400  0.69826500  1
  Cu  Cu25  1  0.05408200  0.04058400  0.32646900  1
