# generated using pymatgen
data_Cu2Ni2C
_symmetry_space_group_name_H-M   'P 1'
_cell_length_a   6.08500619
_cell_length_b   6.08500619
_cell_length_c   6.75369400
_cell_angle_alpha   90.00000000
_cell_angle_beta   90.00000000
_cell_angle_gamma   120.00000209
_symmetry_Int_Tables_number   1
_chemical_formula_structural   Cu2Ni2C
_chemical_formula_sum   'Cu6 Ni6 C3'
_cell_volume   216.56788292
_cell_formula_units_Z   3
loop_
 _symmetry_equiv_pos_site_id
 _symmetry_equiv_pos_as_xyz
  1  'x, y, z'
loop_
 _atom_site_type_symbol
 _atom_site_label
 _atom_site_symmetry_multiplicity
 _atom_site_fract_x
 _atom_site_fract_y
 _atom_site_fract_z
 _atom_site_occupancy
  C  C0  1  0.33333300  0.66666700  0.50000000  1
  C  C1  1  0.66666700  0.33333300  0.50000000  1
  C  C2  1  0.00000000  0.00000000  0.00000000  1
  Ni  Ni3  1  0.74294800  0.74294800  0.18705600  1
  Ni  Ni4  1  0.25705200  0.25705200  0.81294400  1
  Ni  Ni5  1  0.25705200  0.00000000  0.18705600  1
  Ni  Ni6  1  0.00000000  0.25705200  0.18705600  1
  Ni  Ni7  1  0.00000000  0.74294800  0.81294400  1
  Ni  Ni8  1  0.74294800  0.00000000  0.81294400  1
  Cu  Cu9  1  0.60980300  0.00000000  0.68429600  1
  Cu  Cu10  1  0.00000000  0.60980300  0.68429600  1
  Cu  Cu11  1  0.39019700  0.00000000  0.31570400  1
  Cu  Cu12  1  0.00000000  0.39019700  0.31570400  1
  Cu  Cu13  1  0.39019700  0.39019700  0.68429600  1
  Cu  Cu14  1  0.60980300  0.60980300  0.31570400  1
