# generated using pymatgen
data_Cu12Ni12C37
_symmetry_space_group_name_H-M   'P 1'
_cell_length_a   7.56181500
_cell_length_b   7.59590008
_cell_length_c   18.65688462
_cell_angle_alpha   90.36555708
_cell_angle_beta   89.91642200
_cell_angle_gamma   119.71175384
_symmetry_Int_Tables_number   1
_chemical_formula_structural   Cu12Ni12C37
_chemical_formula_sum   'Cu12 Ni12 C37'
_cell_volume   930.72095918
_cell_formula_units_Z   1
loop_
 _symmetry_equiv_pos_site_id
 _symmetry_equiv_pos_as_xyz
  1  'x, y, z'
loop_
 _atom_site_type_symbol
 _atom_site_label
 _atom_site_symmetry_multiplicity
 _atom_site_fract_x
 _atom_site_fract_y
 _atom_site_fract_z
 _atom_site_occupancy
  Ni  Ni0  1  0.99679000  0.00324200  0.00424800  1
  Ni  Ni1  1  0.51025200  0.50446300  0.99427800  1
  Ni  Ni2  1  0.16310000  0.32233600  0.83438900  1
  Ni  Ni3  1  0.99428000  0.48886700  0.00479800  1
  Ni  Ni4  1  0.33213300  0.66557000  0.66480700  1
  Ni  Ni5  1  0.83195000  0.16997400  0.66782700  1
  Ni  Ni6  1  0.49164600  0.98138700  0.49962600  1
  Ni  Ni7  1  0.33228900  0.17043900  0.66666200  1
  Ni  Ni8  1  0.67370400  0.33111500  0.32480300  1
  Ni  Ni9  1  0.84844600  0.67969700  0.16758900  1
  Ni  Ni10  1  0.16189500  0.82176600  0.33745900  1
  Ni  Ni11  1  0.66935900  0.84003300  0.33170200  1
  Cu  Cu12  1  0.64776600  0.30046400  0.83466200  1
  Cu  Cu13  1  0.82869200  0.66146100  0.66348900  1
  Cu  Cu14  1  0.17268000  0.84036700  0.83045200  1
  Cu  Cu15  1  0.66326300  0.84272000  0.83823000  1
  Cu  Cu16  1  0.99129400  0.98189800  0.49788400  1
  Cu  Cu17  1  0.16909700  0.33603800  0.33256100  1
  Cu  Cu18  1  0.50067200  0.49884700  0.50030500  1
  Cu  Cu19  1  0.99868000  0.50051900  0.50278500  1
  Cu  Cu20  1  0.33149900  0.65899100  0.16949300  1
  Cu  Cu21  1  0.51217800  0.00293900  0.99318200  1
  Cu  Cu22  1  0.85231200  0.17248300  0.16847600  1
  Cu  Cu23  1  0.33053100  0.16493700  0.16161700  1
  C  C24  1  0.16804600  0.33220600  0.95948600  1
  C  C25  1  0.66595900  0.84945400  0.95601800  1
  C  C26  1  0.46898800  0.96058200  0.87581400  1
  C  C27  1  0.49907900  0.00095400  0.62451900  1
  C  C28  1  0.34952500  0.15780100  0.79518500  1
  C  C29  1  0.65825400  0.30816700  0.94787400  1
  C  C30  1  0.70603100  0.38911000  0.72467300  1
  C  C31  1  0.98445200  0.52185400  0.61469600  1
  C  C32  1  0.99167800  0.53963100  0.86073500  1
  C  C33  1  0.12765100  0.80971100  0.46901600  1
  C  C34  1  0.53564800  0.53309500  0.85913500  1
  C  C35  1  0.11743900  0.80308800  0.72211400  1
  C  C36  1  0.53674000  0.52004800  0.61561500  1
  C  C37  1  0.83302100  0.66942900  0.29215100  1
  C  C38  1  0.68499700  0.80890000  0.46290600  1
  C  C39  1  0.69732800  0.81106600  0.72670900  1
  C  C40  1  0.97865500  0.95584900  0.61112700  1
  C  C41  1  0.97623200  0.95236700  0.86087100  1
  C  C42  1  0.01608800  0.03481300  0.13272000  1
  C  C43  1  0.04108000  0.05646800  0.38502300  1
  C  C44  1  0.31991500  0.19575800  0.52173400  1
  C  C45  1  0.87496300  0.19390100  0.51996200  1
  C  C46  1  0.16328900  0.33855900  0.70938800  1
  C  C47  1  0.87366000  0.18324500  0.28037500  1
  C  C48  1  0.44793000  0.44089400  0.38731300  1
  C  C49  1  0.01933100  0.48160100  0.14164800  1
  C  C50  1  0.31341500  0.62949000  0.28626600  1
  C  C51  1  0.00027300  0.46168600  0.38924800  1
  C  C52  1  0.31477300  0.62390500  0.52942000  1
  C  C53  1  0.35287000  0.73348300  0.05666800  1
  C  C54  1  0.63727900  0.85186300  0.19203700  1
  C  C55  1  0.50146500  0.01302800  0.37511200  1
  C  C56  1  0.77923700  0.14877400  0.05608300  1
  C  C57  1  0.22214600  0.87455800  0.20367600  1
  C  C58  1  0.36531400  0.14678200  0.05251100  1
  C  C59  1  0.62880600  0.28189900  0.19691500  1
  C  C60  1  0.83873600  0.66622800  0.04413400  1
