# generated using pymatgen
data_Cu2NiC5
_symmetry_space_group_name_H-M   'P 1'
_cell_length_a   8.98561700
_cell_length_b   12.50338000
_cell_length_c   18.22280200
_cell_angle_alpha   90.00000000
_cell_angle_beta   90.00000000
_cell_angle_gamma   90.00000000
_symmetry_Int_Tables_number   1
_chemical_formula_structural   Cu2NiC5
_chemical_formula_sum   'Cu16 Ni8 C40'
_cell_volume   2047.34244473
_cell_formula_units_Z   8
loop_
 _symmetry_equiv_pos_site_id
 _symmetry_equiv_pos_as_xyz
  1  'x, y, z'
loop_
 _atom_site_type_symbol
 _atom_site_label
 _atom_site_symmetry_multiplicity
 _atom_site_fract_x
 _atom_site_fract_y
 _atom_site_fract_z
 _atom_site_occupancy
  Ni  Ni0  1  0.91549100  0.39153400  0.62595200  1
  Ni  Ni1  1  0.08450900  0.39153400  0.12595200  1
  Ni  Ni2  1  0.41549100  0.10846600  0.62595200  1
  Ni  Ni3  1  0.58450900  0.10846600  0.12595200  1
  Ni  Ni4  1  0.08450900  0.60846600  0.37404800  1
  Ni  Ni5  1  0.58450900  0.89153400  0.37404800  1
  Ni  Ni6  1  0.41549100  0.89153400  0.87404800  1
  Ni  Ni7  1  0.91549100  0.60846600  0.87404800  1
  Cu  Cu8  1  0.67660500  0.76239700  0.62242900  1
  Cu  Cu9  1  0.46350400  0.50000000  0.75000000  1
  Cu  Cu10  1  0.32339500  0.23760300  0.37757100  1
  Cu  Cu11  1  0.82339500  0.26239700  0.37757100  1
  Cu  Cu12  1  0.82339500  0.73760300  0.12242900  1
  Cu  Cu13  1  0.32339500  0.76239700  0.12242900  1
  Cu  Cu14  1  0.17660500  0.26239700  0.87757100  1
  Cu  Cu15  1  0.03649600  0.00000000  0.25000000  1
  Cu  Cu16  1  0.00000000  0.00000000  0.50000000  1
  Cu  Cu17  1  0.96350400  0.00000000  0.75000000  1
  Cu  Cu18  1  0.53649600  0.50000000  0.25000000  1
  Cu  Cu19  1  0.17660500  0.73760300  0.62242900  1
  Cu  Cu20  1  0.50000000  0.50000000  0.00000000  1
  Cu  Cu21  1  0.67660500  0.23760300  0.87757100  1
  Cu  Cu22  1  0.50000000  0.50000000  0.50000000  1
  Cu  Cu23  1  0.00000000  0.00000000  0.00000000  1
  C  C24  1  0.06060000  0.87811800  0.12384900  1
  C  C25  1  0.56060000  0.37811800  0.37615100  1
  C  C26  1  0.43940000  0.37811800  0.87615100  1
  C  C27  1  0.93940000  0.87811800  0.62384900  1
  C  C28  1  0.43940000  0.62188200  0.62384900  1
  C  C29  1  0.56060000  0.62188200  0.12384900  1
  C  C30  1  0.06060000  0.12188200  0.37615100  1
  C  C31  1  0.93940000  0.12188200  0.87615100  1
  C  C32  1  0.14044600  0.41901700  0.66667400  1
  C  C33  1  0.41004500  0.75273700  0.94919800  1
  C  C34  1  0.75951700  0.64141300  0.78293900  1
  C  C35  1  0.24048300  0.64141300  0.28293900  1
  C  C36  1  0.14044600  0.58098300  0.83332600  1
  C  C37  1  0.58995500  0.24726300  0.05080200  1
  C  C38  1  0.85955400  0.41901700  0.16667400  1
  C  C39  1  0.25951700  0.14141300  0.71706100  1
  C  C40  1  0.35955400  0.08098300  0.16667400  1
  C  C41  1  0.64044600  0.08098300  0.66667400  1
  C  C42  1  0.08995500  0.25273700  0.05080200  1
  C  C43  1  0.75951700  0.35858700  0.71706100  1
  C  C44  1  0.91004500  0.25273700  0.55080200  1
  C  C45  1  0.64044600  0.91901700  0.83332600  1
  C  C46  1  0.91004500  0.74726300  0.94919800  1
  C  C47  1  0.41004500  0.24726300  0.55080200  1
  C  C48  1  0.16004400  0.53524200  0.06515500  1
  C  C49  1  0.83995600  0.46475800  0.93484500  1
  C  C50  1  0.66004400  0.96475800  0.06515500  1
  C  C51  1  0.33995600  0.03524200  0.93484500  1
  C  C52  1  0.16004400  0.46475800  0.43484500  1
  C  C53  1  0.35955400  0.91901700  0.33332600  1
  C  C54  1  0.08995500  0.74726300  0.44919800  1
  C  C55  1  0.85955400  0.58098300  0.33332600  1
  C  C56  1  0.66004400  0.03524200  0.43484500  1
  C  C57  1  0.74048300  0.85858700  0.28293900  1
  C  C58  1  0.83995600  0.53524200  0.56515500  1
  C  C59  1  0.58995500  0.75273700  0.44919800  1
  C  C60  1  0.33995600  0.96475800  0.56515500  1
  C  C61  1  0.74048300  0.14141300  0.21706100  1
  C  C62  1  0.24048300  0.35858700  0.21706100  1
  C  C63  1  0.25951700  0.85858700  0.78293900  1
