# generated using pymatgen
data_Cu6NiC3
_symmetry_space_group_name_H-M   'P 1'
_cell_length_a   13.85753100
_cell_length_b   6.72719300
_cell_length_c   12.83458164
_cell_angle_alpha   77.73955992
_cell_angle_beta   90.00000000
_cell_angle_gamma   90.00000000
_symmetry_Int_Tables_number   1
_chemical_formula_structural   Cu6NiC3
_chemical_formula_sum   'Cu24 Ni4 C12'
_cell_volume   1169.18048124
_cell_formula_units_Z   4
loop_
 _symmetry_equiv_pos_site_id
 _symmetry_equiv_pos_as_xyz
  1  'x, y, z'
loop_
 _atom_site_type_symbol
 _atom_site_label
 _atom_site_symmetry_multiplicity
 _atom_site_fract_x
 _atom_site_fract_y
 _atom_site_fract_z
 _atom_site_occupancy
  C  C0  1  0.13144500  0.92401800  0.02266100  1
  C  C1  1  0.63144500  0.07598200  0.47733900  1
  C  C2  1  0.36855500  0.92401800  0.52266100  1
  C  C3  1  0.86855500  0.07598200  0.97733900  1
  Ni  Ni4  1  0.96740900  0.39358800  0.72422600  1
  Ni  Ni5  1  0.53259100  0.39358800  0.22422600  1
  Ni  Ni6  1  0.46740900  0.60641200  0.77577400  1
  Ni  Ni7  1  0.03259100  0.60641200  0.27577400  1
  Cu  Cu8  1  0.09359000  0.53548200  0.70261500  1
  Cu  Cu9  1  0.59359000  0.46451800  0.79738500  1
  Cu  Cu10  1  0.96382400  0.21543900  0.61803000  1
  Cu  Cu11  1  0.01436900  0.17786900  0.07138100  1
  Cu  Cu12  1  0.53617600  0.21543900  0.11803000  1
  Cu  Cu13  1  0.70571900  0.38086100  0.49168200  1
  Cu  Cu14  1  0.79428100  0.38086100  0.99168200  1
  Cu  Cu15  1  0.73769300  0.01943700  0.34422600  1
  Cu  Cu16  1  0.48563100  0.17786900  0.57138100  1
  Cu  Cu17  1  0.76230700  0.01943700  0.84422600  1
  Cu  Cu18  1  0.51436900  0.82213100  0.42861900  1
  Cu  Cu19  1  0.98563100  0.82213100  0.92861900  1
  Cu  Cu20  1  0.46382400  0.78456100  0.88197000  1
  Cu  Cu21  1  0.03617600  0.78456100  0.38197000  1
  Cu  Cu22  1  0.86815300  0.60694800  0.67625900  1
  Cu  Cu23  1  0.90641000  0.46451800  0.29738500  1
  Cu  Cu24  1  0.13184700  0.39305200  0.32374100  1
  Cu  Cu25  1  0.26230700  0.98056300  0.65577400  1
  Cu  Cu26  1  0.23769300  0.98056300  0.15577400  1
  Cu  Cu27  1  0.20571900  0.61913900  0.00831800  1
  Cu  Cu28  1  0.36815300  0.39305200  0.82374100  1
  Cu  Cu29  1  0.63184700  0.60694800  0.17625900  1
  Cu  Cu30  1  0.29428100  0.61913900  0.50831800  1
  Cu  Cu31  1  0.40641000  0.53548200  0.20261500  1
  C  C32  1  0.54671300  0.27952500  0.33528800  1
  C  C33  1  0.04671300  0.72047500  0.16471200  1
  C  C34  1  0.95328700  0.27952500  0.83528800  1
  C  C35  1  0.32284000  0.08673200  0.41477200  1
  C  C36  1  0.45328700  0.72047500  0.66471200  1
  C  C37  1  0.82284000  0.91326800  0.08522800  1
  C  C38  1  0.17716000  0.08673200  0.91477200  1
  C  C39  1  0.67716000  0.91326800  0.58522800  1
