# generated using pymatgen
data_Cu16Ni6C5
_symmetry_space_group_name_H-M   'P 1'
_cell_length_a   10.74073824
_cell_length_b   10.74073824
_cell_length_c   10.72235800
_cell_angle_alpha   90.00000000
_cell_angle_beta   90.00000000
_cell_angle_gamma   90.97133587
_symmetry_Int_Tables_number   1
_chemical_formula_structural   Cu16Ni6C5
_chemical_formula_sum   'Cu32 Ni12 C10'
_cell_volume   1236.79054630
_cell_formula_units_Z   2
loop_
 _symmetry_equiv_pos_site_id
 _symmetry_equiv_pos_as_xyz
  1  'x, y, z'
loop_
 _atom_site_type_symbol
 _atom_site_label
 _atom_site_symmetry_multiplicity
 _atom_site_fract_x
 _atom_site_fract_y
 _atom_site_fract_z
 _atom_site_occupancy
  C  C0  1  0.38814200  0.38814200  0.00000000  1
  C  C1  1  0.37117300  0.37117300  0.50000000  1
  C  C2  1  0.87788700  0.36427700  0.49274900  1
  C  C3  1  0.87708200  0.12291800  0.25000000  1
  C  C4  1  0.63572300  0.12211300  0.00725100  1
  C  C5  1  0.12291800  0.87708200  0.75000000  1
  C  C6  1  0.36427700  0.87788700  0.50725100  1
  C  C7  1  0.12211300  0.63572300  0.99274900  1
  C  C8  1  0.62882700  0.62882700  0.00000000  1
  C  C9  1  0.61185800  0.61185800  0.50000000  1
  Ni  Ni10  1  0.12559200  0.37775300  0.24413100  1
  Ni  Ni11  1  0.88501700  0.37376700  0.99288500  1
  Ni  Ni12  1  0.63487400  0.36512600  0.75000000  1
  Ni  Ni13  1  0.12742500  0.12742500  0.00000000  1
  Ni  Ni14  1  0.37775300  0.12559200  0.75586900  1
  Ni  Ni15  1  0.62623300  0.11498300  0.50711500  1
  Ni  Ni16  1  0.37376700  0.88501700  0.00711500  1
  Ni  Ni17  1  0.62224700  0.87440800  0.25586900  1
  Ni  Ni18  1  0.87257500  0.87257500  0.50000000  1
  Ni  Ni19  1  0.36512600  0.63487400  0.25000000  1
  Ni  Ni20  1  0.11498300  0.62623300  0.49288500  1
  Ni  Ni21  1  0.87440800  0.62224700  0.74413100  1
  Cu  Cu22  1  0.36407900  0.39469100  0.24118900  1
  Cu  Cu23  1  0.11809400  0.38639700  0.48393800  1
  Cu  Cu24  1  0.88713900  0.36848400  0.23619300  1
  Cu  Cu25  1  0.12834500  0.37791100  0.99688100  1
  Cu  Cu26  1  0.87783500  0.37519700  0.74668900  1
  Cu  Cu27  1  0.64276600  0.36505200  0.99005600  1
  Cu  Cu28  1  0.39469100  0.36407900  0.75881100  1
  Cu  Cu29  1  0.63494800  0.35723400  0.50994400  1
  Cu  Cu30  1  0.12202100  0.13962200  0.23889000  1
  Cu  Cu31  1  0.88813700  0.13579300  0.99843300  1
  Cu  Cu32  1  0.13962200  0.12202100  0.76111000  1
  Cu  Cu33  1  0.37791100  0.12834500  0.00311900  1
  Cu  Cu34  1  0.62480300  0.12216500  0.75331100  1
  Cu  Cu35  1  0.38639700  0.11809400  0.51606200  1
  Cu  Cu36  1  0.63151600  0.11286100  0.26380700  1
  Cu  Cu37  1  0.86420700  0.11186300  0.50156700  1
  Cu  Cu38  1  0.13579300  0.88813700  0.00156700  1
  Cu  Cu39  1  0.36848400  0.88713900  0.76380700  1
  Cu  Cu40  1  0.61360300  0.88190600  0.01606200  1
  Cu  Cu41  1  0.37519700  0.87783500  0.25331100  1
  Cu  Cu42  1  0.62208900  0.87165500  0.50311900  1
  Cu  Cu43  1  0.86037800  0.87797900  0.26111000  1
  Cu  Cu44  1  0.11186300  0.86420700  0.49843300  1
  Cu  Cu45  1  0.87797900  0.86037800  0.73889000  1
  Cu  Cu46  1  0.36505200  0.64276600  0.00994400  1
  Cu  Cu47  1  0.60530900  0.63592100  0.25881100  1
  Cu  Cu48  1  0.35723400  0.63494800  0.49005600  1
  Cu  Cu49  1  0.12216500  0.62480300  0.24668900  1
  Cu  Cu50  1  0.87165500  0.62208900  0.49688100  1
  Cu  Cu51  1  0.11286100  0.63151600  0.73619300  1
  Cu  Cu52  1  0.88190600  0.61360300  0.98393800  1
  Cu  Cu53  1  0.63592100  0.60530900  0.74118900  1
