# generated using pymatgen
data_Cu2NiC11
_symmetry_space_group_name_H-M   'P 1'
_cell_length_a   9.84980085
_cell_length_b   9.84980085
_cell_length_c   7.37326200
_cell_angle_alpha   90.00000000
_cell_angle_beta   90.00000000
_cell_angle_gamma   120.00000569
_symmetry_Int_Tables_number   1
_chemical_formula_structural   Cu2NiC11
_chemical_formula_sum   'Cu6 Ni3 C33'
_cell_volume   619.50550836
_cell_formula_units_Z   3
loop_
 _symmetry_equiv_pos_site_id
 _symmetry_equiv_pos_as_xyz
  1  'x, y, z'
loop_
 _atom_site_type_symbol
 _atom_site_label
 _atom_site_symmetry_multiplicity
 _atom_site_fract_x
 _atom_site_fract_y
 _atom_site_fract_z
 _atom_site_occupancy
  C  C0  1  0.66771100  0.00238500  0.17801100  1
  C  C1  1  0.99761500  0.66532600  0.17801100  1
  C  C2  1  0.33467400  0.33228900  0.17801100  1
  C  C3  1  0.33228900  0.99761500  0.82198900  1
  C  C4  1  0.00238500  0.33467400  0.82198900  1
  C  C5  1  0.66532600  0.66771100  0.82198900  1
  C  C6  1  0.66666700  0.33333300  0.50407500  1
  C  C7  1  0.33333300  0.66666700  0.49592500  1
  C  C8  1  0.00000000  0.00000000  0.50000000  1
  Ni  Ni9  1  0.66666700  0.33333300  0.01144600  1
  Ni  Ni10  1  0.33333300  0.66666700  0.98855400  1
  Ni  Ni11  1  0.00000000  0.00000000  0.00000000  1
  Cu  Cu12  1  0.66295800  0.67132400  0.25890200  1
  Cu  Cu13  1  0.32867600  0.99163400  0.25890200  1
  Cu  Cu14  1  0.00836600  0.33704200  0.25890200  1
  Cu  Cu15  1  0.33704200  0.32867600  0.74109800  1
  Cu  Cu16  1  0.67132400  0.00836600  0.74109800  1
  Cu  Cu17  1  0.99163400  0.66295800  0.74109800  1
  C  C18  1  0.99967500  0.17457500  0.17709700  1
  C  C19  1  0.82542500  0.82509900  0.17709700  1
  C  C20  1  0.17490100  0.00032500  0.17709700  1
  C  C21  1  0.00032500  0.82542500  0.82290300  1
  C  C22  1  0.17457500  0.17490100  0.82290300  1
  C  C23  1  0.82509900  0.99967500  0.82290300  1
  C  C24  1  0.84434600  0.33373400  0.19588600  1
  C  C25  1  0.66626600  0.51061200  0.19588600  1
  C  C26  1  0.48938800  0.15565400  0.19588600  1
  C  C27  1  0.15565400  0.66626600  0.80411400  1
  C  C28  1  0.33373400  0.48938800  0.80411400  1
  C  C29  1  0.51061200  0.84434600  0.80411400  1
  C  C30  1  0.64544400  0.68797100  0.47530000  1
  C  C31  1  0.31202900  0.95747200  0.47530000  1
  C  C32  1  0.04252800  0.35455600  0.47530000  1
  C  C33  1  0.35455600  0.31202900  0.52470000  1
  C  C34  1  0.68797100  0.04252800  0.52470000  1
  C  C35  1  0.95747200  0.64544400  0.52470000  1
  C  C36  1  0.50989700  0.66710300  0.15495400  1
  C  C37  1  0.33289700  0.84279500  0.15495400  1
  C  C38  1  0.15720500  0.49010300  0.15495400  1
  C  C39  1  0.49010300  0.33289700  0.84504600  1
  C  C40  1  0.66710300  0.15720500  0.84504600  1
  C  C41  1  0.84279500  0.50989700  0.84504600  1
