# generated using pymatgen
data_CuNiC14
_symmetry_space_group_name_H-M   'P 1'
_cell_length_a   5.49362800
_cell_length_b   7.70712800
_cell_length_c   14.40948300
_cell_angle_alpha   90.00000000
_cell_angle_beta   90.00000000
_cell_angle_gamma   90.00000000
_symmetry_Int_Tables_number   1
_chemical_formula_structural   CuNiC14
_chemical_formula_sum   'Cu4 Ni4 C56'
_cell_volume   610.09886731
_cell_formula_units_Z   4
loop_
 _symmetry_equiv_pos_site_id
 _symmetry_equiv_pos_as_xyz
  1  'x, y, z'
loop_
 _atom_site_type_symbol
 _atom_site_label
 _atom_site_symmetry_multiplicity
 _atom_site_fract_x
 _atom_site_fract_y
 _atom_site_fract_z
 _atom_site_occupancy
  C  C0  1  0.78191700  0.86746900  0.43528500  1
  C  C1  1  0.73746900  0.09041900  0.08093500  1
  C  C2  1  0.04876200  0.25000000  0.27971400  1
  C  C3  1  0.23746900  0.59041900  0.41906500  1
  C  C4  1  0.47291100  0.47747600  0.35567100  1
  C  C5  1  0.52708900  0.52252400  0.64432900  1
  C  C6  1  0.76253100  0.09041900  0.58093500  1
  C  C7  1  0.44401300  0.25000000  0.49875500  1
  C  C8  1  0.76361100  0.09237600  0.70611600  1
  C  C9  1  0.52708900  0.97747600  0.64432900  1
  C  C10  1  0.54876200  0.75000000  0.22028600  1
  C  C11  1  0.23638900  0.59237600  0.29388400  1
  C  C12  1  0.73638900  0.09237600  0.20611600  1
  C  C13  1  0.71808300  0.63253100  0.93528500  1
  C  C14  1  0.47291100  0.02252400  0.35567100  1
  C  C15  1  0.26253100  0.59041900  0.91906500  1
  C  C16  1  0.26361100  0.59237600  0.79388400  1
  C  C17  1  0.73638900  0.40762400  0.20611600  1
  C  C18  1  0.02708900  0.02252400  0.85567100  1
  C  C19  1  0.28191600  0.36746900  0.06471500  1
  C  C20  1  0.78191700  0.63253100  0.43528500  1
  C  C21  1  0.28191600  0.13253100  0.06471500  1
  C  C22  1  0.26253100  0.90958100  0.91906500  1
  C  C23  1  0.76253100  0.40958100  0.58093500  1
  C  C24  1  0.73746900  0.40958100  0.08093500  1
  C  C25  1  0.02708900  0.47747600  0.85567100  1
  C  C26  1  0.23746900  0.90958100  0.41906500  1
  C  C27  1  0.97291100  0.52252400  0.14432900  1
  C  C28  1  0.97291100  0.97747600  0.14432900  1
  C  C29  1  0.94401300  0.75000000  0.00124500  1
  C  C30  1  0.21808300  0.13253100  0.56471500  1
  C  C31  1  0.21808300  0.36746900  0.56471500  1
  C  C32  1  0.55598700  0.75000000  0.50124500  1
  C  C33  1  0.23638900  0.90762400  0.29388400  1
  C  C34  1  0.05598700  0.25000000  0.99875500  1
  C  C35  1  0.76361100  0.40762400  0.70611600  1
  C  C36  1  0.45123800  0.25000000  0.77971400  1
  C  C37  1  0.71808300  0.86746900  0.93528500  1
  C  C38  1  0.95123800  0.75000000  0.72028600  1
  C  C39  1  0.26361100  0.90762400  0.79388400  1
  C  C40  1  0.34998200  0.58956300  0.35621700  1
  C  C41  1  0.67032400  0.75000000  0.43881800  1
  C  C42  1  0.82967600  0.75000000  0.93881800  1
  C  C43  1  0.65001800  0.08956300  0.64378300  1
  C  C44  1  0.84998200  0.08956300  0.14378300  1
  C  C45  1  0.34998200  0.91043700  0.35621700  1
  C  C46  1  0.17032400  0.25000000  0.06118200  1
  C  C47  1  0.32967600  0.25000000  0.56118200  1
  C  C48  1  0.65001800  0.41043700  0.64378300  1
  C  C49  1  0.15001800  0.58956300  0.85621700  1
  C  C50  1  0.84998200  0.41043700  0.14378300  1
  C  C51  1  0.15001800  0.91043700  0.85621700  1
  Ni  Ni52  1  0.00374600  0.25000000  0.14304900  1
  Ni  Ni53  1  0.49625400  0.25000000  0.64304900  1
  Ni  Ni54  1  0.50374600  0.75000000  0.35695100  1
  Ni  Ni55  1  0.99625400  0.75000000  0.85695100  1
  Cu  Cu56  1  0.85853700  0.25000000  0.39271800  1
  Cu  Cu57  1  0.35853700  0.75000000  0.10728200  1
  Cu  Cu58  1  0.64146300  0.25000000  0.89271800  1
  Cu  Cu59  1  0.14146300  0.75000000  0.60728200  1
  C  C60  1  0.83879000  0.75000000  0.77764200  1
  C  C61  1  0.66121000  0.75000000  0.27764200  1
  C  C62  1  0.33879000  0.25000000  0.72235800  1
  C  C63  1  0.16121000  0.25000000  0.22235800  1
