# generated using pymatgen
data_CuNiC16
_symmetry_space_group_name_H-M   'P 1'
_cell_length_a   6.28401100
_cell_length_b   6.28401100
_cell_length_c   11.73025400
_cell_angle_alpha   90.00000000
_cell_angle_beta   90.00000000
_cell_angle_gamma   90.00000000
_symmetry_Int_Tables_number   1
_chemical_formula_structural   CuNiC16
_chemical_formula_sum   'Cu2 Ni2 C32'
_cell_volume   463.21358668
_cell_formula_units_Z   2
loop_
 _symmetry_equiv_pos_site_id
 _symmetry_equiv_pos_as_xyz
  1  'x, y, z'
loop_
 _atom_site_type_symbol
 _atom_site_label
 _atom_site_symmetry_multiplicity
 _atom_site_fract_x
 _atom_site_fract_y
 _atom_site_fract_z
 _atom_site_occupancy
  Ni  Ni0  1  0.00000000  0.00000000  0.25000000  1
  Ni  Ni1  1  0.00000000  0.00000000  0.75000000  1
  Cu  Cu2  1  0.50000000  0.50000000  0.25000000  1
  Cu  Cu3  1  0.50000000  0.50000000  0.75000000  1
  C  C4  1  0.56401500  0.09795500  0.06285500  1
  C  C5  1  0.90204500  0.43598500  0.43714500  1
  C  C6  1  0.56401500  0.90204500  0.43714500  1
  C  C7  1  0.43598500  0.09795500  0.56285500  1
  C  C8  1  0.43598500  0.90204500  0.06285500  1
  C  C9  1  0.43598500  0.09795500  0.43714500  1
  C  C10  1  0.90204500  0.43598500  0.56285500  1
  C  C11  1  0.56401500  0.90204500  0.56285500  1
  C  C12  1  0.09795500  0.56401500  0.56285500  1
  C  C13  1  0.09795500  0.43598500  0.93714500  1
  C  C14  1  0.43598500  0.90204500  0.93714500  1
  C  C15  1  0.90204500  0.56401500  0.06285500  1
  C  C16  1  0.90204500  0.56401500  0.93714500  1
  C  C17  1  0.56401500  0.09795500  0.93714500  1
  C  C18  1  0.09795500  0.43598500  0.06285500  1
  C  C19  1  0.09795500  0.56401500  0.43714500  1
  C  C20  1  0.35513900  0.78481500  0.13893400  1
  C  C21  1  0.35513900  0.21518500  0.36106600  1
  C  C22  1  0.78481500  0.64486100  0.13893400  1
  C  C23  1  0.35513900  0.21518500  0.63893400  1
  C  C24  1  0.35513900  0.78481500  0.86106600  1
  C  C25  1  0.21518500  0.64486100  0.63893400  1
  C  C26  1  0.78481500  0.35513900  0.63893400  1
  C  C27  1  0.64486100  0.78481500  0.63893400  1
  C  C28  1  0.64486100  0.21518500  0.86106600  1
  C  C29  1  0.78481500  0.64486100  0.86106600  1
  C  C30  1  0.78481500  0.35513900  0.36106600  1
  C  C31  1  0.21518500  0.64486100  0.36106600  1
  C  C32  1  0.64486100  0.78481500  0.36106600  1
  C  C33  1  0.21518500  0.35513900  0.13893400  1
  C  C34  1  0.64486100  0.21518500  0.13893400  1
  C  C35  1  0.21518500  0.35513900  0.86106600  1
