# generated using pymatgen
data_Cu3NiC15
_symmetry_space_group_name_H-M   'P 1'
_cell_length_a   10.09479400
_cell_length_b   10.09479400
_cell_length_c   10.09479400
_cell_angle_alpha   90.00000000
_cell_angle_beta   90.00000000
_cell_angle_gamma   90.00000000
_symmetry_Int_Tables_number   1
_chemical_formula_structural   Cu3NiC15
_chemical_formula_sum   'Cu12 Ni4 C60'
_cell_volume   1028.70862888
_cell_formula_units_Z   4
loop_
 _symmetry_equiv_pos_site_id
 _symmetry_equiv_pos_as_xyz
  1  'x, y, z'
loop_
 _atom_site_type_symbol
 _atom_site_label
 _atom_site_symmetry_multiplicity
 _atom_site_fract_x
 _atom_site_fract_y
 _atom_site_fract_z
 _atom_site_occupancy
  C  C0  1  0.06284700  0.43715300  0.56284700  1
  C  C1  1  0.20187800  0.79812200  0.29812200  1
  C  C2  1  0.29812200  0.20187800  0.79812200  1
  C  C3  1  0.43715300  0.56284700  0.06284700  1
  C  C4  1  0.56284700  0.06284700  0.43715300  1
  C  C5  1  0.70187800  0.70187800  0.70187800  1
  C  C6  1  0.79812200  0.29812200  0.20187800  1
  C  C7  1  0.93715300  0.93715300  0.93715300  1
  C  C8  1  0.14660000  0.14660000  0.14660000  1
  C  C9  1  0.35340000  0.85340000  0.64660000  1
  C  C10  1  0.64660000  0.35340000  0.85340000  1
  C  C11  1  0.85340000  0.64660000  0.35340000  1
  Ni  Ni12  1  0.08613800  0.58613800  0.91386200  1
  Ni  Ni13  1  0.41386200  0.41386200  0.41386200  1
  Ni  Ni14  1  0.58613800  0.91386200  0.08613800  1
  Ni  Ni15  1  0.91386200  0.08613800  0.58613800  1
  Cu  Cu16  1  0.04050100  0.77089300  0.62423100  1
  Cu  Cu17  1  0.12423100  0.45949900  0.22910700  1
  Cu  Cu18  1  0.22910700  0.12423100  0.45949900  1
  Cu  Cu19  1  0.27089300  0.87576900  0.95949900  1
  Cu  Cu20  1  0.37576900  0.54050100  0.72910700  1
  Cu  Cu21  1  0.45949900  0.22910700  0.12423100  1
  Cu  Cu22  1  0.54050100  0.72910700  0.37576900  1
  Cu  Cu23  1  0.62423100  0.04050100  0.77089300  1
  Cu  Cu24  1  0.72910700  0.37576900  0.54050100  1
  Cu  Cu25  1  0.77089300  0.62423100  0.04050100  1
  Cu  Cu26  1  0.87576900  0.95949900  0.27089300  1
  Cu  Cu27  1  0.95949900  0.27089300  0.87576900  1
  C  C28  1  0.99803900  0.41675800  0.84369300  1
  C  C29  1  0.01257100  0.69255100  0.75526900  1
  C  C30  1  0.01897200  0.54920500  0.29196500  1
  C  C31  1  0.04920500  0.20803500  0.98102800  1
  C  C32  1  0.08186200  0.31344300  0.23856600  1
  C  C33  1  0.08324200  0.15630700  0.49803900  1
  C  C34  1  0.15630700  0.49803900  0.08324200  1
  C  C35  1  0.18655700  0.76143400  0.58186200  1
  C  C36  1  0.19255100  0.74473100  0.98742900  1
  C  C37  1  0.20803500  0.98102800  0.04920500  1
  C  C38  1  0.23856600  0.08186200  0.31344300  1
  C  C39  1  0.24473100  0.51257100  0.80744900  1
  C  C40  1  0.25526900  0.48742900  0.30744900  1
  C  C41  1  0.26143400  0.91813800  0.81344300  1
  C  C42  1  0.29196500  0.01897200  0.54920500  1
  C  C43  1  0.30744900  0.25526900  0.48742900  1
  C  C44  1  0.31344300  0.23856600  0.08186200  1
  C  C45  1  0.34369300  0.50196100  0.58324200  1
  C  C46  1  0.41675800  0.84369300  0.99803900  1
  C  C47  1  0.41813800  0.68655700  0.73856600  1
  C  C48  1  0.45079500  0.79196500  0.48102800  1
  C  C49  1  0.48102800  0.45079500  0.79196500  1
  C  C50  1  0.48742900  0.30744900  0.25526900  1
  C  C51  1  0.50196100  0.58324200  0.34369300  1
  C  C52  1  0.49803900  0.08324200  0.15630700  1
  C  C53  1  0.51257100  0.80744900  0.24473100  1
  C  C54  1  0.51897200  0.95079500  0.70803500  1
  C  C55  1  0.54920500  0.29196500  0.01897200  1
  C  C56  1  0.58186200  0.18655700  0.76143400  1
  C  C57  1  0.58324200  0.34369300  0.50196100  1
  C  C58  1  0.65630700  0.00196100  0.91675800  1
  C  C59  1  0.68655700  0.73856600  0.41813800  1
  C  C60  1  0.69255100  0.75526900  0.01257100  1
  C  C61  1  0.70803500  0.51897200  0.95079500  1
  C  C62  1  0.73856600  0.41813800  0.68655700  1
  C  C63  1  0.74473100  0.98742900  0.19255100  1
  C  C64  1  0.75526900  0.01257100  0.69255100  1
  C  C65  1  0.76143400  0.58186200  0.18655700  1
  C  C66  1  0.79196500  0.48102800  0.45079500  1
  C  C67  1  0.80744900  0.24473100  0.51257100  1
  C  C68  1  0.81344300  0.26143400  0.91813800  1
  C  C69  1  0.84369300  0.99803900  0.41675800  1
  C  C70  1  0.91675800  0.65630700  0.00196100  1
  C  C71  1  0.91813800  0.81344300  0.26143400  1
  C  C72  1  0.95079500  0.70803500  0.51897200  1
  C  C73  1  0.98102800  0.04920500  0.20803500  1
  C  C74  1  0.98742900  0.19255100  0.74473100  1
  C  C75  1  0.00196100  0.91675800  0.65630700  1
