# generated using pymatgen
data_Cu2NiC27
_symmetry_space_group_name_H-M   'P 1'
_cell_length_a   14.50546724
_cell_length_b   14.50546724
_cell_length_c   5.34732461
_cell_angle_alpha   84.49021010
_cell_angle_beta   84.49021010
_cell_angle_gamma   139.83472754
_symmetry_Int_Tables_number   1
_chemical_formula_structural   Cu2NiC27
_chemical_formula_sum   'Cu4 Ni2 C54'
_cell_volume   696.74992049
_cell_formula_units_Z   2
loop_
 _symmetry_equiv_pos_site_id
 _symmetry_equiv_pos_as_xyz
  1  'x, y, z'
loop_
 _atom_site_type_symbol
 _atom_site_label
 _atom_site_symmetry_multiplicity
 _atom_site_fract_x
 _atom_site_fract_y
 _atom_site_fract_z
 _atom_site_occupancy
  Ni  Ni0  1  0.76798300  0.23201700  0.25000000  1
  Ni  Ni1  1  0.23201700  0.76798300  0.75000000  1
  Cu  Cu2  1  0.09942500  0.90057500  0.25000000  1
  Cu  Cu3  1  0.43305900  0.56694100  0.25000000  1
  Cu  Cu4  1  0.56694100  0.43305900  0.75000000  1
  Cu  Cu5  1  0.90057500  0.09942500  0.75000000  1
  C  C6  1  0.29887300  0.70112700  0.25000000  1
  C  C7  1  0.70112700  0.29887300  0.75000000  1
  C  C8  1  0.63431400  0.36568600  0.25000000  1
  C  C9  1  0.96799700  0.03200300  0.25000000  1
  C  C10  1  0.03200300  0.96799700  0.75000000  1
  C  C11  1  0.36568600  0.63431400  0.75000000  1
  C  C12  1  0.74434900  0.68296900  0.23038100  1
  C  C13  1  0.31703100  0.25565100  0.26961900  1
  C  C14  1  0.07472600  0.34720400  0.23719800  1
  C  C15  1  0.34720400  0.07472600  0.73719800  1
  C  C16  1  0.65279600  0.92527400  0.26280200  1
  C  C17  1  0.40939500  0.01643400  0.23733900  1
  C  C18  1  0.92527400  0.65279600  0.76280200  1
  C  C19  1  0.68296900  0.74434900  0.73038100  1
  C  C20  1  0.98356600  0.59060500  0.26266100  1
  C  C21  1  0.25565100  0.31703100  0.76961900  1
  C  C22  1  0.01643400  0.40939500  0.73733900  1
  C  C23  1  0.59060500  0.98356600  0.76266100  1
  C  C24  1  0.35478100  0.34294100  0.50347600  1
  C  C25  1  0.71859200  0.55444800  0.32418100  1
  C  C26  1  0.91326500  0.85331500  0.14442900  1
  C  C27  1  0.68715100  0.00878200  0.49809700  1
  C  C28  1  0.14668500  0.08673500  0.35557100  1
  C  C29  1  0.05574200  0.22317800  0.32249200  1
  C  C30  1  0.00878200  0.68715100  0.99809700  1
  C  C31  1  0.44555200  0.28140800  0.17581900  1
  C  C32  1  0.24425500  0.52021200  0.15113400  1
  C  C33  1  0.22317800  0.05574200  0.82249200  1
  C  C34  1  0.65705900  0.64521900  0.99652400  1
  C  C35  1  0.02048200  0.67966700  0.49096600  1
  C  C36  1  0.52021200  0.24425500  0.65113400  1
  C  C37  1  0.47978800  0.75574500  0.34886600  1
  C  C38  1  0.38916500  0.89065200  0.31232900  1
  C  C39  1  0.34294100  0.35478100  0.00347600  1
  C  C40  1  0.77682200  0.94425800  0.17750800  1
  C  C41  1  0.75574500  0.47978800  0.84886600  1
  C  C42  1  0.57769700  0.18791400  0.14306600  1
  C  C43  1  0.55444800  0.71859200  0.82418100  1
  C  C44  1  0.99121800  0.31284900  0.00190300  1
  C  C45  1  0.94425800  0.77682200  0.67750800  1
  C  C46  1  0.85331500  0.91326500  0.64442900  1
  C  C47  1  0.81208600  0.42230300  0.35693400  1
  C  C48  1  0.31284900  0.99121800  0.50190300  1
  C  C49  1  0.67966700  0.02048200  0.99096600  1
  C  C50  1  0.10934800  0.61083500  0.18767100  1
  C  C51  1  0.08673500  0.14668500  0.85557100  1
  C  C52  1  0.89065200  0.38916500  0.81232900  1
  C  C53  1  0.32033300  0.97951800  0.00903400  1
  C  C54  1  0.28140800  0.44555200  0.67581900  1
  C  C55  1  0.18791400  0.57769700  0.64306600  1
  C  C56  1  0.64521900  0.65705900  0.49652400  1
  C  C57  1  0.42230300  0.81208600  0.85693400  1
  C  C58  1  0.61083500  0.10934800  0.68767100  1
  C  C59  1  0.97951800  0.32033300  0.50903400  1
