# generated using pymatgen
data_Cu7NiC2
_symmetry_space_group_name_H-M   'P 1'
_cell_length_a   13.03422100
_cell_length_b   13.16202200
_cell_length_c   14.09186600
_cell_angle_alpha   90.00000000
_cell_angle_beta   90.00000000
_cell_angle_gamma   90.00000000
_symmetry_Int_Tables_number   1
_chemical_formula_structural   Cu7NiC2
_chemical_formula_sum   'Cu56 Ni8 C16'
_cell_volume   2417.55407790
_cell_formula_units_Z   8
loop_
 _symmetry_equiv_pos_site_id
 _symmetry_equiv_pos_as_xyz
  1  'x, y, z'
loop_
 _atom_site_type_symbol
 _atom_site_label
 _atom_site_symmetry_multiplicity
 _atom_site_fract_x
 _atom_site_fract_y
 _atom_site_fract_z
 _atom_site_occupancy
  C  C0  1  0.93685700  0.86564600  0.00077500  1
  C  C1  1  0.06314300  0.36564600  0.49922500  1
  C  C2  1  0.06314300  0.13435400  0.99922500  1
  C  C3  1  0.56314300  0.13435400  0.50077500  1
  C  C4  1  0.93685700  0.63435400  0.50077500  1
  C  C5  1  0.56314300  0.36564600  0.00077500  1
  C  C6  1  0.43685700  0.86564600  0.49922500  1
  C  C7  1  0.43685700  0.63435400  0.99922500  1
  Ni  Ni8  1  0.68478900  0.06679000  0.71646900  1
  Ni  Ni9  1  0.18478900  0.43321000  0.28353100  1
  Ni  Ni10  1  0.81521100  0.56679000  0.71646900  1
  Ni  Ni11  1  0.81521100  0.93321000  0.21646900  1
  Ni  Ni12  1  0.68478900  0.43321000  0.21646900  1
  Ni  Ni13  1  0.31521100  0.56679000  0.78353100  1
  Ni  Ni14  1  0.18478900  0.06679000  0.78353100  1
  Ni  Ni15  1  0.31521100  0.93321000  0.28353100  1
  Cu  Cu16  1  0.22902000  0.17042200  0.02357000  1
  Cu  Cu17  1  0.77297400  0.18629300  0.74309500  1
  Cu  Cu18  1  0.88008400  0.97009900  0.33897800  1
  Cu  Cu19  1  0.39959200  0.04792700  0.54198400  1
  Cu  Cu20  1  0.78129200  0.95477300  0.68496700  1
  Cu  Cu21  1  0.77098000  0.67042200  0.47643000  1
  Cu  Cu22  1  0.10040800  0.54792700  0.54198400  1
  Cu  Cu23  1  0.11991600  0.47009900  0.16102200  1
  Cu  Cu24  1  0.49022900  0.72096200  0.43159200  1
  Cu  Cu25  1  0.50977100  0.27903800  0.56840800  1
  Cu  Cu26  1  0.50965900  0.16952900  0.35391600  1
  Cu  Cu27  1  0.49022900  0.77903800  0.93159200  1
  Cu  Cu28  1  0.77297400  0.31370700  0.24309500  1
  Cu  Cu29  1  0.00977100  0.22096200  0.43159200  1
  Cu  Cu30  1  0.11991600  0.02990100  0.66102200  1
  Cu  Cu31  1  0.27098000  0.82957800  0.52357000  1
  Cu  Cu32  1  0.99034100  0.83047100  0.85391600  1
  Cu  Cu33  1  0.21870800  0.04522700  0.31503300  1
  Cu  Cu34  1  0.00965900  0.33047100  0.64608400  1
  Cu  Cu35  1  0.72902000  0.32957800  0.97643000  1
  Cu  Cu36  1  0.50965900  0.33047100  0.85391600  1
  Cu  Cu37  1  0.60040800  0.95207300  0.45801600  1
  Cu  Cu38  1  0.27098000  0.67042200  0.02357000  1
  Cu  Cu39  1  0.22702600  0.81370700  0.25690500  1
  Cu  Cu40  1  0.28129200  0.95477300  0.81503300  1
  Cu  Cu41  1  0.99022900  0.77903800  0.56840800  1
  Cu  Cu42  1  0.21870800  0.45477300  0.81503300  1
  Cu  Cu43  1  0.22902000  0.32957800  0.52357000  1
  Cu  Cu44  1  0.89959200  0.04792700  0.95801600  1
  Cu  Cu45  1  0.22702600  0.68629300  0.75690500  1
  Cu  Cu46  1  0.10040800  0.95207300  0.04198400  1
  Cu  Cu47  1  0.77098000  0.82957800  0.97643000  1
  Cu  Cu48  1  0.71870800  0.45477300  0.68496700  1
  Cu  Cu49  1  0.78129200  0.54522700  0.18496700  1
  Cu  Cu50  1  0.38008400  0.52990100  0.66102200  1
  Cu  Cu51  1  0.49034100  0.66952900  0.14608400  1
  Cu  Cu52  1  0.71870800  0.04522700  0.18496700  1
  Cu  Cu53  1  0.88008400  0.52990100  0.83897800  1
  Cu  Cu54  1  0.28129200  0.54522700  0.31503300  1
  Cu  Cu55  1  0.72902000  0.17042200  0.47643000  1
  Cu  Cu56  1  0.61991600  0.47009900  0.33897800  1
  Cu  Cu57  1  0.99034100  0.66952900  0.35391600  1
  Cu  Cu58  1  0.60040800  0.54792700  0.95801600  1
  Cu  Cu59  1  0.38008400  0.97009900  0.16102200  1
  Cu  Cu60  1  0.49034100  0.83047100  0.64608400  1
  Cu  Cu61  1  0.00965900  0.16952900  0.14608400  1
  Cu  Cu62  1  0.00977100  0.27903800  0.93159200  1
  Cu  Cu63  1  0.72702600  0.68629300  0.74309500  1
  Cu  Cu64  1  0.50977100  0.22096200  0.06840800  1
  Cu  Cu65  1  0.99022900  0.72096200  0.06840800  1
  Cu  Cu66  1  0.27297400  0.31370700  0.25690500  1
  Cu  Cu67  1  0.89959200  0.45207300  0.45801600  1
  Cu  Cu68  1  0.27297400  0.18629300  0.75690500  1
  Cu  Cu69  1  0.72702600  0.81370700  0.24309500  1
  Cu  Cu70  1  0.39959200  0.45207300  0.04198400  1
  Cu  Cu71  1  0.61991600  0.02990100  0.83897800  1
  C  C72  1  0.89381900  0.91531300  0.14191900  1
  C  C73  1  0.60618100  0.08468700  0.64191900  1
  C  C74  1  0.10618100  0.08468700  0.85808100  1
  C  C75  1  0.89381900  0.58468700  0.64191900  1
  C  C76  1  0.60618100  0.41531300  0.14191900  1
  C  C77  1  0.39381900  0.58468700  0.85808100  1
  C  C78  1  0.10618100  0.41531300  0.35808100  1
  C  C79  1  0.39381900  0.91531300  0.35808100  1
