# generated using pymatgen
data_Cu4Ni4C3
_symmetry_space_group_name_H-M   'P 1'
_cell_length_a   13.16438672
_cell_length_b   12.14539761
_cell_length_c   6.45485719
_cell_angle_alpha   84.18905256
_cell_angle_beta   66.61436309
_cell_angle_gamma   29.19658436
_symmetry_Int_Tables_number   1
_chemical_formula_structural   Cu4Ni4C3
_chemical_formula_sum   'Cu8 Ni8 C6'
_cell_volume   386.60194589
_cell_formula_units_Z   2
loop_
 _symmetry_equiv_pos_site_id
 _symmetry_equiv_pos_as_xyz
  1  'x, y, z'
loop_
 _atom_site_type_symbol
 _atom_site_label
 _atom_site_symmetry_multiplicity
 _atom_site_fract_x
 _atom_site_fract_y
 _atom_site_fract_z
 _atom_site_occupancy
  C  C0  1  0.17717600  0.17717600  0.82282400  1
  C  C1  1  0.82282400  0.82282400  0.17717600  1
  C  C2  1  0.42717600  0.42717600  0.07282400  1
  C  C3  1  0.07282400  0.07282400  0.42717600  1
  C  C4  1  0.50000000  0.50000000  0.50000000  1
  C  C5  1  0.75000000  0.75000000  0.75000000  1
  Ni  Ni6  1  0.06279200  0.52438000  0.58262000  1
  Ni  Ni7  1  0.72562000  0.18720800  0.41979200  1
  Ni  Ni8  1  0.41979200  0.66738000  0.72562000  1
  Ni  Ni9  1  0.66738000  0.41979200  0.18720800  1
  Ni  Ni10  1  0.58262000  0.83020800  0.06279200  1
  Ni  Ni11  1  0.18720800  0.72562000  0.66738000  1
  Ni  Ni12  1  0.52438000  0.06279200  0.83020800  1
  Ni  Ni13  1  0.83020800  0.58262000  0.52438000  1
  Cu  Cu14  1  0.36706800  0.28094700  0.89836600  1
  Cu  Cu15  1  0.45362000  0.89836600  0.28094700  1
  Cu  Cu16  1  0.88293200  0.96905300  0.35163400  1
  Cu  Cu17  1  0.35163400  0.79638000  0.88293200  1
  Cu  Cu18  1  0.79638000  0.35163400  0.96905300  1
  Cu  Cu19  1  0.89836600  0.45362000  0.36706800  1
  Cu  Cu20  1  0.96905300  0.88293200  0.79638000  1
  Cu  Cu21  1  0.28094700  0.36706800  0.45362000  1
