# generated using pymatgen
data_Cu12Ni2C
_symmetry_space_group_name_H-M   'P 1'
_cell_length_a   12.78948175
_cell_length_b   12.61348817
_cell_length_c   8.95020480
_cell_angle_alpha   70.42829863
_cell_angle_beta   68.31933149
_cell_angle_gamma   41.25236988
_symmetry_Int_Tables_number   1
_chemical_formula_structural   Cu12Ni2C
_chemical_formula_sum   'Cu24 Ni4 C2'
_cell_volume   880.82042228
_cell_formula_units_Z   2
loop_
 _symmetry_equiv_pos_site_id
 _symmetry_equiv_pos_as_xyz
  1  'x, y, z'
loop_
 _atom_site_type_symbol
 _atom_site_label
 _atom_site_symmetry_multiplicity
 _atom_site_fract_x
 _atom_site_fract_y
 _atom_site_fract_z
 _atom_site_occupancy
  C  C0  1  0.83477700  0.83477700  0.66522300  1
  C  C1  1  0.58477700  0.58477700  0.41522300  1
  Ni  Ni2  1  0.02786000  0.47587000  0.01517500  1
  Ni  Ni3  1  0.23482500  0.76890500  0.22214000  1
  Ni  Ni4  1  0.76890500  0.23482500  0.77413000  1
  Ni  Ni5  1  0.47587000  0.02786000  0.48109500  1
  Cu  Cu6  1  0.35822900  0.79539500  0.98951900  1
  Cu  Cu7  1  0.99471300  0.02102000  0.21505100  1
  Cu  Cu8  1  0.69260800  0.62423400  0.15561500  1
  Cu  Cu9  1  0.26048100  0.39314200  0.89177100  1
  Cu  Cu10  1  0.57517000  0.94237300  0.77428900  1
  Cu  Cu11  1  0.72245600  0.09438500  0.62576600  1
  Cu  Cu12  1  0.64807500  0.20870400  0.01553800  1
  Cu  Cu13  1  0.32374900  0.84000400  0.37929000  1
  Cu  Cu14  1  0.39314200  0.26048100  0.45460500  1
  Cu  Cu15  1  0.48078300  0.03494900  0.22898000  1
  Cu  Cu16  1  0.87071000  0.79304300  0.92625100  1
  Cu  Cu17  1  0.54183200  0.47571100  0.30762700  1
  Cu  Cu18  1  0.12231700  0.23446200  0.04129600  1
  Cu  Cu19  1  0.20870400  0.64807500  0.12768300  1
  Cu  Cu20  1  0.09438500  0.72245600  0.55739200  1
  Cu  Cu21  1  0.79304300  0.87071000  0.40999600  1
  Cu  Cu22  1  0.03494900  0.48078300  0.25528700  1
  Cu  Cu23  1  0.94237300  0.57517000  0.70816800  1
  Cu  Cu24  1  0.47571100  0.54183200  0.67483000  1
  Cu  Cu25  1  0.84000400  0.32374900  0.45695700  1
  Cu  Cu26  1  0.62423400  0.69260800  0.52754400  1
  Cu  Cu27  1  0.79539500  0.35822900  0.85685800  1
  Cu  Cu28  1  0.02102000  0.99471300  0.76921700  1
  Cu  Cu29  1  0.23446200  0.12231700  0.60192500  1
