# generated using pymatgen
data_Cu3(NiC)4
_symmetry_space_group_name_H-M   'P 1'
_cell_length_a   8.46568224
_cell_length_b   8.46568224
_cell_length_c   11.25367300
_cell_angle_alpha   90.00000000
_cell_angle_beta   90.00000000
_cell_angle_gamma   128.72816372
_symmetry_Int_Tables_number   1
_chemical_formula_structural   Cu3(NiC)4
_chemical_formula_sum   'Cu12 Ni16 C16'
_cell_volume   629.18923884
_cell_formula_units_Z   4
loop_
 _symmetry_equiv_pos_site_id
 _symmetry_equiv_pos_as_xyz
  1  'x, y, z'
loop_
 _atom_site_type_symbol
 _atom_site_label
 _atom_site_symmetry_multiplicity
 _atom_site_fract_x
 _atom_site_fract_y
 _atom_site_fract_z
 _atom_site_occupancy
  C  C0  1  0.96978400  0.46978400  0.25000000  1
  C  C1  1  0.61803000  0.38197000  0.00000000  1
  C  C2  1  0.03021600  0.53021600  0.75000000  1
  C  C3  1  0.38197000  0.61803000  0.00000000  1
  C  C4  1  0.11803000  0.88197000  0.50000000  1
  C  C5  1  0.53021600  0.03021600  0.75000000  1
  C  C6  1  0.46978400  0.96978400  0.25000000  1
  C  C7  1  0.88197000  0.11803000  0.50000000  1
  C  C8  1  0.11254100  0.11254100  0.16283900  1
  C  C9  1  0.38745900  0.38745900  0.66283900  1
  C  C10  1  0.88745900  0.88745900  0.83716100  1
  C  C11  1  0.61254100  0.61254100  0.33716100  1
  C  C12  1  0.31707400  0.68292600  0.50000000  1
  C  C13  1  0.81707400  0.18292600  0.00000000  1
  C  C14  1  0.68292600  0.31707400  0.50000000  1
  C  C15  1  0.18292600  0.81707400  0.00000000  1
  Ni  Ni16  1  0.79556800  0.27347000  0.89440400  1
  Ni  Ni17  1  0.27347000  0.79556800  0.89440400  1
  Ni  Ni18  1  0.71333900  0.96290300  0.97649600  1
  Ni  Ni19  1  0.78666100  0.53709700  0.47649600  1
  Ni  Ni20  1  0.22653000  0.70443200  0.39440400  1
  Ni  Ni21  1  0.72653000  0.20443200  0.10559600  1
  Ni  Ni22  1  0.70443200  0.22653000  0.39440400  1
  Ni  Ni23  1  0.29556800  0.77347000  0.60559600  1
  Ni  Ni24  1  0.53709700  0.78666100  0.47649600  1
  Ni  Ni25  1  0.28666100  0.03709700  0.02350400  1
  Ni  Ni26  1  0.96290300  0.71333900  0.97649600  1
  Ni  Ni27  1  0.77347000  0.29556800  0.60559600  1
  Ni  Ni28  1  0.21333900  0.46290300  0.52350400  1
  Ni  Ni29  1  0.46290300  0.21333900  0.52350400  1
  Ni  Ni30  1  0.20443200  0.72653000  0.10559600  1
  Ni  Ni31  1  0.03709700  0.28666100  0.02350400  1
  Cu  Cu32  1  0.90412400  0.72029600  0.71922600  1
  Cu  Cu33  1  0.37690100  0.37690100  0.11605900  1
  Cu  Cu34  1  0.27970400  0.09587600  0.28077400  1
  Cu  Cu35  1  0.87690100  0.87690100  0.38394100  1
  Cu  Cu36  1  0.22029600  0.40412400  0.78077400  1
  Cu  Cu37  1  0.62309900  0.62309900  0.88394100  1
  Cu  Cu38  1  0.72029600  0.90412400  0.71922600  1
  Cu  Cu39  1  0.77970400  0.59587600  0.21922600  1
  Cu  Cu40  1  0.40412400  0.22029600  0.78077400  1
  Cu  Cu41  1  0.12309900  0.12309900  0.61605900  1
  Cu  Cu42  1  0.09587600  0.27970400  0.28077400  1
  Cu  Cu43  1  0.59587600  0.77970400  0.21922600  1
