# generated using pymatgen
data_CuNiC8
_symmetry_space_group_name_H-M   'P 1'
_cell_length_a   9.89274920
_cell_length_b   9.89274920
_cell_length_c   12.01527554
_cell_angle_alpha   89.80739357
_cell_angle_beta   89.80739357
_cell_angle_gamma   90.32155883
_symmetry_Int_Tables_number   1
_chemical_formula_structural   CuNiC8
_chemical_formula_sum   'Cu8 Ni8 C64'
_cell_volume   1175.86092218
_cell_formula_units_Z   8
loop_
 _symmetry_equiv_pos_site_id
 _symmetry_equiv_pos_as_xyz
  1  'x, y, z'
loop_
 _atom_site_type_symbol
 _atom_site_label
 _atom_site_symmetry_multiplicity
 _atom_site_fract_x
 _atom_site_fract_y
 _atom_site_fract_z
 _atom_site_occupancy
  Ni  Ni0  1  0.22128700  0.46889000  0.04428300  1
  Ni  Ni1  1  0.53111000  0.77871300  0.45571700  1
  Ni  Ni2  1  0.00131700  0.25351300  0.52872800  1
  Ni  Ni3  1  0.77871300  0.53111000  0.95571700  1
  Ni  Ni4  1  0.46889000  0.22128700  0.54428300  1
  Ni  Ni5  1  0.99868300  0.74648700  0.47127200  1
  Ni  Ni6  1  0.74648700  0.99868300  0.97127200  1
  Ni  Ni7  1  0.25351300  0.00131700  0.02872800  1
  Cu  Cu8  1  0.38818100  0.22789800  0.87241300  1
  Cu  Cu9  1  0.74401800  0.11732900  0.43215500  1
  Cu  Cu10  1  0.88267100  0.25598200  0.06784500  1
  Cu  Cu11  1  0.61181900  0.77210200  0.12758700  1
  Cu  Cu12  1  0.77210200  0.61181900  0.62758700  1
  Cu  Cu13  1  0.22789800  0.38818100  0.37241300  1
  Cu  Cu14  1  0.11732900  0.74401800  0.93215500  1
  Cu  Cu15  1  0.25598200  0.88267100  0.56784500  1
  C  C16  1  0.51981100  0.48018900  0.75000000  1
  C  C17  1  0.96567400  0.03432600  0.25000000  1
  C  C18  1  0.44850500  0.71052300  0.90102500  1
  C  C19  1  0.53064100  0.05197700  0.24822000  1
  C  C20  1  0.28947700  0.55149500  0.59897500  1
  C  C21  1  0.71052300  0.44850500  0.40102500  1
  C  C22  1  0.46935900  0.94802300  0.75178000  1
  C  C23  1  0.05197700  0.53064100  0.74822000  1
  C  C24  1  0.75297600  0.94612700  0.66326800  1
  C  C25  1  0.05387300  0.24702400  0.83673200  1
  C  C26  1  0.48018900  0.51981100  0.25000000  1
  C  C27  1  0.94802300  0.46935900  0.25178000  1
  C  C28  1  0.94612700  0.75297600  0.16326800  1
  C  C29  1  0.03432600  0.96567400  0.75000000  1
  C  C30  1  0.24702400  0.05387300  0.33673200  1
  C  C31  1  0.55149500  0.28947700  0.09897500  1
  C  C32  1  0.94730000  0.87103100  0.25768200  1
  C  C33  1  0.44497900  0.54802900  0.64291100  1
  C  C34  1  0.05270000  0.12896900  0.74231800  1
  C  C35  1  0.54997700  0.21038300  0.21776800  1
  C  C36  1  0.41986600  0.96379600  0.63413700  1
  C  C37  1  0.66552000  0.52061800  0.74119400  1
  C  C38  1  0.45002300  0.78961700  0.78223200  1
  C  C39  1  0.03415800  0.41606300  0.34393000  1
  C  C40  1  0.91331800  0.08450200  0.14094200  1
  C  C41  1  0.52061800  0.66552000  0.24119400  1
  C  C42  1  0.96584200  0.58393700  0.65607000  1
  C  C43  1  0.87103100  0.94730000  0.75768200  1
  C  C44  1  0.55502100  0.45197100  0.35708900  1
  C  C45  1  0.76456700  0.06737800  0.58895700  1
  C  C46  1  0.25815500  0.42464200  0.53534800  1
  C  C47  1  0.03620400  0.58013400  0.86586300  1
  C  C48  1  0.96379600  0.41986600  0.13413700  1
  C  C49  1  0.42464200  0.25815500  0.03534800  1
  C  C50  1  0.74191300  0.80884600  0.61127200  1
  C  C51  1  0.19115400  0.25808700  0.88872800  1
  C  C52  1  0.08450200  0.91331800  0.64094200  1
  C  C53  1  0.58013400  0.03620400  0.36586300  1
  C  C54  1  0.93262200  0.23543300  0.91104300  1
  C  C55  1  0.63234400  0.96833600  0.75437500  1
  C  C56  1  0.54802900  0.44497900  0.14291100  1
  C  C57  1  0.72659000  0.31445600  0.45790100  1
  C  C58  1  0.36765600  0.03166400  0.24562500  1
  C  C59  1  0.74184500  0.57535800  0.46465200  1
  C  C60  1  0.91549800  0.08668200  0.35905800  1
  C  C61  1  0.58393700  0.96584200  0.15607000  1
  C  C62  1  0.31445600  0.72659000  0.95790100  1
  C  C63  1  0.25808700  0.19115400  0.38872800  1
  C  C64  1  0.08668200  0.91549800  0.85905800  1
  C  C65  1  0.41606300  0.03415800  0.84393000  1
  C  C66  1  0.68554400  0.27341000  0.04209900  1
  C  C67  1  0.47938200  0.33448000  0.75880600  1
  C  C68  1  0.03166400  0.36765600  0.74562500  1
  C  C69  1  0.06737800  0.76456700  0.08895700  1
  C  C70  1  0.78961700  0.45002300  0.28223200  1
  C  C71  1  0.80884600  0.74191300  0.11127200  1
  C  C72  1  0.45197100  0.55502100  0.85708900  1
  C  C73  1  0.23543300  0.93262200  0.41104300  1
  C  C74  1  0.57535800  0.74184500  0.96465200  1
  C  C75  1  0.96833600  0.63234400  0.25437500  1
  C  C76  1  0.12896900  0.05270000  0.24231800  1
  C  C77  1  0.27341000  0.68554400  0.54209900  1
  C  C78  1  0.33448000  0.47938200  0.25880600  1
  C  C79  1  0.21038300  0.54997700  0.71776800  1
