# generated using pymatgen
data_CuNiC3
_symmetry_space_group_name_H-M   'P 1'
_cell_length_a   5.26750000
_cell_length_b   8.95300600
_cell_length_c   9.28050500
_cell_angle_alpha   90.00000000
_cell_angle_beta   90.00000000
_cell_angle_gamma   90.00000000
_symmetry_Int_Tables_number   1
_chemical_formula_structural   CuNiC3
_chemical_formula_sum   'Cu8 Ni8 C24'
_cell_volume   437.66823627
_cell_formula_units_Z   8
loop_
 _symmetry_equiv_pos_site_id
 _symmetry_equiv_pos_as_xyz
  1  'x, y, z'
loop_
 _atom_site_type_symbol
 _atom_site_label
 _atom_site_symmetry_multiplicity
 _atom_site_fract_x
 _atom_site_fract_y
 _atom_site_fract_z
 _atom_site_occupancy
  Ni  Ni0  1  0.77980200  0.84854500  0.00199100  1
  Ni  Ni1  1  0.22019800  0.15145500  0.50199100  1
  Ni  Ni2  1  0.72019800  0.34854500  0.50199100  1
  Ni  Ni3  1  0.27980200  0.65145500  0.00199100  1
  Ni  Ni4  1  0.27921000  0.00762100  0.99817800  1
  Ni  Ni5  1  0.72079000  0.99237900  0.49817800  1
  Ni  Ni6  1  0.22079000  0.50762100  0.49817800  1
  Ni  Ni7  1  0.77921000  0.49237900  0.99817800  1
  Cu  Cu8  1  0.62474100  0.66127900  0.29784000  1
  Cu  Cu9  1  0.37525900  0.33872100  0.79784000  1
  Cu  Cu10  1  0.87525900  0.16127900  0.79784000  1
  Cu  Cu11  1  0.12474100  0.83872100  0.29784000  1
  Cu  Cu12  1  0.43286600  0.83814300  0.70377300  1
  Cu  Cu13  1  0.56713400  0.16185700  0.20377300  1
  Cu  Cu14  1  0.06713400  0.33814300  0.20377300  1
  Cu  Cu15  1  0.93286600  0.66185700  0.70377300  1
  C  C16  1  0.61485900  0.65897200  0.12119800  1
  C  C17  1  0.38514100  0.34102800  0.62119800  1
  C  C18  1  0.88514100  0.15897200  0.62119800  1
  C  C19  1  0.11485900  0.84102800  0.12119800  1
  C  C20  1  0.43983600  0.83694400  0.87959900  1
  C  C21  1  0.56016400  0.16305600  0.37959900  1
  C  C22  1  0.06016400  0.33694400  0.37959900  1
  C  C23  1  0.93983600  0.66305600  0.87959900  1
  C  C24  1  0.53857200  0.51073300  0.38019600  1
  C  C25  1  0.46142800  0.48926700  0.88019600  1
  C  C26  1  0.96142800  0.01073300  0.88019600  1
  C  C27  1  0.03857200  0.98926700  0.38019600  1
  C  C28  1  0.40159600  0.99471400  0.62194900  1
  C  C29  1  0.59840400  0.00528600  0.12194900  1
  C  C30  1  0.09840400  0.49471400  0.12194900  1
  C  C31  1  0.90159600  0.50528600  0.62194900  1
  C  C32  1  0.91825900  0.70695100  0.35192900  1
  C  C33  1  0.08174100  0.29304900  0.85192900  1
  C  C34  1  0.58174100  0.20695100  0.85192900  1
  C  C35  1  0.41825900  0.79304900  0.35192900  1
  C  C36  1  0.22215500  0.71310100  0.64434700  1
  C  C37  1  0.77784500  0.28689900  0.14434700  1
  C  C38  1  0.27784500  0.21310100  0.14434700  1
  C  C39  1  0.72215500  0.78689900  0.64434700  1
