# generated using pymatgen
data_Cu4Ni9C16
_symmetry_space_group_name_H-M   'P 1'
_cell_length_a   10.39894170
_cell_length_b   10.39894170
_cell_length_c   10.39894093
_cell_angle_alpha   108.46393720
_cell_angle_beta   108.46393720
_cell_angle_gamma   108.46393568
_symmetry_Int_Tables_number   1
_chemical_formula_structural   Cu4Ni9C16
_chemical_formula_sum   'Cu8 Ni18 C32'
_cell_volume   896.48677076
_cell_formula_units_Z   2
loop_
 _symmetry_equiv_pos_site_id
 _symmetry_equiv_pos_as_xyz
  1  'x, y, z'
loop_
 _atom_site_type_symbol
 _atom_site_label
 _atom_site_symmetry_multiplicity
 _atom_site_fract_x
 _atom_site_fract_y
 _atom_site_fract_z
 _atom_site_occupancy
  Ni  Ni0  1  0.45619300  0.40461900  0.17919100  1
  Ni  Ni1  1  0.40461900  0.17919100  0.45619300  1
  Ni  Ni2  1  0.17919100  0.45619300  0.40461900  1
  Ni  Ni3  1  0.90461900  0.95619300  0.67919100  1
  Ni  Ni4  1  0.95619300  0.67919100  0.90461900  1
  Ni  Ni5  1  0.67919100  0.90461900  0.95619300  1
  Ni  Ni6  1  0.28083600  0.18073800  0.65214700  1
  Ni  Ni7  1  0.18073800  0.65214700  0.28083600  1
  Ni  Ni8  1  0.65214700  0.28083600  0.18073800  1
  Ni  Ni9  1  0.68073800  0.78083600  0.15214700  1
  Ni  Ni10  1  0.78083600  0.15214700  0.68073800  1
  Ni  Ni11  1  0.15214700  0.68073800  0.78083600  1
  Ni  Ni12  1  0.98258200  0.34767600  0.09334700  1
  Ni  Ni13  1  0.34767600  0.09334700  0.98258200  1
  Ni  Ni14  1  0.09334700  0.98258200  0.34767600  1
  Ni  Ni15  1  0.84767600  0.48258200  0.59334700  1
  Ni  Ni16  1  0.48258200  0.59334700  0.84767600  1
  Ni  Ni17  1  0.59334700  0.84767600  0.48258200  1
  Cu  Cu18  1  0.17372700  0.37866800  0.88187700  1
  Cu  Cu19  1  0.37866800  0.88187700  0.17372700  1
  Cu  Cu20  1  0.88187700  0.17372700  0.37866800  1
  Cu  Cu21  1  0.87866800  0.67372700  0.38187700  1
  Cu  Cu22  1  0.67372700  0.38187700  0.87866800  1
  Cu  Cu23  1  0.38187700  0.87866800  0.67372700  1
  Cu  Cu24  1  0.05581000  0.05581000  0.05581000  1
  Cu  Cu25  1  0.55581000  0.55581000  0.55581000  1
  C  C26  1  0.91722300  0.09004300  0.99160100  1
  C  C27  1  0.09004300  0.99160100  0.91722300  1
  C  C28  1  0.99160100  0.91722300  0.09004300  1
  C  C29  1  0.59004300  0.41722300  0.49160100  1
  C  C30  1  0.41722300  0.49160100  0.59004300  1
  C  C31  1  0.49160100  0.59004300  0.41722300  1
  C  C32  1  0.15773000  0.21582400  0.79354300  1
  C  C33  1  0.21582400  0.79354300  0.15773000  1
  C  C34  1  0.79354300  0.15773000  0.21582400  1
  C  C35  1  0.71582400  0.65773000  0.29354300  1
  C  C36  1  0.65773000  0.29354300  0.71582400  1
  C  C37  1  0.29354300  0.71582400  0.65773000  1
  C  C38  1  0.27970200  0.45391700  0.05626500  1
  C  C39  1  0.45391700  0.05626500  0.27970200  1
  C  C40  1  0.05626500  0.27970200  0.45391700  1
  C  C41  1  0.95391700  0.77970200  0.55626500  1
  C  C42  1  0.77970200  0.55626500  0.95391700  1
  C  C43  1  0.55626500  0.95391700  0.77970200  1
  C  C44  1  0.01327900  0.36255700  0.86695100  1
  C  C45  1  0.36255700  0.86695100  0.01327900  1
  C  C46  1  0.86695100  0.01327900  0.36255700  1
  C  C47  1  0.86255700  0.51327900  0.36695100  1
  C  C48  1  0.51327900  0.36695100  0.86255700  1
  C  C49  1  0.36695100  0.86255700  0.51327900  1
  C  C50  1  0.73238200  0.31175900  0.98229500  1
  C  C51  1  0.31175900  0.98229500  0.73238200  1
  C  C52  1  0.98229500  0.73238200  0.31175900  1
  C  C53  1  0.81175900  0.23238200  0.48229500  1
  C  C54  1  0.23238200  0.48229500  0.81175900  1
  C  C55  1  0.48229500  0.81175900  0.23238200  1
  C  C56  1  0.19548900  0.19548900  0.19548900  1
  C  C57  1  0.69548900  0.69548900  0.69548900  1
