# generated using pymatgen
data_Cu5(NiC6)2
_symmetry_space_group_name_H-M   'P 1'
_cell_length_a   6.13855900
_cell_length_b   12.58653000
_cell_length_c   22.75847500
_cell_angle_alpha   90.00000000
_cell_angle_beta   90.00000000
_cell_angle_gamma   90.00000000
_symmetry_Int_Tables_number   1
_chemical_formula_structural   Cu5(NiC6)2
_chemical_formula_sum   'Cu20 Ni8 C48'
_cell_volume   1758.39162724
_cell_formula_units_Z   4
loop_
 _symmetry_equiv_pos_site_id
 _symmetry_equiv_pos_as_xyz
  1  'x, y, z'
loop_
 _atom_site_type_symbol
 _atom_site_label
 _atom_site_symmetry_multiplicity
 _atom_site_fract_x
 _atom_site_fract_y
 _atom_site_fract_z
 _atom_site_occupancy
  C  C0  1  0.75000000  0.13419500  0.48967200  1
  C  C1  1  0.25000000  0.12622800  0.99798100  1
  C  C2  1  0.25000000  0.36889500  0.13293500  1
  C  C3  1  0.25000000  0.63419500  0.01032800  1
  C  C4  1  0.25000000  0.86580500  0.51032800  1
  C  C5  1  0.75000000  0.62622800  0.50201900  1
  C  C6  1  0.75000000  0.63110500  0.86706500  1
  C  C7  1  0.25000000  0.37377200  0.49798100  1
  C  C8  1  0.75000000  0.87377200  0.00201900  1
  C  C9  1  0.75000000  0.36580500  0.98967200  1
  C  C10  1  0.25000000  0.13110500  0.63293500  1
  C  C11  1  0.75000000  0.86889500  0.36706500  1
  C  C12  1  0.75000000  0.12572600  0.81178400  1
  C  C13  1  0.25000000  0.87427400  0.18821600  1
  C  C14  1  0.75000000  0.11304500  0.19122300  1
  C  C15  1  0.75000000  0.38695500  0.69122300  1
  C  C16  1  0.25000000  0.88695500  0.80877700  1
  C  C17  1  0.25000000  0.14098500  0.31403400  1
  C  C18  1  0.25000000  0.62572600  0.68821600  1
  C  C19  1  0.25000000  0.61304500  0.30877700  1
  C  C20  1  0.75000000  0.37427400  0.31178400  1
  C  C21  1  0.75000000  0.85901500  0.68596600  1
  C  C22  1  0.75000000  0.64098500  0.18596600  1
  C  C23  1  0.25000000  0.35901500  0.81403400  1
  Ni  Ni24  1  0.25000000  0.83951900  0.91287900  1
  Ni  Ni25  1  0.25000000  0.42188300  0.91623900  1
  Ni  Ni26  1  0.75000000  0.16048100  0.08712100  1
  Ni  Ni27  1  0.25000000  0.66048100  0.41287900  1
  Ni  Ni28  1  0.25000000  0.07811700  0.41623900  1
  Ni  Ni29  1  0.75000000  0.33951900  0.58712100  1
  Ni  Ni30  1  0.75000000  0.92188300  0.58376100  1
  Ni  Ni31  1  0.75000000  0.57811700  0.08376100  1
  Cu  Cu32  1  0.75000000  0.37226300  0.41560600  1
  Cu  Cu33  1  0.25000000  0.36998200  0.30899900  1
  Cu  Cu34  1  0.75000000  0.63001800  0.69100100  1
  Cu  Cu35  1  0.25000000  0.36665500  0.70449400  1
  Cu  Cu36  1  0.25000000  0.61111200  0.20031400  1
  Cu  Cu37  1  0.25000000  0.13334500  0.20449400  1
  Cu  Cu38  1  0.25000000  0.87345800  0.29249100  1
  Cu  Cu39  1  0.25000000  0.62773700  0.58439400  1
  Cu  Cu40  1  0.75000000  0.37345800  0.20750900  1
  Cu  Cu41  1  0.75000000  0.11111200  0.29968600  1
  Cu  Cu42  1  0.25000000  0.62654200  0.79249100  1
  Cu  Cu43  1  0.75000000  0.86665500  0.79550600  1
  Cu  Cu44  1  0.25000000  0.88888800  0.70031400  1
  Cu  Cu45  1  0.75000000  0.12773700  0.91560600  1
  Cu  Cu46  1  0.75000000  0.38888800  0.79968600  1
  Cu  Cu47  1  0.75000000  0.86998200  0.19100100  1
  Cu  Cu48  1  0.75000000  0.12654200  0.70750900  1
  Cu  Cu49  1  0.25000000  0.13001800  0.80899900  1
  Cu  Cu50  1  0.25000000  0.87226300  0.08439400  1
  Cu  Cu51  1  0.75000000  0.63334500  0.29550600  1
  C  C52  1  0.25000000  0.17115600  0.45625800  1
  C  C53  1  0.95014400  0.98708100  0.57596000  1
  C  C54  1  0.94986700  0.22453100  0.07630000  1
  C  C55  1  0.45014400  0.48708100  0.92404000  1
  C  C56  1  0.95014400  0.51291900  0.07596000  1
  C  C57  1  0.05013300  0.77546900  0.92370000  1
  C  C58  1  0.55013300  0.27546900  0.57630000  1
  C  C59  1  0.75000000  0.82884400  0.54374200  1
  C  C60  1  0.75000000  0.06144800  0.05246300  1
  C  C61  1  0.25000000  0.93855200  0.94753700  1
  C  C62  1  0.44986700  0.72453100  0.42370000  1
  C  C63  1  0.25000000  0.32884400  0.95625800  1
  C  C64  1  0.54985600  0.98708100  0.57596000  1
  C  C65  1  0.04985600  0.48708100  0.92404000  1
  C  C66  1  0.25000000  0.56144800  0.44753700  1
  C  C67  1  0.55013300  0.22453100  0.07630000  1
  C  C68  1  0.44986700  0.77546900  0.92370000  1
  C  C69  1  0.45014400  0.01291900  0.42404000  1
  C  C70  1  0.94986700  0.27546900  0.57630000  1
  C  C71  1  0.75000000  0.67115600  0.04374200  1
  C  C72  1  0.04985600  0.01291900  0.42404000  1
  C  C73  1  0.05013300  0.72453100  0.42370000  1
  C  C74  1  0.54985600  0.51291900  0.07596000  1
  C  C75  1  0.75000000  0.43855200  0.55246300  1
