# generated using pymatgen
data_Cu5(NiC3)4
_symmetry_space_group_name_H-M   'P 1'
_cell_length_a   7.29891445
_cell_length_b   7.29891445
_cell_length_c   9.87367656
_cell_angle_alpha   75.09956363
_cell_angle_beta   75.09956363
_cell_angle_gamma   61.09429701
_symmetry_Int_Tables_number   1
_chemical_formula_structural   Cu5(NiC3)4
_chemical_formula_sum   'Cu10 Ni8 C24'
_cell_volume   439.47442545
_cell_formula_units_Z   2
loop_
 _symmetry_equiv_pos_site_id
 _symmetry_equiv_pos_as_xyz
  1  'x, y, z'
loop_
 _atom_site_type_symbol
 _atom_site_label
 _atom_site_symmetry_multiplicity
 _atom_site_fract_x
 _atom_site_fract_y
 _atom_site_fract_z
 _atom_site_occupancy
  Ni  Ni0  1  0.36659200  0.87870200  0.48360300  1
  Ni  Ni1  1  0.33358800  0.22278800  0.78696600  1
  Ni  Ni2  1  0.77721200  0.66641200  0.71303400  1
  Ni  Ni3  1  0.12129800  0.63340800  0.01639700  1
  Ni  Ni4  1  0.22278800  0.33358800  0.28696600  1
  Ni  Ni5  1  0.66641200  0.77721200  0.21303400  1
  Ni  Ni6  1  0.87870200  0.36659200  0.98360300  1
  Ni  Ni7  1  0.63340800  0.12129800  0.51639700  1
  Cu  Cu8  1  0.07725700  0.01270100  0.86066600  1
  Cu  Cu9  1  0.72302300  0.27697700  0.75000000  1
  Cu  Cu10  1  0.48206500  0.70457000  0.98792200  1
  Cu  Cu11  1  0.98729900  0.92274300  0.63933400  1
  Cu  Cu12  1  0.29543000  0.51793500  0.51207800  1
  Cu  Cu13  1  0.27697700  0.72302300  0.25000000  1
  Cu  Cu14  1  0.01270100  0.07725700  0.36066600  1
  Cu  Cu15  1  0.70457000  0.48206500  0.48792200  1
  Cu  Cu16  1  0.51793500  0.29543000  0.01207800  1
  Cu  Cu17  1  0.92274300  0.98729900  0.13933400  1
  C  C18  1  0.39586700  0.60413300  0.75000000  1
  C  C19  1  0.60413300  0.39586700  0.25000000  1
  C  C20  1  0.08355400  0.25115300  0.59686500  1
  C  C21  1  0.25115300  0.08355400  0.09686500  1
  C  C22  1  0.74884700  0.91644600  0.90313500  1
  C  C23  1  0.91644600  0.74884700  0.40313500  1
  C  C24  1  0.03190800  0.79176100  0.47503800  1
  C  C25  1  0.20823900  0.96809200  0.02496200  1
  C  C26  1  0.52154000  0.53278500  0.85486600  1
  C  C27  1  0.29057300  0.00122900  0.23673500  1
  C  C28  1  0.96809200  0.20823900  0.52496200  1
  C  C29  1  0.00122900  0.29057300  0.73673500  1
  C  C30  1  0.72372500  0.75133800  0.46978600  1
  C  C31  1  0.24866200  0.27627500  0.03021400  1
  C  C32  1  0.20964300  0.79035700  0.75000000  1
  C  C33  1  0.46721500  0.47846000  0.64513400  1
  C  C34  1  0.79176100  0.03190800  0.97503800  1
  C  C35  1  0.53278500  0.52154000  0.35486600  1
  C  C36  1  0.47846000  0.46721500  0.14513400  1
  C  C37  1  0.79035700  0.20964300  0.25000000  1
  C  C38  1  0.70942700  0.99877100  0.76326500  1
  C  C39  1  0.99877100  0.70942700  0.26326500  1
  C  C40  1  0.75133800  0.72372500  0.96978600  1
  C  C41  1  0.27627500  0.24866200  0.53021400  1
