# generated using pymatgen
data_Cu2Ni12C11
_symmetry_space_group_name_H-M   'P 1'
_cell_length_a   11.25927422
_cell_length_b   11.25927422
_cell_length_c   11.25927422
_cell_angle_alpha   109.47122063
_cell_angle_beta   109.47122063
_cell_angle_gamma   109.47122063
_symmetry_Int_Tables_number   1
_chemical_formula_structural   Cu2Ni12C11
_chemical_formula_sum   'Cu8 Ni48 C44'
_cell_volume   1098.77633817
_cell_formula_units_Z   4
loop_
 _symmetry_equiv_pos_site_id
 _symmetry_equiv_pos_as_xyz
  1  'x, y, z'
loop_
 _atom_site_type_symbol
 _atom_site_label
 _atom_site_symmetry_multiplicity
 _atom_site_fract_x
 _atom_site_fract_y
 _atom_site_fract_z
 _atom_site_occupancy
  C  C0  1  0.00000000  0.03944300  0.50000000  1
  C  C1  1  0.50000000  0.00000000  0.03944300  1
  C  C2  1  0.03944300  0.50000000  0.00000000  1
  C  C3  1  0.54286700  0.50000000  0.00000000  1
  C  C4  1  0.50000000  0.00000000  0.54286700  1
  C  C5  1  0.95713300  0.95713300  0.95713300  1
  C  C6  1  0.46055700  0.46055700  0.46055700  1
  C  C7  1  0.00000000  0.54286700  0.50000000  1
  C  C8  1  0.16398200  0.41398200  0.75000000  1
  C  C9  1  0.84414400  0.75000000  0.59414400  1
  C  C10  1  0.90585600  0.65585600  0.25000000  1
  C  C11  1  0.59414400  0.84414400  0.75000000  1
  C  C12  1  0.41398200  0.75000000  0.16398200  1
  C  C13  1  0.33601800  0.08601800  0.25000000  1
  C  C14  1  0.75000000  0.59414400  0.84414400  1
  C  C15  1  0.25000000  0.90585600  0.65585600  1
  C  C16  1  0.25000000  0.33601800  0.08601800  1
  C  C17  1  0.75000000  0.16398200  0.41398200  1
  C  C18  1  0.65585600  0.25000000  0.90585600  1
  C  C19  1  0.08601800  0.25000000  0.33601800  1
  C  C20  1  0.46474100  0.70112700  0.42442000  1
  C  C21  1  0.79887300  0.26361400  0.72329400  1
  C  C22  1  0.04032000  0.07558000  0.77670600  1
  C  C23  1  0.07558000  0.77670600  0.04032000  1
  C  C24  1  0.42442000  0.46474100  0.70112700  1
  C  C25  1  0.45968000  0.23638600  0.03525900  1
  C  C26  1  0.70112700  0.42442000  0.46474100  1
  C  C27  1  0.03525900  0.45968000  0.23638600  1
  C  C28  1  0.26361400  0.72329400  0.79887300  1
  C  C29  1  0.77670600  0.04032000  0.07558000  1
  C  C30  1  0.72329400  0.79887300  0.26361400  1
  C  C31  1  0.23638600  0.03525900  0.45968000  1
  C  C32  1  0.95606300  0.53160000  0.73541100  1
  C  C33  1  0.92446300  0.20381100  0.96840000  1
  C  C34  1  0.96840000  0.92446300  0.20381100  1
  C  C35  1  0.57553700  0.54393700  0.27934800  1
  C  C36  1  0.54393700  0.27934800  0.57553700  1
  C  C37  1  0.29618900  0.22065200  0.76458900  1
  C  C38  1  0.53160000  0.73541100  0.95606300  1
  C  C39  1  0.73541100  0.95606300  0.53160000  1
  C  C40  1  0.22065200  0.76458900  0.29618900  1
  C  C41  1  0.20381100  0.96840000  0.92446300  1
  C  C42  1  0.76458900  0.29618900  0.22065200  1
  C  C43  1  0.27934800  0.57553700  0.54393700  1
  Ni  Ni44  1  0.63865800  0.82407300  0.54892100  1
  Ni  Ni45  1  0.67592700  0.31458500  0.72484700  1
  Ni  Ni46  1  0.36016300  0.68553600  0.91003400  1
  Ni  Ni47  1  0.31458500  0.72484700  0.67592700  1
  Ni  Ni48  1  0.77515300  0.08973700  0.95107900  1
  Ni  Ni49  1  0.86134200  0.41026300  0.18541500  1
  Ni  Ni50  1  0.91003400  0.36016300  0.68553600  1
  Ni  Ni51  1  0.90395400  0.99219700  0.61287700  1
  Ni  Ni52  1  0.99219700  0.61287700  0.90395400  1
  Ni  Ni53  1  0.04987100  0.32537300  0.13983700  1
  Ni  Ni54  1  0.38055800  0.38479600  0.79004800  1
  Ni  Ni55  1  0.17462700  0.22449800  0.81446400  1
  Ni  Ni56  1  0.54892100  0.63865800  0.82407300  1
  Ni  Ni57  1  0.27550200  0.45012900  0.58996600  1
  Ni  Ni58  1  0.68553600  0.91003400  0.36016300  1
  Ni  Ni59  1  0.11520400  0.49576200  0.40525200  1
  Ni  Ni60  1  0.49576200  0.40525200  0.11520400  1
  Ni  Ni61  1  0.61287700  0.90395400  0.99219700  1
  Ni  Ni62  1  0.08824200  0.59604600  0.20892300  1
  Ni  Ni63  1  0.32537300  0.13983700  0.04987100  1
  Ni  Ni64  1  0.90949000  0.00423800  0.11944200  1
  Ni  Ni65  1  0.95107900  0.77515300  0.08973700  1
  Ni  Ni66  1  0.41175800  0.62068000  0.50780300  1
  Ni  Ni67  1  0.79004800  0.38055800  0.38479600  1
  Ni  Ni68  1  0.38479600  0.79004800  0.38055800  1
  Ni  Ni69  1  0.09474800  0.59051000  0.70995200  1
  Ni  Ni70  1  0.20892300  0.08824200  0.59604600  1
  Ni  Ni71  1  0.41026300  0.18541500  0.86134200  1
  Ni  Ni72  1  0.45012900  0.58996600  0.27550200  1
  Ni  Ni73  1  0.70995200  0.09474800  0.59051000  1
  Ni  Ni74  1  0.18541500  0.86134200  0.41026300  1
  Ni  Ni75  1  0.62068000  0.50780300  0.41175800  1
  Ni  Ni76  1  0.87932000  0.29107700  0.88712300  1
  Ni  Ni77  1  0.59604600  0.20892300  0.08824200  1
  Ni  Ni78  1  0.08973700  0.95107900  0.77515300  1
  Ni  Ni79  1  0.40525200  0.11520400  0.49576200  1
  Ni  Ni80  1  0.50780300  0.41175800  0.62068000  1
  Ni  Ni81  1  0.11944200  0.90949000  0.00423800  1
  Ni  Ni82  1  0.22449800  0.81446400  0.17462700  1
  Ni  Ni83  1  0.58996600  0.27550200  0.45012900  1
  Ni  Ni84  1  0.29107700  0.88712300  0.87932000  1
  Ni  Ni85  1  0.13983700  0.04987100  0.32537300  1
  Ni  Ni86  1  0.59051000  0.70995200  0.09474800  1
  Ni  Ni87  1  0.72484700  0.67592700  0.31458500  1
  Ni  Ni88  1  0.82407300  0.54892100  0.63865800  1
  Ni  Ni89  1  0.81446400  0.17462700  0.22449800  1
  Ni  Ni90  1  0.00423800  0.11944200  0.90949000  1
  Ni  Ni91  1  0.88712300  0.87932000  0.29107700  1
  Cu  Cu92  1  0.00000000  0.21003100  0.50000000  1
  Cu  Cu93  1  0.71004400  0.50000000  0.00000000  1
  Cu  Cu94  1  0.50000000  0.00000000  0.71004400  1
  Cu  Cu95  1  0.00000000  0.71004400  0.50000000  1
  Cu  Cu96  1  0.21003100  0.50000000  0.00000000  1
  Cu  Cu97  1  0.50000000  0.00000000  0.21003100  1
  Cu  Cu98  1  0.28996900  0.28996900  0.28996900  1
  Cu  Cu99  1  0.78995600  0.78995600  0.78995600  1
