# generated using pymatgen
data_Cu15Ni3C4
_symmetry_space_group_name_H-M   'P 1'
_cell_length_a   9.39613336
_cell_length_b   9.39613336
_cell_length_c   9.45257400
_cell_angle_alpha   90.00000000
_cell_angle_beta   90.00000000
_cell_angle_gamma   119.99999548
_symmetry_Int_Tables_number   1
_chemical_formula_structural   Cu15Ni3C4
_chemical_formula_sum   'Cu30 Ni6 C8'
_cell_volume   722.73499103
_cell_formula_units_Z   2
loop_
 _symmetry_equiv_pos_site_id
 _symmetry_equiv_pos_as_xyz
  1  'x, y, z'
loop_
 _atom_site_type_symbol
 _atom_site_label
 _atom_site_symmetry_multiplicity
 _atom_site_fract_x
 _atom_site_fract_y
 _atom_site_fract_z
 _atom_site_occupancy
  C  C0  1  0.66666700  0.33333300  0.75000000  1
  C  C1  1  0.33333300  0.66666700  0.25000000  1
  C  C2  1  0.64320900  0.99839000  0.25000000  1
  C  C3  1  0.64481900  0.64320900  0.75000000  1
  C  C4  1  0.99839000  0.35518100  0.75000000  1
  C  C5  1  0.35518100  0.35679100  0.25000000  1
  C  C6  1  0.35679100  0.00161000  0.75000000  1
  C  C7  1  0.00161000  0.64481900  0.25000000  1
  Ni  Ni8  1  0.58694300  0.16380900  0.75000000  1
  Ni  Ni9  1  0.41305700  0.83619100  0.25000000  1
  Ni  Ni10  1  0.16380900  0.57686600  0.25000000  1
  Ni  Ni11  1  0.83619100  0.42313400  0.75000000  1
  Ni  Ni12  1  0.42313400  0.58694300  0.25000000  1
  Ni  Ni13  1  0.57686600  0.41305700  0.75000000  1
  Cu  Cu14  1  0.19864200  0.30928800  0.10826500  1
  Cu  Cu15  1  0.88935400  0.19864200  0.60826500  1
  Cu  Cu16  1  0.11530200  0.51352500  0.88809100  1
  Cu  Cu17  1  0.60177700  0.11530200  0.11190900  1
  Cu  Cu18  1  0.39822300  0.88469800  0.88809100  1
  Cu  Cu19  1  0.69071200  0.88935400  0.10826500  1
  Cu  Cu20  1  0.11530200  0.51352500  0.61190900  1
  Cu  Cu21  1  0.83760000  0.70161900  0.25000000  1
  Cu  Cu22  1  0.60177700  0.11530200  0.38809100  1
  Cu  Cu23  1  0.48647500  0.60177700  0.61190900  1
  Cu  Cu24  1  0.13598000  0.83760000  0.75000000  1
  Cu  Cu25  1  0.29838100  0.13598000  0.25000000  1
  Cu  Cu26  1  0.51352500  0.39822300  0.38809100  1
  Cu  Cu27  1  0.70161900  0.86402000  0.75000000  1
  Cu  Cu28  1  0.30928800  0.11064600  0.60826500  1
  Cu  Cu29  1  0.80135800  0.69071200  0.60826500  1
  Cu  Cu30  1  0.80135800  0.69071200  0.89173500  1
  Cu  Cu31  1  0.30928800  0.11064600  0.89173500  1
  Cu  Cu32  1  0.19864200  0.30928800  0.39173500  1
  Cu  Cu33  1  0.11064600  0.80135800  0.10826500  1
  Cu  Cu34  1  0.11064600  0.80135800  0.39173500  1
  Cu  Cu35  1  0.86402000  0.16240000  0.25000000  1
  Cu  Cu36  1  0.48647500  0.60177700  0.88809100  1
  Cu  Cu37  1  0.39822300  0.88469800  0.61190900  1
  Cu  Cu38  1  0.16240000  0.29838100  0.75000000  1
  Cu  Cu39  1  0.69071200  0.88935400  0.39173500  1
  Cu  Cu40  1  0.88469800  0.48647500  0.11190900  1
  Cu  Cu41  1  0.88469800  0.48647500  0.38809100  1
  Cu  Cu42  1  0.51352500  0.39822300  0.11190900  1
  Cu  Cu43  1  0.88935400  0.19864200  0.89173500  1
