# generated using pymatgen
data_Cu9Ni6C
_symmetry_space_group_name_H-M   'P 1'
_cell_length_a   7.13884910
_cell_length_b   7.13884910
_cell_length_c   10.57013900
_cell_angle_alpha   90.00000000
_cell_angle_beta   90.00000000
_cell_angle_gamma   112.85992009
_symmetry_Int_Tables_number   1
_chemical_formula_structural   Cu9Ni6C
_chemical_formula_sum   'Cu18 Ni12 C2'
_cell_volume   496.37780745
_cell_formula_units_Z   2
loop_
 _symmetry_equiv_pos_site_id
 _symmetry_equiv_pos_as_xyz
  1  'x, y, z'
loop_
 _atom_site_type_symbol
 _atom_site_label
 _atom_site_symmetry_multiplicity
 _atom_site_fract_x
 _atom_site_fract_y
 _atom_site_fract_z
 _atom_site_occupancy
  C  C0  1  0.71419700  0.28580300  0.75000000  1
  C  C1  1  0.28580300  0.71419700  0.25000000  1
  Ni  Ni2  1  0.71086600  0.00188500  0.44859700  1
  Ni  Ni3  1  0.00188500  0.71086600  0.55140300  1
  Ni  Ni4  1  0.28913400  0.99811500  0.55140300  1
  Ni  Ni5  1  0.44421200  0.27062300  0.25000000  1
  Ni  Ni6  1  0.99811500  0.28913400  0.05140300  1
  Ni  Ni7  1  0.55578800  0.72937700  0.75000000  1
  Ni  Ni8  1  0.72937700  0.55578800  0.25000000  1
  Ni  Ni9  1  0.27062300  0.44421200  0.75000000  1
  Ni  Ni10  1  0.28913400  0.99811500  0.94859700  1
  Ni  Ni11  1  0.99811500  0.28913400  0.44859700  1
  Ni  Ni12  1  0.71086600  0.00188500  0.05140300  1
  Ni  Ni13  1  0.00188500  0.71086600  0.94859700  1
  Cu  Cu14  1  0.15680300  0.84319700  0.00792200  1
  Cu  Cu15  1  0.84319700  0.15680300  0.99207800  1
  Cu  Cu16  1  0.58301500  0.85970300  0.40205400  1
  Cu  Cu17  1  0.64260000  0.90728700  0.75000000  1
  Cu  Cu18  1  0.09271300  0.35740000  0.75000000  1
  Cu  Cu19  1  0.41698500  0.14029700  0.59794600  1
  Cu  Cu20  1  0.46858400  0.53141600  0.75000000  1
  Cu  Cu21  1  0.53141600  0.46858400  0.25000000  1
  Cu  Cu22  1  0.14029700  0.41698500  0.40205400  1
  Cu  Cu23  1  0.85970300  0.58301500  0.59794600  1
  Cu  Cu24  1  0.35740000  0.09271300  0.25000000  1
  Cu  Cu25  1  0.14029700  0.41698500  0.09794600  1
  Cu  Cu26  1  0.41698500  0.14029700  0.90205400  1
  Cu  Cu27  1  0.90728700  0.64260000  0.25000000  1
  Cu  Cu28  1  0.58301500  0.85970300  0.09794600  1
  Cu  Cu29  1  0.84319700  0.15680300  0.50792200  1
  Cu  Cu30  1  0.85970300  0.58301500  0.90205400  1
  Cu  Cu31  1  0.15680300  0.84319700  0.49207800  1
