# generated using pymatgen
data_Cu3Ni3C8
_symmetry_space_group_name_H-M   'P 1'
_cell_length_a   3.67577400
_cell_length_b   8.62788300
_cell_length_c   10.16685368
_cell_angle_alpha   65.57452217
_cell_angle_beta   90.00000000
_cell_angle_gamma   90.00000000
_symmetry_Int_Tables_number   1
_chemical_formula_structural   Cu3Ni3C8
_chemical_formula_sum   'Cu3 Ni3 C8'
_cell_volume   293.57529925
_cell_formula_units_Z   1
loop_
 _symmetry_equiv_pos_site_id
 _symmetry_equiv_pos_as_xyz
  1  'x, y, z'
loop_
 _atom_site_type_symbol
 _atom_site_label
 _atom_site_symmetry_multiplicity
 _atom_site_fract_x
 _atom_site_fract_y
 _atom_site_fract_z
 _atom_site_occupancy
  C  C0  1  0.00000000  0.71037400  0.48380300  1
  C  C1  1  0.50000000  0.05772600  0.15812200  1
  C  C2  1  0.50000000  0.63113500  0.21997000  1
  C  C3  1  0.00000000  0.28962600  0.51619700  1
  C  C4  1  0.50000000  0.94227400  0.84187800  1
  C  C5  1  0.50000000  0.36886500  0.78003000  1
  C  C6  1  0.00000000  0.89852000  0.06438300  1
  C  C7  1  0.00000000  0.10148000  0.93561700  1
  Ni  Ni8  1  0.00000000  0.83375300  0.22944400  1
  Ni  Ni9  1  0.00000000  0.16624700  0.77055600  1
  Ni  Ni10  1  0.50000000  0.50000000  0.50000000  1
  Cu  Cu11  1  0.00000000  0.64837800  0.81397900  1
  Cu  Cu12  1  0.50000000  0.00000000  0.50000000  1
  Cu  Cu13  1  0.00000000  0.35162200  0.18602100  1
