# generated using pymatgen
data_CuNi13C6
_symmetry_space_group_name_H-M   'P 1'
_cell_length_a   9.48034042
_cell_length_b   9.48034042
_cell_length_c   9.48034042
_cell_angle_alpha   60.00000000
_cell_angle_beta   60.00000000
_cell_angle_gamma   60.00000000
_symmetry_Int_Tables_number   1
_chemical_formula_structural   CuNi13C6
_chemical_formula_sum   'Cu2 Ni26 C12'
_cell_volume   602.49965028
_cell_formula_units_Z   2
loop_
 _symmetry_equiv_pos_site_id
 _symmetry_equiv_pos_as_xyz
  1  'x, y, z'
loop_
 _atom_site_type_symbol
 _atom_site_label
 _atom_site_symmetry_multiplicity
 _atom_site_fract_x
 _atom_site_fract_y
 _atom_site_fract_z
 _atom_site_occupancy
  Ni  Ni0  1  0.00000000  0.00000000  0.00000000  1
  Ni  Ni1  1  0.50000000  0.50000000  0.50000000  1
  Ni  Ni2  1  0.06426300  0.29228500  0.93573700  1
  Ni  Ni3  1  0.79228500  0.56426300  0.43573700  1
  Ni  Ni4  1  0.56426300  0.79228500  0.20771500  1
  Ni  Ni5  1  0.20771500  0.56426300  0.79228500  1
  Ni  Ni6  1  0.79228500  0.43573700  0.20771500  1
  Ni  Ni7  1  0.56426300  0.43573700  0.79228500  1
  Ni  Ni8  1  0.20771500  0.79228500  0.43573700  1
  Ni  Ni9  1  0.93573700  0.06426300  0.29228500  1
  Ni  Ni10  1  0.29228500  0.93573700  0.06426300  1
  Ni  Ni11  1  0.06426300  0.70771500  0.29228500  1
  Ni  Ni12  1  0.06426300  0.93573700  0.70771500  1
  Ni  Ni13  1  0.29228500  0.70771500  0.93573700  1
  Ni  Ni14  1  0.70771500  0.06426300  0.93573700  1
  Ni  Ni15  1  0.70771500  0.29228500  0.06426300  1
  Ni  Ni16  1  0.93573700  0.29228500  0.70771500  1
  Ni  Ni17  1  0.43573700  0.79228500  0.56426300  1
  Ni  Ni18  1  0.43573700  0.20771500  0.79228500  1
  Ni  Ni19  1  0.79228500  0.20771500  0.56426300  1
  Ni  Ni20  1  0.43573700  0.56426300  0.20771500  1
  Ni  Ni21  1  0.20771500  0.43573700  0.56426300  1
  Ni  Ni22  1  0.56426300  0.20771500  0.43573700  1
  Ni  Ni23  1  0.29228500  0.06426300  0.70771500  1
  Ni  Ni24  1  0.93573700  0.70771500  0.06426300  1
  Ni  Ni25  1  0.70771500  0.93573700  0.29228500  1
  Cu  Cu26  1  0.25000000  0.25000000  0.25000000  1
  Cu  Cu27  1  0.75000000  0.75000000  0.75000000  1
  C  C28  1  0.10686000  0.39314000  0.10686000  1
  C  C29  1  0.10686000  0.39314000  0.39314000  1
  C  C30  1  0.39314000  0.10686000  0.10686000  1
  C  C31  1  0.39314000  0.39314000  0.10686000  1
  C  C32  1  0.10686000  0.10686000  0.39314000  1
  C  C33  1  0.39314000  0.10686000  0.39314000  1
  C  C34  1  0.89314000  0.60686000  0.89314000  1
  C  C35  1  0.89314000  0.60686000  0.60686000  1
  C  C36  1  0.60686000  0.89314000  0.89314000  1
  C  C37  1  0.60686000  0.60686000  0.89314000  1
  C  C38  1  0.89314000  0.89314000  0.60686000  1
  C  C39  1  0.60686000  0.89314000  0.60686000  1
