# generated using pymatgen
data_Cu8Ni2C9
_symmetry_space_group_name_H-M   'P 1'
_cell_length_a   7.63773486
_cell_length_b   7.63773486
_cell_length_c   6.10543429
_cell_angle_alpha   86.63134654
_cell_angle_beta   86.63134654
_cell_angle_gamma   57.16467280
_symmetry_Int_Tables_number   1
_chemical_formula_structural   Cu8Ni2C9
_chemical_formula_sum   'Cu8 Ni2 C9'
_cell_volume   298.58684708
_cell_formula_units_Z   1
loop_
 _symmetry_equiv_pos_site_id
 _symmetry_equiv_pos_as_xyz
  1  'x, y, z'
loop_
 _atom_site_type_symbol
 _atom_site_label
 _atom_site_symmetry_multiplicity
 _atom_site_fract_x
 _atom_site_fract_y
 _atom_site_fract_z
 _atom_site_occupancy
  C  C0  1  0.00000000  0.00000000  0.50000000  1
  Ni  Ni1  1  0.66497100  0.66497100  0.14999800  1
  Ni  Ni2  1  0.33502900  0.33502900  0.85000200  1
  Cu  Cu3  1  0.78634200  0.43293600  0.25058400  1
  Cu  Cu4  1  0.22254000  0.22254000  0.78488100  1
  Cu  Cu5  1  0.66094900  0.66094900  0.89128300  1
  Cu  Cu6  1  0.56706400  0.21365800  0.74941600  1
  Cu  Cu7  1  0.77746000  0.77746000  0.21511900  1
  Cu  Cu8  1  0.43293600  0.78634200  0.25058400  1
  Cu  Cu9  1  0.21365800  0.56706400  0.74941600  1
  Cu  Cu10  1  0.33905100  0.33905100  0.10871700  1
  C  C11  1  0.65868900  0.65868900  0.70079700  1
  C  C12  1  0.13967900  0.13967900  0.73940400  1
  C  C13  1  0.26405100  0.87475800  0.32410300  1
  C  C14  1  0.73594900  0.12524200  0.67589700  1
  C  C15  1  0.86032100  0.86032100  0.26059600  1
  C  C16  1  0.12524200  0.73594900  0.67589700  1
  C  C17  1  0.87475800  0.26405100  0.32410300  1
  C  C18  1  0.34131100  0.34131100  0.29920300  1
