# generated using pymatgen
data_Cu2(NiC)3
_symmetry_space_group_name_H-M   'P 1'
_cell_length_a   9.47555989
_cell_length_b   9.47555989
_cell_length_c   9.47555907
_cell_angle_alpha   89.93265734
_cell_angle_beta   89.93265734
_cell_angle_gamma   89.93265841
_symmetry_Int_Tables_number   1
_chemical_formula_structural   Cu2(NiC)3
_chemical_formula_sum   'Cu8 Ni12 C12'
_cell_volume   850.77301526
_cell_formula_units_Z   4
loop_
 _symmetry_equiv_pos_site_id
 _symmetry_equiv_pos_as_xyz
  1  'x, y, z'
loop_
 _atom_site_type_symbol
 _atom_site_label
 _atom_site_symmetry_multiplicity
 _atom_site_fract_x
 _atom_site_fract_y
 _atom_site_fract_z
 _atom_site_occupancy
  Ni  Ni0  1  0.17429500  0.66059800  0.50031300  1
  Ni  Ni1  1  0.82570500  0.33940200  0.49968700  1
  Ni  Ni2  1  0.33940200  0.49968700  0.82570500  1
  Ni  Ni3  1  0.49968700  0.82570500  0.33940200  1
  Ni  Ni4  1  0.66059800  0.50031300  0.17429500  1
  Ni  Ni5  1  0.50031300  0.17429500  0.66059800  1
  Ni  Ni6  1  0.32523600  0.16000600  0.99859700  1
  Ni  Ni7  1  0.16000600  0.99859700  0.32523600  1
  Ni  Ni8  1  0.00140300  0.67476400  0.83999400  1
  Ni  Ni9  1  0.83999400  0.00140300  0.67476400  1
  Ni  Ni10  1  0.67476400  0.83999400  0.00140300  1
  Ni  Ni11  1  0.99859700  0.32523600  0.16000600  1
  C  C12  1  0.84937800  0.99989400  0.34532500  1
  C  C13  1  0.34532500  0.84937800  0.99989400  1
  C  C14  1  0.49808400  0.15458600  0.34988900  1
  C  C15  1  0.34988900  0.49808400  0.15458600  1
  C  C16  1  0.84541400  0.65011100  0.50191600  1
  C  C17  1  0.15458600  0.34988900  0.49808400  1
  C  C18  1  0.50191600  0.84541400  0.65011100  1
  C  C19  1  0.65011100  0.50191600  0.84541400  1
  C  C20  1  0.00010600  0.65467500  0.15062200  1
  C  C21  1  0.15062200  0.00010600  0.65467500  1
  C  C22  1  0.65467500  0.15062200  0.00010600  1
  C  C23  1  0.99989400  0.34532500  0.84937800  1
  Cu  Cu24  1  0.75189400  0.75167000  0.25235100  1
  Cu  Cu25  1  0.75167000  0.25235100  0.75189400  1
  Cu  Cu26  1  0.25235100  0.75189400  0.75167000  1
  Cu  Cu27  1  0.24810600  0.24833000  0.74764900  1
  Cu  Cu28  1  0.24833000  0.74764900  0.24810600  1
  Cu  Cu29  1  0.74764900  0.24810600  0.24833000  1
  Cu  Cu30  1  0.25109000  0.25109000  0.25109000  1
  Cu  Cu31  1  0.74891000  0.74891000  0.74891000  1
