# generated using pymatgen
data_Cu2Ni2C9
_symmetry_space_group_name_H-M   'P 1'
_cell_length_a   8.50609000
_cell_length_b   5.53682200
_cell_length_c   21.95071545
_cell_angle_alpha   77.27694939
_cell_angle_beta   90.00000000
_cell_angle_gamma   90.00000000
_symmetry_Int_Tables_number   1
_chemical_formula_structural   Cu2Ni2C9
_chemical_formula_sum   'Cu8 Ni8 C36'
_cell_volume   1008.42233480
_cell_formula_units_Z   4
loop_
 _symmetry_equiv_pos_site_id
 _symmetry_equiv_pos_as_xyz
  1  'x, y, z'
loop_
 _atom_site_type_symbol
 _atom_site_label
 _atom_site_symmetry_multiplicity
 _atom_site_fract_x
 _atom_site_fract_y
 _atom_site_fract_z
 _atom_site_occupancy
  C  C0  1  0.67476300  0.59688800  0.64255500  1
  C  C1  1  0.32523700  0.40311200  0.35744500  1
  C  C2  1  0.82523700  0.59688800  0.14255500  1
  C  C3  1  0.17476300  0.40311200  0.85744500  1
  Ni  Ni4  1  0.61349000  0.79272100  0.45033700  1
  Ni  Ni5  1  0.66515900  0.41670600  0.85275200  1
  Ni  Ni6  1  0.16515900  0.58329400  0.64724800  1
  Ni  Ni7  1  0.11349000  0.20727900  0.04966300  1
  Ni  Ni8  1  0.88651000  0.79272100  0.95033700  1
  Ni  Ni9  1  0.33484100  0.58329400  0.14724800  1
  Ni  Ni10  1  0.83484100  0.41670600  0.35275200  1
  Ni  Ni11  1  0.38651000  0.20727900  0.54966300  1
  Cu  Cu12  1  0.57727100  0.98811300  0.26955700  1
  Cu  Cu13  1  0.58295900  0.17509100  0.05265600  1
  Cu  Cu14  1  0.42272900  0.01188700  0.73044300  1
  Cu  Cu15  1  0.91704100  0.17509100  0.55265600  1
  Cu  Cu16  1  0.92272900  0.98811300  0.76955700  1
  Cu  Cu17  1  0.41704100  0.82490900  0.94734400  1
  Cu  Cu18  1  0.07727100  0.01188700  0.23044300  1
  Cu  Cu19  1  0.08295900  0.82490900  0.44734400  1
  C  C20  1  0.53618600  0.77238600  0.58231300  1
  C  C21  1  0.40446400  0.18085900  0.28919200  1
  C  C22  1  0.59553600  0.81914100  0.71080800  1
  C  C23  1  0.98830400  0.67293000  0.82127000  1
  C  C24  1  0.34142200  0.89318400  0.02196300  1
  C  C25  1  0.36864200  0.12458000  0.88874400  1
  C  C26  1  0.90446400  0.81914100  0.21080800  1
  C  C27  1  0.18062700  0.57713300  0.29979000  1
  C  C28  1  0.01169600  0.32707000  0.17873000  1
  C  C29  1  0.68062700  0.42286700  0.20021000  1
  C  C30  1  0.75356500  0.37864100  0.07032300  1
  C  C31  1  0.96381400  0.77238600  0.08231300  1
  C  C32  1  0.81937300  0.42286700  0.70021000  1
  C  C33  1  0.73031400  0.03495900  0.32696000  1
  C  C34  1  0.65857800  0.10681600  0.97803700  1
  C  C35  1  0.25356500  0.62135900  0.42967700  1
  C  C36  1  0.15857800  0.89318400  0.52196300  1
  C  C37  1  0.03618600  0.22761400  0.91768700  1
  C  C38  1  0.09553600  0.18085900  0.78919200  1
  C  C39  1  0.63135800  0.87542000  0.11125600  1
  C  C40  1  0.24643500  0.62135900  0.92967700  1
  C  C41  1  0.48830400  0.32707000  0.67873000  1
  C  C42  1  0.31937300  0.57713300  0.79979000  1
  C  C43  1  0.84142200  0.10681600  0.47803700  1
  C  C44  1  0.76968600  0.03495900  0.82696000  1
  C  C45  1  0.51169600  0.67293000  0.32127000  1
  C  C46  1  0.23031400  0.96504100  0.17304000  1
  C  C47  1  0.86864200  0.87542000  0.61125600  1
  C  C48  1  0.74643500  0.37864100  0.57032300  1
  C  C49  1  0.26968600  0.96504100  0.67304000  1
  C  C50  1  0.46381400  0.22761400  0.41768700  1
  C  C51  1  0.13135800  0.12458000  0.38874400  1
