# generated using pymatgen
data_Cu2NiC3
_symmetry_space_group_name_H-M   'P 1'
_cell_length_a   4.03741169
_cell_length_b   4.03741169
_cell_length_c   27.80849200
_cell_angle_alpha   90.00000000
_cell_angle_beta   90.00000000
_cell_angle_gamma   119.99999493
_symmetry_Int_Tables_number   1
_chemical_formula_structural   Cu2NiC3
_chemical_formula_sum   'Cu6 Ni3 C9'
_cell_volume   392.56733965
_cell_formula_units_Z   3
loop_
 _symmetry_equiv_pos_site_id
 _symmetry_equiv_pos_as_xyz
  1  'x, y, z'
loop_
 _atom_site_type_symbol
 _atom_site_label
 _atom_site_symmetry_multiplicity
 _atom_site_fract_x
 _atom_site_fract_y
 _atom_site_fract_z
 _atom_site_occupancy
  C  C0  1  0.32738200  0.98718900  0.57727500  1
  C  C1  1  0.65980700  0.67261800  0.24394200  1
  C  C2  1  0.34019300  0.01281100  0.08939100  1
  C  C3  1  0.67261800  0.65980700  0.75605800  1
  C  C4  1  0.98718900  0.32738200  0.42272500  1
  C  C5  1  0.01281100  0.34019300  0.91060900  1
  C  C6  1  0.00000000  0.32383100  0.66666700  1
  C  C7  1  0.67616900  0.67616900  0.00000000  1
  C  C8  1  0.32383100  0.00000000  0.33333300  1
  Ni  Ni9  1  0.00000000  0.34830700  0.16666700  1
  Ni  Ni10  1  0.65169300  0.65169300  0.50000000  1
  Ni  Ni11  1  0.34830700  0.00000000  0.83333300  1
  Cu  Cu12  1  0.99355100  0.32001200  0.60123000  1
  Cu  Cu13  1  0.67998800  0.67353900  0.93456300  1
  Cu  Cu14  1  0.32001200  0.99355100  0.39877000  1
  Cu  Cu15  1  0.00644900  0.32646100  0.73210300  1
  Cu  Cu16  1  0.67353900  0.67998800  0.06543700  1
  Cu  Cu17  1  0.32646100  0.00644900  0.26789700  1
