# generated using pymatgen
data_Cu2NiC6
_symmetry_space_group_name_H-M   'P 1'
_cell_length_a   8.16258676
_cell_length_b   8.16258676
_cell_length_c   6.03323327
_cell_angle_alpha   81.28899152
_cell_angle_beta   81.28899152
_cell_angle_gamma   78.44313965
_symmetry_Int_Tables_number   1
_chemical_formula_structural   Cu2NiC6
_chemical_formula_sum   'Cu4 Ni2 C12'
_cell_volume   386.23253035
_cell_formula_units_Z   2
loop_
 _symmetry_equiv_pos_site_id
 _symmetry_equiv_pos_as_xyz
  1  'x, y, z'
loop_
 _atom_site_type_symbol
 _atom_site_label
 _atom_site_symmetry_multiplicity
 _atom_site_fract_x
 _atom_site_fract_y
 _atom_site_fract_z
 _atom_site_occupancy
  Ni  Ni0  1  0.30632800  0.30632800  0.43242600  1
  Ni  Ni1  1  0.69367200  0.69367200  0.56757400  1
  Cu  Cu2  1  0.07729200  0.76078300  0.89356300  1
  Cu  Cu3  1  0.76078300  0.07729200  0.89356300  1
  Cu  Cu4  1  0.23921700  0.92270800  0.10643700  1
  Cu  Cu5  1  0.92270800  0.23921700  0.10643700  1
  C  C6  1  0.78900400  0.54382200  0.38351400  1
  C  C7  1  0.15219700  0.39510100  0.24112000  1
  C  C8  1  0.43987600  0.43987600  0.28240100  1
  C  C9  1  0.54382200  0.78900400  0.38351400  1
  C  C10  1  0.60489900  0.84780300  0.75888000  1
  C  C11  1  0.84780300  0.60489900  0.75888000  1
  C  C12  1  0.83235700  0.83235700  0.43297500  1
  C  C13  1  0.21099600  0.45617800  0.61648600  1
  C  C14  1  0.45617800  0.21099600  0.61648600  1
  C  C15  1  0.16764300  0.16764300  0.56702500  1
  C  C16  1  0.56012400  0.56012400  0.71759900  1
  C  C17  1  0.39510100  0.15219700  0.24112000  1
