# generated using pymatgen
data_Cu(NiC)2
_symmetry_space_group_name_H-M   'P 1'
_cell_length_a   7.97947800
_cell_length_b   9.34627000
_cell_length_c   11.19383300
_cell_angle_alpha   90.00000000
_cell_angle_beta   90.00000000
_cell_angle_gamma   90.00000000
_symmetry_Int_Tables_number   1
_chemical_formula_structural   Cu(NiC)2
_chemical_formula_sum   'Cu8 Ni16 C16'
_cell_volume   834.81766077
_cell_formula_units_Z   8
loop_
 _symmetry_equiv_pos_site_id
 _symmetry_equiv_pos_as_xyz
  1  'x, y, z'
loop_
 _atom_site_type_symbol
 _atom_site_label
 _atom_site_symmetry_multiplicity
 _atom_site_fract_x
 _atom_site_fract_y
 _atom_site_fract_z
 _atom_site_occupancy
  C  C0  1  0.00578900  0.19179600  0.55379800  1
  C  C1  1  0.51591400  0.09986400  0.19559300  1
  C  C2  1  0.48408600  0.09986400  0.69559300  1
  C  C3  1  0.51591400  0.59986400  0.30440700  1
  C  C4  1  0.99421100  0.69179600  0.44620200  1
  C  C5  1  0.99421100  0.19179600  0.05379800  1
  C  C6  1  0.00578900  0.69179600  0.94620200  1
  C  C7  1  0.48408600  0.59986400  0.80440700  1
  C  C8  1  0.51289400  0.44261900  0.92402100  1
  C  C9  1  0.51289400  0.94261900  0.57597900  1
  C  C10  1  0.00494200  0.34622200  0.17747600  1
  C  C11  1  0.99505800  0.84622200  0.82252400  1
  C  C12  1  0.99505800  0.34622200  0.67747600  1
  C  C13  1  0.48710600  0.44261900  0.42402100  1
  C  C14  1  0.00494200  0.84622200  0.32252400  1
  C  C15  1  0.48710600  0.94261900  0.07597900  1
  Ni  Ni16  1  0.53783900  0.73186000  0.85558200  1
  Ni  Ni17  1  0.93975800  0.06242000  0.60221700  1
  Ni  Ni18  1  0.93975800  0.56242000  0.89778300  1
  Ni  Ni19  1  0.83807400  0.69859900  0.50771700  1
  Ni  Ni20  1  0.46216100  0.23186000  0.14441800  1
  Ni  Ni21  1  0.16192600  0.19859900  0.49228300  1
  Ni  Ni22  1  0.06024200  0.06242000  0.10221700  1
  Ni  Ni23  1  0.53783900  0.23186000  0.64441800  1
  Ni  Ni24  1  0.67220700  0.08353300  0.25560200  1
  Ni  Ni25  1  0.32779300  0.58353300  0.74439800  1
  Ni  Ni26  1  0.46216100  0.73186000  0.35558200  1
  Ni  Ni27  1  0.67220700  0.58353300  0.24439800  1
  Ni  Ni28  1  0.83807400  0.19859900  0.99228300  1
  Ni  Ni29  1  0.06024200  0.56242000  0.39778300  1
  Ni  Ni30  1  0.16192600  0.69859900  0.00771700  1
  Ni  Ni31  1  0.32779300  0.08353300  0.75560200  1
  Cu  Cu32  1  0.86769500  0.25271100  0.46502500  1
  Cu  Cu33  1  0.62557800  0.05312500  0.78739900  1
  Cu  Cu34  1  0.37442200  0.05312500  0.28739900  1
  Cu  Cu35  1  0.86769500  0.75271100  0.03497500  1
  Cu  Cu36  1  0.13230500  0.75271100  0.53497500  1
  Cu  Cu37  1  0.37442200  0.55312500  0.21260100  1
  Cu  Cu38  1  0.13230500  0.25271100  0.96502500  1
  Cu  Cu39  1  0.62557800  0.55312500  0.71260100  1
