# generated using pymatgen
data_Cu8Ni4C15
_symmetry_space_group_name_H-M   'P 1'
_cell_length_a   7.45651313
_cell_length_b   7.45651313
_cell_length_c   7.45651313
_cell_angle_alpha   60.00000000
_cell_angle_beta   60.00000000
_cell_angle_gamma   60.00000000
_symmetry_Int_Tables_number   1
_chemical_formula_structural   Cu8Ni4C15
_chemical_formula_sum   'Cu8 Ni4 C15'
_cell_volume   293.15166381
_cell_formula_units_Z   1
loop_
 _symmetry_equiv_pos_site_id
 _symmetry_equiv_pos_as_xyz
  1  'x, y, z'
loop_
 _atom_site_type_symbol
 _atom_site_label
 _atom_site_symmetry_multiplicity
 _atom_site_fract_x
 _atom_site_fract_y
 _atom_site_fract_z
 _atom_site_occupancy
  C  C0  1  0.50000000  0.50000000  0.50000000  1
  C  C1  1  0.25000000  0.25000000  0.25000000  1
  C  C2  1  0.00000000  0.00000000  0.00000000  1
  C  C3  1  0.01475500  0.79272500  0.79272500  1
  C  C4  1  0.39979400  0.79272500  0.01475500  1
  C  C5  1  0.79272500  0.39979400  0.79272500  1
  C  C6  1  0.79272500  0.79272500  0.39979400  1
  C  C7  1  0.39979400  0.01475500  0.79272500  1
  C  C8  1  0.79272500  0.01475500  0.39979400  1
  C  C9  1  0.79272500  0.39979400  0.01475500  1
  C  C10  1  0.79272500  0.01475500  0.79272500  1
  C  C11  1  0.79272500  0.79272500  0.01475500  1
  C  C12  1  0.01475500  0.39979400  0.79272500  1
  C  C13  1  0.01475500  0.79272500  0.39979400  1
  C  C14  1  0.39979400  0.79272500  0.79272500  1
  Ni  Ni15  1  0.88723500  0.88723500  0.88723500  1
  Ni  Ni16  1  0.33829400  0.88723500  0.88723500  1
  Ni  Ni17  1  0.88723500  0.33829400  0.88723500  1
  Ni  Ni18  1  0.88723500  0.88723500  0.33829400  1
  Cu  Cu19  1  0.58881500  0.58881500  0.58881500  1
  Cu  Cu20  1  0.23355500  0.58881500  0.58881500  1
  Cu  Cu21  1  0.58881500  0.23355500  0.58881500  1
  Cu  Cu22  1  0.58881500  0.58881500  0.23355500  1
  Cu  Cu23  1  0.16140700  0.16140700  0.16140700  1
  Cu  Cu24  1  0.51577800  0.16140700  0.16140700  1
  Cu  Cu25  1  0.16140700  0.51577800  0.16140700  1
  Cu  Cu26  1  0.16140700  0.16140700  0.51577800  1
