# generated using pymatgen
data_Cu2NiC34
_symmetry_space_group_name_H-M   'P 1'
_cell_length_a   5.48845700
_cell_length_b   19.31785500
_cell_length_c   21.81884400
_cell_angle_alpha   90.00000000
_cell_angle_beta   90.00000000
_cell_angle_gamma   90.00000000
_symmetry_Int_Tables_number   1
_chemical_formula_structural   Cu2NiC34
_chemical_formula_sum   'Cu8 Ni4 C136'
_cell_volume   2313.34765887
_cell_formula_units_Z   4
loop_
 _symmetry_equiv_pos_site_id
 _symmetry_equiv_pos_as_xyz
  1  'x, y, z'
loop_
 _atom_site_type_symbol
 _atom_site_label
 _atom_site_symmetry_multiplicity
 _atom_site_fract_x
 _atom_site_fract_y
 _atom_site_fract_z
 _atom_site_occupancy
  Ni  Ni0  1  0.64941700  0.00027500  0.63212400  1
  Ni  Ni1  1  0.85058300  0.99972500  0.13212400  1
  Ni  Ni2  1  0.35058300  0.50027500  0.86787600  1
  Ni  Ni3  1  0.14941700  0.49972500  0.36787600  1
  Cu  Cu4  1  0.48359000  0.96246600  0.88290100  1
  Cu  Cu5  1  0.52173800  0.26694400  0.22003400  1
  Cu  Cu6  1  0.47826200  0.76694400  0.27996600  1
  Cu  Cu7  1  0.01641000  0.03753400  0.38290100  1
  Cu  Cu8  1  0.02173800  0.23305600  0.77996600  1
  Cu  Cu9  1  0.98359000  0.53753400  0.11709900  1
  Cu  Cu10  1  0.97826200  0.73305600  0.72003400  1
  Cu  Cu11  1  0.51641000  0.46246600  0.61709900  1
  C  C12  1  0.48745300  0.78732400  0.81049200  1
  C  C13  1  0.00689000  0.22094300  0.45886000  1
  C  C14  1  0.01012800  0.22347400  0.95712700  1
  C  C15  1  0.49847400  0.92107200  0.38390500  1
  C  C16  1  0.50152600  0.42107200  0.11609500  1
  C  C17  1  0.98987200  0.72347400  0.54287300  1
  C  C18  1  0.51012800  0.27652600  0.04287300  1
  C  C19  1  0.99311000  0.72094300  0.04114000  1
  C  C20  1  0.01254700  0.21267600  0.31049200  1
  C  C21  1  0.99847400  0.57892800  0.61609500  1
  C  C22  1  0.00152600  0.07892800  0.88390500  1
  C  C23  1  0.98745300  0.71267600  0.18950800  1
  C  C24  1  0.50689000  0.27905700  0.54114000  1
  C  C25  1  0.49311000  0.77905700  0.95886000  1
  C  C26  1  0.48987200  0.77652600  0.45712700  1
  C  C27  1  0.51254700  0.28732400  0.68950800  1
  C  C28  1  0.00363700  0.17533700  0.62531100  1
  C  C29  1  0.46605400  0.81313000  0.63517800  1
  C  C30  1  0.50363700  0.32466300  0.37468900  1
  C  C31  1  0.50238300  0.09249900  0.99985000  1
  C  C32  1  0.98837200  0.39657000  0.22940100  1
  C  C33  1  0.45768100  0.58651400  0.22357600  1
  C  C34  1  0.99761700  0.90750100  0.49985000  1
  C  C35  1  0.95768100  0.91348600  0.77642400  1
  C  C36  1  0.49761700  0.59249900  0.50015000  1
  C  C37  1  0.01162800  0.89657000  0.27059900  1
  C  C38  1  0.04231900  0.41348600  0.72357600  1
  C  C39  1  0.51162800  0.60343000  0.72940100  1
  C  C40  1  0.49163800  0.08643900  0.48448800  1
  C  C41  1  0.99163800  0.41356100  0.51551200  1
  C  C42  1  0.49636300  0.82466300  0.12531100  1
  C  C43  1  0.96605400  0.68687000  0.36482200  1
  C  C44  1  0.50836200  0.58643900  0.01551200  1
  C  C45  1  0.48837200  0.10343000  0.77059900  1
  C  C46  1  0.53394600  0.31313000  0.86482200  1
  C  C47  1  0.00238300  0.40750100  0.00015000  1
  C  C48  1  0.54231900  0.08651400  0.27642400  1
  C  C49  1  0.00836200  0.91356100  0.98448800  1
  C  C50  1  0.03394600  0.18687000  0.13517800  1
  C  C51  1  0.99636300  0.67533700  0.87468900  1
  C  C52  1  0.24085100  0.36884800  0.04371100  1
  C  C53  1  0.30480800  0.15977000  0.02501900  1
  C  C54  1  0.04895800  0.95710300  0.05957300  1
  C  C55  1  0.95104200  0.45710300  0.44042700  1
  C  C56  1  0.83156200  0.46625300  0.68174000  1
  C  C57  1  0.12198900  0.45409300  0.93338300  1
  C  C58  1  0.74085100  0.13115200  0.95628900  1
  C  C59  1  0.94267400  0.59142600  0.36475100  1
  C  C60  1  0.89201600  0.33308600  0.74017400  1
  C  C61  1  0.66843800  0.53374700  0.18174000  1
  C  C62  1  0.69506600  0.31734900  0.43999400  1
  C  C63  1  0.44267400  0.90857400  0.63524900  1
  C  C64  1  0.86792900  0.95233300  0.32559500  1
  C  C65  1  0.68476600  0.03129400  0.43952200  1
  C  C66  1  0.62198900  0.04590700  0.06661700  1
  C  C67  1  0.19519200  0.84023000  0.52501900  1
  C  C68  1  0.16843800  0.96625300  0.81826000  1
  C  C69  1  0.93959500  0.44704000  0.29932300  1
  C  C70  1  0.85373600  0.20798000  0.20145300  1
  C  C71  1  0.36792900  0.54766700  0.67440500  1
  C  C72  1  0.43959500  0.05296000  0.70067700  1
  C  C73  1  0.63207100  0.04766700  0.82559500  1
  C  C74  1  0.13913900  0.71786700  0.42752000  1
  C  C75  1  0.45104200  0.04289700  0.55957300  1
  C  C76  1  0.13207100  0.45233300  0.17440500  1
  C  C77  1  0.54895800  0.54289700  0.94042700  1
  C  C78  1  0.63913900  0.78213300  0.57248000  1
  C  C79  1  0.30493400  0.81734900  0.06000600  1
  C  C80  1  0.18476600  0.46870600  0.56047800  1
  C  C81  1  0.78318400  0.63804900  0.69283600  1
  C  C82  1  0.33077900  0.03752600  0.94785800  1
  C  C83  1  0.33797700  0.66351200  0.00609600  1
  C  C84  1  0.69566800  0.89432200  0.82418800  1
  C  C85  1  0.19506600  0.18265100  0.56000600  1
  C  C86  1  0.21681600  0.13804900  0.80716400  1
  C  C87  1  0.77916700  0.60653900  0.05982100  1
  C  C88  1  0.55732600  0.40857400  0.86475100  1
  C  C89  1  0.72083300  0.39346100  0.55982100  1
  C  C90  1  0.31773900  0.23442800  0.14171100  1
  C  C91  1  0.35373600  0.29202000  0.79854700  1
  C  C92  1  0.82066900  0.70159000  0.80796100  1
  C  C93  1  0.25914900  0.63115200  0.54371100  1
  C  C94  1  0.22083300  0.10653900  0.44017900  1
  C  C95  1  0.67933100  0.29841000  0.30796100  1
  C  C96  1  0.80480800  0.34023000  0.97498100  1
  C  C97  1  0.87801100  0.95409300  0.56661700  1
  C  C98  1  0.88238500  0.08724600  0.63238300  1
  C  C99  1  0.64626400  0.79202000  0.70145300  1
  C  C100  1  0.05732600  0.09142600  0.13524900  1
  C  C101  1  0.73836900  0.76362800  0.11727700  1
  C  C102  1  0.66202300  0.16351200  0.49390400  1
  C  C103  1  0.86117300  0.95677000  0.70647900  1
  C  C104  1  0.80493400  0.68265100  0.93999400  1
  C  C105  1  0.13882700  0.45677000  0.79352100  1
  C  C106  1  0.69519200  0.65977000  0.47498100  1
  C  C107  1  0.56040500  0.55296000  0.79932300  1
  C  C108  1  0.30043100  0.67114300  0.74560300  1
  C  C109  1  0.86086100  0.21786700  0.07248000  1
  C  C110  1  0.83077900  0.46247400  0.05214200  1
  C  C111  1  0.80043100  0.82885700  0.25439700  1
  C  C112  1  0.10798400  0.83308600  0.75982600  1
  C  C113  1  0.18226100  0.76557200  0.64171100  1
  C  C114  1  0.33156200  0.03374700  0.31826000  1
  C  C115  1  0.06040500  0.94704000  0.20067700  1
  C  C116  1  0.63882700  0.04323000  0.20647900  1
  C  C117  1  0.19566800  0.60567800  0.17581200  1
  C  C118  1  0.30433200  0.39432200  0.67581200  1
  C  C119  1  0.76163100  0.23637200  0.61727700  1
  C  C120  1  0.68226100  0.73442800  0.35828900  1
  C  C121  1  0.37801100  0.54590700  0.43338300  1
  C  C122  1  0.26163100  0.26362800  0.38272300  1
  C  C123  1  0.28318400  0.86195100  0.30716400  1
  C  C124  1  0.14626400  0.70798000  0.29854700  1
  C  C125  1  0.16922100  0.96247400  0.44785800  1
  C  C126  1  0.81773900  0.26557200  0.85828900  1
  C  C127  1  0.32066900  0.79841000  0.19203900  1
  C  C128  1  0.75914900  0.86884800  0.45628900  1
  C  C129  1  0.16202300  0.33648800  0.50609600  1
  C  C130  1  0.23836900  0.73637200  0.88272300  1
  C  C131  1  0.27916700  0.89346100  0.94017900  1
  C  C132  1  0.36117300  0.54323000  0.29352100  1
  C  C133  1  0.36086100  0.28213300  0.92752000  1
  C  C134  1  0.17933100  0.20159000  0.69203900  1
  C  C135  1  0.83797700  0.83648800  0.99390400  1
  C  C136  1  0.39201600  0.16691400  0.25982600  1
  C  C137  1  0.66922100  0.53752600  0.55214200  1
  C  C138  1  0.19956900  0.32885700  0.24560300  1
  C  C139  1  0.61761500  0.91275400  0.13238300  1
  C  C140  1  0.31523400  0.53129400  0.06047800  1
  C  C141  1  0.60798400  0.66691400  0.24017400  1
  C  C142  1  0.81523400  0.96870600  0.93952200  1
  C  C143  1  0.71681600  0.36195100  0.19283600  1
  C  C144  1  0.38238500  0.41275400  0.36761700  1
  C  C145  1  0.11761500  0.58724600  0.86761700  1
  C  C146  1  0.80433200  0.10567800  0.32418800  1
  C  C147  1  0.69956900  0.17114300  0.75439700  1
