# generated using pymatgen
data_Cu2NiC8
_symmetry_space_group_name_H-M   'P 1'
_cell_length_a   4.14283600
_cell_length_b   7.45515000
_cell_length_c   20.36956200
_cell_angle_alpha   90.00000000
_cell_angle_beta   90.00000000
_cell_angle_gamma   90.00000000
_symmetry_Int_Tables_number   1
_chemical_formula_structural   Cu2NiC8
_chemical_formula_sum   'Cu8 Ni4 C32'
_cell_volume   629.12336988
_cell_formula_units_Z   4
loop_
 _symmetry_equiv_pos_site_id
 _symmetry_equiv_pos_as_xyz
  1  'x, y, z'
loop_
 _atom_site_type_symbol
 _atom_site_label
 _atom_site_symmetry_multiplicity
 _atom_site_fract_x
 _atom_site_fract_y
 _atom_site_fract_z
 _atom_site_occupancy
  Ni  Ni0  1  0.00000000  0.50000000  0.76259500  1
  Ni  Ni1  1  0.00000000  0.50000000  0.23740500  1
  Ni  Ni2  1  0.00000000  0.00000000  0.73740500  1
  Ni  Ni3  1  0.00000000  0.00000000  0.26259500  1
  Cu  Cu4  1  0.91214400  0.25140400  0.58951300  1
  Cu  Cu5  1  0.91214400  0.74859600  0.41048700  1
  Cu  Cu6  1  0.08785600  0.25140400  0.41048700  1
  Cu  Cu7  1  0.08785600  0.74859600  0.58951300  1
  Cu  Cu8  1  0.08785600  0.24859600  0.91048700  1
  Cu  Cu9  1  0.08785600  0.75140400  0.08951300  1
  Cu  Cu10  1  0.91214400  0.24859600  0.08951300  1
  Cu  Cu11  1  0.91214400  0.75140400  0.91048700  1
  C  C12  1  0.00000000  0.50000000  0.12113100  1
  C  C13  1  0.00000000  0.50000000  0.87886900  1
  C  C14  1  0.00000000  0.00000000  0.37886900  1
  C  C15  1  0.00000000  0.00000000  0.62113100  1
  C  C16  1  0.00000000  0.31369700  0.00000000  1
  C  C17  1  0.00000000  0.68630300  0.00000000  1
  C  C18  1  0.00000000  0.18630300  0.50000000  1
  C  C19  1  0.00000000  0.81369700  0.50000000  1
  C  C20  1  0.50761200  0.25038500  0.40909700  1
  C  C21  1  0.50761200  0.74961500  0.59090300  1
  C  C22  1  0.49238800  0.25038500  0.59090300  1
  C  C23  1  0.49238800  0.74961500  0.40909700  1
  C  C24  1  0.49238800  0.24961500  0.09090300  1
  C  C25  1  0.49238800  0.75038500  0.90909700  1
  C  C26  1  0.50761200  0.24961500  0.90909700  1
  C  C27  1  0.50761200  0.75038500  0.09090300  1
  C  C28  1  0.00000000  0.50000000  0.42416400  1
  C  C29  1  0.00000000  0.50000000  0.57583600  1
  C  C30  1  0.00000000  0.00000000  0.07583600  1
  C  C31  1  0.00000000  0.00000000  0.92416400  1
  C  C32  1  0.50000000  0.50000000  0.23572000  1
  C  C33  1  0.50000000  0.50000000  0.76428000  1
  C  C34  1  0.50000000  0.00000000  0.26428000  1
  C  C35  1  0.50000000  0.00000000  0.73572000  1
  C  C36  1  0.99170100  0.71000800  0.31158800  1
  C  C37  1  0.99170100  0.28999200  0.68841200  1
  C  C38  1  0.00829900  0.71000800  0.68841200  1
  C  C39  1  0.00829900  0.28999200  0.31158800  1
  C  C40  1  0.00829900  0.78999200  0.18841200  1
  C  C41  1  0.00829900  0.21000800  0.81158800  1
  C  C42  1  0.99170100  0.78999200  0.81158800  1
  C  C43  1  0.99170100  0.21000800  0.18841200  1
