# generated using pymatgen
data_Cu2(Ni2C7)3
_symmetry_space_group_name_H-M   'P 1'
_cell_length_a   7.45477931
_cell_length_b   7.45477931
_cell_length_c   7.45477931
_cell_angle_alpha   60.00000000
_cell_angle_beta   60.00000000
_cell_angle_gamma   60.00000000
_symmetry_Int_Tables_number   1
_chemical_formula_structural   Cu2(Ni2C7)3
_chemical_formula_sum   'Cu2 Ni6 C21'
_cell_volume   292.94721607
_cell_formula_units_Z   1
loop_
 _symmetry_equiv_pos_site_id
 _symmetry_equiv_pos_as_xyz
  1  'x, y, z'
loop_
 _atom_site_type_symbol
 _atom_site_label
 _atom_site_symmetry_multiplicity
 _atom_site_fract_x
 _atom_site_fract_y
 _atom_site_fract_z
 _atom_site_occupancy
  C  C0  1  0.00000000  0.00000000  0.00000000  1
  C  C1  1  0.61641400  0.61641400  0.15075900  1
  C  C2  1  0.61641400  0.15075900  0.61641400  1
  C  C3  1  0.15075900  0.61641400  0.61641400  1
  C  C4  1  0.61641400  0.61641400  0.61641400  1
  C  C5  1  0.38358600  0.38358600  0.84924100  1
  C  C6  1  0.38358600  0.84924100  0.38358600  1
  C  C7  1  0.84924100  0.38358600  0.38358600  1
  C  C8  1  0.38358600  0.38358600  0.38358600  1
  C  C9  1  0.00000000  0.00000000  0.33384900  1
  C  C10  1  0.66615100  0.00000000  0.33384900  1
  C  C11  1  0.00000000  0.66615100  0.33384900  1
  C  C12  1  0.66615100  0.33384900  0.00000000  1
  C  C13  1  0.00000000  0.33384900  0.00000000  1
  C  C14  1  0.00000000  0.33384900  0.66615100  1
  C  C15  1  0.33384900  0.66615100  0.00000000  1
  C  C16  1  0.33384900  0.00000000  0.66615100  1
  C  C17  1  0.33384900  0.00000000  0.00000000  1
  C  C18  1  0.00000000  0.00000000  0.66615100  1
  C  C19  1  0.00000000  0.66615100  0.00000000  1
  C  C20  1  0.66615100  0.00000000  0.00000000  1
  Ni  Ni21  1  0.72356400  0.72356400  0.27643600  1
  Ni  Ni22  1  0.27643600  0.72356400  0.27643600  1
  Ni  Ni23  1  0.72356400  0.27643600  0.27643600  1
  Ni  Ni24  1  0.27643600  0.27643600  0.72356400  1
  Ni  Ni25  1  0.72356400  0.27643600  0.72356400  1
  Ni  Ni26  1  0.27643600  0.72356400  0.72356400  1
  Cu  Cu27  1  0.75000000  0.75000000  0.75000000  1
  Cu  Cu28  1  0.25000000  0.25000000  0.25000000  1
