# generated using pymatgen
data_Cu2Ni5C18
_symmetry_space_group_name_H-M   'P 1'
_cell_length_a   5.84644311
_cell_length_b   5.84644311
_cell_length_c   24.33998800
_cell_angle_alpha   90.00000000
_cell_angle_beta   90.00000000
_cell_angle_gamma   119.99998995
_symmetry_Int_Tables_number   1
_chemical_formula_structural   Cu2Ni5C18
_chemical_formula_sum   'Cu4 Ni10 C36'
_cell_volume   720.50084055
_cell_formula_units_Z   2
loop_
 _symmetry_equiv_pos_site_id
 _symmetry_equiv_pos_as_xyz
  1  'x, y, z'
loop_
 _atom_site_type_symbol
 _atom_site_label
 _atom_site_symmetry_multiplicity
 _atom_site_fract_x
 _atom_site_fract_y
 _atom_site_fract_z
 _atom_site_occupancy
  Ni  Ni0  1  0.00000000  0.00000000  0.14973400  1
  Ni  Ni1  1  0.00000000  0.00000000  0.84987700  1
  Ni  Ni2  1  0.66666700  0.33333300  0.95771100  1
  Ni  Ni3  1  0.66666700  0.33333300  0.55302600  1
  Ni  Ni4  1  0.00000000  0.00000000  0.64973400  1
  Ni  Ni5  1  0.33333300  0.66666700  0.05302600  1
  Ni  Ni6  1  0.00000000  0.00000000  0.34987700  1
  Ni  Ni7  1  0.66666700  0.33333300  0.24238200  1
  Ni  Ni8  1  0.33333300  0.66666700  0.45771100  1
  Ni  Ni9  1  0.33333300  0.66666700  0.74238200  1
  Cu  Cu10  1  0.66666700  0.33333300  0.68120800  1
  Cu  Cu11  1  0.33333300  0.66666700  0.18120800  1
  Cu  Cu12  1  0.00000000  0.00000000  0.00921100  1
  Cu  Cu13  1  0.00000000  0.00000000  0.50921100  1
  C  C14  1  0.33333300  0.66666700  0.90241200  1
  C  C15  1  0.66666700  0.33333300  0.79910400  1
  C  C16  1  0.33333300  0.66666700  0.29910400  1
  C  C17  1  0.66666700  0.33333300  0.40241200  1
  C  C18  1  0.33333300  0.66666700  0.59928200  1
  C  C19  1  0.66666700  0.33333300  0.09928200  1
  C  C20  1  0.35170600  0.17585300  0.05281800  1
  C  C21  1  0.17683100  0.82316900  0.94283700  1
  C  C22  1  0.50017800  0.00035600  0.35088300  1
  C  C23  1  0.82414700  0.64829400  0.05281800  1
  C  C24  1  0.49066500  0.98133000  0.64681600  1
  C  C25  1  0.64633700  0.82316900  0.94283700  1
  C  C26  1  0.17736500  0.35472900  0.25866400  1
  C  C27  1  0.35472900  0.17736500  0.75866400  1
  C  C28  1  0.82263500  0.64527100  0.75866400  1
  C  C29  1  0.17736500  0.82263500  0.25866400  1
  C  C30  1  0.00035600  0.50017800  0.85088300  1
  C  C31  1  0.82316900  0.17683100  0.44283700  1
  C  C32  1  0.35366300  0.17683100  0.44283700  1
  C  C33  1  0.50017800  0.49982200  0.35088300  1
  C  C34  1  0.99964400  0.49982200  0.35088300  1
  C  C35  1  0.49982200  0.50017800  0.85088300  1
  C  C36  1  0.17683100  0.35366300  0.94283700  1
  C  C37  1  0.01867000  0.50933500  0.64681600  1
  C  C38  1  0.17585300  0.35170600  0.55281800  1
  C  C39  1  0.82414700  0.17585300  0.05281800  1
  C  C40  1  0.49066500  0.50933500  0.64681600  1
  C  C41  1  0.64829400  0.82414700  0.55281800  1
  C  C42  1  0.98133000  0.49066500  0.14681600  1
  C  C43  1  0.82263500  0.17736500  0.75866400  1
  C  C44  1  0.50933500  0.49066500  0.14681600  1
  C  C45  1  0.50933500  0.01867000  0.14681600  1
  C  C46  1  0.49982200  0.99964400  0.85088300  1
  C  C47  1  0.64527100  0.82263500  0.25866400  1
  C  C48  1  0.82316900  0.64633700  0.44283700  1
  C  C49  1  0.17585300  0.82414700  0.55281800  1
