# generated using pymatgen
data_CuNi5C7
_symmetry_space_group_name_H-M   'P 1'
_cell_length_a   7.71157100
_cell_length_b   6.91666600
_cell_length_c   13.91587867
_cell_angle_alpha   67.50859287
_cell_angle_beta   90.00000000
_cell_angle_gamma   90.00000000
_symmetry_Int_Tables_number   1
_chemical_formula_structural   CuNi5C7
_chemical_formula_sum   'Cu4 Ni20 C28'
_cell_volume   685.79232195
_cell_formula_units_Z   4
loop_
 _symmetry_equiv_pos_site_id
 _symmetry_equiv_pos_as_xyz
  1  'x, y, z'
loop_
 _atom_site_type_symbol
 _atom_site_label
 _atom_site_symmetry_multiplicity
 _atom_site_fract_x
 _atom_site_fract_y
 _atom_site_fract_z
 _atom_site_occupancy
  C  C0  1  0.36320000  0.47383000  0.08915300  1
  C  C1  1  0.86320000  0.52617000  0.41084700  1
  C  C2  1  0.63680000  0.52617000  0.91084700  1
  C  C3  1  0.13680000  0.47383000  0.58915300  1
  C  C4  1  0.30251200  0.96413700  0.95696000  1
  C  C5  1  0.27885300  0.57892900  0.73131400  1
  C  C6  1  0.13319900  0.78850800  0.64619300  1
  C  C7  1  0.72114700  0.42107100  0.26868600  1
  C  C8  1  0.54243500  0.39247500  0.42326200  1
  C  C9  1  0.22114700  0.57892900  0.23131400  1
  C  C10  1  0.19748800  0.96413700  0.45696000  1
  C  C11  1  0.69748800  0.03586300  0.04304000  1
  C  C12  1  0.95756500  0.39247500  0.92326200  1
  C  C13  1  0.45971200  0.18986400  0.60713100  1
  C  C14  1  0.36680100  0.78850800  0.14619300  1
  C  C15  1  0.77885300  0.42107100  0.76868600  1
  C  C16  1  0.86680100  0.21149200  0.35380700  1
  C  C17  1  0.04243500  0.60752500  0.07673800  1
  C  C18  1  0.45756500  0.60752500  0.57673800  1
  C  C19  1  0.54028800  0.81013600  0.39286900  1
  C  C20  1  0.80251200  0.03586300  0.54304000  1
  C  C21  1  0.04028800  0.18986400  0.10713100  1
  C  C22  1  0.63319900  0.21149200  0.85380700  1
  C  C23  1  0.95971200  0.81013600  0.89286900  1
  Ni  Ni24  1  0.07713300  0.90361900  0.88511800  1
  Ni  Ni25  1  0.90019400  0.92751200  0.21020300  1
  Ni  Ni26  1  0.23611500  0.67556200  0.65279600  1
  Ni  Ni27  1  0.31043100  0.86312400  0.46610200  1
  Ni  Ni28  1  0.09980600  0.07248800  0.78979700  1
  Ni  Ni29  1  0.16222500  0.69834400  0.06654600  1
  Ni  Ni30  1  0.83777500  0.30165600  0.93345400  1
  Ni  Ni31  1  0.42286700  0.90361900  0.38511800  1
  Ni  Ni32  1  0.33777500  0.69834400  0.56654600  1
  Ni  Ni33  1  0.26388500  0.67556200  0.15279600  1
  Ni  Ni34  1  0.59980600  0.92751200  0.71020300  1
  Ni  Ni35  1  0.66222500  0.30165600  0.43345400  1
  Ni  Ni36  1  0.92286700  0.09638100  0.11488200  1
  Ni  Ni37  1  0.81043100  0.13687600  0.03389800  1
  Ni  Ni38  1  0.68956900  0.13687600  0.53389800  1
  Ni  Ni39  1  0.73611500  0.32443800  0.84720400  1
  Ni  Ni40  1  0.40019400  0.07248800  0.28979700  1
  Ni  Ni41  1  0.18956900  0.86312400  0.96610200  1
  Ni  Ni42  1  0.57713300  0.09638100  0.61488200  1
  Ni  Ni43  1  0.76388500  0.32443800  0.34720400  1
  Cu  Cu44  1  0.38661900  0.21436100  0.21003700  1
  Cu  Cu45  1  0.61338100  0.78563900  0.78996300  1
  Cu  Cu46  1  0.88661900  0.78563900  0.28996300  1
  Cu  Cu47  1  0.11338100  0.21436100  0.71003700  1
  C  C48  1  0.66014900  0.61907900  0.05259500  1
  C  C49  1  0.83985100  0.61907900  0.55259500  1
  C  C50  1  0.16014900  0.38092100  0.44740500  1
  C  C51  1  0.33985100  0.38092100  0.94740500  1
