# generated using pymatgen
data_Cu2NiC7
_symmetry_space_group_name_H-M   'P 1'
_cell_length_a   9.38046300
_cell_length_b   10.96313300
_cell_length_c   12.41315000
_cell_angle_alpha   90.00000000
_cell_angle_beta   90.00000000
_cell_angle_gamma   90.00000000
_symmetry_Int_Tables_number   1
_chemical_formula_structural   Cu2NiC7
_chemical_formula_sum   'Cu8 Ni4 C28'
_cell_volume   1276.55920335
_cell_formula_units_Z   4
loop_
 _symmetry_equiv_pos_site_id
 _symmetry_equiv_pos_as_xyz
  1  'x, y, z'
loop_
 _atom_site_type_symbol
 _atom_site_label
 _atom_site_symmetry_multiplicity
 _atom_site_fract_x
 _atom_site_fract_y
 _atom_site_fract_z
 _atom_site_occupancy
  Ni  Ni0  1  0.63896600  0.37602800  0.88789900  1
  Ni  Ni1  1  0.13896600  0.87602800  0.61210100  1
  Ni  Ni2  1  0.86103400  0.37602800  0.38789900  1
  Ni  Ni3  1  0.36103400  0.87602800  0.11210100  1
  Cu  Cu4  1  0.61728600  0.74248400  0.61634900  1
  Cu  Cu5  1  0.93340800  0.99950300  0.32369300  1
  Cu  Cu6  1  0.38271400  0.24248400  0.38365100  1
  Cu  Cu7  1  0.43340800  0.49950300  0.17630700  1
  Cu  Cu8  1  0.88271400  0.74248400  0.11634900  1
  Cu  Cu9  1  0.56659200  0.99950300  0.82369300  1
  Cu  Cu10  1  0.06659200  0.49950300  0.67630700  1
  Cu  Cu11  1  0.11728600  0.24248400  0.88365100  1
  C  C12  1  0.23193500  0.36979700  0.75730100  1
  C  C13  1  0.79549800  0.69105700  0.51423000  1
  C  C14  1  0.87369600  0.38854800  0.65839700  1
  C  C15  1  0.54690300  0.15534500  0.71636500  1
  C  C16  1  0.97762200  0.59604300  0.20933400  1
  C  C17  1  0.46103600  0.85791400  0.53450100  1
  C  C18  1  0.20450200  0.19105700  0.48577000  1
  C  C19  1  0.70450200  0.69105700  0.01423000  1
  C  C20  1  0.12630400  0.88854800  0.34160300  1
  C  C21  1  0.47762200  0.09604300  0.29066600  1
  C  C22  1  0.52237800  0.59604300  0.70933400  1
  C  C23  1  0.73193500  0.86979700  0.74269900  1
  C  C24  1  0.45309700  0.65534500  0.28363500  1
  C  C25  1  0.04690300  0.65534500  0.78363500  1
  C  C26  1  0.65893700  0.05059000  0.97774200  1
  C  C27  1  0.15893700  0.55059000  0.52225800  1
  C  C28  1  0.37369600  0.88854800  0.84160300  1
  C  C29  1  0.29549800  0.19105700  0.98577000  1
  C  C30  1  0.53896400  0.35791400  0.46549900  1
  C  C31  1  0.62630400  0.38854800  0.15839700  1
  C  C32  1  0.96103600  0.35791400  0.96549900  1
  C  C33  1  0.26806500  0.36979700  0.25730100  1
  C  C34  1  0.03896400  0.85791400  0.03450100  1
  C  C35  1  0.76806500  0.86979700  0.24269900  1
  C  C36  1  0.34106300  0.55059000  0.02225800  1
  C  C37  1  0.95309700  0.15534500  0.21636500  1
  C  C38  1  0.84106300  0.05059000  0.47774200  1
  C  C39  1  0.02237800  0.09604300  0.79066600  1
