# generated using pymatgen
data_CuNiC5
_symmetry_space_group_name_H-M   'P 1'
_cell_length_a   9.32447900
_cell_length_b   5.42667700
_cell_length_c   14.93989576
_cell_angle_alpha   85.59359677
_cell_angle_beta   90.00000000
_cell_angle_gamma   90.00000000
_symmetry_Int_Tables_number   1
_chemical_formula_structural   CuNiC5
_chemical_formula_sum   'Cu8 Ni8 C40'
_cell_volume   753.73817993
_cell_formula_units_Z   8
loop_
 _symmetry_equiv_pos_site_id
 _symmetry_equiv_pos_as_xyz
  1  'x, y, z'
loop_
 _atom_site_type_symbol
 _atom_site_label
 _atom_site_symmetry_multiplicity
 _atom_site_fract_x
 _atom_site_fract_y
 _atom_site_fract_z
 _atom_site_occupancy
  C  C0  1  0.50371500  0.73146700  0.11159200  1
  C  C1  1  0.00371500  0.26853300  0.38840800  1
  C  C2  1  0.49628500  0.26853300  0.88840800  1
  C  C3  1  0.99628500  0.73146700  0.61159200  1
  C  C4  1  0.96400500  0.74833000  0.15059600  1
  C  C5  1  0.46400500  0.25167000  0.34940400  1
  C  C6  1  0.03599500  0.25167000  0.84940400  1
  C  C7  1  0.53599500  0.74833000  0.65059600  1
  Ni  Ni8  1  0.15143000  0.27825000  0.06116000  1
  Ni  Ni9  1  0.65143000  0.72175000  0.43884000  1
  Ni  Ni10  1  0.84857000  0.72175000  0.93884000  1
  Ni  Ni11  1  0.34857000  0.27825000  0.56116000  1
  Ni  Ni12  1  0.24547600  0.77320100  0.30690300  1
  Ni  Ni13  1  0.74547600  0.22679900  0.19309700  1
  Ni  Ni14  1  0.75452400  0.22679900  0.69309700  1
  Ni  Ni15  1  0.25452400  0.77320100  0.80690300  1
  Cu  Cu16  1  0.80219300  0.83392200  0.32968200  1
  Cu  Cu17  1  0.30219300  0.16607800  0.17031800  1
  Cu  Cu18  1  0.19780700  0.16607800  0.67031800  1
  Cu  Cu19  1  0.69780700  0.83392200  0.82968200  1
  Cu  Cu20  1  0.28962000  0.74603900  0.45205500  1
  Cu  Cu21  1  0.78962000  0.25396100  0.04794500  1
  Cu  Cu22  1  0.71038000  0.25396100  0.54794500  1
  Cu  Cu23  1  0.21038000  0.74603900  0.95205500  1
  C  C24  1  0.04502100  0.08855400  0.10282700  1
  C  C25  1  0.54502100  0.91144600  0.39717300  1
  C  C26  1  0.95497900  0.91144600  0.89717300  1
  C  C27  1  0.45497900  0.08855400  0.60282700  1
  C  C28  1  0.17429700  0.25671500  0.96048300  1
  C  C29  1  0.67429700  0.74328500  0.53951700  1
  C  C30  1  0.82570300  0.74328500  0.03951700  1
  C  C31  1  0.32570300  0.25671500  0.46048300  1
  C  C32  1  0.11396800  0.54529200  0.08107600  1
  C  C33  1  0.61396800  0.45470800  0.41892400  1
  C  C34  1  0.88603200  0.45470800  0.91892400  1
  C  C35  1  0.38603200  0.54529200  0.58107600  1
  C  C36  1  0.80774400  0.78303400  0.39571900  1
  C  C37  1  0.30774400  0.21696600  0.10428100  1
  C  C38  1  0.19225600  0.21696600  0.60428100  1
  C  C39  1  0.69225600  0.78303400  0.89571900  1
  C  C40  1  0.09883900  0.73841100  0.26383800  1
  C  C41  1  0.59883900  0.26158900  0.23616200  1
  C  C42  1  0.90116100  0.26158900  0.73616200  1
  C  C43  1  0.40116100  0.73841100  0.76383800  1
  C  C44  1  0.35125700  0.56490500  0.29150700  1
  C  C45  1  0.85125700  0.43509500  0.20849300  1
  C  C46  1  0.64874300  0.43509500  0.70849300  1
  C  C47  1  0.14874300  0.56490500  0.79150700  1
  C  C48  1  0.30830100  0.03179700  0.27913400  1
  C  C49  1  0.80830100  0.96820300  0.22086600  1
  C  C50  1  0.69169900  0.96820300  0.72086600  1
  C  C51  1  0.19169900  0.03179700  0.77913400  1
  C  C52  1  0.20487200  0.76275100  0.41287600  1
  C  C53  1  0.70487200  0.23724900  0.08712400  1
  C  C54  1  0.79512800  0.23724900  0.58712400  1
  C  C55  1  0.29512800  0.76275100  0.91287600  1
