# generated using pymatgen
data_Cu(NiC2)2
_symmetry_space_group_name_H-M   'P 1'
_cell_length_a   5.97285325
_cell_length_b   5.97285289
_cell_length_c   5.97285336
_cell_angle_alpha   89.82496049
_cell_angle_beta   60.10101668
_cell_angle_gamma   119.89900115
_symmetry_Int_Tables_number   1
_chemical_formula_structural   Cu(NiC2)2
_chemical_formula_sum   'Cu2 Ni4 C8'
_cell_volume   150.90056616
_cell_formula_units_Z   2
loop_
 _symmetry_equiv_pos_site_id
 _symmetry_equiv_pos_as_xyz
  1  'x, y, z'
loop_
 _atom_site_type_symbol
 _atom_site_label
 _atom_site_symmetry_multiplicity
 _atom_site_fract_x
 _atom_site_fract_y
 _atom_site_fract_z
 _atom_site_occupancy
  Ni  Ni0  1  0.00000000  0.50000000  0.50000000  1
  Ni  Ni1  1  0.50000100  0.50000000  0.49999900  1
  Ni  Ni2  1  0.00000000  0.00000000  0.49999900  1
  Ni  Ni3  1  0.50000000  0.50000000  0.00000000  1
  Cu  Cu4  1  0.74999900  0.12500000  0.12500100  1
  Cu  Cu5  1  0.25000000  0.87500000  0.87500000  1
  C  C6  1  0.97546700  0.73702000  0.73844700  1
  C  C7  1  0.52453300  0.28608700  0.73844700  1
  C  C8  1  0.97546800  0.73844700  0.28608600  1
  C  C9  1  0.47546700  0.26155300  0.26298000  1
  C  C10  1  0.02453300  0.26155400  0.71391300  1
  C  C11  1  0.47546700  0.71391400  0.26155400  1
  C  C12  1  0.52453300  0.73844700  0.73702000  1
  C  C13  1  0.02453200  0.26297900  0.26155400  1
