# generated using pymatgen
data_Cu8Ni2C13
_symmetry_space_group_name_H-M   'P 1'
_cell_length_a   25.27542300
_cell_length_b   5.97329600
_cell_length_c   6.96477510
_cell_angle_alpha   70.28425052
_cell_angle_beta   90.00000000
_cell_angle_gamma   90.00000000
_symmetry_Int_Tables_number   1
_chemical_formula_structural   Cu8Ni2C13
_chemical_formula_sum   'Cu32 Ni8 C52'
_cell_volume   989.88225896
_cell_formula_units_Z   4
loop_
 _symmetry_equiv_pos_site_id
 _symmetry_equiv_pos_as_xyz
  1  'x, y, z'
loop_
 _atom_site_type_symbol
 _atom_site_label
 _atom_site_symmetry_multiplicity
 _atom_site_fract_x
 _atom_site_fract_y
 _atom_site_fract_z
 _atom_site_occupancy
  C  C0  1  0.29463100  0.89370400  0.60227000  1
  C  C1  1  0.70536900  0.10629600  0.39773000  1
  C  C2  1  0.95757900  0.80489100  0.39524800  1
  C  C3  1  0.20536900  0.89370400  0.10227000  1
  C  C4  1  0.79463100  0.10629600  0.89773000  1
  C  C5  1  0.54242100  0.80489100  0.89524800  1
  C  C6  1  0.45757900  0.19510900  0.10475200  1
  C  C7  1  0.04242100  0.19510900  0.60475200  1
  Ni  Ni8  1  0.33328200  0.92394700  0.08992200  1
  Ni  Ni9  1  0.83328200  0.07605300  0.41007800  1
  Ni  Ni10  1  0.66671800  0.07605300  0.91007800  1
  Ni  Ni11  1  0.41856300  0.80663800  0.85503000  1
  Ni  Ni12  1  0.91856300  0.19336200  0.64497000  1
  Ni  Ni13  1  0.08143700  0.80663800  0.35503000  1
  Ni  Ni14  1  0.16671800  0.92394700  0.58992200  1
  Ni  Ni15  1  0.58143700  0.19336200  0.14497000  1
  Cu  Cu16  1  0.18707400  0.46629300  0.86503200  1
  Cu  Cu17  1  0.17331200  0.38732500  0.37026200  1
  Cu  Cu18  1  0.73242900  0.61695300  0.19531200  1
  Cu  Cu19  1  0.23242900  0.38304700  0.30468800  1
  Cu  Cu20  1  0.76757100  0.61695300  0.69531200  1
  Cu  Cu21  1  0.07410800  0.80271200  0.98817600  1
  Cu  Cu22  1  0.57696100  0.78701800  0.48920000  1
  Cu  Cu23  1  0.07696100  0.21298200  0.01080000  1
  Cu  Cu24  1  0.67331200  0.61267500  0.12973800  1
  Cu  Cu25  1  0.42589200  0.80271200  0.48817600  1
  Cu  Cu26  1  0.92303900  0.78701800  0.98920000  1
  Cu  Cu27  1  0.51332400  0.24191500  0.54402100  1
  Cu  Cu28  1  0.17063100  0.28257200  0.75397200  1
  Cu  Cu29  1  0.81292600  0.53370700  0.13496800  1
  Cu  Cu30  1  0.57410800  0.19728800  0.51182400  1
  Cu  Cu31  1  0.98667600  0.24191500  0.04402100  1
  Cu  Cu32  1  0.82936900  0.71742800  0.24602800  1
  Cu  Cu33  1  0.68707400  0.53370700  0.63496800  1
  Cu  Cu34  1  0.01332400  0.75808500  0.95597900  1
  Cu  Cu35  1  0.92589200  0.19728800  0.01182400  1
  Cu  Cu36  1  0.55656700  0.51972300  0.60351000  1
  Cu  Cu37  1  0.44343300  0.48027700  0.39649000  1
  Cu  Cu38  1  0.31292600  0.46629300  0.36503200  1
  Cu  Cu39  1  0.32936900  0.28257200  0.25397200  1
  Cu  Cu40  1  0.48667600  0.75808500  0.45597900  1
  Cu  Cu41  1  0.42303900  0.21298200  0.51080000  1
  Cu  Cu42  1  0.05656700  0.48027700  0.89649000  1
  Cu  Cu43  1  0.94343300  0.51972300  0.10351000  1
  Cu  Cu44  1  0.82668800  0.61267500  0.62973800  1
  Cu  Cu45  1  0.26757100  0.38304700  0.80468800  1
  Cu  Cu46  1  0.67063100  0.71742800  0.74602800  1
  Cu  Cu47  1  0.32668800  0.38732500  0.87026200  1
  C  C48  1  0.05184800  0.31015000  0.90821500  1
  C  C49  1  0.31109600  0.78762800  0.30174700  1
  C  C50  1  0.36251700  0.15391700  0.08030200  1
  C  C51  1  0.38657100  0.89026500  0.65565100  1
  C  C52  1  0.95184700  0.21529700  0.11408300  1
  C  C53  1  0.04381300  0.00137400  0.37007100  1
  C  C54  1  0.70082100  0.51494700  0.22096500  1
  C  C55  1  0.30761600  0.30065700  0.36664500  1
  C  C56  1  0.44815200  0.31015000  0.40821500  1
  C  C57  1  0.54381300  0.99862600  0.12992900  1
  C  C58  1  0.04815300  0.78470300  0.88591700  1
  C  C59  1  0.29917900  0.48505300  0.77903500  1
  C  C60  1  0.20082100  0.48505300  0.27903500  1
  C  C61  1  0.87664800  0.25501700  0.45571600  1
  C  C62  1  0.79001200  0.03456600  0.57387800  1
  C  C63  1  0.95618700  0.99862600  0.62992900  1
  C  C64  1  0.68890400  0.21237200  0.69825300  1
  C  C65  1  0.20998800  0.96543400  0.42612200  1
  C  C66  1  0.05009800  0.57902200  0.38767100  1
  C  C67  1  0.70998800  0.03456600  0.07387800  1
  C  C68  1  0.11342900  0.89026500  0.15565100  1
  C  C69  1  0.80761600  0.69934300  0.13335500  1
  C  C70  1  0.62335200  0.25501700  0.95571600  1
  C  C71  1  0.19238400  0.30065700  0.86664500  1
  C  C72  1  0.63748300  0.84608300  0.91969800  1
  C  C73  1  0.94815200  0.68985000  0.09178500  1
  C  C74  1  0.12335200  0.74498300  0.54428400  1
  C  C75  1  0.69238400  0.69934300  0.63335500  1
  C  C76  1  0.29001200  0.96543400  0.92612200  1
  C  C77  1  0.44990200  0.57902200  0.88767100  1
  C  C78  1  0.37664800  0.74498300  0.04428400  1
  C  C79  1  0.55184800  0.68985000  0.59178500  1
  C  C80  1  0.81109600  0.21237200  0.19825300  1
  C  C81  1  0.79917900  0.51494700  0.72096500  1
  C  C82  1  0.86251700  0.84608300  0.41969800  1
  C  C83  1  0.55009800  0.42097800  0.11232900  1
  C  C84  1  0.45184700  0.78470300  0.38591700  1
  C  C85  1  0.45618700  0.00137400  0.87007100  1
  C  C86  1  0.18890400  0.78762800  0.80174700  1
  C  C87  1  0.61342900  0.10973500  0.34434900  1
  C  C88  1  0.94990200  0.42097800  0.61232900  1
  C  C89  1  0.13748300  0.15391700  0.58030200  1
  C  C90  1  0.54815300  0.21529700  0.61408300  1
  C  C91  1  0.88657100  0.10973500  0.84434900  1
