# generated using pymatgen
data_Cu7(NiC2)3
_symmetry_space_group_name_H-M   'P 1'
_cell_length_a   11.12771077
_cell_length_b   11.12776601
_cell_length_c   11.12776598
_cell_angle_alpha   100.15582085
_cell_angle_beta   114.31958299
_cell_angle_gamma   114.31958061
_symmetry_Int_Tables_number   1
_chemical_formula_structural   Cu7(NiC2)3
_chemical_formula_sum   'Cu28 Ni12 C24'
_cell_volume   1040.20869623
_cell_formula_units_Z   4
loop_
 _symmetry_equiv_pos_site_id
 _symmetry_equiv_pos_as_xyz
  1  'x, y, z'
loop_
 _atom_site_type_symbol
 _atom_site_label
 _atom_site_symmetry_multiplicity
 _atom_site_fract_x
 _atom_site_fract_y
 _atom_site_fract_z
 _atom_site_occupancy
  C  C0  1  0.09387576  0.04694618  0.29693534  1
  C  C1  1  0.48464717  0.82801538  0.34333921  1
  C  C2  1  0.01535283  0.65666079  0.17198462  1
  C  C3  1  0.25000000  0.29695517  0.70304483  1
  C  C4  1  0.98464717  0.34333921  0.82801538  1
  C  C5  1  0.98462755  0.64130685  0.65662996  1
  C  C6  1  0.25000000  0.95304553  0.04695447  1
  C  C7  1  0.75000000  0.04695447  0.95304553  1
  C  C8  1  0.48462755  0.65662996  0.64130685  1
  C  C9  1  0.59387576  0.29693534  0.04694618  1
  C  C10  1  0.90612424  0.95305382  0.70306466  1
  C  C11  1  0.75000000  0.70304483  0.29695517  1
  C  C12  1  0.51537245  0.34337004  0.35869315  1
  C  C13  1  0.40612424  0.70306466  0.95305382  1
  C  C14  1  0.01537245  0.35869315  0.34337004  1
  C  C15  1  0.51535283  0.17198462  0.65666079  1
  C  C16  1  0.37376579  0.47047440  0.09676314  1
  C  C17  1  0.62623421  0.52952560  0.90323686  1
  C  C18  1  0.37378048  0.90329532  0.77702111  1
  C  C19  1  0.12621952  0.22297889  0.09670468  1
  C  C20  1  0.87376579  0.09676314  0.47047440  1
  C  C21  1  0.87378048  0.77702111  0.90329532  1
  C  C22  1  0.62621952  0.09670468  0.22297889  1
  C  C23  1  0.12623421  0.90323686  0.52952560  1
  Ni  Ni24  1  0.64883624  1.00000976  0.64883803  1
  Ni  Ni25  1  0.35116376  -0.00000976  0.35116197  1
  Ni  Ni26  1  0.14884395  0.50000071  0.64883609  1
  Ni  Ni27  1  0.85115605  0.49999929  0.35116391  1
  Ni  Ni28  1  0.75000000  0.87500880  0.12499120  1
  Ni  Ni29  1  0.25000000  0.12499120  0.87500880  1
  Ni  Ni30  1  0.64884395  0.64883609  0.50000071  1
  Ni  Ni31  1  0.85116376  0.35116197  -0.00000976  1
  Ni  Ni32  1  0.35115605  0.35116391  0.49999929  1
  Ni  Ni33  1  0.25000000  0.62499932  0.37500068  1
  Ni  Ni34  1  0.14883624  0.64883803  1.00000976  1
  Ni  Ni35  1  0.75000000  0.37500068  0.62499932  1
  Cu  Cu36  1  0.25000546  0.85437206  0.60436827  1
  Cu  Cu37  1  0.97625616  0.80221216  0.82598558  1
  Cu  Cu38  1  0.22856383  0.07609550  0.56715079  1
  Cu  Cu39  1  0.72855415  0.16140959  0.15245070  1
  Cu  Cu40  1  0.52376082  0.34973335  0.82597098  1
  Cu  Cu41  1  0.27143617  0.43284921  0.92390450  1
  Cu  Cu42  1  0.72856383  0.56715079  0.07609550  1
  Cu  Cu43  1  0.02376082  0.82597098  0.34973335  1
  Cu  Cu44  1  0.49103186  0.56710920  0.83859672  1
  Cu  Cu45  1  0.50896814  0.43289080  0.16140328  1
  Cu  Cu46  1  0.77143617  0.92390450  0.43284921  1
  Cu  Cu47  1  0.00896654  0.84755608  0.07606706  1
  Cu  Cu48  1  0.49103346  0.92393294  0.15244392  1
  Cu  Cu49  1  0.47625616  0.82598558  0.80221216  1
  Cu  Cu50  1  0.52374384  0.17401442  0.19778784  1
  Cu  Cu51  1  0.74999454  0.14562794  0.39563173  1
  Cu  Cu52  1  0.99103186  0.83859672  0.56710920  1
  Cu  Cu53  1  0.50896654  0.07606706  0.84755608  1
  Cu  Cu54  1  0.02374384  0.19778784  0.17401442  1
  Cu  Cu55  1  0.99103346  0.15244392  0.92393294  1
  Cu  Cu56  1  0.00896814  0.16140328  0.43289080  1
  Cu  Cu57  1  0.75000546  0.60436827  0.85437206  1
  Cu  Cu58  1  0.47623918  0.65026665  0.17402902  1
  Cu  Cu59  1  0.27144585  0.83859041  0.84754930  1
  Cu  Cu60  1  0.22855415  0.15245070  0.16140959  1
  Cu  Cu61  1  0.24999454  0.39563173  0.14562794  1
  Cu  Cu62  1  0.77144585  0.84754930  0.83859041  1
  Cu  Cu63  1  0.97623918  0.17402902  0.65026665  1
