# generated using pymatgen
data_Cu2Ni3C7
_symmetry_space_group_name_H-M   'P 1'
_cell_length_a   11.20859652
_cell_length_b   10.64879257
_cell_length_c   5.94066965
_cell_angle_alpha   79.50049970
_cell_angle_beta   69.09102403
_cell_angle_gamma   31.40847627
_symmetry_Int_Tables_number   1
_chemical_formula_structural   Cu2Ni3C7
_chemical_formula_sum   'Cu4 Ni6 C14'
_cell_volume   334.10434933
_cell_formula_units_Z   2
loop_
 _symmetry_equiv_pos_site_id
 _symmetry_equiv_pos_as_xyz
  1  'x, y, z'
loop_
 _atom_site_type_symbol
 _atom_site_label
 _atom_site_symmetry_multiplicity
 _atom_site_fract_x
 _atom_site_fract_y
 _atom_site_fract_z
 _atom_site_occupancy
  Ni  Ni0  1  0.58673300  0.58673300  0.91326700  1
  Ni  Ni1  1  0.91326700  0.91326700  0.58673300  1
  Ni  Ni2  1  0.66326700  0.66326700  0.33673300  1
  Ni  Ni3  1  0.33673300  0.33673300  0.66326700  1
  Ni  Ni4  1  0.50000000  0.50000000  0.50000000  1
  Ni  Ni5  1  0.75000000  0.75000000  0.75000000  1
  Cu  Cu6  1  0.08053700  0.08053700  0.41946300  1
  Cu  Cu7  1  0.83053700  0.83053700  0.16946300  1
  Cu  Cu8  1  0.41946300  0.41946300  0.08053700  1
  Cu  Cu9  1  0.16946300  0.16946300  0.83053700  1
  C  C10  1  0.25000000  0.25000000  0.25000000  1
  C  C11  1  0.00000000  0.00000000  0.00000000  1
  C  C12  1  0.39260800  0.95255700  0.09769100  1
  C  C13  1  0.09769100  0.55714300  0.39260800  1
  C  C14  1  0.55714300  0.09769100  0.95255700  1
  C  C15  1  0.15230900  0.69285700  0.85739200  1
  C  C16  1  0.22289500  0.77710500  0.22289500  1
  C  C17  1  0.29744300  0.85739200  0.69285700  1
  C  C18  1  0.02710500  0.47289500  0.02710500  1
  C  C19  1  0.47289500  0.02710500  0.47289500  1
  C  C20  1  0.69285700  0.15230900  0.29744300  1
  C  C21  1  0.85739200  0.29744300  0.15230900  1
  C  C22  1  0.95255700  0.39260800  0.55714300  1
  C  C23  1  0.77710500  0.22289500  0.77710500  1
