# generated using pymatgen
data_Cu2Ni2C15
_symmetry_space_group_name_H-M   'P 1'
_cell_length_a   10.81764600
_cell_length_b   10.81764600
_cell_length_c   10.81764600
_cell_angle_alpha   90.00000000
_cell_angle_beta   90.00000000
_cell_angle_gamma   90.00000000
_symmetry_Int_Tables_number   1
_chemical_formula_structural   Cu2Ni2C15
_chemical_formula_sum   'Cu8 Ni8 C60'
_cell_volume   1265.89678257
_cell_formula_units_Z   4
loop_
 _symmetry_equiv_pos_site_id
 _symmetry_equiv_pos_as_xyz
  1  'x, y, z'
loop_
 _atom_site_type_symbol
 _atom_site_label
 _atom_site_symmetry_multiplicity
 _atom_site_fract_x
 _atom_site_fract_y
 _atom_site_fract_z
 _atom_site_occupancy
  Ni  Ni0  1  0.93532400  0.56467600  0.43532400  1
  Ni  Ni1  1  0.43532400  0.93532400  0.56467600  1
  Ni  Ni2  1  0.56467600  0.43532400  0.93532400  1
  Ni  Ni3  1  0.20305900  0.70305900  0.79694100  1
  Ni  Ni4  1  0.79694100  0.20305900  0.70305900  1
  Ni  Ni5  1  0.29694100  0.29694100  0.29694100  1
  Ni  Ni6  1  0.70305900  0.79694100  0.20305900  1
  Ni  Ni7  1  0.06467600  0.06467600  0.06467600  1
  Cu  Cu8  1  0.91765300  0.41765300  0.08234700  1
  Cu  Cu9  1  0.58234700  0.58234700  0.58234700  1
  Cu  Cu10  1  0.08234700  0.91765300  0.41765300  1
  Cu  Cu11  1  0.34472500  0.65527500  0.15527500  1
  Cu  Cu12  1  0.65527500  0.15527500  0.34472500  1
  Cu  Cu13  1  0.15527500  0.34472500  0.65527500  1
  Cu  Cu14  1  0.84472500  0.84472500  0.84472500  1
  Cu  Cu15  1  0.41765300  0.08234700  0.91765300  1
  C  C16  1  0.73590600  0.12523800  0.03179900  1
  C  C17  1  0.46820100  0.26409400  0.62523800  1
  C  C18  1  0.53179900  0.76409400  0.87476200  1
  C  C19  1  0.23590600  0.37476200  0.96820100  1
  C  C20  1  0.96820100  0.23590600  0.37476200  1
  C  C21  1  0.03179900  0.73590600  0.12523800  1
  C  C22  1  0.87476200  0.53179900  0.76409400  1
  C  C23  1  0.26409400  0.62523800  0.46820100  1
  C  C24  1  0.37476200  0.96820100  0.23590600  1
  C  C25  1  0.76409400  0.87476200  0.53179900  1
  C  C26  1  0.62523800  0.46820100  0.26409400  1
  C  C27  1  0.12523800  0.03179900  0.73590600  1
  C  C28  1  0.48647000  0.18720700  0.74733800  1
  C  C29  1  0.83057400  0.24465400  0.41879200  1
  C  C30  1  0.18720700  0.74733800  0.48647000  1
  C  C31  1  0.58120800  0.33057400  0.25534600  1
  C  C32  1  0.98647000  0.31279300  0.25266200  1
  C  C33  1  0.70567800  0.97598700  0.44510900  1
  C  C34  1  0.75534600  0.91879200  0.66942600  1
  C  C35  1  0.55489100  0.20567800  0.52401300  1
  C  C36  1  0.99510500  0.59902200  0.15028500  1
  C  C37  1  0.20567800  0.52401300  0.55489100  1
  C  C38  1  0.24465400  0.41879200  0.83057400  1
  C  C39  1  0.91879200  0.66942600  0.75534600  1
  C  C40  1  0.97598700  0.44510900  0.70567800  1
  C  C41  1  0.31279300  0.25266200  0.98647000  1
  C  C42  1  0.34971500  0.00489500  0.09902200  1
  C  C43  1  0.29432200  0.47598700  0.05489100  1
  C  C44  1  0.47598700  0.05489100  0.29432200  1
  C  C45  1  0.00489500  0.09902200  0.34971500  1
  C  C46  1  0.25266200  0.98647000  0.31279300  1
  C  C47  1  0.74733800  0.48647000  0.18720700  1
  C  C48  1  0.01353000  0.81279300  0.24733800  1
  C  C49  1  0.49510500  0.90097800  0.84971500  1
  C  C50  1  0.66942600  0.75534600  0.91879200  1
  C  C51  1  0.09902200  0.34971500  0.00489500  1
  C  C52  1  0.40097800  0.65028500  0.50489500  1
  C  C53  1  0.25534600  0.58120800  0.33057400  1
  C  C54  1  0.08120800  0.16942600  0.74465400  1
  C  C55  1  0.05489100  0.29432200  0.47598700  1
  C  C56  1  0.84971500  0.49510500  0.90097800  1
  C  C57  1  0.79432200  0.02401300  0.94510900  1
  C  C58  1  0.44510900  0.70567800  0.97598700  1
  C  C59  1  0.59902200  0.15028500  0.99510500  1
  C  C60  1  0.52401300  0.55489100  0.20567800  1
  C  C61  1  0.50489500  0.40097800  0.65028500  1
  C  C62  1  0.15028500  0.99510500  0.59902200  1
  C  C63  1  0.68720700  0.75266200  0.51353000  1
  C  C64  1  0.33057400  0.25534600  0.58120800  1
  C  C65  1  0.02401300  0.94510900  0.79432200  1
  C  C66  1  0.90097800  0.84971500  0.49510500  1
  C  C67  1  0.81279300  0.24733800  0.01353000  1
  C  C68  1  0.74465400  0.08120800  0.16942600  1
  C  C69  1  0.41879200  0.83057400  0.24465400  1
  C  C70  1  0.75266200  0.51353000  0.68720700  1
  C  C71  1  0.24733800  0.01353000  0.81279300  1
  C  C72  1  0.16942600  0.74465400  0.08120800  1
  C  C73  1  0.94510900  0.79432200  0.02401300  1
  C  C74  1  0.65028500  0.50489500  0.40097800  1
  C  C75  1  0.51353000  0.68720700  0.75266200  1
