# generated using pymatgen
data_CuNiC29
_symmetry_space_group_name_H-M   'P 1'
_cell_length_a   11.54508900
_cell_length_b   8.25072200
_cell_length_c   13.25605485
_cell_angle_alpha   87.58446065
_cell_angle_beta   90.00000000
_cell_angle_gamma   90.00000000
_symmetry_Int_Tables_number   1
_chemical_formula_structural   CuNiC29
_chemical_formula_sum   'Cu4 Ni4 C116'
_cell_volume   1261.58774596
_cell_formula_units_Z   4
loop_
 _symmetry_equiv_pos_site_id
 _symmetry_equiv_pos_as_xyz
  1  'x, y, z'
loop_
 _atom_site_type_symbol
 _atom_site_label
 _atom_site_symmetry_multiplicity
 _atom_site_fract_x
 _atom_site_fract_y
 _atom_site_fract_z
 _atom_site_occupancy
  Ni  Ni0  1  0.38949800  0.04176100  0.36828900  1
  Ni  Ni1  1  0.88949800  0.95823900  0.13171100  1
  Ni  Ni2  1  0.61050200  0.95823900  0.63171100  1
  Ni  Ni3  1  0.11050200  0.04176100  0.86828900  1
  Cu  Cu4  1  0.08829000  0.13829300  0.53713300  1
  Cu  Cu5  1  0.58829000  0.86170700  0.96286700  1
  Cu  Cu6  1  0.91171000  0.86170700  0.46286700  1
  Cu  Cu7  1  0.41171000  0.13829300  0.03713300  1
  C  C8  1  0.59817100  0.36454800  0.40958300  1
  C  C9  1  0.09817100  0.63545200  0.09041700  1
  C  C10  1  0.40182900  0.63545200  0.59041700  1
  C  C11  1  0.90182900  0.36454800  0.90958300  1
  C  C12  1  0.70338900  0.35640000  0.24886700  1
  C  C13  1  0.20338900  0.64360000  0.25113300  1
  C  C14  1  0.29661100  0.64360000  0.75113300  1
  C  C15  1  0.79661100  0.35640000  0.74886700  1
  C  C16  1  0.82394000  0.59659400  0.29740000  1
  C  C17  1  0.32394000  0.40340600  0.20260000  1
  C  C18  1  0.17606000  0.40340600  0.70260000  1
  C  C19  1  0.67606000  0.59659400  0.79740000  1
  C  C20  1  0.61230400  0.61290600  0.28986500  1
  C  C21  1  0.11230400  0.38709400  0.21013500  1
  C  C22  1  0.38769600  0.38709400  0.71013500  1
  C  C23  1  0.88769600  0.61290600  0.78986500  1
  C  C24  1  0.50833600  0.35659700  0.53909500  1
  C  C25  1  0.00833600  0.64340300  0.96090500  1
  C  C26  1  0.49166400  0.64340300  0.46090500  1
  C  C27  1  0.99166400  0.35659700  0.03909500  1
  C  C28  1  0.70970300  0.28304700  0.10614300  1
  C  C29  1  0.20970300  0.71695300  0.39385700  1
  C  C30  1  0.29029700  0.71695300  0.89385700  1
  C  C31  1  0.79029700  0.28304700  0.60614300  1
  C  C32  1  0.99970600  0.60674300  0.30837400  1
  C  C33  1  0.49970600  0.39325700  0.19162600  1
  C  C34  1  0.00029400  0.39325700  0.69162600  1
  C  C35  1  0.50029400  0.60674300  0.80837400  1
  C  C36  1  0.45077500  0.68400500  0.25421100  1
  C  C37  1  0.95077500  0.31599500  0.24578900  1
  C  C38  1  0.54922500  0.31599500  0.74578900  1
  C  C39  1  0.04922500  0.68400500  0.75421100  1
  C  C40  1  0.18928600  0.40871800  0.39529100  1
  C  C41  1  0.68928600  0.59128200  0.10470900  1
  C  C42  1  0.81071400  0.59128200  0.60470900  1
  C  C43  1  0.31071400  0.40871800  0.89529100  1
  C  C44  1  0.27121600  0.39313400  0.49174000  1
  C  C45  1  0.77121600  0.60686600  0.00826000  1
  C  C46  1  0.72878400  0.60686600  0.50826000  1
  C  C47  1  0.22878400  0.39313400  0.99174000  1
  C  C48  1  0.28466600  0.11503000  0.63671400  1
  C  C49  1  0.78466600  0.88497000  0.86328600  1
  C  C50  1  0.71533400  0.88497000  0.36328600  1
  C  C51  1  0.21533400  0.11503000  0.13671400  1
  C  C52  1  0.29473500  0.92317000  0.62127100  1
  C  C53  1  0.79473500  0.07683000  0.87872900  1
  C  C54  1  0.70526500  0.07683000  0.37872900  1
  C  C55  1  0.20526500  0.92317000  0.12127100  1
  C  C56  1  0.05416600  0.10496300  0.32471600  1
  C  C57  1  0.55416600  0.89503700  0.17528400  1
  C  C58  1  0.94583400  0.89503700  0.67528400  1
  C  C59  1  0.44583400  0.10496300  0.82471600  1
  C  C60  1  0.11238200  0.93006900  0.34752800  1
  C  C61  1  0.61238200  0.06993100  0.15247200  1
  C  C62  1  0.88761800  0.06993100  0.65247200  1
  C  C63  1  0.38761800  0.93006900  0.84752800  1
  C  C64  1  0.87715800  0.32564600  0.40822000  1
  C  C65  1  0.37715800  0.67435400  0.09178000  1
  C  C66  1  0.12284200  0.67435400  0.59178000  1
  C  C67  1  0.62284200  0.32564600  0.90822000  1
  C  C68  1  0.98616400  0.39770700  0.45334300  1
  C  C69  1  0.48616400  0.60229300  0.04665700  1
  C  C70  1  0.01383600  0.60229300  0.54665700  1
  C  C71  1  0.51383600  0.39770700  0.95334300  1
  C  C72  1  0.65882500  0.27291900  0.34293500  1
  C  C73  1  0.15882500  0.72708100  0.15706500  1
  C  C74  1  0.34117500  0.72708100  0.65706500  1
  C  C75  1  0.84117500  0.27291900  0.84293500  1
  C  C76  1  0.81880300  0.43425800  0.27526200  1
  C  C77  1  0.31880300  0.56574200  0.22473800  1
  C  C78  1  0.18119700  0.56574200  0.72473800  1
  C  C79  1  0.68119700  0.43425800  0.77526200  1
  C  C80  1  0.72619300  0.69270800  0.30113700  1
  C  C81  1  0.22619300  0.30729200  0.19886300  1
  C  C82  1  0.27380700  0.30729200  0.69886300  1
  C  C83  1  0.77380700  0.69270800  0.80113700  1
  C  C84  1  0.58061600  0.52890800  0.39115500  1
  C  C85  1  0.08061600  0.47109200  0.10884500  1
  C  C86  1  0.41938400  0.47109200  0.60884500  1
  C  C87  1  0.91938400  0.52890800  0.89115500  1
  C  C88  1  0.62326500  0.48635400  0.21377100  1
  C  C89  1  0.12326500  0.51364600  0.28622900  1
  C  C90  1  0.37673500  0.51364600  0.78622900  1
  C  C91  1  0.87673500  0.48635400  0.71377100  1
  C  C92  1  0.55522700  0.28551800  0.49530100  1
  C  C93  1  0.05522700  0.71448200  0.00469900  1
  C  C94  1  0.44477300  0.71448200  0.50469900  1
  C  C95  1  0.94477300  0.28551800  0.99530100  1
  C  C96  1  0.71809300  0.23381400  0.17388300  1
  C  C97  1  0.21809300  0.76618600  0.32611700  1
  C  C98  1  0.28190700  0.76618600  0.82611700  1
  C  C99  1  0.78190700  0.23381400  0.67388300  1
  C  C100  1  0.92713500  0.67234900  0.31843900  1
  C  C101  1  0.42713500  0.32765100  0.18156100  1
  C  C102  1  0.07286500  0.32765100  0.68156100  1
  C  C103  1  0.57286500  0.67234900  0.81843900  1
  C  C104  1  0.52695600  0.73587000  0.26330600  1
  C  C105  1  0.02695600  0.26413000  0.23669400  1
  C  C106  1  0.47304400  0.26413000  0.73669400  1
  C  C107  1  0.97304400  0.73587000  0.76330600  1
  C  C108  1  0.21666800  0.33371400  0.45096200  1
  C  C109  1  0.71666800  0.66628600  0.04903800  1
  C  C110  1  0.78333200  0.66628600  0.54903800  1
  C  C111  1  0.28333200  0.33371400  0.95096200  1
  C  C112  1  0.26927600  0.02810500  0.58941300  1
  C  C113  1  0.76927600  0.97189500  0.91058700  1
  C  C114  1  0.73072400  0.97189500  0.41058700  1
  C  C115  1  0.23072400  0.02810500  0.08941300  1
  C  C116  1  0.06186000  0.01362600  0.37615100  1
  C  C117  1  0.56186000  0.98637400  0.12384900  1
  C  C118  1  0.93814000  0.98637400  0.62384900  1
  C  C119  1  0.43814000  0.01362600  0.87615100  1
  C  C120  1  0.92360700  0.32188200  0.47046900  1
  C  C121  1  0.42360700  0.67811800  0.02953100  1
  C  C122  1  0.07639300  0.67811800  0.52953100  1
  C  C123  1  0.57639300  0.32188200  0.97046900  1
