# generated using pymatgen
data_Cu9Ni3C13
_symmetry_space_group_name_H-M   'P 1'
_cell_length_a   8.75656300
_cell_length_b   9.12669200
_cell_length_c   20.29097400
_cell_angle_alpha   90.00000000
_cell_angle_beta   90.00000000
_cell_angle_gamma   90.00000000
_symmetry_Int_Tables_number   1
_chemical_formula_structural   Cu9Ni3C13
_chemical_formula_sum   'Cu36 Ni12 C52'
_cell_volume   1621.62326167
_cell_formula_units_Z   4
loop_
 _symmetry_equiv_pos_site_id
 _symmetry_equiv_pos_as_xyz
  1  'x, y, z'
loop_
 _atom_site_type_symbol
 _atom_site_label
 _atom_site_symmetry_multiplicity
 _atom_site_fract_x
 _atom_site_fract_y
 _atom_site_fract_z
 _atom_site_occupancy
  C  C0  1  0.67667900  0.66468200  0.99662400  1
  C  C1  1  0.81244600  0.16883400  0.67850000  1
  C  C2  1  0.82332100  0.83531800  0.49662400  1
  C  C3  1  0.17667900  0.83531800  0.00337600  1
  C  C4  1  0.32332100  0.66468200  0.50337600  1
  C  C5  1  0.31244600  0.33116600  0.32150000  1
  C  C6  1  0.82332100  0.16468200  0.99662400  1
  C  C7  1  0.31244600  0.66883400  0.82150000  1
  C  C8  1  0.81244600  0.83116600  0.17850000  1
  C  C9  1  0.18755400  0.16883400  0.82150000  1
  C  C10  1  0.18755400  0.83116600  0.32150000  1
  C  C11  1  0.68755400  0.66883400  0.67850000  1
  C  C12  1  0.68755400  0.33116600  0.17850000  1
  C  C13  1  0.17667900  0.16468200  0.50337600  1
  C  C14  1  0.32332100  0.33531800  0.00337600  1
  C  C15  1  0.67667900  0.33531800  0.49662400  1
  C  C16  1  0.38666100  0.37981700  0.65364900  1
  C  C17  1  0.11333900  0.87981700  0.65364900  1
  C  C18  1  0.61333900  0.37981700  0.84635100  1
  C  C19  1  0.61333900  0.62018300  0.34635100  1
  C  C20  1  0.38666100  0.62018300  0.15364900  1
  C  C21  1  0.88666100  0.12018300  0.34635100  1
  C  C22  1  0.88666100  0.87981700  0.84635100  1
  C  C23  1  0.11333900  0.12018300  0.15364900  1
  Ni  Ni24  1  0.47015300  0.98608500  0.91754900  1
  Ni  Ni25  1  0.47015300  0.01391500  0.41754900  1
  Ni  Ni26  1  0.97015300  0.51391500  0.08245100  1
  Ni  Ni27  1  0.00000000  0.50990800  0.75000000  1
  Ni  Ni28  1  0.02984700  0.51391500  0.41754900  1
  Ni  Ni29  1  0.50000000  0.99009200  0.25000000  1
  Ni  Ni30  1  0.02984700  0.48608500  0.91754900  1
  Ni  Ni31  1  0.52984700  0.01391500  0.08245100  1
  Ni  Ni32  1  0.50000000  0.00990800  0.75000000  1
  Ni  Ni33  1  0.52984700  0.98608500  0.58245100  1
  Ni  Ni34  1  0.97015300  0.48608500  0.58245100  1
  Ni  Ni35  1  0.00000000  0.49009200  0.25000000  1
  Cu  Cu36  1  0.03477100  0.65183100  0.42475900  1
  Cu  Cu37  1  0.37843300  0.94144500  0.76396600  1
  Cu  Cu38  1  0.08848200  0.54655500  0.60651900  1
  Cu  Cu39  1  0.00000000  0.64953500  0.75000000  1
  Cu  Cu40  1  0.58848200  0.04655500  0.89348100  1
  Cu  Cu41  1  0.53477100  0.15183100  0.07524100  1
  Cu  Cu42  1  0.87843300  0.44144500  0.73603400  1
  Cu  Cu43  1  0.35608200  0.06342000  0.93447000  1
  Cu  Cu44  1  0.85608200  0.56342000  0.56553000  1
  Cu  Cu45  1  0.91151800  0.45344500  0.39348100  1
  Cu  Cu46  1  0.96522900  0.34816900  0.57524100  1
  Cu  Cu47  1  0.12156700  0.55855500  0.26396600  1
  Cu  Cu48  1  0.08848200  0.45344500  0.10651900  1
  Cu  Cu49  1  0.64391800  0.06342000  0.56553000  1
  Cu  Cu50  1  0.14391800  0.56342000  0.93447000  1
  Cu  Cu51  1  0.12156700  0.44144500  0.76396600  1
  Cu  Cu52  1  0.96522900  0.65183100  0.07524100  1
  Cu  Cu53  1  0.53477100  0.84816900  0.57524100  1
  Cu  Cu54  1  0.37843300  0.05855500  0.26396600  1
  Cu  Cu55  1  0.62156700  0.05855500  0.23603400  1
  Cu  Cu56  1  0.87843300  0.55855500  0.23603400  1
  Cu  Cu57  1  0.91151800  0.54655500  0.89348100  1
  Cu  Cu58  1  0.46522900  0.15183100  0.42475900  1
  Cu  Cu59  1  0.50000000  0.85046500  0.25000000  1
  Cu  Cu60  1  0.85608200  0.43658000  0.06553000  1
  Cu  Cu61  1  0.41151800  0.95344500  0.10651900  1
  Cu  Cu62  1  0.03477100  0.34816900  0.92475900  1
  Cu  Cu63  1  0.64391800  0.93658000  0.06553000  1
  Cu  Cu64  1  0.50000000  0.14953500  0.75000000  1
  Cu  Cu65  1  0.58848200  0.95344500  0.39348100  1
  Cu  Cu66  1  0.35608200  0.93658000  0.43447000  1
  Cu  Cu67  1  0.62156700  0.94144500  0.73603400  1
  Cu  Cu68  1  0.14391800  0.43658000  0.43447000  1
  Cu  Cu69  1  0.00000000  0.35046500  0.25000000  1
  Cu  Cu70  1  0.46522900  0.84816900  0.92475900  1
  Cu  Cu71  1  0.41151800  0.04655500  0.60651900  1
  C  C72  1  0.89619700  0.09442400  0.85713200  1
  C  C73  1  0.37333200  0.37702700  0.55374200  1
  C  C74  1  0.37333200  0.62297300  0.05374200  1
  C  C75  1  0.89619700  0.90557600  0.35713200  1
  C  C76  1  0.00000000  0.04119900  0.25000000  1
  C  C77  1  0.39247400  0.62992100  0.36575800  1
  C  C78  1  0.87333200  0.87702700  0.94625800  1
  C  C79  1  0.00000000  0.95880100  0.75000000  1
  C  C80  1  0.10752600  0.12992100  0.36575800  1
  C  C81  1  0.62666800  0.62297300  0.44625800  1
  C  C82  1  0.39619700  0.59442400  0.64286800  1
  C  C83  1  0.62666800  0.37702700  0.94625800  1
  C  C84  1  0.60380300  0.59442400  0.85713200  1
  C  C85  1  0.89247400  0.12992100  0.13424200  1
  C  C86  1  0.39247400  0.37007900  0.86575800  1
  C  C87  1  0.87333200  0.12297300  0.44625800  1
  C  C88  1  0.39619700  0.40557600  0.14286800  1
  C  C89  1  0.10752600  0.87007900  0.86575800  1
  C  C90  1  0.60752600  0.37007900  0.63424200  1
  C  C91  1  0.89247400  0.87007900  0.63424200  1
  C  C92  1  0.10380300  0.09442400  0.64286800  1
  C  C93  1  0.60752600  0.62992100  0.13424200  1
  C  C94  1  0.12666800  0.12297300  0.05374200  1
  C  C95  1  0.10380300  0.90557600  0.14286800  1
  C  C96  1  0.50000000  0.45880100  0.75000000  1
  C  C97  1  0.50000000  0.54119900  0.25000000  1
  C  C98  1  0.60380300  0.40557600  0.35713200  1
  C  C99  1  0.12666800  0.87702700  0.55374200  1
