# generated using pymatgen
data_Cu(NiC)4
_symmetry_space_group_name_H-M   'P 1'
_cell_length_a   10.58568154
_cell_length_b   10.58568154
_cell_length_c   6.67456800
_cell_angle_alpha   90.00000000
_cell_angle_beta   90.00000000
_cell_angle_gamma   119.99999714
_symmetry_Int_Tables_number   1
_chemical_formula_structural   Cu(NiC)4
_chemical_formula_sum   'Cu6 Ni24 C24'
_cell_volume   647.72618682
_cell_formula_units_Z   6
loop_
 _symmetry_equiv_pos_site_id
 _symmetry_equiv_pos_as_xyz
  1  'x, y, z'
loop_
 _atom_site_type_symbol
 _atom_site_label
 _atom_site_symmetry_multiplicity
 _atom_site_fract_x
 _atom_site_fract_y
 _atom_site_fract_z
 _atom_site_occupancy
  C  C0  1  0.66666700  0.33333300  0.91656500  1
  C  C1  1  0.33333300  0.66666700  0.52739500  1
  C  C2  1  0.16907700  0.85340900  0.26608100  1
  C  C3  1  0.14659100  0.31566900  0.26608100  1
  C  C4  1  0.83092300  0.14659100  0.73391900  1
  C  C5  1  0.85340900  0.68433100  0.73391900  1
  C  C6  1  0.68433100  0.83092300  0.26608100  1
  C  C7  1  0.00000000  0.50000000  0.00000000  1
  C  C8  1  0.66666700  0.33333300  0.47260500  1
  C  C9  1  0.31566900  0.16907700  0.73391900  1
  C  C10  1  0.00000000  0.00000000  0.00000000  1
  C  C11  1  0.33333300  0.66666700  0.08343500  1
  C  C12  1  0.50000000  0.00000000  0.00000000  1
  C  C13  1  0.00000000  0.00000000  0.50000000  1
  C  C14  1  0.50000000  0.50000000  0.00000000  1
  C  C15  1  0.50000000  0.50000000  0.50000000  1
  C  C16  1  0.50000000  0.00000000  0.50000000  1
  C  C17  1  0.00000000  0.50000000  0.50000000  1
  C  C18  1  0.81371800  0.18440500  0.25066500  1
  C  C19  1  0.37068700  0.18628200  0.25066500  1
  C  C20  1  0.62931300  0.81371800  0.74933500  1
  C  C21  1  0.18628200  0.81559500  0.74933500  1
  C  C22  1  0.81559500  0.62931300  0.25066500  1
  C  C23  1  0.18440500  0.37068700  0.74933500  1
  Ni  Ni24  1  0.56933700  0.69591500  0.57905900  1
  Ni  Ni25  1  0.42982700  0.08030400  0.29988000  1
  Ni  Ni26  1  0.12657800  0.43066300  0.57905900  1
  Ni  Ni27  1  0.69591500  0.12657800  0.42094100  1
  Ni  Ni28  1  0.57017300  0.91969600  0.70012000  1
  Ni  Ni29  1  0.90112800  0.79793500  0.25634900  1
  Ni  Ni30  1  0.43121700  0.25597300  0.04512200  1
  Ni  Ni31  1  0.08030400  0.65047600  0.70012000  1
  Ni  Ni32  1  0.56878300  0.74402700  0.95487800  1
  Ni  Ni33  1  0.89680700  0.09887200  0.25634900  1
  Ni  Ni34  1  0.10319300  0.90112800  0.74365100  1
  Ni  Ni35  1  0.65047600  0.57017300  0.29988000  1
  Ni  Ni36  1  0.20206500  0.10319300  0.25634900  1
  Ni  Ni37  1  0.87342200  0.56933700  0.42094100  1
  Ni  Ni38  1  0.91969600  0.34952400  0.29988000  1
  Ni  Ni39  1  0.30408500  0.87342200  0.57905900  1
  Ni  Ni40  1  0.74402700  0.17524400  0.04512200  1
  Ni  Ni41  1  0.43066300  0.30408500  0.42094100  1
  Ni  Ni42  1  0.25597300  0.82475600  0.95487800  1
  Ni  Ni43  1  0.09887200  0.20206500  0.74365100  1
  Ni  Ni44  1  0.82475600  0.56878300  0.04512200  1
  Ni  Ni45  1  0.79793500  0.89680700  0.74365100  1
  Ni  Ni46  1  0.34952400  0.42982700  0.70012000  1
  Ni  Ni47  1  0.17524400  0.43121700  0.95487800  1
  Cu  Cu48  1  0.86280600  0.38453300  0.68983100  1
  Cu  Cu49  1  0.61546700  0.47827300  0.68983100  1
  Cu  Cu50  1  0.38453300  0.52172700  0.31016900  1
  Cu  Cu51  1  0.47827300  0.86280600  0.31016900  1
  Cu  Cu52  1  0.52172700  0.13719400  0.68983100  1
  Cu  Cu53  1  0.13719400  0.61546700  0.31016900  1
