# generated using pymatgen
data_Cu8Ni4C3
_symmetry_space_group_name_H-M   'P 1'
_cell_length_a   24.14078600
_cell_length_b   7.28633200
_cell_length_c   9.82806589
_cell_angle_alpha   52.08303077
_cell_angle_beta   90.00000000
_cell_angle_gamma   90.00000000
_symmetry_Int_Tables_number   1
_chemical_formula_structural   Cu8Ni4C3
_chemical_formula_sum   'Cu48 Ni24 C18'
_cell_volume   1363.80269321
_cell_formula_units_Z   6
loop_
 _symmetry_equiv_pos_site_id
 _symmetry_equiv_pos_as_xyz
  1  'x, y, z'
loop_
 _atom_site_type_symbol
 _atom_site_label
 _atom_site_symmetry_multiplicity
 _atom_site_fract_x
 _atom_site_fract_y
 _atom_site_fract_z
 _atom_site_occupancy
  C  C0  1  0.63403800  0.66880300  0.93577000  1
  C  C1  1  0.86596200  0.66880300  0.43577000  1
  C  C2  1  0.36596200  0.33119700  0.06423000  1
  C  C3  1  0.13403800  0.33119700  0.56423000  1
  C  C4  1  0.52616100  0.23405000  0.39399200  1
  C  C5  1  0.81736300  0.42664800  0.18376100  1
  C  C6  1  0.47383900  0.76595000  0.60600800  1
  C  C7  1  0.31736300  0.57335200  0.31623900  1
  C  C8  1  0.68263700  0.42664800  0.68376100  1
  C  C9  1  0.18263700  0.57335200  0.81623900  1
  C  C10  1  0.02616100  0.76595000  0.10600800  1
  C  C11  1  0.97383900  0.23405000  0.89399200  1
  C  C12  1  0.32397900  0.17811400  0.70706400  1
  C  C13  1  0.00000000  0.00000000  0.50000000  1
  C  C14  1  0.82397900  0.82188600  0.79293600  1
  C  C15  1  0.67602100  0.82188600  0.29293600  1
  C  C16  1  0.50000000  0.00000000  0.00000000  1
  C  C17  1  0.17602100  0.17811400  0.20706400  1
  Ni  Ni18  1  0.26650000  0.92766700  0.77898100  1
  Ni  Ni19  1  0.76650000  0.07233300  0.72101900  1
  Ni  Ni20  1  0.37730400  0.02294000  0.64231600  1
  Ni  Ni21  1  0.27048300  0.33282900  0.76853700  1
  Ni  Ni22  1  0.22951700  0.33282900  0.26853700  1
  Ni  Ni23  1  0.38294800  0.42386900  0.64431000  1
  Ni  Ni24  1  0.56802000  0.21320900  0.90402700  1
  Ni  Ni25  1  0.11705200  0.42386900  0.14431000  1
  Ni  Ni26  1  0.06802000  0.78679100  0.59597300  1
  Ni  Ni27  1  0.93198000  0.21320900  0.40402700  1
  Ni  Ni28  1  0.62269600  0.97706000  0.35768400  1
  Ni  Ni29  1  0.00522500  0.98859500  0.71335300  1
  Ni  Ni30  1  0.73350000  0.07233300  0.22101900  1
  Ni  Ni31  1  0.61705200  0.57613100  0.35569000  1
  Ni  Ni32  1  0.50522500  0.01140500  0.78664700  1
  Ni  Ni33  1  0.12269600  0.02294000  0.14231600  1
  Ni  Ni34  1  0.49477500  0.98859500  0.21335300  1
  Ni  Ni35  1  0.43198000  0.78679100  0.09597300  1
  Ni  Ni36  1  0.87730400  0.97706000  0.85768400  1
  Ni  Ni37  1  0.23350000  0.92766700  0.27898100  1
  Ni  Ni38  1  0.72951700  0.66717100  0.23146300  1
  Ni  Ni39  1  0.88294800  0.57613100  0.85569000  1
  Ni  Ni40  1  0.99477500  0.01140500  0.28664700  1
  Ni  Ni41  1  0.77048300  0.66717100  0.73146300  1
  Cu  Cu42  1  0.02223900  0.16265100  0.69857300  1
  Cu  Cu43  1  0.41073400  0.40979100  0.75777900  1
  Cu  Cu44  1  0.60979200  0.40705400  0.51118500  1
  Cu  Cu45  1  0.89020800  0.40705400  0.01118500  1
  Cu  Cu46  1  0.08926600  0.40979100  0.25777900  1
  Cu  Cu47  1  0.22775600  0.73424600  0.42157400  1
  Cu  Cu48  1  0.39020800  0.59294600  0.48881500  1
  Cu  Cu49  1  0.49230900  0.19453600  0.64152700  1
  Cu  Cu50  1  0.00769100  0.19453600  0.14152700  1
  Cu  Cu51  1  0.93518100  0.41661000  0.35349200  1
  Cu  Cu52  1  0.89754500  0.17255500  0.74020600  1
  Cu  Cu53  1  0.97776100  0.83734900  0.30142700  1
  Cu  Cu54  1  0.28089400  0.29952500  0.27398400  1
  Cu  Cu55  1  0.28808500  0.46659600  0.79748000  1
  Cu  Cu56  1  0.78808500  0.53340400  0.70252000  1
  Cu  Cu57  1  0.27224400  0.73424600  0.92157400  1
  Cu  Cu58  1  0.43518100  0.58339000  0.14650800  1
  Cu  Cu59  1  0.58926600  0.59020900  0.24222100  1
  Cu  Cu60  1  0.71910600  0.70047500  0.72601600  1
  Cu  Cu61  1  0.10979200  0.59294600  0.98881500  1
  Cu  Cu62  1  0.52223900  0.83734900  0.80142700  1
  Cu  Cu63  1  0.60245500  0.17255500  0.24020600  1
  Cu  Cu64  1  0.38721300  0.86563300  0.10679900  1
  Cu  Cu65  1  0.56481900  0.41661000  0.85349200  1
  Cu  Cu66  1  0.78089400  0.70047500  0.22601600  1
  Cu  Cu67  1  0.27360400  0.96763100  0.18311200  1
  Cu  Cu68  1  0.21910600  0.29952500  0.77398400  1
  Cu  Cu69  1  0.89060200  0.87569000  0.01072200  1
  Cu  Cu70  1  0.39754500  0.82744500  0.75979400  1
  Cu  Cu71  1  0.91073400  0.59020900  0.74222100  1
  Cu  Cu72  1  0.10245500  0.82744500  0.25979400  1
  Cu  Cu73  1  0.21191500  0.46659600  0.29748000  1
  Cu  Cu74  1  0.99230900  0.80546400  0.85847300  1
  Cu  Cu75  1  0.10939800  0.12431000  0.98927800  1
  Cu  Cu76  1  0.77360400  0.03236900  0.31688800  1
  Cu  Cu77  1  0.22639600  0.96763100  0.68311200  1
  Cu  Cu78  1  0.06481900  0.58339000  0.64650800  1
  Cu  Cu79  1  0.88721300  0.13436700  0.39320100  1
  Cu  Cu80  1  0.39060200  0.12431000  0.48927800  1
  Cu  Cu81  1  0.61278700  0.13436700  0.89320100  1
  Cu  Cu82  1  0.77224400  0.26575400  0.57842600  1
  Cu  Cu83  1  0.11278700  0.86563300  0.60679900  1
  Cu  Cu84  1  0.71191500  0.53340400  0.20252000  1
  Cu  Cu85  1  0.47776100  0.16265100  0.19857300  1
  Cu  Cu86  1  0.72775600  0.26575400  0.07842600  1
  Cu  Cu87  1  0.50769100  0.80546400  0.35847300  1
  Cu  Cu88  1  0.72639600  0.03236900  0.81688800  1
  Cu  Cu89  1  0.60939800  0.87569000  0.51072200  1
