# generated using pymatgen
data_Cu2Ni3C2
_symmetry_space_group_name_H-M   'P 1'
_cell_length_a   10.73055680
_cell_length_b   10.73055680
_cell_length_c   3.63011900
_cell_angle_alpha   90.00000000
_cell_angle_beta   90.00000000
_cell_angle_gamma   158.76342302
_symmetry_Int_Tables_number   1
_chemical_formula_structural   Cu2Ni3C2
_chemical_formula_sum   'Cu2 Ni3 C2'
_cell_volume   151.40402530
_cell_formula_units_Z   1
loop_
 _symmetry_equiv_pos_site_id
 _symmetry_equiv_pos_as_xyz
  1  'x, y, z'
loop_
 _atom_site_type_symbol
 _atom_site_label
 _atom_site_symmetry_multiplicity
 _atom_site_fract_x
 _atom_site_fract_y
 _atom_site_fract_z
 _atom_site_occupancy
  C  C0  1  0.82352300  0.17647700  0.00000000  1
  C  C1  1  0.17647700  0.82352300  0.00000000  1
  Ni  Ni2  1  0.42001100  0.57998900  0.50000000  1
  Ni  Ni3  1  0.57998900  0.42001100  0.50000000  1
  Ni  Ni4  1  0.00000000  0.00000000  0.00000000  1
  Cu  Cu5  1  0.28691200  0.71308800  0.50000000  1
  Cu  Cu6  1  0.71308800  0.28691200  0.50000000  1
