# generated using pymatgen
data_Cu(NiC9)3
_symmetry_space_group_name_H-M   'P 1'
_cell_length_a   7.24018736
_cell_length_b   7.24018736
_cell_length_c   16.91403400
_cell_angle_alpha   90.00000000
_cell_angle_beta   90.00000000
_cell_angle_gamma   119.99999417
_symmetry_Int_Tables_number   1
_chemical_formula_structural   Cu(NiC9)3
_chemical_formula_sum   'Cu2 Ni6 C54'
_cell_volume   767.85190592
_cell_formula_units_Z   2
loop_
 _symmetry_equiv_pos_site_id
 _symmetry_equiv_pos_as_xyz
  1  'x, y, z'
loop_
 _atom_site_type_symbol
 _atom_site_label
 _atom_site_symmetry_multiplicity
 _atom_site_fract_x
 _atom_site_fract_y
 _atom_site_fract_z
 _atom_site_occupancy
  Ni  Ni0  1  0.66666700  0.33333300  0.62860500  1
  Ni  Ni1  1  0.33333300  0.66666700  0.12860500  1
  Ni  Ni2  1  0.00000000  0.00000000  0.25000000  1
  Ni  Ni3  1  0.66666700  0.33333300  0.87139500  1
  Ni  Ni4  1  0.33333300  0.66666700  0.37139500  1
  Ni  Ni5  1  0.00000000  0.00000000  0.75000000  1
  Cu  Cu6  1  0.00000000  0.00000000  0.50000000  1
  Cu  Cu7  1  0.00000000  0.00000000  0.00000000  1
  C  C8  1  0.50416400  0.88421800  0.75000000  1
  C  C9  1  0.44504700  0.27395600  0.07854100  1
  C  C10  1  0.17109100  0.44504700  0.92145900  1
  C  C11  1  0.38005300  0.49583600  0.75000000  1
  C  C12  1  0.82890900  0.55495300  0.07854100  1
  C  C13  1  0.11578200  0.61994700  0.75000000  1
  C  C14  1  0.55495300  0.72604400  0.57854100  1
  C  C15  1  0.55495300  0.72604400  0.92145900  1
  C  C16  1  0.82890900  0.55495300  0.42145900  1
  C  C17  1  0.88421800  0.38005300  0.25000000  1
  C  C18  1  0.61994700  0.50416400  0.25000000  1
  C  C19  1  0.44504700  0.27395600  0.42145900  1
  C  C20  1  0.72604400  0.17109100  0.07854100  1
  C  C21  1  0.17109100  0.44504700  0.57854100  1
  C  C22  1  0.72604400  0.17109100  0.42145900  1
  C  C23  1  0.27395600  0.82890900  0.57854100  1
  C  C24  1  0.49583600  0.11578200  0.25000000  1
  C  C25  1  0.27395600  0.82890900  0.92145900  1
  C  C26  1  0.60994800  0.49018300  0.07906200  1
  C  C27  1  0.22667000  0.98459400  0.92309200  1
  C  C28  1  0.11976500  0.60994800  0.92093800  1
  C  C29  1  0.83234100  0.54330500  0.25000000  1
  C  C30  1  0.54330500  0.71096400  0.75000000  1
  C  C31  1  0.49018300  0.88023500  0.57906200  1
  C  C32  1  0.88023500  0.39005200  0.42093800  1
  C  C33  1  0.91685900  0.58346000  0.75000000  1
  C  C34  1  0.01540600  0.24207600  0.57690800  1
  C  C35  1  0.58346000  0.66660100  0.25000000  1
  C  C36  1  0.41654000  0.33339900  0.75000000  1
  C  C37  1  0.98459400  0.75792400  0.42309200  1
  C  C38  1  0.50981700  0.11976500  0.07906200  1
  C  C39  1  0.33339900  0.91685900  0.25000000  1
  C  C40  1  0.88023500  0.39005200  0.07906200  1
  C  C41  1  0.75792400  0.77333000  0.92309200  1
  C  C42  1  0.71096400  0.16765900  0.25000000  1
  C  C43  1  0.60994800  0.49018300  0.42093800  1
  C  C44  1  0.08314100  0.41654000  0.25000000  1
  C  C45  1  0.45669500  0.28903600  0.25000000  1
  C  C46  1  0.50981700  0.11976500  0.42093800  1
  C  C47  1  0.98459400  0.75792400  0.07690800  1
  C  C48  1  0.77333000  0.01540600  0.42309200  1
  C  C49  1  0.39005200  0.50981700  0.92093800  1
  C  C50  1  0.01540600  0.24207600  0.92309200  1
  C  C51  1  0.75792400  0.77333000  0.57690800  1
  C  C52  1  0.24207600  0.22667000  0.42309200  1
  C  C53  1  0.77333000  0.01540600  0.07690800  1
  C  C54  1  0.28903600  0.83234100  0.75000000  1
  C  C55  1  0.49018300  0.88023500  0.92093800  1
  C  C56  1  0.16765900  0.45669500  0.75000000  1
  C  C57  1  0.39005200  0.50981700  0.57906200  1
  C  C58  1  0.24207600  0.22667000  0.07690800  1
  C  C59  1  0.11976500  0.60994800  0.57906200  1
  C  C60  1  0.66660100  0.08314100  0.75000000  1
  C  C61  1  0.22667000  0.98459400  0.57690800  1
