# generated using pymatgen
data_Cu17(Ni3C4)2
_symmetry_space_group_name_H-M   'P 1'
_cell_length_a   14.01549400
_cell_length_b   11.61829700
_cell_length_c   22.88945479
_cell_angle_alpha   88.93154534
_cell_angle_beta   90.00000000
_cell_angle_gamma   90.00000000
_symmetry_Int_Tables_number   1
_chemical_formula_structural   Cu17(Ni3C4)2
_chemical_formula_sum   'Cu68 Ni24 C32'
_cell_volume   3726.58314097
_cell_formula_units_Z   4
loop_
 _symmetry_equiv_pos_site_id
 _symmetry_equiv_pos_as_xyz
  1  'x, y, z'
loop_
 _atom_site_type_symbol
 _atom_site_label
 _atom_site_symmetry_multiplicity
 _atom_site_fract_x
 _atom_site_fract_y
 _atom_site_fract_z
 _atom_site_occupancy
  C  C0  1  0.84239800  0.75719200  0.92973300  1
  C  C1  1  0.15760200  0.75719200  0.42973300  1
  C  C2  1  0.34323200  0.00000000  0.75000000  1
  C  C3  1  0.49516600  0.24030100  0.10145200  1
  C  C4  1  0.51602100  0.79917900  0.61815000  1
  C  C5  1  0.51602100  0.20082100  0.88185000  1
  C  C6  1  0.50483400  0.75969900  0.89854800  1
  C  C7  1  0.16169800  0.17956900  0.88426600  1
  C  C8  1  0.48397900  0.20082100  0.38185000  1
  C  C9  1  0.49718600  0.50000000  0.75000000  1
  C  C10  1  0.83830200  0.17956900  0.38426600  1
  C  C11  1  0.84135100  0.14291100  0.88551600  1
  C  C12  1  0.16169800  0.82043100  0.61573400  1
  C  C13  1  0.15864900  0.85708900  0.11448400  1
  C  C14  1  0.49516600  0.75969900  0.39854800  1
  C  C15  1  0.16931000  0.50000000  0.75000000  1
  C  C16  1  0.83069000  0.50000000  0.25000000  1
  C  C17  1  0.16911900  0.77127800  0.91027700  1
  C  C18  1  0.15864900  0.14291100  0.38551600  1
  C  C19  1  0.48397900  0.79917900  0.11815000  1
  C  C20  1  0.84239800  0.24280800  0.57026700  1
  C  C21  1  0.15303500  0.50000000  0.25000000  1
  C  C22  1  0.15760200  0.24280800  0.07026700  1
  C  C23  1  0.65676800  0.00000000  0.25000000  1
  C  C24  1  0.84135100  0.85708900  0.61448400  1
  C  C25  1  0.83830200  0.82043100  0.11573400  1
  C  C26  1  0.50281400  0.50000000  0.25000000  1
  C  C27  1  0.50483400  0.24030100  0.60145200  1
  C  C28  1  0.16911900  0.22872200  0.58972300  1
  C  C29  1  0.83088100  0.22872200  0.08972300  1
  C  C30  1  0.83088100  0.77127800  0.41027700  1
  C  C31  1  0.84696500  0.50000000  0.75000000  1
  Ni  Ni32  1  0.30834500  0.43811300  0.42431600  1
  Ni  Ni33  1  0.01712600  0.43194800  0.42485300  1
  Ni  Ni34  1  0.99842100  0.84162700  0.27975500  1
  Ni  Ni35  1  0.33258800  0.46433500  0.90897600  1
  Ni  Ni36  1  0.34703000  0.01963200  0.99419900  1
  Ni  Ni37  1  0.99842100  0.15837300  0.22024500  1
  Ni  Ni38  1  0.30834500  0.56188700  0.07568400  1
  Ni  Ni39  1  0.32087300  0.15434400  0.22320100  1
  Ni  Ni40  1  0.01712600  0.56805200  0.07514700  1
  Ni  Ni41  1  0.69165500  0.43811300  0.92431600  1
  Ni  Ni42  1  0.66741200  0.46433500  0.40897600  1
  Ni  Ni43  1  0.66741200  0.53566500  0.09102400  1
  Ni  Ni44  1  0.98287400  0.56805200  0.57514700  1
  Ni  Ni45  1  0.32087300  0.84565600  0.27679900  1
  Ni  Ni46  1  0.65297000  0.98036800  0.00580100  1
  Ni  Ni47  1  0.98287400  0.43194800  0.92485300  1
  Ni  Ni48  1  0.67912700  0.15434400  0.72320100  1
  Ni  Ni49  1  0.67912700  0.84565600  0.77679900  1
  Ni  Ni50  1  0.65297000  0.01963200  0.49419900  1
  Ni  Ni51  1  0.00157900  0.84162700  0.77975500  1
  Ni  Ni52  1  0.34703000  0.98036800  0.50580100  1
  Ni  Ni53  1  0.69165500  0.56188700  0.57568400  1
  Ni  Ni54  1  0.33258800  0.53566500  0.59102400  1
  Ni  Ni55  1  0.00157900  0.15837300  0.72024500  1
  Cu  Cu56  1  0.84724100  0.53674700  0.04949000  1
  Cu  Cu57  1  0.33239000  0.26379700  0.48543500  1
  Cu  Cu58  1  0.00285000  0.04510500  0.62962200  1
  Cu  Cu59  1  0.99261100  0.65525200  0.83334500  1
  Cu  Cu60  1  0.17437300  0.99282000  0.50302500  1
  Cu  Cu61  1  0.64280800  0.01744800  0.11352100  1
  Cu  Cu62  1  0.71071700  0.33705000  0.83183100  1
  Cu  Cu63  1  0.02087000  0.75239900  0.02041700  1
  Cu  Cu64  1  0.82562700  0.99282000  0.00302500  1
  Cu  Cu65  1  0.17100500  0.17583700  0.74002900  1
  Cu  Cu66  1  0.28928300  0.33705000  0.33183100  1
  Cu  Cu67  1  0.33443000  0.96366800  0.36692400  1
  Cu  Cu68  1  0.64415200  0.23183900  0.48777800  1
  Cu  Cu69  1  0.28928300  0.66295000  0.16816900  1
  Cu  Cu70  1  0.29532600  0.33587000  0.17033700  1
  Cu  Cu71  1  0.32744600  0.66779200  0.67280600  1
  Cu  Cu72  1  0.66557000  0.96366800  0.86692400  1
  Cu  Cu73  1  0.49030500  0.19411200  0.24215800  1
  Cu  Cu74  1  0.32744600  0.33220800  0.82719400  1
  Cu  Cu75  1  0.99261100  0.34474800  0.66665500  1
  Cu  Cu76  1  0.52556700  0.48654100  0.89732300  1
  Cu  Cu77  1  0.33239000  0.73620300  0.01456500  1
  Cu  Cu78  1  0.50969500  0.80588800  0.75784200  1
  Cu  Cu79  1  0.02087000  0.24760100  0.47958300  1
  Cu  Cu80  1  0.32493000  0.37224100  0.66002900  1
  Cu  Cu81  1  0.66761000  0.73620300  0.51456500  1
  Cu  Cu82  1  0.67255400  0.66779200  0.17280600  1
  Cu  Cu83  1  0.82899500  0.17583700  0.24002900  1
  Cu  Cu84  1  0.00738900  0.34474800  0.16665500  1
  Cu  Cu85  1  0.00212700  0.34066700  0.32945600  1
  Cu  Cu86  1  0.52556700  0.51345900  0.60267700  1
  Cu  Cu87  1  0.29532600  0.66413000  0.32966300  1
  Cu  Cu88  1  0.17437300  0.00718000  0.99697500  1
  Cu  Cu89  1  0.66761000  0.26379700  0.98543500  1
  Cu  Cu90  1  0.70467400  0.66413000  0.82966300  1
  Cu  Cu91  1  0.67507000  0.37224100  0.16002900  1
  Cu  Cu92  1  0.15275900  0.46325300  0.95051000  1
  Cu  Cu93  1  0.84724100  0.46325300  0.45051000  1
  Cu  Cu94  1  0.67255400  0.33220800  0.32719400  1
  Cu  Cu95  1  0.47443300  0.51345900  0.10267700  1
  Cu  Cu96  1  0.97913000  0.75239900  0.52041700  1
  Cu  Cu97  1  0.35584800  0.23183900  0.98777800  1
  Cu  Cu98  1  0.35584800  0.76816100  0.51222200  1
  Cu  Cu99  1  0.15275900  0.53674700  0.54949000  1
  Cu  Cu100  1  0.99787300  0.65933300  0.67054400  1
  Cu  Cu101  1  0.32493000  0.62775900  0.83997100  1
  Cu  Cu102  1  0.50969500  0.19411200  0.74215800  1
  Cu  Cu103  1  0.00738900  0.65525200  0.33334500  1
  Cu  Cu104  1  0.82899500  0.82416300  0.25997100  1
  Cu  Cu105  1  0.99715000  0.04510500  0.12962200  1
  Cu  Cu106  1  0.66557000  0.03633200  0.63307600  1
  Cu  Cu107  1  0.17100500  0.82416300  0.75997100  1
  Cu  Cu108  1  0.82562700  0.00718000  0.49697500  1
  Cu  Cu109  1  0.35719200  0.01744800  0.61352100  1
  Cu  Cu110  1  0.64415200  0.76816100  0.01222200  1
  Cu  Cu111  1  0.99787300  0.34066700  0.82945600  1
  Cu  Cu112  1  0.97913000  0.24760100  0.97958300  1
  Cu  Cu113  1  0.49030500  0.80588800  0.25784200  1
  Cu  Cu114  1  0.33443000  0.03633200  0.13307600  1
  Cu  Cu115  1  0.67507000  0.62775900  0.33997100  1
  Cu  Cu116  1  0.47443300  0.48654100  0.39732300  1
  Cu  Cu117  1  0.64280800  0.98255200  0.38647900  1
  Cu  Cu118  1  0.70467400  0.33587000  0.67033700  1
  Cu  Cu119  1  0.00212700  0.65933300  0.17054400  1
  Cu  Cu120  1  0.71071700  0.66295000  0.66816900  1
  Cu  Cu121  1  0.99715000  0.95489500  0.37037800  1
  Cu  Cu122  1  0.35719200  0.98255200  0.88647900  1
  Cu  Cu123  1  0.00285000  0.95489500  0.87037800  1
