# generated using pymatgen
data_Cu10Ni2C9
_symmetry_space_group_name_H-M   'P 1'
_cell_length_a   9.30410300
_cell_length_b   6.31041500
_cell_length_c   15.05329644
_cell_angle_alpha   72.98156301
_cell_angle_beta   90.00000000
_cell_angle_gamma   90.00000000
_symmetry_Int_Tables_number   1
_chemical_formula_structural   Cu10Ni2C9
_chemical_formula_sum   'Cu40 Ni8 C36'
_cell_volume   845.11850276
_cell_formula_units_Z   4
loop_
 _symmetry_equiv_pos_site_id
 _symmetry_equiv_pos_as_xyz
  1  'x, y, z'
loop_
 _atom_site_type_symbol
 _atom_site_label
 _atom_site_symmetry_multiplicity
 _atom_site_fract_x
 _atom_site_fract_y
 _atom_site_fract_z
 _atom_site_occupancy
  C  C0  1  0.40509400  0.81601500  0.63514100  1
  C  C1  1  0.09490600  0.81601500  0.13514100  1
  C  C2  1  0.59490600  0.18398500  0.36485900  1
  C  C3  1  0.90509400  0.18398500  0.86485900  1
  C  C4  1  0.28702500  0.24307600  0.11195800  1
  C  C5  1  0.36668200  0.53309500  0.15030800  1
  C  C6  1  0.62794200  0.91727300  0.93103700  1
  C  C7  1  0.61360500  0.90475400  0.23478500  1
  C  C8  1  0.11360500  0.09524600  0.26521500  1
  C  C9  1  0.58337100  0.58766000  0.52035000  1
  C  C10  1  0.67699900  0.35992400  0.95356300  1
  C  C11  1  0.38408000  0.53587800  0.37489200  1
  C  C12  1  0.37205800  0.08272700  0.06896300  1
  C  C13  1  0.88408000  0.46412200  0.12510800  1
  C  C14  1  0.12794200  0.08272700  0.56896300  1
  C  C15  1  0.44984900  0.96557700  0.23660300  1
  C  C16  1  0.32300100  0.64007600  0.04643700  1
  C  C17  1  0.21297500  0.24307600  0.61195800  1
  C  C18  1  0.86668200  0.46690500  0.34969200  1
  C  C19  1  0.11592000  0.53587800  0.87489200  1
  C  C20  1  0.78702500  0.75692400  0.38804200  1
  C  C21  1  0.87205800  0.91727300  0.43103700  1
  C  C22  1  0.71297500  0.75692400  0.88804200  1
  C  C23  1  0.91662900  0.58766000  0.02035000  1
  C  C24  1  0.88639500  0.90475400  0.73478500  1
  C  C25  1  0.82300100  0.35992400  0.45356300  1
  C  C26  1  0.63331800  0.46690500  0.84969200  1
  C  C27  1  0.55015100  0.03442300  0.76339700  1
  C  C28  1  0.94984900  0.03442300  0.26339700  1
  C  C29  1  0.08337100  0.41234000  0.97965000  1
  C  C30  1  0.41662900  0.41234000  0.47965000  1
  C  C31  1  0.05015100  0.96557700  0.73660300  1
  C  C32  1  0.61592000  0.46412200  0.62510800  1
  C  C33  1  0.17699900  0.64007600  0.54643700  1
  C  C34  1  0.13331800  0.53309500  0.65030800  1
  C  C35  1  0.38639500  0.09524600  0.76521500  1
  Ni  Ni36  1  0.37483200  0.54623500  0.83563500  1
  Ni  Ni37  1  0.87483200  0.45376500  0.66436500  1
  Ni  Ni38  1  0.62516800  0.45376500  0.16436500  1
  Ni  Ni39  1  0.73529300  0.99843200  0.58860800  1
  Ni  Ni40  1  0.76470700  0.99843200  0.08860800  1
  Ni  Ni41  1  0.26470700  0.00156800  0.41139200  1
  Ni  Ni42  1  0.12516800  0.54623500  0.33563500  1
  Ni  Ni43  1  0.23529300  0.00156800  0.91139200  1
  Cu  Cu44  1  0.64699000  0.07912800  0.05333100  1
  Cu  Cu45  1  0.46236100  0.05906200  0.72600100  1
  Cu  Cu46  1  0.38087500  0.45061300  0.92026400  1
  Cu  Cu47  1  0.95731300  0.55383000  0.08257900  1
  Cu  Cu48  1  0.72710000  0.87279700  0.67073000  1
  Cu  Cu49  1  0.71746500  0.44257200  0.89275700  1
  Cu  Cu50  1  0.35301000  0.92087200  0.94666900  1
  Cu  Cu51  1  0.19916600  0.08451500  0.61651200  1
  Cu  Cu52  1  0.23710700  0.65007200  0.29699600  1
  Cu  Cu53  1  0.53763900  0.94093800  0.27399900  1
  Cu  Cu54  1  0.78253500  0.44257200  0.39275700  1
  Cu  Cu55  1  0.54268700  0.55383000  0.58257900  1
  Cu  Cu56  1  0.11894600  0.95739700  0.95946800  1
  Cu  Cu57  1  0.85301000  0.07912800  0.55333100  1
  Cu  Cu58  1  0.11912500  0.45061300  0.42026400  1
  Cu  Cu59  1  0.04268700  0.44617000  0.91742100  1
  Cu  Cu60  1  0.01682600  0.54611700  0.28222400  1
  Cu  Cu61  1  0.26289300  0.65007200  0.79699600  1
  Cu  Cu62  1  0.38105400  0.95739700  0.45946800  1
  Cu  Cu63  1  0.14699000  0.92087200  0.44666900  1
  Cu  Cu64  1  0.03763900  0.05906200  0.22600100  1
  Cu  Cu65  1  0.61912500  0.54938700  0.07973600  1
  Cu  Cu66  1  0.76289300  0.34992800  0.70300400  1
  Cu  Cu67  1  0.96236100  0.94093800  0.77399900  1
  Cu  Cu68  1  0.69916600  0.91548500  0.88348800  1
  Cu  Cu69  1  0.88087500  0.54938700  0.57973600  1
  Cu  Cu70  1  0.30083400  0.08451500  0.11651200  1
  Cu  Cu71  1  0.88105400  0.04260300  0.04053200  1
  Cu  Cu72  1  0.77290000  0.87279700  0.17073000  1
  Cu  Cu73  1  0.28253500  0.55742800  0.10724300  1
  Cu  Cu74  1  0.45731300  0.44617000  0.41742100  1
  Cu  Cu75  1  0.51682600  0.45388300  0.21777600  1
  Cu  Cu76  1  0.48317400  0.54611700  0.78222400  1
  Cu  Cu77  1  0.21746500  0.55742800  0.60724300  1
  Cu  Cu78  1  0.22710000  0.12720300  0.82927000  1
  Cu  Cu79  1  0.98317400  0.45388300  0.71777600  1
  Cu  Cu80  1  0.73710700  0.34992800  0.20300400  1
  Cu  Cu81  1  0.27290000  0.12720300  0.32927000  1
  Cu  Cu82  1  0.61894600  0.04260300  0.54053200  1
  Cu  Cu83  1  0.80083400  0.91548500  0.38348800  1
