# generated using pymatgen
data_Cu9Ni3C2
_symmetry_space_group_name_H-M   'P 1'
_cell_length_a   7.64576400
_cell_length_b   7.92331900
_cell_length_c   24.49235980
_cell_angle_alpha   88.98582524
_cell_angle_beta   90.00000000
_cell_angle_gamma   90.00000000
_symmetry_Int_Tables_number   1
_chemical_formula_structural   Cu9Ni3C2
_chemical_formula_sum   'Cu72 Ni24 C16'
_cell_volume   1483.51049101
_cell_formula_units_Z   8
loop_
 _symmetry_equiv_pos_site_id
 _symmetry_equiv_pos_as_xyz
  1  'x, y, z'
loop_
 _atom_site_type_symbol
 _atom_site_label
 _atom_site_symmetry_multiplicity
 _atom_site_fract_x
 _atom_site_fract_y
 _atom_site_fract_z
 _atom_site_occupancy
  C  C0  1  0.81517300  0.21304200  0.36444900  1
  C  C1  1  0.94043800  0.00145200  0.75464000  1
  C  C2  1  0.71128400  0.75720900  0.52467600  1
  C  C3  1  0.44043800  0.49854800  0.74536000  1
  C  C4  1  0.55956200  0.50145200  0.25464000  1
  C  C5  1  0.05956200  0.99854800  0.24536000  1
  C  C6  1  0.28871600  0.24279100  0.47532400  1
  C  C7  1  0.18482700  0.78695800  0.63555100  1
  C  C8  1  0.31517300  0.28695800  0.13555100  1
  C  C9  1  0.68482700  0.71304200  0.86444900  1
  C  C10  1  0.21128400  0.74279100  0.97532400  1
  C  C11  1  0.78871600  0.25720900  0.02467600  1
  C  C12  1  0.80475800  0.75659100  0.10943800  1
  C  C13  1  0.19524200  0.24340900  0.89056200  1
  C  C14  1  0.69524200  0.25659100  0.60943800  1
  C  C15  1  0.30475800  0.74340900  0.39056200  1
  Ni  Ni16  1  0.37744300  0.39546400  0.56437300  1
  Ni  Ni17  1  0.29897900  0.26442800  0.23536200  1
  Ni  Ni18  1  0.38300100  0.92826400  0.89402000  1
  Ni  Ni19  1  0.11699900  0.42826400  0.39402000  1
  Ni  Ni20  1  0.62255700  0.60453600  0.43562700  1
  Ni  Ni21  1  0.00296100  0.14852800  0.55440600  1
  Ni  Ni22  1  0.80203200  0.73940900  0.22782700  1
  Ni  Ni23  1  0.19796800  0.26059100  0.77217300  1
  Ni  Ni24  1  0.99619400  0.55096300  0.90220500  1
  Ni  Ni25  1  0.61699900  0.07173600  0.10598000  1
  Ni  Ni26  1  0.00380600  0.44903700  0.09779500  1
  Ni  Ni27  1  0.88300100  0.57173600  0.60598000  1
  Ni  Ni28  1  0.12255700  0.89546400  0.06437300  1
  Ni  Ni29  1  0.50296100  0.35147200  0.94559400  1
  Ni  Ni30  1  0.69796800  0.23940900  0.72782700  1
  Ni  Ni31  1  0.87744300  0.10453600  0.93562700  1
  Ni  Ni32  1  0.49619400  0.94903700  0.59779500  1
  Ni  Ni33  1  0.99703900  0.85147200  0.44559400  1
  Ni  Ni34  1  0.50380600  0.05096300  0.40220500  1
  Ni  Ni35  1  0.79897900  0.23557200  0.26463800  1
  Ni  Ni36  1  0.20102100  0.76442800  0.73536200  1
  Ni  Ni37  1  0.49703900  0.64852800  0.05440600  1
  Ni  Ni38  1  0.70102100  0.73557200  0.76463800  1
  Ni  Ni39  1  0.30203200  0.76059100  0.27217300  1
  Cu  Cu40  1  0.70381900  0.74521100  0.71415100  1
  Cu  Cu41  1  0.36169800  0.02896600  0.42984400  1
  Cu  Cu42  1  0.86240800  0.89307700  0.47061000  1
  Cu  Cu43  1  0.39675600  0.65408100  0.29955100  1
  Cu  Cu44  1  0.40204400  0.82421000  0.59017900  1
  Cu  Cu45  1  0.75752900  0.54826800  0.45663400  1
  Cu  Cu46  1  0.88904700  0.24890500  0.53307000  1
  Cu  Cu47  1  0.42529200  0.42473900  0.61267000  1
  Cu  Cu48  1  0.09795600  0.32421000  0.09017900  1
  Cu  Cu49  1  0.36240800  0.60692300  0.02939000  1
  Cu  Cu50  1  0.46684200  0.79502700  0.89935100  1
  Cu  Cu51  1  0.98091500  0.20297400  0.96371900  1
  Cu  Cu52  1  0.24016500  0.94786500  0.92129700  1
  Cu  Cu53  1  0.25983500  0.44786500  0.42129700  1
  Cu  Cu54  1  0.60798000  0.62514200  0.79053300  1
  Cu  Cu55  1  0.57086800  0.94942500  0.13685400  1
  Cu  Cu56  1  0.38904700  0.25109500  0.96693000  1
  Cu  Cu57  1  0.30027100  0.76919200  0.22225600  1
  Cu  Cu58  1  0.48091500  0.29702600  0.53628100  1
  Cu  Cu59  1  0.61095300  0.74890500  0.03307000  1
  Cu  Cu60  1  0.57470800  0.57526100  0.38733000  1
  Cu  Cu61  1  0.89202000  0.12514200  0.29053300  1
  Cu  Cu62  1  0.54076900  0.93804300  0.36771300  1
  Cu  Cu63  1  0.92913200  0.44942500  0.63685400  1
  Cu  Cu64  1  0.51908500  0.70297400  0.46371900  1
  Cu  Cu65  1  0.03315800  0.29502700  0.39935100  1
  Cu  Cu66  1  0.74016500  0.55213500  0.57870300  1
  Cu  Cu67  1  0.29618100  0.25478900  0.28584900  1
  Cu  Cu68  1  0.69972900  0.23080800  0.77774400  1
  Cu  Cu69  1  0.04076900  0.56195700  0.13228700  1
  Cu  Cu70  1  0.07470800  0.92473900  0.11267000  1
  Cu  Cu71  1  0.45923100  0.06195700  0.63228700  1
  Cu  Cu72  1  0.07086800  0.55057500  0.36314600  1
  Cu  Cu73  1  0.52855700  0.59336600  0.10260800  1
  Cu  Cu74  1  0.79201100  0.14111800  0.69799300  1
  Cu  Cu75  1  0.29201100  0.35888200  0.80200700  1
  Cu  Cu76  1  0.75983500  0.05213500  0.07870300  1
  Cu  Cu77  1  0.96684200  0.70497300  0.60064900  1
  Cu  Cu78  1  0.70798900  0.64111800  0.19799300  1
  Cu  Cu79  1  0.20980400  0.16500800  0.20526600  1
  Cu  Cu80  1  0.20798900  0.85888200  0.30200700  1
  Cu  Cu81  1  0.13759200  0.10692300  0.52939000  1
  Cu  Cu82  1  0.63759200  0.39307700  0.97061000  1
  Cu  Cu83  1  0.29019600  0.66500800  0.70526600  1
  Cu  Cu84  1  0.02855700  0.90663400  0.39739200  1
  Cu  Cu85  1  0.95923100  0.43804300  0.86771300  1
  Cu  Cu86  1  0.70980400  0.33499200  0.29473400  1
  Cu  Cu87  1  0.59795600  0.17579000  0.40982100  1
  Cu  Cu88  1  0.90204400  0.67579000  0.90982100  1
  Cu  Cu89  1  0.10798000  0.87485800  0.70946700  1
  Cu  Cu90  1  0.86169800  0.47103400  0.07015600  1
  Cu  Cu91  1  0.24247100  0.45173200  0.54336600  1
  Cu  Cu92  1  0.01908500  0.79702600  0.03628100  1
  Cu  Cu93  1  0.42913200  0.05057500  0.86314600  1
  Cu  Cu94  1  0.60324400  0.34591900  0.70044900  1
  Cu  Cu95  1  0.97144300  0.09336600  0.60260800  1
  Cu  Cu96  1  0.79618100  0.24521100  0.21415100  1
  Cu  Cu97  1  0.53315800  0.20497300  0.10064900  1
  Cu  Cu98  1  0.13830200  0.52896600  0.92984400  1
  Cu  Cu99  1  0.79019600  0.83499200  0.79473400  1
  Cu  Cu100  1  0.47144300  0.40663400  0.89739200  1
  Cu  Cu101  1  0.89675600  0.84591900  0.20044900  1
  Cu  Cu102  1  0.92529200  0.07526100  0.88733000  1
  Cu  Cu103  1  0.63830200  0.97103400  0.57015600  1
  Cu  Cu104  1  0.74247100  0.04826800  0.95663400  1
  Cu  Cu105  1  0.80027100  0.73080800  0.27774400  1
  Cu  Cu106  1  0.25752900  0.95173200  0.04336600  1
  Cu  Cu107  1  0.19972900  0.26919200  0.72225600  1
  Cu  Cu108  1  0.39202000  0.37485800  0.20946700  1
  Cu  Cu109  1  0.10324400  0.15408100  0.79955100  1
  Cu  Cu110  1  0.11095300  0.75109500  0.46693000  1
  Cu  Cu111  1  0.20381900  0.75478900  0.78584900  1
