# generated using pymatgen
data_CuNiC8
_symmetry_space_group_name_H-M   'P 1'
_cell_length_a   13.85888400
_cell_length_b   5.48071000
_cell_length_c   7.69404609
_cell_angle_alpha   70.02759725
_cell_angle_beta   90.00000000
_cell_angle_gamma   90.00000000
_symmetry_Int_Tables_number   1
_chemical_formula_structural   CuNiC8
_chemical_formula_sum   'Cu4 Ni4 C32'
_cell_volume   549.26479271
_cell_formula_units_Z   4
loop_
 _symmetry_equiv_pos_site_id
 _symmetry_equiv_pos_as_xyz
  1  'x, y, z'
loop_
 _atom_site_type_symbol
 _atom_site_label
 _atom_site_symmetry_multiplicity
 _atom_site_fract_x
 _atom_site_fract_y
 _atom_site_fract_z
 _atom_site_occupancy
  Ni  Ni0  1  0.23098700  0.86308100  0.54626200  1
  Ni  Ni1  1  0.73098700  0.13691900  0.95373800  1
  Ni  Ni2  1  0.76901300  0.13691900  0.45373800  1
  Ni  Ni3  1  0.26901300  0.86308100  0.04626200  1
  Cu  Cu4  1  0.99432700  0.98314000  0.75214600  1
  Cu  Cu5  1  0.00567300  0.01686000  0.24785400  1
  Cu  Cu6  1  0.49432700  0.01686000  0.74785400  1
  Cu  Cu7  1  0.50567300  0.98314000  0.25214600  1
  C  C8  1  0.63961300  0.57148200  0.14421600  1
  C  C9  1  0.13778000  0.41827800  0.93298900  1
  C  C10  1  0.36222000  0.41827800  0.43298900  1
  C  C11  1  0.86222000  0.58172200  0.06701100  1
  C  C12  1  0.63778000  0.58172200  0.56701100  1
  C  C13  1  0.86038700  0.57148200  0.64421600  1
  C  C14  1  0.36038700  0.42851800  0.85578400  1
  C  C15  1  0.13961300  0.42851800  0.35578400  1
  C  C16  1  0.74948100  0.68370300  0.57993500  1
  C  C17  1  0.87827500  0.61881900  0.84462300  1
  C  C18  1  0.13395600  0.73255600  0.32913000  1
  C  C19  1  0.75051900  0.68370300  0.07993500  1
  C  C20  1  0.37525900  0.71569300  0.30387700  1
  C  C21  1  0.86604400  0.26744400  0.67087000  1
  C  C22  1  0.43712800  0.20005700  0.41800400  1
  C  C23  1  0.56561200  0.78812500  0.01645900  1
  C  C24  1  0.62474100  0.28430700  0.69612300  1
  C  C25  1  0.36604400  0.73255600  0.82913000  1
  C  C26  1  0.12172500  0.38118100  0.15537700  1
  C  C27  1  0.43438800  0.21187500  0.98354100  1
  C  C28  1  0.93712800  0.79994300  0.08199600  1
  C  C29  1  0.24948100  0.31629700  0.92006500  1
  C  C30  1  0.12474100  0.71569300  0.80387700  1
  C  C31  1  0.93438800  0.78812500  0.51645900  1
  C  C32  1  0.56287200  0.79994300  0.58199600  1
  C  C33  1  0.37827500  0.38118100  0.65537700  1
  C  C34  1  0.25051900  0.31629700  0.42006500  1
  C  C35  1  0.87525900  0.28430700  0.19612300  1
  C  C36  1  0.62172500  0.61881900  0.34462300  1
  C  C37  1  0.63395600  0.26744400  0.17087000  1
  C  C38  1  0.06561200  0.21187500  0.48354100  1
  C  C39  1  0.06287200  0.20005700  0.91800400  1
