# generated using pymatgen
data_Cu2Ni3C20
_symmetry_space_group_name_H-M   'P 1'
_cell_length_a   10.39632400
_cell_length_b   12.72353600
_cell_length_c   19.42011800
_cell_angle_alpha   90.00000000
_cell_angle_beta   90.00000000
_cell_angle_gamma   90.00000000
_symmetry_Int_Tables_number   1
_chemical_formula_structural   Cu2Ni3C20
_chemical_formula_sum   'Cu8 Ni12 C80'
_cell_volume   2568.85442088
_cell_formula_units_Z   4
loop_
 _symmetry_equiv_pos_site_id
 _symmetry_equiv_pos_as_xyz
  1  'x, y, z'
loop_
 _atom_site_type_symbol
 _atom_site_label
 _atom_site_symmetry_multiplicity
 _atom_site_fract_x
 _atom_site_fract_y
 _atom_site_fract_z
 _atom_site_occupancy
  Ni  Ni0  1  0.38265400  0.75000000  0.50000000  1
  Ni  Ni1  1  0.88265400  0.75000000  0.00000000  1
  Ni  Ni2  1  0.78937200  0.39075600  0.77288900  1
  Ni  Ni3  1  0.61734600  0.25000000  0.50000000  1
  Ni  Ni4  1  0.78937200  0.10924400  0.22711100  1
  Ni  Ni5  1  0.71062800  0.60924400  0.27288900  1
  Ni  Ni6  1  0.21062800  0.60924400  0.22711100  1
  Ni  Ni7  1  0.21062800  0.89075600  0.77288900  1
  Ni  Ni8  1  0.28937200  0.10924400  0.27288900  1
  Ni  Ni9  1  0.28937200  0.39075600  0.72711100  1
  Ni  Ni10  1  0.71062800  0.89075600  0.72711100  1
  Ni  Ni11  1  0.11734600  0.25000000  0.00000000  1
  Cu  Cu12  1  0.37135400  0.61253600  0.92665100  1
  Cu  Cu13  1  0.62864600  0.11253600  0.92665100  1
  Cu  Cu14  1  0.87135400  0.88746400  0.42665100  1
  Cu  Cu15  1  0.12864600  0.11253600  0.57334900  1
  Cu  Cu16  1  0.12864600  0.38746400  0.42665100  1
  Cu  Cu17  1  0.37135400  0.88746400  0.07334900  1
  Cu  Cu18  1  0.87135400  0.61253600  0.57334900  1
  Cu  Cu19  1  0.62864600  0.38746400  0.07334900  1
  C  C20  1  0.00461900  0.86000500  0.60173800  1
  C  C21  1  0.43649900  0.45159400  0.36909800  1
  C  C22  1  0.93649900  0.04840600  0.86909800  1
  C  C23  1  0.99538100  0.13999500  0.39826200  1
  C  C24  1  0.56350100  0.54840600  0.63090200  1
  C  C25  1  0.43649900  0.04840600  0.63090200  1
  C  C26  1  0.06350100  0.95159400  0.13090200  1
  C  C27  1  0.49538100  0.13999500  0.10173800  1
  C  C28  1  0.93649900  0.45159400  0.13090200  1
  C  C29  1  0.99538100  0.36000500  0.60173800  1
  C  C30  1  0.06350100  0.54840600  0.86909800  1
  C  C31  1  0.50461900  0.63999500  0.10173800  1
  C  C32  1  0.56350100  0.95159400  0.36909800  1
  C  C33  1  0.50461900  0.86000500  0.89826200  1
  C  C34  1  0.00461900  0.63999500  0.39826200  1
  C  C35  1  0.49538100  0.36000500  0.89826200  1
  C  C36  1  0.06457800  0.72937900  0.65060400  1
  C  C37  1  0.06977200  0.38742700  0.85284700  1
  C  C38  1  0.93022800  0.61257300  0.14715300  1
  C  C39  1  0.00365800  0.01401200  0.33360200  1
  C  C40  1  0.56977200  0.11257300  0.35284700  1
  C  C41  1  0.38852600  0.40203300  0.98380400  1
  C  C42  1  0.79001900  0.11377100  0.80924600  1
  C  C43  1  0.17925800  0.17054500  0.43232800  1
  C  C44  1  0.56457800  0.72937900  0.84939600  1
  C  C45  1  0.49634200  0.98598800  0.83360200  1
  C  C46  1  0.88852600  0.40203300  0.51619600  1
  C  C47  1  0.38550200  0.60564400  0.64960100  1
  C  C48  1  0.43542200  0.27062100  0.15060400  1
  C  C49  1  0.67925800  0.32945500  0.93232800  1
  C  C50  1  0.87857200  0.08518200  0.96755800  1
  C  C51  1  0.61147400  0.59796700  0.01619600  1
  C  C52  1  0.70998100  0.61377100  0.69075400  1
  C  C53  1  0.37857200  0.41481800  0.46755800  1
  C  C54  1  0.49634200  0.51401200  0.16639800  1
  C  C55  1  0.43022800  0.88742700  0.64715300  1
  C  C56  1  0.88852600  0.09796700  0.48380400  1
  C  C57  1  0.93022800  0.88742700  0.85284700  1
  C  C58  1  0.29001900  0.11377100  0.69075400  1
  C  C59  1  0.11449800  0.39435600  0.14960100  1
  C  C60  1  0.62142800  0.91481800  0.46755800  1
  C  C61  1  0.37857200  0.08518200  0.53244200  1
  C  C62  1  0.38852600  0.09796700  0.01619600  1
  C  C63  1  0.29001900  0.38622900  0.30924600  1
  C  C64  1  0.87857200  0.41481800  0.03244200  1
  C  C65  1  0.32074200  0.67054500  0.06767200  1
  C  C66  1  0.38550200  0.89435600  0.35039900  1
  C  C67  1  0.12142800  0.91481800  0.03244200  1
  C  C68  1  0.06977200  0.11257300  0.14715300  1
  C  C69  1  0.61449800  0.39435600  0.35039900  1
  C  C70  1  0.12142800  0.58518200  0.96755800  1
  C  C71  1  0.99634200  0.98598800  0.66639800  1
  C  C72  1  0.88550200  0.60564400  0.85039900  1
  C  C73  1  0.88550200  0.89435600  0.14960100  1
  C  C74  1  0.82074200  0.67054500  0.43232800  1
  C  C75  1  0.56457800  0.77062100  0.15060400  1
  C  C76  1  0.32074200  0.82945500  0.93232800  1
  C  C77  1  0.43022800  0.61257300  0.35284700  1
  C  C78  1  0.61147400  0.90203300  0.98380400  1
  C  C79  1  0.67925800  0.17054500  0.06767200  1
  C  C80  1  0.82074200  0.82945500  0.56767200  1
  C  C81  1  0.11147400  0.90203300  0.51619600  1
  C  C82  1  0.20998100  0.88622900  0.19075400  1
  C  C83  1  0.50365800  0.48598800  0.83360200  1
  C  C84  1  0.93542200  0.22937900  0.65060400  1
  C  C85  1  0.79001900  0.38622900  0.19075400  1
  C  C86  1  0.06457800  0.77062100  0.34939600  1
  C  C87  1  0.17925800  0.32945500  0.56767200  1
  C  C88  1  0.00365800  0.48598800  0.66639800  1
  C  C89  1  0.11449800  0.10564400  0.85039900  1
  C  C90  1  0.11147400  0.59796700  0.48380400  1
  C  C91  1  0.70998100  0.88622900  0.30924600  1
  C  C92  1  0.99634200  0.51401200  0.33360200  1
  C  C93  1  0.93542200  0.27062100  0.34939600  1
  C  C94  1  0.56977200  0.38742700  0.64715300  1
  C  C95  1  0.61449800  0.10564400  0.64960100  1
  C  C96  1  0.43542200  0.22937900  0.84939600  1
  C  C97  1  0.50365800  0.01401200  0.16639800  1
  C  C98  1  0.20998100  0.61377100  0.80924600  1
  C  C99  1  0.62142800  0.58518200  0.53244200  1
