# generated using pymatgen
data_Cu4NiC15
_symmetry_space_group_name_H-M   'P 1'
_cell_length_a   14.14540387
_cell_length_b   14.14540387
_cell_length_c   15.08151053
_cell_angle_alpha   58.00522933
_cell_angle_beta   58.00522933
_cell_angle_gamma   30.36491332
_symmetry_Int_Tables_number   1
_chemical_formula_structural   Cu4NiC15
_chemical_formula_sum   'Cu16 Ni4 C60'
_cell_volume   1275.01140082
_cell_formula_units_Z   4
loop_
 _symmetry_equiv_pos_site_id
 _symmetry_equiv_pos_as_xyz
  1  'x, y, z'
loop_
 _atom_site_type_symbol
 _atom_site_label
 _atom_site_symmetry_multiplicity
 _atom_site_fract_x
 _atom_site_fract_y
 _atom_site_fract_z
 _atom_site_occupancy
  C  C0  1  0.68858600  0.69506700  0.03386500  1
  C  C1  1  0.31141400  0.30493300  0.96613500  1
  C  C2  1  0.30493300  0.31141400  0.46613500  1
  C  C3  1  0.69506700  0.68858600  0.53386500  1
  C  C4  1  0.22778500  0.70265500  0.95286200  1
  C  C5  1  0.29734500  0.77221500  0.54713800  1
  C  C6  1  0.77221500  0.29734500  0.04713800  1
  C  C7  1  0.70265500  0.22778500  0.45286200  1
  C  C8  1  0.48616300  0.05151600  0.75001900  1
  C  C9  1  0.51383700  0.94848400  0.24998100  1
  C  C10  1  0.94848400  0.51383700  0.74998100  1
  C  C11  1  0.05151600  0.48616300  0.25001900  1
  Ni  Ni12  1  0.62895900  0.23119500  0.72623800  1
  Ni  Ni13  1  0.23119500  0.62895900  0.22623800  1
  Ni  Ni14  1  0.37104100  0.76880500  0.27376200  1
  Ni  Ni15  1  0.76880500  0.37104100  0.77376200  1
  Cu  Cu16  1  0.76058500  0.47831100  0.33907600  1
  Cu  Cu17  1  0.23941500  0.52168900  0.66092400  1
  Cu  Cu18  1  0.19539300  0.13958500  0.49124100  1
  Cu  Cu19  1  0.83258900  0.29186300  0.57733700  1
  Cu  Cu20  1  0.70813700  0.16741100  0.92266300  1
  Cu  Cu21  1  0.86155600  0.81432700  0.79533700  1
  Cu  Cu22  1  0.16741100  0.70813700  0.42266300  1
  Cu  Cu23  1  0.80460700  0.86041500  0.50875900  1
  Cu  Cu24  1  0.47831100  0.76058500  0.83907600  1
  Cu  Cu25  1  0.13844400  0.18567300  0.20466300  1
  Cu  Cu26  1  0.52168900  0.23941500  0.16092400  1
  Cu  Cu27  1  0.81432700  0.86155600  0.29533700  1
  Cu  Cu28  1  0.86041500  0.80460700  0.00875900  1
  Cu  Cu29  1  0.29186300  0.83258900  0.07733700  1
  Cu  Cu30  1  0.18567300  0.13844400  0.70466300  1
  Cu  Cu31  1  0.13958500  0.19539300  0.99124100  1
  C  C32  1  0.65234500  0.92293900  0.07461400  1
  C  C33  1  0.34765500  0.07706100  0.92538600  1
  C  C34  1  0.56202100  0.25578000  0.03226700  1
  C  C35  1  0.08135700  0.26910900  0.08984600  1
  C  C36  1  0.26910900  0.08135700  0.58984600  1
  C  C37  1  0.58542500  0.56088700  0.33275300  1
  C  C38  1  0.61033900  0.76406500  0.77458200  1
  C  C39  1  0.73083800  0.04348300  0.20062900  1
  C  C40  1  0.91864300  0.73089100  0.91015400  1
  C  C41  1  0.96733400  0.37864000  0.92422900  1
  C  C42  1  0.42960600  0.70705200  0.15727600  1
  C  C43  1  0.56088700  0.58542500  0.83275300  1
  C  C44  1  0.05844800  0.13638800  0.55588800  1
  C  C45  1  0.95651700  0.26916200  0.29937100  1
  C  C46  1  0.74422000  0.43797900  0.46773300  1
  C  C47  1  0.20250500  0.24230500  0.20160900  1
  C  C48  1  0.62136000  0.03266600  0.57577100  1
  C  C49  1  0.26916200  0.95651700  0.79937100  1
  C  C50  1  0.76406500  0.61033900  0.27458200  1
  C  C51  1  0.73089100  0.91864300  0.41015400  1
  C  C52  1  0.04752900  0.67144700  0.27010400  1
  C  C53  1  0.03266600  0.62136000  0.07577100  1
  C  C54  1  0.16974400  0.81909900  0.12141100  1
  C  C55  1  0.70705200  0.42960600  0.65727600  1
  C  C56  1  0.41457500  0.43911300  0.66724700  1
  C  C57  1  0.18090100  0.83025600  0.37858900  1
  C  C58  1  0.67144700  0.04752900  0.77010400  1
  C  C59  1  0.75769500  0.79749500  0.29839100  1
  C  C60  1  0.83025600  0.18090100  0.87858900  1
  C  C61  1  0.43911300  0.41457500  0.16724700  1
  C  C62  1  0.07706100  0.34765500  0.42538600  1
  C  C63  1  0.92293900  0.65234500  0.57461400  1
  C  C64  1  0.23593500  0.38966100  0.72541800  1
  C  C65  1  0.57039400  0.29294800  0.84272400  1
  C  C66  1  0.38966100  0.23593500  0.22541800  1
  C  C67  1  0.94155200  0.86361200  0.44411200  1
  C  C68  1  0.25578000  0.56202100  0.53226700  1
  C  C69  1  0.32855300  0.95247100  0.22989600  1
  C  C70  1  0.37864000  0.96733400  0.42422900  1
  C  C71  1  0.29294800  0.57039400  0.34272400  1
  C  C72  1  0.81909900  0.16974400  0.62141100  1
  C  C73  1  0.79749500  0.75769500  0.79839100  1
  C  C74  1  0.13638800  0.05844800  0.05588800  1
  C  C75  1  0.86361200  0.94155200  0.94411200  1
  C  C76  1  0.43797900  0.74422000  0.96773300  1
  C  C77  1  0.04348300  0.73083800  0.70062900  1
  C  C78  1  0.95247100  0.32855300  0.72989600  1
  C  C79  1  0.24230500  0.20250500  0.70160900  1
