# generated using pymatgen
data_Cu8Ni2C9
_symmetry_space_group_name_H-M   'P 1'
_cell_length_a   13.04682166
_cell_length_b   13.04682166
_cell_length_c   13.04682166
_cell_angle_alpha   109.47122063
_cell_angle_beta   109.47122063
_cell_angle_gamma   109.47122063
_symmetry_Int_Tables_number   1
_chemical_formula_structural   Cu8Ni2C9
_chemical_formula_sum   'Cu32 Ni8 C36'
_cell_volume   1709.59125467
_cell_formula_units_Z   4
loop_
 _symmetry_equiv_pos_site_id
 _symmetry_equiv_pos_as_xyz
  1  'x, y, z'
loop_
 _atom_site_type_symbol
 _atom_site_label
 _atom_site_symmetry_multiplicity
 _atom_site_fract_x
 _atom_site_fract_y
 _atom_site_fract_z
 _atom_site_occupancy
  C  C0  1  0.78165300  0.58797400  0.62701900  1
  C  C1  1  0.12500000  0.75000000  0.87500000  1
  C  C2  1  0.15463400  0.87298100  0.46095500  1
  C  C3  1  0.69368000  0.03904500  0.91202600  1
  C  C4  1  0.19368000  0.41202600  0.53904500  1
  C  C5  1  0.96095500  0.37298100  0.65463400  1
  C  C6  1  0.46095500  0.15463400  0.87298100  1
  C  C7  1  0.08797400  0.28165300  0.12701900  1
  C  C8  1  0.91202600  0.69368000  0.03904500  1
  C  C9  1  0.80632000  0.71834700  0.34536600  1
  C  C10  1  0.53904500  0.19368000  0.41202600  1
  C  C11  1  0.75000000  0.87500000  0.12500000  1
  C  C12  1  0.58797400  0.62701900  0.78165300  1
  C  C13  1  0.21834700  0.30632000  0.84536600  1
  C  C14  1  0.03904500  0.91202600  0.69368000  1
  C  C15  1  0.12701900  0.08797400  0.28165300  1
  C  C16  1  0.65463400  0.96095500  0.37298100  1
  C  C17  1  0.37298100  0.65463400  0.96095500  1
  C  C18  1  0.87500000  0.12500000  0.75000000  1
  C  C19  1  0.37500000  0.25000000  0.62500000  1
  C  C20  1  0.84536600  0.21834700  0.30632000  1
  C  C21  1  0.34536600  0.80632000  0.71834700  1
  C  C22  1  0.87298100  0.46095500  0.15463400  1
  C  C23  1  0.28165300  0.12701900  0.08797400  1
  C  C24  1  0.62701900  0.78165300  0.58797400  1
  C  C25  1  0.71834700  0.34536600  0.80632000  1
  C  C26  1  0.62500000  0.37500000  0.25000000  1
  C  C27  1  0.41202600  0.53904500  0.19368000  1
  C  C28  1  0.30632000  0.84536600  0.21834700  1
  C  C29  1  0.25000000  0.62500000  0.37500000  1
  Ni  Ni30  1  0.39973000  0.39973000  0.39973000  1
  Ni  Ni31  1  0.50000000  0.00000000  0.10027000  1
  Ni  Ni32  1  0.60027000  0.50000000  0.00000000  1
  Ni  Ni33  1  0.10027000  0.50000000  0.00000000  1
  Ni  Ni34  1  0.00000000  0.60027000  0.50000000  1
  Ni  Ni35  1  0.00000000  0.10027000  0.50000000  1
  Ni  Ni36  1  0.89973000  0.89973000  0.89973000  1
  Ni  Ni37  1  0.50000000  0.00000000  0.60027000  1
  Cu  Cu38  1  0.32209900  0.94757800  0.08170700  1
  Cu  Cu39  1  0.08170700  0.32209900  0.94757800  1
  Cu  Cu40  1  0.50000000  0.00000000  0.44303800  1
  Cu  Cu41  1  0.67790100  0.12547900  0.75960900  1
  Cu  Cu42  1  0.37452100  0.05242200  0.63412900  1
  Cu  Cu43  1  0.50000000  0.00000000  0.94303800  1
  Cu  Cu44  1  0.05696200  0.05696200  0.05696200  1
  Cu  Cu45  1  0.62547900  0.17790100  0.25960900  1
  Cu  Cu46  1  0.94303800  0.50000000  0.00000000  1
  Cu  Cu47  1  0.41829300  0.36587100  0.24039100  1
  Cu  Cu48  1  0.55242200  0.87452100  0.13412900  1
  Cu  Cu49  1  0.44757800  0.82209900  0.58170700  1
  Cu  Cu50  1  0.00000000  0.94303800  0.50000000  1
  Cu  Cu51  1  0.75960900  0.67790100  0.12547900  1
  Cu  Cu52  1  0.36587100  0.24039100  0.41829300  1
  Cu  Cu53  1  0.82209900  0.58170700  0.44757800  1
  Cu  Cu54  1  0.94757800  0.08170700  0.32209900  1
  Cu  Cu55  1  0.86587100  0.91829300  0.74039100  1
  Cu  Cu56  1  0.91829300  0.74039100  0.86587100  1
  Cu  Cu57  1  0.12547900  0.75960900  0.67790100  1
  Cu  Cu58  1  0.00000000  0.44303800  0.50000000  1
  Cu  Cu59  1  0.44303800  0.50000000  0.00000000  1
  Cu  Cu60  1  0.63412900  0.37452100  0.05242200  1
  Cu  Cu61  1  0.58170700  0.44757800  0.82209900  1
  Cu  Cu62  1  0.24039100  0.41829300  0.36587100  1
  Cu  Cu63  1  0.55696200  0.55696200  0.55696200  1
  Cu  Cu64  1  0.25960900  0.62547900  0.17790100  1
  Cu  Cu65  1  0.05242200  0.63412900  0.37452100  1
  Cu  Cu66  1  0.17790100  0.25960900  0.62547900  1
  Cu  Cu67  1  0.87452100  0.13412900  0.55242200  1
  Cu  Cu68  1  0.74039100  0.86587100  0.91829300  1
  Cu  Cu69  1  0.13412900  0.55242200  0.87452100  1
  C  C70  1  0.12500000  0.87500000  0.25000000  1
  C  C71  1  0.62500000  0.75000000  0.37500000  1
  C  C72  1  0.75000000  0.37500000  0.62500000  1
  C  C73  1  0.25000000  0.12500000  0.87500000  1
  C  C74  1  0.37500000  0.62500000  0.75000000  1
  C  C75  1  0.87500000  0.25000000  0.12500000  1
