# generated using pymatgen
data_Cu8Ni2C
_symmetry_space_group_name_H-M   'P 1'
_cell_length_a   7.35432200
_cell_length_b   8.76523200
_cell_length_c   13.35253500
_cell_angle_alpha   90.00000000
_cell_angle_beta   90.00000000
_cell_angle_gamma   90.00000000
_symmetry_Int_Tables_number   1
_chemical_formula_structural   Cu8Ni2C
_chemical_formula_sum   'Cu64 Ni16 C8'
_cell_volume   860.73563144
_cell_formula_units_Z   8
loop_
 _symmetry_equiv_pos_site_id
 _symmetry_equiv_pos_as_xyz
  1  'x, y, z'
loop_
 _atom_site_type_symbol
 _atom_site_label
 _atom_site_symmetry_multiplicity
 _atom_site_fract_x
 _atom_site_fract_y
 _atom_site_fract_z
 _atom_site_occupancy
  C  C0  1  0.68657800  0.43159700  0.11462000  1
  C  C1  1  0.31342200  0.06840300  0.61462000  1
  C  C2  1  0.81342200  0.93159700  0.88538000  1
  C  C3  1  0.18657800  0.56840300  0.38538000  1
  C  C4  1  0.31342200  0.56840300  0.88538000  1
  C  C5  1  0.68657800  0.93159700  0.38538000  1
  C  C6  1  0.81342200  0.43159700  0.61462000  1
  C  C7  1  0.18657800  0.06840300  0.11462000  1
  Ni  Ni8  1  0.53951400  0.05385600  0.78109400  1
  Ni  Ni9  1  0.46048600  0.44614400  0.28109400  1
  Ni  Ni10  1  0.85634200  0.68708400  0.48492000  1
  Ni  Ni11  1  0.96048600  0.55385600  0.21890600  1
  Ni  Ni12  1  0.35634200  0.81291600  0.48492000  1
  Ni  Ni13  1  0.03951400  0.94614400  0.71890600  1
  Ni  Ni14  1  0.64365800  0.18708400  0.51508000  1
  Ni  Ni15  1  0.14365800  0.31291600  0.51508000  1
  Ni  Ni16  1  0.53951400  0.55385600  0.71890600  1
  Ni  Ni17  1  0.46048600  0.94614400  0.21890600  1
  Ni  Ni18  1  0.03951400  0.44614400  0.78109400  1
  Ni  Ni19  1  0.85634200  0.18708400  0.01508000  1
  Ni  Ni20  1  0.64365800  0.68708400  0.98492000  1
  Ni  Ni21  1  0.14365800  0.81291600  0.98492000  1
  Ni  Ni22  1  0.96048600  0.05385600  0.28109400  1
  Ni  Ni23  1  0.35634200  0.31291600  0.01508000  1
  Cu  Cu24  1  0.99415400  0.48387200  0.14137900  1
  Cu  Cu25  1  0.27466700  0.89916200  0.98623100  1
  Cu  Cu26  1  0.51245000  0.63584100  0.03110400  1
  Cu  Cu27  1  0.49415400  0.01612800  0.14137900  1
  Cu  Cu28  1  0.72533300  0.10083800  0.01376900  1
  Cu  Cu29  1  0.50584600  0.98387200  0.85862100  1
  Cu  Cu30  1  0.91963200  0.35034800  0.77026800  1
  Cu  Cu31  1  0.08036800  0.64965200  0.22973200  1
  Cu  Cu32  1  0.98755000  0.63584100  0.53110400  1
  Cu  Cu33  1  0.31443700  0.37826400  0.28646700  1
  Cu  Cu34  1  0.81970500  0.80823300  0.52532900  1
  Cu  Cu35  1  0.81970500  0.30823300  0.97467100  1
  Cu  Cu36  1  0.45139200  0.53839800  0.21164100  1
  Cu  Cu37  1  0.99415400  0.98387200  0.35862100  1
  Cu  Cu38  1  0.77466700  0.10083800  0.51376900  1
  Cu  Cu39  1  0.45139200  0.03839800  0.28835900  1
  Cu  Cu40  1  0.60237400  0.70629200  0.89648600  1
  Cu  Cu41  1  0.95139200  0.46160200  0.28835900  1
  Cu  Cu42  1  0.54860800  0.46160200  0.78835900  1
  Cu  Cu43  1  0.48755000  0.86415900  0.53110400  1
  Cu  Cu44  1  0.27466700  0.39916200  0.51376900  1
  Cu  Cu45  1  0.77466700  0.60083800  0.98623100  1
  Cu  Cu46  1  0.39762600  0.29370800  0.10351400  1
  Cu  Cu47  1  0.95139200  0.96160200  0.21164100  1
  Cu  Cu48  1  0.54860800  0.96160200  0.71164100  1
  Cu  Cu49  1  0.18029500  0.69176700  0.02532900  1
  Cu  Cu50  1  0.31443700  0.87826400  0.21353300  1
  Cu  Cu51  1  0.58036800  0.35034800  0.27026800  1
  Cu  Cu52  1  0.31970500  0.19176700  0.97467100  1
  Cu  Cu53  1  0.08036800  0.14965200  0.27026800  1
  Cu  Cu54  1  0.41963200  0.14965200  0.77026800  1
  Cu  Cu55  1  0.41963200  0.64965200  0.72973200  1
  Cu  Cu56  1  0.98755000  0.13584100  0.96889600  1
  Cu  Cu57  1  0.18029500  0.19176700  0.47467100  1
  Cu  Cu58  1  0.68029500  0.30823300  0.47467100  1
  Cu  Cu59  1  0.00584600  0.01612800  0.64137900  1
  Cu  Cu60  1  0.89762600  0.70629200  0.39648600  1
  Cu  Cu61  1  0.04860800  0.53839800  0.71164100  1
  Cu  Cu62  1  0.51245000  0.13584100  0.46889600  1
  Cu  Cu63  1  0.58036800  0.85034800  0.22973200  1
  Cu  Cu64  1  0.72533300  0.60083800  0.48623100  1
  Cu  Cu65  1  0.81443700  0.12173600  0.28646700  1
  Cu  Cu66  1  0.68029500  0.80823300  0.02532900  1
  Cu  Cu67  1  0.10237400  0.29370800  0.60351400  1
  Cu  Cu68  1  0.10237400  0.79370800  0.89648600  1
  Cu  Cu69  1  0.60237400  0.20629200  0.60351400  1
  Cu  Cu70  1  0.50584600  0.48387200  0.64137900  1
  Cu  Cu71  1  0.48755000  0.36415900  0.96889600  1
  Cu  Cu72  1  0.91963200  0.85034800  0.72973200  1
  Cu  Cu73  1  0.49415400  0.51612800  0.35862100  1
  Cu  Cu74  1  0.31970500  0.69176700  0.52532900  1
  Cu  Cu75  1  0.01245000  0.86415900  0.03110400  1
  Cu  Cu76  1  0.18556300  0.87826400  0.71353300  1
  Cu  Cu77  1  0.68556300  0.12173600  0.78646700  1
  Cu  Cu78  1  0.04860800  0.03839800  0.78835900  1
  Cu  Cu79  1  0.01245000  0.36415900  0.46889600  1
  Cu  Cu80  1  0.18556300  0.37826400  0.78646700  1
  Cu  Cu81  1  0.39762600  0.79370800  0.39648600  1
  Cu  Cu82  1  0.22533300  0.89916200  0.48623100  1
  Cu  Cu83  1  0.81443700  0.62173600  0.21353300  1
  Cu  Cu84  1  0.00584600  0.51612800  0.85862100  1
  Cu  Cu85  1  0.22533300  0.39916200  0.01376900  1
  Cu  Cu86  1  0.89762600  0.20629200  0.10351400  1
  Cu  Cu87  1  0.68556300  0.62173600  0.71353300  1
