# generated using pymatgen
data_CuNi2C7
_symmetry_space_group_name_H-M   'P 1'
_cell_length_a   6.14933200
_cell_length_b   6.20640300
_cell_length_c   10.63293776
_cell_angle_alpha   54.81022017
_cell_angle_beta   90.00000000
_cell_angle_gamma   90.00000000
_symmetry_Int_Tables_number   1
_chemical_formula_structural   CuNi2C7
_chemical_formula_sum   'Cu2 Ni4 C14'
_cell_volume   331.64610076
_cell_formula_units_Z   2
loop_
 _symmetry_equiv_pos_site_id
 _symmetry_equiv_pos_as_xyz
  1  'x, y, z'
loop_
 _atom_site_type_symbol
 _atom_site_label
 _atom_site_symmetry_multiplicity
 _atom_site_fract_x
 _atom_site_fract_y
 _atom_site_fract_z
 _atom_site_occupancy
  Ni  Ni0  1  0.49056600  0.74199700  0.25200600  1
  Ni  Ni1  1  0.00943400  0.74199700  0.75200600  1
  Ni  Ni2  1  0.99056600  0.25800300  0.24799400  1
  Ni  Ni3  1  0.50943400  0.25800300  0.74799400  1
  Cu  Cu4  1  0.00000000  0.00000000  0.00000000  1
  Cu  Cu5  1  0.50000000  0.00000000  0.50000000  1
  C  C6  1  0.50000000  0.50000000  0.00000000  1
  C  C7  1  0.00000000  0.50000000  0.50000000  1
  C  C8  1  0.00564800  0.79610300  0.27286100  1
  C  C9  1  0.25607600  0.67544700  0.03774600  1
  C  C10  1  0.71826000  0.70174400  0.03679600  1
  C  C11  1  0.75607600  0.32455300  0.46225400  1
  C  C12  1  0.21826000  0.29825600  0.46320400  1
  C  C13  1  0.78174000  0.70174400  0.53679600  1
  C  C14  1  0.99435200  0.20389700  0.72713900  1
  C  C15  1  0.74392400  0.32455300  0.96225400  1
  C  C16  1  0.24392400  0.67544700  0.53774600  1
  C  C17  1  0.49435200  0.79610300  0.77286100  1
  C  C18  1  0.28174000  0.29825600  0.96320400  1
  C  C19  1  0.50564800  0.20389700  0.22713900  1
