# generated using pymatgen
data_Cu10Ni13
_symmetry_space_group_name_H-M   'P 1'
_cell_length_a   10.98366100
_cell_length_b   12.41655600
_cell_length_c   17.59208836
_cell_angle_alpha   110.23912545
_cell_angle_beta   98.09082861
_cell_angle_gamma   90.13007730
_symmetry_Int_Tables_number   1
_chemical_formula_structural   Cu10Ni13
_chemical_formula_sum   'Cu40 Ni52'
_cell_volume   2225.29953729
_cell_formula_units_Z   4
loop_
 _symmetry_equiv_pos_site_id
 _symmetry_equiv_pos_as_xyz
  1  'x, y, z'
loop_
 _atom_site_type_symbol
 _atom_site_label
 _atom_site_symmetry_multiplicity
 _atom_site_fract_x
 _atom_site_fract_y
 _atom_site_fract_z
 _atom_site_occupancy
  Ni  Ni0  1  0.35945800  0.28215200  0.00466300  1
  Ni  Ni1  1  0.06057900  0.55739500  0.78457100  1
  Ni  Ni2  1  0.59911800  0.02646600  0.73768700  1
  Ni  Ni3  1  0.87052700  0.80811100  0.01250100  1
  Ni  Ni4  1  0.11324100  0.05338100  0.51096800  1
  Ni  Ni5  1  0.13849600  0.12812400  0.33168900  1
  Ni  Ni6  1  0.88675900  0.94661900  0.48903200  1
  Ni  Ni7  1  0.77098400  0.32872100  0.57794000  1
  Ni  Ni8  1  0.45423600  0.10910300  0.53021200  1
  Ni  Ni9  1  0.71118900  0.36973900  0.03729700  1
  Ni  Ni10  1  0.75089300  0.17486200  0.42335000  1
  Ni  Ni11  1  0.73818100  0.57726200  0.75281000  1
  Ni  Ni12  1  0.09487000  0.13526800  0.17582700  1
  Ni  Ni13  1  0.38463700  0.45314900  0.49327900  1
  Ni  Ni14  1  0.22901600  0.67127900  0.42206000  1
  Ni  Ni15  1  0.23603900  0.08131000  0.75629900  1
  Ni  Ni16  1  0.40088200  0.97353400  0.26231300  1
  Ni  Ni17  1  0.12947300  0.19188900  0.98749900  1
  Ni  Ni18  1  0.64054200  0.71784800  0.99533700  1
  Ni  Ni19  1  0.19380800  0.84779200  0.03371200  1
  Ni  Ni20  1  0.94777200  0.60275800  0.53159000  1
  Ni  Ni21  1  0.28881100  0.63026100  0.96270300  1
  Ni  Ni22  1  0.24910700  0.82513800  0.57665000  1
  Ni  Ni23  1  0.90513000  0.86473200  0.82417300  1
  Ni  Ni24  1  0.05222800  0.39724200  0.46841000  1
  Ni  Ni25  1  0.57413800  0.22053600  0.10375500  1
  Ni  Ni26  1  0.99503600  0.41952900  0.92452000  1
  Ni  Ni27  1  0.26181900  0.42273800  0.24719000  1
  Ni  Ni28  1  0.49040900  0.34894300  0.26580900  1
  Ni  Ni29  1  0.00496400  0.58047100  0.07548000  1
  Ni  Ni30  1  0.52370300  0.93690200  0.85322800  1
  Ni  Ni31  1  0.54576400  0.89089700  0.46978800  1
  Ni  Ni32  1  0.47629700  0.06309800  0.14677200  1
  Ni  Ni33  1  0.40871600  0.74359900  0.17607900  1
  Ni  Ni34  1  0.76396100  0.91869000  0.24370100  1
  Ni  Ni35  1  0.74376400  0.19800300  0.70649200  1
  Ni  Ni36  1  0.42586200  0.77946400  0.89624500  1
  Ni  Ni37  1  0.38574700  0.37489700  0.82930700  1
  Ni  Ni38  1  0.17143900  0.68890700  0.71164200  1
  Ni  Ni39  1  0.99005200  0.83387700  0.26042000  1
  Ni  Ni40  1  0.00994800  0.16612300  0.73958000  1
  Ni  Ni41  1  0.82856100  0.31109300  0.28835800  1
  Ni  Ni42  1  0.80619200  0.15220800  0.96628800  1
  Ni  Ni43  1  0.50959100  0.65105700  0.73419100  1
  Ni  Ni44  1  0.61425300  0.62510300  0.17069300  1
  Ni  Ni45  1  0.63221100  0.63889500  0.34115900  1
  Ni  Ni46  1  0.61536300  0.54685100  0.50672100  1
  Ni  Ni47  1  0.86150400  0.87187600  0.66831100  1
  Ni  Ni48  1  0.93942100  0.44260500  0.21542900  1
  Ni  Ni49  1  0.25623600  0.80199700  0.29350800  1
  Ni  Ni50  1  0.59128400  0.25640100  0.82392100  1
  Ni  Ni51  1  0.36778900  0.36110500  0.65884100  1
  Cu  Cu52  1  0.83959400  0.07284700  0.80558000  1
  Cu  Cu53  1  0.97904000  0.34273000  0.68357200  1
  Cu  Cu54  1  0.81111400  0.70896600  0.12598100  1
  Cu  Cu55  1  0.69470800  0.78549600  0.86958700  1
  Cu  Cu56  1  0.94161000  0.04459600  0.37458500  1
  Cu  Cu57  1  0.53476800  0.17613600  0.32594100  1
  Cu  Cu58  1  0.29426600  0.90832400  0.45496100  1
  Cu  Cu59  1  0.39660900  0.51721400  0.05946600  1
  Cu  Cu60  1  0.89533200  0.03761400  0.06485500  1
  Cu  Cu61  1  0.34994800  0.22076600  0.43323300  1
  Cu  Cu62  1  0.18888600  0.29103400  0.87401900  1
  Cu  Cu63  1  0.08455900  0.33548800  0.30704800  1
  Cu  Cu64  1  0.67836100  0.43132400  0.20369200  1
  Cu  Cu65  1  0.60339100  0.48278600  0.94053400  1
  Cu  Cu66  1  0.73574800  0.09927200  0.18735600  1
  Cu  Cu67  1  0.55099500  0.16076900  0.93698500  1
  Cu  Cu68  1  0.02096000  0.65726900  0.31642800  1
  Cu  Cu69  1  0.96162300  0.34727200  0.05419000  1
  Cu  Cu70  1  0.78221500  0.41545700  0.82476100  1
  Cu  Cu71  1  0.43315700  0.55293000  0.37880900  1
  Cu  Cu72  1  0.46523200  0.82386400  0.67405900  1
  Cu  Cu73  1  0.21778500  0.58454300  0.17523900  1
  Cu  Cu74  1  0.26425200  0.90072800  0.81264400  1
  Cu  Cu75  1  0.30529200  0.21450400  0.13041300  1
  Cu  Cu76  1  0.16040600  0.92715300  0.19442000  1
  Cu  Cu77  1  0.65005200  0.77923400  0.56676700  1
  Cu  Cu78  1  0.32163900  0.56867600  0.79630800  1
  Cu  Cu79  1  0.41288300  0.15835100  0.69211600  1
  Cu  Cu80  1  0.79530600  0.40485800  0.44730000  1
  Cu  Cu81  1  0.20469400  0.59514200  0.55270000  1
  Cu  Cu82  1  0.85245500  0.71665200  0.43322300  1
  Cu  Cu83  1  0.56684300  0.44707000  0.62119100  1
  Cu  Cu84  1  0.91544100  0.66451200  0.69295200  1
  Cu  Cu85  1  0.05839000  0.95540400  0.62541500  1
  Cu  Cu86  1  0.44900500  0.83923100  0.06301500  1
  Cu  Cu87  1  0.14754500  0.28334800  0.56677700  1
  Cu  Cu88  1  0.03837700  0.65272800  0.94581000  1
  Cu  Cu89  1  0.10466800  0.96238600  0.93514500  1
  Cu  Cu90  1  0.58711700  0.84164900  0.30788400  1
  Cu  Cu91  1  0.70573400  0.09167600  0.54503900  1
