# generated using pymatgen
data_Cu3Ni3C10
_symmetry_space_group_name_H-M   'P 1'
_cell_length_a   7.10411800
_cell_length_b   7.38412100
_cell_length_c   16.32032800
_cell_angle_alpha   90.00000000
_cell_angle_beta   90.00000000
_cell_angle_gamma   90.00000000
_symmetry_Int_Tables_number   1
_chemical_formula_structural   Cu3Ni3C10
_chemical_formula_sum   'Cu12 Ni12 C40'
_cell_volume   856.12633009
_cell_formula_units_Z   4
loop_
 _symmetry_equiv_pos_site_id
 _symmetry_equiv_pos_as_xyz
  1  'x, y, z'
loop_
 _atom_site_type_symbol
 _atom_site_label
 _atom_site_symmetry_multiplicity
 _atom_site_fract_x
 _atom_site_fract_y
 _atom_site_fract_z
 _atom_site_occupancy
  Ni  Ni0  1  0.08519100  0.20616800  0.86699600  1
  Ni  Ni1  1  0.91480900  0.79383200  0.13300400  1
  Ni  Ni2  1  0.25000000  0.50000000  0.01073000  1
  Ni  Ni3  1  0.75000000  0.50000000  0.98927000  1
  Ni  Ni4  1  0.25000000  0.00000000  0.51073000  1
  Ni  Ni5  1  0.75000000  0.00000000  0.48927000  1
  Ni  Ni6  1  0.58519100  0.29383200  0.63300400  1
  Ni  Ni7  1  0.58519100  0.20616800  0.13300400  1
  Ni  Ni8  1  0.08519100  0.29383200  0.36699600  1
  Ni  Ni9  1  0.41480900  0.70616800  0.36699600  1
  Ni  Ni10  1  0.91480900  0.70616800  0.63300400  1
  Ni  Ni11  1  0.41480900  0.79383200  0.86699600  1
  Cu  Cu12  1  0.75000000  0.50000000  0.79291600  1
  Cu  Cu13  1  0.25000000  0.50000000  0.53040000  1
  Cu  Cu14  1  0.75000000  0.00000000  0.75788200  1
  Cu  Cu15  1  0.75000000  0.50000000  0.25788200  1
  Cu  Cu16  1  0.25000000  0.50000000  0.20708400  1
  Cu  Cu17  1  0.25000000  0.00000000  0.24211800  1
  Cu  Cu18  1  0.75000000  0.50000000  0.46960000  1
  Cu  Cu19  1  0.75000000  0.00000000  0.29291600  1
  Cu  Cu20  1  0.75000000  0.00000000  0.96960000  1
  Cu  Cu21  1  0.25000000  0.50000000  0.74211800  1
  Cu  Cu22  1  0.25000000  0.00000000  0.03040000  1
  Cu  Cu23  1  0.25000000  0.00000000  0.70708400  1
  C  C24  1  0.01661700  0.24055300  0.13016600  1
  C  C25  1  0.51661700  0.24055300  0.86983400  1
  C  C26  1  0.51661700  0.25944700  0.36983400  1
  C  C27  1  0.01661700  0.25944700  0.63016600  1
  C  C28  1  0.48338300  0.75944700  0.13016600  1
  C  C29  1  0.48338300  0.74055300  0.63016600  1
  C  C30  1  0.98338300  0.75944700  0.86983400  1
  C  C31  1  0.98338300  0.74055300  0.36983400  1
  C  C32  1  0.54009400  0.57884900  0.13490400  1
  C  C33  1  0.05238100  0.64481000  0.30255600  1
  C  C34  1  0.94761900  0.14481000  0.19744400  1
  C  C35  1  0.54009400  0.92115100  0.63490400  1
  C  C36  1  0.55238100  0.85519000  0.19744400  1
  C  C37  1  0.05238100  0.85519000  0.80255600  1
  C  C38  1  0.44761900  0.14481000  0.80255600  1
  C  C39  1  0.78519700  0.76913900  0.86888600  1
  C  C40  1  0.95990600  0.42115100  0.13490400  1
  C  C41  1  0.71480300  0.23086100  0.86888600  1
  C  C42  1  0.45990600  0.42115100  0.86509600  1
  C  C43  1  0.95110700  0.16461200  0.05653200  1
  C  C44  1  0.95110700  0.33538800  0.55653200  1
  C  C45  1  0.04889300  0.66461200  0.44346800  1
  C  C46  1  0.28519700  0.73086100  0.63111400  1
  C  C47  1  0.54889300  0.66461200  0.55653200  1
  C  C48  1  0.45110700  0.33538800  0.44346800  1
  C  C49  1  0.44761900  0.35519000  0.30255600  1
  C  C50  1  0.45110700  0.16461200  0.94346800  1
  C  C51  1  0.94761900  0.35519000  0.69744400  1
  C  C52  1  0.71480300  0.26913900  0.36888600  1
  C  C53  1  0.45990600  0.07884900  0.36509600  1
  C  C54  1  0.95990600  0.07884900  0.63490400  1
  C  C55  1  0.78519700  0.73086100  0.36888600  1
  C  C56  1  0.04009400  0.92115100  0.36509600  1
  C  C57  1  0.21480300  0.26913900  0.63111400  1
  C  C58  1  0.54889300  0.83538800  0.05653200  1
  C  C59  1  0.55238100  0.64481000  0.69744400  1
  C  C60  1  0.28519700  0.76913900  0.13111400  1
  C  C61  1  0.21480300  0.23086100  0.13111400  1
  C  C62  1  0.04889300  0.83538800  0.94346800  1
  C  C63  1  0.04009400  0.57884900  0.86509600  1
