# generated using pymatgen
data_CuNiC7
_symmetry_space_group_name_H-M   'P 1'
_cell_length_a   6.03704900
_cell_length_b   8.16475800
_cell_length_c   8.40594400
_cell_angle_alpha   90.00000000
_cell_angle_beta   90.00000000
_cell_angle_gamma   90.00000000
_symmetry_Int_Tables_number   1
_chemical_formula_structural   CuNiC7
_chemical_formula_sum   'Cu4 Ni4 C28'
_cell_volume   414.33775657
_cell_formula_units_Z   4
loop_
 _symmetry_equiv_pos_site_id
 _symmetry_equiv_pos_as_xyz
  1  'x, y, z'
loop_
 _atom_site_type_symbol
 _atom_site_label
 _atom_site_symmetry_multiplicity
 _atom_site_fract_x
 _atom_site_fract_y
 _atom_site_fract_z
 _atom_site_occupancy
  C  C0  1  0.50000000  0.36116700  0.36961900  1
  C  C1  1  0.50000000  0.63883300  0.63038100  1
  C  C2  1  0.00000000  0.86116700  0.13038100  1
  C  C3  1  0.00000000  0.13883300  0.86961900  1
  C  C4  1  0.25487000  0.50000000  0.00000000  1
  C  C5  1  0.24513000  0.00000000  0.50000000  1
  C  C6  1  0.74513000  0.50000000  0.00000000  1
  C  C7  1  0.75487000  0.00000000  0.50000000  1
  Ni  Ni8  1  0.00000000  0.24850000  0.24076600  1
  Ni  Ni9  1  0.00000000  0.75150000  0.75923400  1
  Ni  Ni10  1  0.50000000  0.74850000  0.25923400  1
  Ni  Ni11  1  0.50000000  0.25150000  0.74076600  1
  Cu  Cu12  1  0.50000000  0.27354900  0.08168400  1
  Cu  Cu13  1  0.50000000  0.72645100  0.91831600  1
  Cu  Cu14  1  0.00000000  0.77354900  0.41831600  1
  Cu  Cu15  1  0.00000000  0.22645100  0.58168400  1
  C  C16  1  0.00000000  0.10950900  0.11299100  1
  C  C17  1  0.00000000  0.89049100  0.88700900  1
  C  C18  1  0.50000000  0.60950900  0.38700900  1
  C  C19  1  0.50000000  0.39049100  0.61299100  1
  C  C20  1  0.00000000  0.41353500  0.14680200  1
  C  C21  1  0.00000000  0.58646500  0.85319800  1
  C  C22  1  0.50000000  0.91353500  0.35319800  1
  C  C23  1  0.50000000  0.08646500  0.64680200  1
  C  C24  1  0.20874100  0.23336800  0.34846600  1
  C  C25  1  0.20874100  0.76663200  0.65153400  1
  C  C26  1  0.29125900  0.73336800  0.15153400  1
  C  C27  1  0.29125900  0.26663200  0.84846600  1
  C  C28  1  0.79125900  0.76663200  0.65153400  1
  C  C29  1  0.79125900  0.23336800  0.34846600  1
  C  C30  1  0.70874100  0.26663200  0.84846600  1
  C  C31  1  0.70874100  0.73336800  0.15153400  1
  C  C32  1  0.50000000  0.38469000  0.12443900  1
  C  C33  1  0.50000000  0.61531000  0.87556100  1
  C  C34  1  0.00000000  0.88469000  0.37556100  1
  C  C35  1  0.00000000  0.11531000  0.62443900  1
