# generated using pymatgen
data_Cu2Ni3C8
_symmetry_space_group_name_H-M   'P 1'
_cell_length_a   8.20924900
_cell_length_b   6.32754500
_cell_length_c   9.71682072
_cell_angle_alpha   69.45847325
_cell_angle_beta   90.00000000
_cell_angle_gamma   90.00000000
_symmetry_Int_Tables_number   1
_chemical_formula_structural   Cu2Ni3C8
_chemical_formula_sum   'Cu8 Ni12 C32'
_cell_volume   472.64239064
_cell_formula_units_Z   4
loop_
 _symmetry_equiv_pos_site_id
 _symmetry_equiv_pos_as_xyz
  1  'x, y, z'
loop_
 _atom_site_type_symbol
 _atom_site_label
 _atom_site_symmetry_multiplicity
 _atom_site_fract_x
 _atom_site_fract_y
 _atom_site_fract_z
 _atom_site_occupancy
  C  C0  1  0.78174000  0.88917500  0.98711000  1
  C  C1  1  0.25948900  0.68662100  0.66317500  1
  C  C2  1  0.20590100  0.35558600  0.06444900  1
  C  C3  1  0.08559000  0.96840000  0.39148400  1
  C  C4  1  0.06699300  0.62648500  0.76226500  1
  C  C5  1  0.79409900  0.64441400  0.93555100  1
  C  C6  1  0.54185900  0.11895600  0.26066500  1
  C  C7  1  0.70590100  0.64441400  0.43555100  1
  C  C8  1  0.45814100  0.88104400  0.73933500  1
  C  C9  1  0.52719400  0.31811700  0.07695000  1
  C  C10  1  0.28174000  0.11082500  0.51289000  1
  C  C11  1  0.58559000  0.03160000  0.10851600  1
  C  C12  1  0.29409900  0.35558600  0.56444900  1
  C  C13  1  0.21826000  0.11082500  0.01289000  1
  C  C14  1  0.04422600  0.29230900  0.96088300  1
  C  C15  1  0.43300700  0.62648500  0.26226500  1
  C  C16  1  0.75948900  0.31337900  0.83682500  1
  C  C17  1  0.47280600  0.68188300  0.92305000  1
  C  C18  1  0.04185900  0.88104400  0.23933500  1
  C  C19  1  0.95814100  0.11895600  0.76066500  1
  C  C20  1  0.24051100  0.68662100  0.16317500  1
  C  C21  1  0.56699300  0.37351500  0.73773500  1
  C  C22  1  0.91441000  0.03160000  0.60851600  1
  C  C23  1  0.45577400  0.29230900  0.46088300  1
  C  C24  1  0.93300700  0.37351500  0.23773500  1
  C  C25  1  0.02719400  0.68188300  0.42305000  1
  C  C26  1  0.54422600  0.70769100  0.53911700  1
  C  C27  1  0.71826000  0.88917500  0.48711000  1
  C  C28  1  0.95577400  0.70769100  0.03911700  1
  C  C29  1  0.41441000  0.96840000  0.89148400  1
  C  C30  1  0.74051100  0.31337900  0.33682500  1
  C  C31  1  0.97280600  0.31811700  0.57695000  1
  Ni  Ni32  1  0.67730900  0.71328700  0.52224000  1
  Ni  Ni33  1  0.59550600  0.17181200  0.14966500  1
  Ni  Ni34  1  0.79913900  0.37232600  0.22749400  1
  Ni  Ni35  1  0.90449400  0.17181200  0.64966500  1
  Ni  Ni36  1  0.40449400  0.82818800  0.85033500  1
  Ni  Ni37  1  0.70086100  0.37232600  0.72749400  1
  Ni  Ni38  1  0.29913900  0.62767400  0.27250600  1
  Ni  Ni39  1  0.09550600  0.82818800  0.35033500  1
  Ni  Ni40  1  0.20086100  0.62767400  0.77250600  1
  Ni  Ni41  1  0.32269100  0.28671300  0.47776000  1
  Ni  Ni42  1  0.17730900  0.28671300  0.97776000  1
  Ni  Ni43  1  0.82269100  0.71328700  0.02223900  1
  Cu  Cu44  1  0.23908000  0.40619500  0.34325600  1
  Cu  Cu45  1  0.73908000  0.59380500  0.15674400  1
  Cu  Cu46  1  0.73436900  0.22165700  0.65247200  1
  Cu  Cu47  1  0.76092000  0.59380500  0.65674400  1
  Cu  Cu48  1  0.76563100  0.22165700  0.15247200  1
  Cu  Cu49  1  0.23436900  0.77834300  0.84752800  1
  Cu  Cu50  1  0.26092000  0.40619500  0.84325600  1
  Cu  Cu51  1  0.26563100  0.77834300  0.34752800  1
