# generated using pymatgen
data_Cu2NiC20
_symmetry_space_group_name_H-M   'P 1'
_cell_length_a   10.13311332
_cell_length_b   10.13311332
_cell_length_c   11.67974300
_cell_angle_alpha   90.00000000
_cell_angle_beta   90.00000000
_cell_angle_gamma   111.47901343
_symmetry_Int_Tables_number   1
_chemical_formula_structural   Cu2NiC20
_chemical_formula_sum   'Cu8 Ni4 C80'
_cell_volume   1115.98823281
_cell_formula_units_Z   4
loop_
 _symmetry_equiv_pos_site_id
 _symmetry_equiv_pos_as_xyz
  1  'x, y, z'
loop_
 _atom_site_type_symbol
 _atom_site_label
 _atom_site_symmetry_multiplicity
 _atom_site_fract_x
 _atom_site_fract_y
 _atom_site_fract_z
 _atom_site_occupancy
  Ni  Ni0  1  0.85494800  0.85494800  0.37932300  1
  Ni  Ni1  1  0.35494800  0.35494800  0.12067700  1
  Ni  Ni2  1  0.64505200  0.64505200  0.87932300  1
  Ni  Ni3  1  0.14505200  0.14505200  0.62067700  1
  Cu  Cu4  1  0.05564700  0.43445400  0.12108000  1
  Cu  Cu5  1  0.55564700  0.93445400  0.37892000  1
  Cu  Cu6  1  0.06554600  0.44435300  0.62108000  1
  Cu  Cu7  1  0.93445400  0.55564700  0.37892000  1
  Cu  Cu8  1  0.56554600  0.94435300  0.87892000  1
  Cu  Cu9  1  0.94435300  0.56554600  0.87892000  1
  Cu  Cu10  1  0.44435300  0.06554600  0.62108000  1
  Cu  Cu11  1  0.43445400  0.05564700  0.12108000  1
  C  C12  1  0.73747900  0.26252100  0.00000000  1
  C  C13  1  0.24052400  0.01934500  0.35696500  1
  C  C14  1  0.74349000  0.24349000  0.25000000  1
  C  C15  1  0.75947600  0.98065500  0.64303500  1
  C  C16  1  0.50632900  0.72450200  0.61361400  1
  C  C17  1  0.25651000  0.75651000  0.75000000  1
  C  C18  1  0.48065500  0.25947600  0.85696500  1
  C  C19  1  0.75651000  0.25651000  0.75000000  1
  C  C20  1  0.51934500  0.74052400  0.14303500  1
  C  C21  1  0.77549800  0.99367100  0.11361400  1
  C  C22  1  0.76252100  0.23747900  0.50000000  1
  C  C23  1  0.25947600  0.48065500  0.85696500  1
  C  C24  1  0.99367100  0.77549800  0.11361400  1
  C  C25  1  0.27549800  0.49367100  0.38638600  1
  C  C26  1  0.49367100  0.27549800  0.38638600  1
  C  C27  1  0.98065500  0.75947600  0.64303500  1
  C  C28  1  0.22450200  0.00632900  0.88638600  1
  C  C29  1  0.23747900  0.76252100  0.50000000  1
  C  C30  1  0.01934500  0.24052400  0.35696500  1
  C  C31  1  0.72450200  0.50632900  0.61361400  1
  C  C32  1  0.00632900  0.22450200  0.88638600  1
  C  C33  1  0.24349000  0.74349000  0.25000000  1
  C  C34  1  0.74052400  0.51934500  0.14303500  1
  C  C35  1  0.26252100  0.73747900  0.00000000  1
  C  C36  1  0.87883300  0.34718200  0.37219000  1
  C  C37  1  0.59614500  0.59614500  0.12656600  1
  C  C38  1  0.36717300  0.63282700  0.50000000  1
  C  C39  1  0.62116700  0.15281800  0.87219000  1
  C  C40  1  0.85876200  0.63161300  0.74016200  1
  C  C41  1  0.13701800  0.36379700  0.97999400  1
  C  C42  1  0.36960900  0.63392500  0.74871900  1
  C  C43  1  0.12436600  0.64761800  0.12197300  1
  C  C44  1  0.59578700  0.59578700  0.63002500  1
  C  C45  1  0.85238200  0.37563400  0.62197300  1
  C  C46  1  0.90421300  0.90421300  0.13002500  1
  C  C47  1  0.36298200  0.13620300  0.47999400  1
  C  C48  1  0.86960900  0.13392500  0.75128100  1
  C  C49  1  0.13039100  0.86607500  0.24871900  1
  C  C50  1  0.36607500  0.63039100  0.25128100  1
  C  C51  1  0.63282700  0.36717300  0.50000000  1
  C  C52  1  0.36838700  0.14123800  0.25983800  1
  C  C53  1  0.86838700  0.64123800  0.24016200  1
  C  C54  1  0.63620300  0.86298200  0.02000600  1
  C  C55  1  0.12780100  0.87219900  0.50000000  1
  C  C56  1  0.64761800  0.12436600  0.12197300  1
  C  C57  1  0.37219900  0.62780100  0.00000000  1
  C  C58  1  0.12116700  0.65281800  0.62781000  1
  C  C59  1  0.15281800  0.62116700  0.87219000  1
  C  C60  1  0.13161300  0.35876200  0.75983800  1
  C  C61  1  0.63701800  0.86379700  0.52000600  1
  C  C62  1  0.37883300  0.84718200  0.12781000  1
  C  C63  1  0.86298200  0.63620300  0.02000600  1
  C  C64  1  0.84718200  0.37883300  0.12781000  1
  C  C65  1  0.13392500  0.86960900  0.75128100  1
  C  C66  1  0.13282700  0.86717300  0.00000000  1
  C  C67  1  0.40421300  0.40421300  0.36997500  1
  C  C68  1  0.09578700  0.09578700  0.86997500  1
  C  C69  1  0.36379700  0.13701800  0.97999400  1
  C  C70  1  0.35238200  0.87563400  0.87802700  1
  C  C71  1  0.62436600  0.14761800  0.37802700  1
  C  C72  1  0.63161300  0.85876200  0.74016200  1
  C  C73  1  0.63392500  0.36960900  0.74871900  1
  C  C74  1  0.65281800  0.12116700  0.62781000  1
  C  C75  1  0.87563400  0.35238200  0.87802700  1
  C  C76  1  0.87219900  0.12780100  0.50000000  1
  C  C77  1  0.62780100  0.37219900  0.00000000  1
  C  C78  1  0.13620300  0.36298200  0.47999400  1
  C  C79  1  0.37563400  0.85238200  0.62197300  1
  C  C80  1  0.64123800  0.86838700  0.24016200  1
  C  C81  1  0.40385500  0.40385500  0.87343400  1
  C  C82  1  0.09614500  0.09614500  0.37343400  1
  C  C83  1  0.86717300  0.13282700  0.00000000  1
  C  C84  1  0.63039100  0.36607500  0.25128100  1
  C  C85  1  0.90385500  0.90385500  0.62656600  1
  C  C86  1  0.14123800  0.36838700  0.25983800  1
  C  C87  1  0.86607500  0.13039100  0.24871900  1
  C  C88  1  0.34718200  0.87883300  0.37219000  1
  C  C89  1  0.86379700  0.63701800  0.52000600  1
  C  C90  1  0.35876200  0.13161300  0.75983800  1
  C  C91  1  0.14761800  0.62436600  0.37802700  1
