# generated using pymatgen
data_Cu2NiC8
_symmetry_space_group_name_H-M   'P 1'
_cell_length_a   7.55692300
_cell_length_b   10.54744600
_cell_length_c   10.66211700
_cell_angle_alpha   90.00000000
_cell_angle_beta   90.00000000
_cell_angle_gamma   90.00000000
_symmetry_Int_Tables_number   1
_chemical_formula_structural   Cu2NiC8
_chemical_formula_sum   'Cu12 Ni6 C48'
_cell_volume   849.83722739
_cell_formula_units_Z   6
loop_
 _symmetry_equiv_pos_site_id
 _symmetry_equiv_pos_as_xyz
  1  'x, y, z'
loop_
 _atom_site_type_symbol
 _atom_site_label
 _atom_site_symmetry_multiplicity
 _atom_site_fract_x
 _atom_site_fract_y
 _atom_site_fract_z
 _atom_site_occupancy
  C  C0  1  0.23320000  0.25566600  0.50812900  1
  C  C1  1  0.49494600  0.00000000  0.49089700  1
  C  C2  1  0.27224600  0.00000000  0.72652500  1
  C  C3  1  0.76680000  0.75566600  0.00812900  1
  C  C4  1  0.28273900  0.27446100  0.98093200  1
  C  C5  1  0.28273900  0.72553900  0.98093200  1
  C  C6  1  0.76680000  0.24433400  0.00812900  1
  C  C7  1  0.23320000  0.74433400  0.50812900  1
  C  C8  1  0.71726100  0.22553900  0.48093200  1
  C  C9  1  0.72775400  0.50000000  0.22652500  1
  C  C10  1  0.71726100  0.77446100  0.48093200  1
  C  C11  1  0.50505400  0.50000000  0.99089700  1
  Ni  Ni12  1  0.98213700  0.50000000  0.49737400  1
  Ni  Ni13  1  0.73489800  0.50000000  0.75427800  1
  Ni  Ni14  1  0.74933600  0.00000000  0.24704400  1
  Ni  Ni15  1  0.25066400  0.50000000  0.74704400  1
  Ni  Ni16  1  0.01786300  0.00000000  0.99737400  1
  Ni  Ni17  1  0.26510200  0.00000000  0.25427800  1
  Cu  Cu18  1  0.03191200  0.72176000  0.24070800  1
  Cu  Cu19  1  0.50083800  0.50000000  0.46426200  1
  Cu  Cu20  1  0.96808800  0.77824000  0.74070800  1
  Cu  Cu21  1  0.99794000  0.00000000  0.52822100  1
  Cu  Cu22  1  0.96808800  0.22176000  0.74070800  1
  Cu  Cu23  1  0.46595200  0.72195500  0.25542400  1
  Cu  Cu24  1  0.49916200  0.00000000  0.96426200  1
  Cu  Cu25  1  0.00206000  0.50000000  0.02822100  1
  Cu  Cu26  1  0.53404800  0.22195500  0.75542400  1
  Cu  Cu27  1  0.03191200  0.27824000  0.24070800  1
  Cu  Cu28  1  0.46595200  0.27804500  0.25542400  1
  Cu  Cu29  1  0.53404800  0.77804500  0.75542400  1
  C  C30  1  0.01965700  0.36302000  0.68885900  1
  C  C31  1  0.24734600  0.28235300  0.26060000  1
  C  C32  1  0.98034300  0.13698000  0.18885900  1
  C  C33  1  0.47921500  0.63683400  0.80303900  1
  C  C34  1  0.80801600  0.00000000  0.46058800  1
  C  C35  1  0.75265400  0.21764700  0.76060000  1
  C  C36  1  0.32299400  0.00000000  0.05373400  1
  C  C37  1  0.98125800  0.37515200  0.12309400  1
  C  C38  1  0.67700600  0.50000000  0.55373400  1
  C  C39  1  0.24734600  0.71764700  0.26060000  1
  C  C40  1  0.46040000  0.17139200  0.62394400  1
  C  C41  1  0.53960000  0.67139200  0.12394400  1
  C  C42  1  0.52823300  0.62492600  0.37175900  1
  C  C43  1  0.17990900  0.00000000  0.44782900  1
  C  C44  1  0.46040000  0.82860800  0.62394400  1
  C  C45  1  0.47176700  0.87507400  0.87175900  1
  C  C46  1  0.19198400  0.50000000  0.96058800  1
  C  C47  1  0.52078500  0.86316600  0.30303900  1
  C  C48  1  0.05747800  0.17247500  0.87011300  1
  C  C49  1  0.69481300  0.00000000  0.02804800  1
  C  C50  1  0.01965700  0.63698000  0.68885900  1
  C  C51  1  0.01874200  0.87515200  0.62309400  1
  C  C52  1  0.98034300  0.86302000  0.18885900  1
  C  C53  1  0.98125800  0.62484800  0.12309400  1
  C  C54  1  0.53960000  0.32860800  0.12394400  1
  C  C55  1  0.94252200  0.67247500  0.37011300  1
  C  C56  1  0.75265400  0.78235300  0.76060000  1
  C  C57  1  0.52078500  0.13683400  0.30303900  1
  C  C58  1  0.47921500  0.36316600  0.80303900  1
  C  C59  1  0.47176700  0.12492600  0.87175900  1
  C  C60  1  0.01874200  0.12484800  0.62309400  1
  C  C61  1  0.82009100  0.50000000  0.94782900  1
  C  C62  1  0.52823300  0.37507400  0.37175900  1
  C  C63  1  0.05747800  0.82752500  0.87011300  1
  C  C64  1  0.30518700  0.50000000  0.52804800  1
  C  C65  1  0.94252200  0.32752500  0.37011300  1
