# generated using pymatgen
data_CuNiC6
_symmetry_space_group_name_H-M   'P 1'
_cell_length_a   6.63629600
_cell_length_b   10.90101100
_cell_length_c   13.37912800
_cell_angle_alpha   90.00000000
_cell_angle_beta   90.00000000
_cell_angle_gamma   90.00000000
_symmetry_Int_Tables_number   1
_chemical_formula_structural   CuNiC6
_chemical_formula_sum   'Cu8 Ni8 C48'
_cell_volume   967.87736909
_cell_formula_units_Z   8
loop_
 _symmetry_equiv_pos_site_id
 _symmetry_equiv_pos_as_xyz
  1  'x, y, z'
loop_
 _atom_site_type_symbol
 _atom_site_label
 _atom_site_symmetry_multiplicity
 _atom_site_fract_x
 _atom_site_fract_y
 _atom_site_fract_z
 _atom_site_occupancy
  C  C0  1  0.30618900  0.43995700  0.89080300  1
  C  C1  1  0.22405000  0.19943600  0.62533700  1
  C  C2  1  0.19381100  0.43995700  0.39080300  1
  C  C3  1  0.69381100  0.93995700  0.10919700  1
  C  C4  1  0.77595000  0.69943600  0.37466300  1
  C  C5  1  0.80618900  0.93995700  0.60919700  1
  C  C6  1  0.72405000  0.69943600  0.87466300  1
  C  C7  1  0.27595000  0.19943600  0.12533700  1
  Ni  Ni8  1  0.74512900  0.25046600  0.75157300  1
  Ni  Ni9  1  0.75487100  0.25046600  0.25157300  1
  Ni  Ni10  1  0.99771700  0.50150500  0.12755400  1
  Ni  Ni11  1  0.49771700  0.00150500  0.37244600  1
  Ni  Ni12  1  0.00228300  0.00150500  0.87244600  1
  Ni  Ni13  1  0.50228300  0.50150500  0.62755400  1
  Ni  Ni14  1  0.25487100  0.75046600  0.24842700  1
  Ni  Ni15  1  0.24512900  0.75046600  0.74842700  1
  Cu  Cu16  1  0.34166400  0.75171900  0.50123100  1
  Cu  Cu17  1  0.49849700  0.99856200  0.82432000  1
  Cu  Cu18  1  0.15833600  0.75171900  0.00123100  1
  Cu  Cu19  1  0.50150300  0.49856200  0.17568000  1
  Cu  Cu20  1  0.99849700  0.49856200  0.67568000  1
  Cu  Cu21  1  0.00150300  0.99856200  0.32432000  1
  Cu  Cu22  1  0.65833600  0.25171900  0.49876900  1
  Cu  Cu23  1  0.84166400  0.25171900  0.99876900  1
  C  C24  1  0.79404100  0.22954300  0.59134200  1
  C  C25  1  0.03427100  0.62576900  0.23693400  1
  C  C26  1  0.47155200  0.88483300  0.75536900  1
  C  C27  1  0.70595900  0.22954300  0.09134200  1
  C  C28  1  0.01395200  0.86395100  0.77145600  1
  C  C29  1  0.20595900  0.72954300  0.40865800  1
  C  C30  1  0.68241600  0.97608500  0.89426000  1
  C  C31  1  0.48739800  0.86325200  0.48695600  1
  C  C32  1  0.46572900  0.62576900  0.73693400  1
  C  C33  1  0.18241600  0.47608500  0.60574000  1
  C  C34  1  0.01260200  0.86325200  0.98695600  1
  C  C35  1  0.81758400  0.97608500  0.39426000  1
  C  C36  1  0.52054500  0.13602600  0.48547000  1
  C  C37  1  0.53427100  0.12576900  0.26306600  1
  C  C38  1  0.96942900  0.10740300  0.25132200  1
  C  C39  1  0.51395200  0.36395100  0.72854400  1
  C  C40  1  0.29404100  0.72954300  0.90865800  1
  C  C41  1  0.03057100  0.60740300  0.74867800  1
  C  C42  1  0.20210500  0.77413800  0.59205700  1
  C  C43  1  0.02844800  0.88483300  0.25536900  1
  C  C44  1  0.31758400  0.47608500  0.10574000  1
  C  C45  1  0.31500500  0.02235700  0.89320800  1
  C  C46  1  0.70210500  0.27413800  0.90794300  1
  C  C47  1  0.96572900  0.12576900  0.76306600  1
  C  C48  1  0.53057100  0.10740300  0.75132200  1
  C  C49  1  0.98739800  0.36325200  0.01304400  1
  C  C50  1  0.02054500  0.63602600  0.01453000  1
  C  C51  1  0.18499500  0.02235700  0.39320800  1
  C  C52  1  0.98604800  0.36395100  0.22854400  1
  C  C53  1  0.68499500  0.52235700  0.10679200  1
  C  C54  1  0.79789500  0.27413800  0.40794300  1
  C  C55  1  0.97945500  0.13602600  0.98547000  1
  C  C56  1  0.46942900  0.60740300  0.24867800  1
  C  C57  1  0.97155200  0.38483300  0.74463100  1
  C  C58  1  0.81500500  0.52235700  0.60679200  1
  C  C59  1  0.52844800  0.38483300  0.24463100  1
  C  C60  1  0.47945500  0.63602600  0.51453000  1
  C  C61  1  0.29789500  0.77413800  0.09205700  1
  C  C62  1  0.51260200  0.36325200  0.51304400  1
  C  C63  1  0.48604800  0.86395100  0.27145600  1
