# generated using pymatgen
data_Cu3NiC
_symmetry_space_group_name_H-M   'P 1'
_cell_length_a   6.55326200
_cell_length_b   8.68716100
_cell_length_c   9.83339400
_cell_angle_alpha   90.00000000
_cell_angle_beta   90.00000000
_cell_angle_gamma   90.00000000
_symmetry_Int_Tables_number   1
_chemical_formula_structural   Cu3NiC
_chemical_formula_sum   'Cu24 Ni8 C8'
_cell_volume   559.80766739
_cell_formula_units_Z   8
loop_
 _symmetry_equiv_pos_site_id
 _symmetry_equiv_pos_as_xyz
  1  'x, y, z'
loop_
 _atom_site_type_symbol
 _atom_site_label
 _atom_site_symmetry_multiplicity
 _atom_site_fract_x
 _atom_site_fract_y
 _atom_site_fract_z
 _atom_site_occupancy
  C  C0  1  0.46619400  0.69262000  0.24134700  1
  C  C1  1  0.46619400  0.69262000  0.75865300  1
  C  C2  1  0.53380600  0.19262000  0.25865300  1
  C  C3  1  0.53380600  0.19262000  0.74134700  1
  C  C4  1  0.96760300  0.95186400  0.00000000  1
  C  C5  1  0.03399900  0.45411100  0.00000000  1
  C  C6  1  0.03239700  0.45186400  0.50000000  1
  C  C7  1  0.96600100  0.95411100  0.50000000  1
  Ni  Ni8  1  0.96706100  0.75965800  0.75020900  1
  Ni  Ni9  1  0.03293900  0.25965800  0.74979100  1
  Ni  Ni10  1  0.47522900  0.44386600  0.50000000  1
  Ni  Ni11  1  0.03293900  0.25965800  0.25020900  1
  Ni  Ni12  1  0.40904100  0.95645600  0.50000000  1
  Ni  Ni13  1  0.96706100  0.75965800  0.24979100  1
  Ni  Ni14  1  0.59095900  0.45645600  0.00000000  1
  Ni  Ni15  1  0.52477100  0.94386600  0.00000000  1
  Cu  Cu16  1  0.39426600  0.46780800  0.00000000  1
  Cu  Cu17  1  0.36903000  0.31691800  0.50000000  1
  Cu  Cu18  1  0.32843800  0.94024400  0.00000000  1
  Cu  Cu19  1  0.02503600  0.19349900  0.13309600  1
  Cu  Cu20  1  0.03802100  0.70141600  0.86176800  1
  Cu  Cu21  1  0.88929800  0.89820700  0.75439600  1
  Cu  Cu22  1  0.97496400  0.69349900  0.36690400  1
  Cu  Cu23  1  0.60573400  0.96780800  0.50000000  1
  Cu  Cu24  1  0.69302300  0.45190500  0.88624600  1
  Cu  Cu25  1  0.11070200  0.39820700  0.74560400  1
  Cu  Cu26  1  0.96197900  0.20141600  0.63823200  1
  Cu  Cu27  1  0.63097000  0.81691800  0.00000000  1
  Cu  Cu28  1  0.11070200  0.39820700  0.25439600  1
  Cu  Cu29  1  0.96197900  0.20141600  0.36176800  1
  Cu  Cu30  1  0.62413400  0.07432300  0.00000000  1
  Cu  Cu31  1  0.88929800  0.89820700  0.24560400  1
  Cu  Cu32  1  0.69302300  0.45190500  0.11375400  1
  Cu  Cu33  1  0.97496400  0.69349900  0.63309600  1
  Cu  Cu34  1  0.37586600  0.57432300  0.50000000  1
  Cu  Cu35  1  0.30697700  0.95190500  0.38624600  1
  Cu  Cu36  1  0.03802100  0.70141600  0.13823200  1
  Cu  Cu37  1  0.02503600  0.19349900  0.86690400  1
  Cu  Cu38  1  0.30697700  0.95190500  0.61375400  1
  Cu  Cu39  1  0.67156200  0.44024400  0.50000000  1
