# generated using pymatgen
data_CuNiC9
_symmetry_space_group_name_H-M   'P 1'
_cell_length_a   7.34864904
_cell_length_b   7.34864904
_cell_length_c   7.34864904
_cell_angle_alpha   121.05039089
_cell_angle_beta   118.43093750
_cell_angle_gamma   90.46462465
_symmetry_Int_Tables_number   1
_chemical_formula_structural   CuNiC9
_chemical_formula_sum   'Cu2 Ni2 C18'
_cell_volume   281.52056331
_cell_formula_units_Z   2
loop_
 _symmetry_equiv_pos_site_id
 _symmetry_equiv_pos_as_xyz
  1  'x, y, z'
loop_
 _atom_site_type_symbol
 _atom_site_label
 _atom_site_symmetry_multiplicity
 _atom_site_fract_x
 _atom_site_fract_y
 _atom_site_fract_z
 _atom_site_occupancy
  C  C0  1  0.00000000  0.00000000  0.50000000  1
  C  C1  1  0.00000000  0.00000000  0.00000000  1
  C  C2  1  0.00000000  0.50000000  0.00000000  1
  C  C3  1  0.50000000  0.50000000  0.00000000  1
  Ni  Ni4  1  0.00000000  0.50000000  0.50000000  1
  Ni  Ni5  1  0.50000000  0.00000000  0.50000000  1
  Cu  Cu6  1  0.50000000  0.50000000  0.50000000  1
  Cu  Cu7  1  0.50000000  0.00000000  0.00000000  1
  C  C8  1  0.39086000  0.25000000  0.14086000  1
  C  C9  1  0.13874200  0.41127800  0.72746400  1
  C  C10  1  0.17856400  0.41855600  0.36678100  1
  C  C11  1  0.55177500  0.31178300  0.63321900  1
  C  C12  1  0.81618700  0.08872200  0.72746400  1
  C  C13  1  0.44822500  0.08144400  0.76000800  1
  C  C14  1  0.17856400  0.81178300  0.76000800  1
  C  C15  1  0.55177500  0.91855600  0.23999200  1
  C  C16  1  0.60914000  0.75000000  0.85914000  1
  C  C17  1  0.82143600  0.18821700  0.23999200  1
  C  C18  1  0.86125800  0.58872200  0.27253600  1
  C  C19  1  0.82143600  0.58144400  0.63321900  1
  C  C20  1  0.44822500  0.68821700  0.36678100  1
  C  C21  1  0.18381300  0.91127800  0.27253600  1
