# generated using pymatgen
data_Cu(NiC6)4
_symmetry_space_group_name_H-M   'P 1'
_cell_length_a   11.11935260
_cell_length_b   11.11935260
_cell_length_c   8.77731400
_cell_angle_alpha   90.00000000
_cell_angle_beta   90.00000000
_cell_angle_gamma   120.00000358
_symmetry_Int_Tables_number   1
_chemical_formula_structural   Cu(NiC6)4
_chemical_formula_sum   'Cu2 Ni8 C48'
_cell_volume   939.83422343
_cell_formula_units_Z   2
loop_
 _symmetry_equiv_pos_site_id
 _symmetry_equiv_pos_as_xyz
  1  'x, y, z'
loop_
 _atom_site_type_symbol
 _atom_site_label
 _atom_site_symmetry_multiplicity
 _atom_site_fract_x
 _atom_site_fract_y
 _atom_site_fract_z
 _atom_site_occupancy
  C  C0  1  0.86646700  0.35237800  0.67909100  1
  C  C1  1  0.86646700  0.51408900  0.67909100  1
  C  C2  1  0.72049400  0.27950600  0.90679500  1
  C  C3  1  0.40576600  0.81153200  0.48752000  1
  C  C4  1  0.64762200  0.51408900  0.67909100  1
  C  C5  1  0.40576600  0.59423400  0.48752000  1
  C  C6  1  0.72049400  0.44098800  0.90679500  1
  C  C7  1  0.59423400  0.40576600  0.51248000  1
  C  C8  1  0.35237800  0.86646700  0.32090900  1
  C  C9  1  0.51408900  0.86646700  0.32090900  1
  C  C10  1  0.55901200  0.27950600  0.90679500  1
  C  C11  1  0.13353300  0.48591100  0.32090900  1
  C  C12  1  0.48591100  0.35237800  0.67909100  1
  C  C13  1  0.18846800  0.59423400  0.48752000  1
  C  C14  1  0.27950600  0.72049400  0.09320500  1
  C  C15  1  0.13353300  0.64762200  0.32090900  1
  C  C16  1  0.44098800  0.72049400  0.09320500  1
  C  C17  1  0.59423400  0.18846800  0.51248000  1
  C  C18  1  0.35237800  0.48591100  0.32090900  1
  C  C19  1  0.81153200  0.40576600  0.51248000  1
  C  C20  1  0.64762200  0.13353300  0.67909100  1
  C  C21  1  0.51408900  0.64762200  0.32090900  1
  C  C22  1  0.27950600  0.55901200  0.09320500  1
  C  C23  1  0.48591100  0.13353300  0.67909100  1
  C  C24  1  0.91137000  0.08863000  0.13109300  1
  C  C25  1  0.91137000  0.82274100  0.13109300  1
  C  C26  1  0.17725900  0.08863000  0.13109300  1
  C  C27  1  0.08863000  0.17725900  0.86890700  1
  C  C28  1  0.08863000  0.91137000  0.86890700  1
  C  C29  1  0.82274100  0.91137000  0.86890700  1
  Ni  Ni30  1  0.40690900  0.81381800  0.36269900  1
  Ni  Ni31  1  0.40690900  0.59309100  0.36269900  1
  Ni  Ni32  1  0.33333300  0.66666700  0.13349800  1
  Ni  Ni33  1  0.81381800  0.40690900  0.63730100  1
  Ni  Ni34  1  0.18618200  0.59309100  0.36269900  1
  Ni  Ni35  1  0.59309100  0.18618200  0.63730100  1
  Ni  Ni36  1  0.66666700  0.33333300  0.86650200  1
  Ni  Ni37  1  0.59309100  0.40690900  0.63730100  1
  Cu  Cu38  1  0.66666700  0.33333300  0.69499100  1
  Cu  Cu39  1  0.33333300  0.66666700  0.30500900  1
  C  C40  1  0.61569400  0.80784700  0.70551500  1
  C  C41  1  0.69086900  0.00000000  0.00000000  1
  C  C42  1  0.19215300  0.38430600  0.70551500  1
  C  C43  1  0.00000000  0.69086900  0.00000000  1
  C  C44  1  0.79837300  0.89918600  0.30823200  1
  C  C45  1  0.80784700  0.61569400  0.29448500  1
  C  C46  1  0.80784700  0.19215300  0.29448500  1
  C  C47  1  0.38430600  0.19215300  0.29448500  1
  C  C48  1  0.19215300  0.80784700  0.70551500  1
  C  C49  1  0.89918600  0.79837300  0.69176800  1
  C  C50  1  0.10081400  0.89918600  0.30823200  1
  C  C51  1  0.00000000  0.30913100  0.00000000  1
  C  C52  1  0.69086900  0.69086900  0.00000000  1
  C  C53  1  0.20162700  0.10081400  0.69176800  1
  C  C54  1  0.10081400  0.20162700  0.30823200  1
  C  C55  1  0.30913100  0.00000000  0.00000000  1
  C  C56  1  0.30913100  0.30913100  0.00000000  1
  C  C57  1  0.89918600  0.10081400  0.69176800  1
