# generated using pymatgen
data_Cu4NiC17
_symmetry_space_group_name_H-M   'P 1'
_cell_length_a   21.11519300
_cell_length_b   4.67997300
_cell_length_c   11.14139633
_cell_angle_alpha   89.61058367
_cell_angle_beta   90.00000000
_cell_angle_gamma   90.00000000
_symmetry_Int_Tables_number   1
_chemical_formula_structural   Cu4NiC17
_chemical_formula_sum   'Cu16 Ni4 C68'
_cell_volume   1100.95101338
_cell_formula_units_Z   4
loop_
 _symmetry_equiv_pos_site_id
 _symmetry_equiv_pos_as_xyz
  1  'x, y, z'
loop_
 _atom_site_type_symbol
 _atom_site_label
 _atom_site_symmetry_multiplicity
 _atom_site_fract_x
 _atom_site_fract_y
 _atom_site_fract_z
 _atom_site_occupancy
  C  C0  1  0.97482700  0.21885300  0.58437100  1
  C  C1  1  0.47482700  0.78114700  0.91562900  1
  C  C2  1  0.52517300  0.21885300  0.08437000  1
  C  C3  1  0.29033200  0.77774100  0.47504000  1
  C  C4  1  0.70966800  0.22225900  0.52496000  1
  C  C5  1  0.02517300  0.78114700  0.41562900  1
  C  C6  1  0.79033200  0.22225900  0.02496000  1
  C  C7  1  0.20966800  0.77774100  0.97504000  1
  C  C8  1  0.17734800  0.77560300  0.27448700  1
  C  C9  1  0.32265200  0.77560300  0.77448700  1
  C  C10  1  0.82265200  0.22439700  0.72551300  1
  C  C11  1  0.67734800  0.22439700  0.22551300  1
  Ni  Ni12  1  0.60605100  0.79850300  0.63733600  1
  Ni  Ni13  1  0.39394900  0.20149700  0.36266400  1
  Ni  Ni14  1  0.89394900  0.79850300  0.13733600  1
  Ni  Ni15  1  0.10605100  0.20149700  0.86266400  1
  Cu  Cu16  1  0.14556300  0.25866400  0.46570300  1
  Cu  Cu17  1  0.64556300  0.74133600  0.03429700  1
  Cu  Cu18  1  0.85443700  0.74133600  0.53429700  1
  Cu  Cu19  1  0.72116800  0.72693600  0.78430100  1
  Cu  Cu20  1  0.60696100  0.73708100  0.37501800  1
  Cu  Cu21  1  0.35443700  0.25866400  0.96570300  1
  Cu  Cu22  1  0.39303900  0.26291900  0.62498200  1
  Cu  Cu23  1  0.10696100  0.26291900  0.12498200  1
  Cu  Cu24  1  0.77883200  0.72693600  0.28430100  1
  Cu  Cu25  1  0.89303900  0.73708100  0.87501800  1
  Cu  Cu26  1  0.27883200  0.27306400  0.21569900  1
  Cu  Cu27  1  0.22116800  0.27306400  0.71569900  1
  Cu  Cu28  1  0.53552600  0.29773600  0.70826000  1
  Cu  Cu29  1  0.03552600  0.70226400  0.79174000  1
  Cu  Cu30  1  0.46447400  0.70226400  0.29174000  1
  Cu  Cu31  1  0.96447400  0.29773600  0.20826000  1
  C  C32  1  0.34017100  0.09758400  0.28836400  1
  C  C33  1  0.10449800  0.00970600  0.23472500  1
  C  C34  1  0.22773500  0.01494200  0.16838300  1
  C  C35  1  0.69943400  0.97647500  0.09650100  1
  C  C36  1  0.41783400  0.11004600  0.02769800  1
  C  C37  1  0.52878900  0.60160100  0.38907000  1
  C  C38  1  0.74780000  0.45347700  0.69820900  1
  C  C39  1  0.77226500  0.98505800  0.83161700  1
  C  C40  1  0.01727400  0.64438800  0.65014200  1
  C  C41  1  0.19297400  0.43667400  0.58200900  1
  C  C42  1  0.15982900  0.09758400  0.78836400  1
  C  C43  1  0.59805000  0.48432900  0.64120200  1
  C  C44  1  0.39550200  0.00970600  0.73472500  1
  C  C45  1  0.65982900  0.90241600  0.71163600  1
  C  C46  1  0.91783400  0.88995400  0.47230200  1
  C  C47  1  0.47121100  0.39839900  0.61093000  1
  C  C48  1  0.15713000  0.54585400  0.13575500  1
  C  C49  1  0.84287000  0.45414600  0.86424500  1
  C  C50  1  0.25220000  0.54652300  0.30179100  1
  C  C51  1  0.08216600  0.11004600  0.52769800  1
  C  C52  1  0.72773500  0.98505800  0.33161700  1
  C  C53  1  0.75220000  0.45347700  0.19820900  1
  C  C54  1  0.12308000  0.10703800  0.98744200  1
  C  C55  1  0.87233400  0.45366500  0.62443900  1
  C  C56  1  0.84017100  0.90241600  0.21163600  1
  C  C57  1  0.30056600  0.02352500  0.90349900  1
  C  C58  1  0.69297400  0.56332600  0.91799100  1
  C  C59  1  0.19943400  0.02352500  0.40349900  1
  C  C60  1  0.24780000  0.54652300  0.80179100  1
  C  C61  1  0.98272600  0.35561200  0.34985800  1
  C  C62  1  0.62308000  0.89296200  0.51255800  1
  C  C63  1  0.65713000  0.45414600  0.36424500  1
  C  C64  1  0.37233400  0.54633500  0.87556100  1
  C  C65  1  0.51727400  0.35561200  0.84985800  1
  C  C66  1  0.34287000  0.54585400  0.63575500  1
  C  C67  1  0.58216600  0.88995400  0.97230200  1
  C  C68  1  0.48272600  0.64438800  0.15014200  1
  C  C69  1  0.40195000  0.51567100  0.35879800  1
  C  C70  1  0.80702600  0.56332600  0.41799100  1
  C  C71  1  0.45283000  0.06200000  0.32282800  1
  C  C72  1  0.09805000  0.51567100  0.85879800  1
  C  C73  1  0.12766600  0.54633500  0.37556100  1
  C  C74  1  0.90195000  0.48432900  0.14120200  1
  C  C75  1  0.89550200  0.99029400  0.76527500  1
  C  C76  1  0.30702600  0.43667400  0.08200900  1
  C  C77  1  0.97121100  0.60160100  0.88907000  1
  C  C78  1  0.04717000  0.06200000  0.82282800  1
  C  C79  1  0.54717000  0.93800000  0.67717200  1
  C  C80  1  0.02878900  0.39839900  0.11093000  1
  C  C81  1  0.62766600  0.45366500  0.12443900  1
  C  C82  1  0.37692000  0.10703800  0.48744200  1
  C  C83  1  0.87692000  0.89296200  0.01255800  1
  C  C84  1  0.27226500  0.01494200  0.66838300  1
  C  C85  1  0.80056600  0.97647500  0.59650100  1
  C  C86  1  0.95283000  0.93800000  0.17717200  1
  C  C87  1  0.60449800  0.99029400  0.26527500  1
