# generated using pymatgen
data_Cu2NiC9
_symmetry_space_group_name_H-M   'P 1'
_cell_length_a   5.48559900
_cell_length_b   8.31916200
_cell_length_c   8.31916200
_cell_angle_alpha   90.00000000
_cell_angle_beta   90.00000000
_cell_angle_gamma   90.00000000
_symmetry_Int_Tables_number   1
_chemical_formula_structural   Cu2NiC9
_chemical_formula_sum   'Cu4 Ni2 C18'
_cell_volume   379.64983912
_cell_formula_units_Z   2
loop_
 _symmetry_equiv_pos_site_id
 _symmetry_equiv_pos_as_xyz
  1  'x, y, z'
loop_
 _atom_site_type_symbol
 _atom_site_label
 _atom_site_symmetry_multiplicity
 _atom_site_fract_x
 _atom_site_fract_y
 _atom_site_fract_z
 _atom_site_occupancy
  C  C0  1  0.00933700  0.33417800  0.16582200  1
  C  C1  1  0.99066300  0.16582200  0.66582200  1
  C  C2  1  0.99066300  0.83417800  0.33417800  1
  C  C3  1  0.00933700  0.66582200  0.83417800  1
  Ni  Ni4  1  0.50000000  0.50000000  0.50000000  1
  Ni  Ni5  1  0.50000000  0.00000000  0.00000000  1
  Cu  Cu6  1  0.54139900  0.63628000  0.13628000  1
  Cu  Cu7  1  0.45860100  0.13628000  0.36372000  1
  Cu  Cu8  1  0.45860100  0.86372000  0.63628000  1
  Cu  Cu9  1  0.54139900  0.36372000  0.86372000  1
  C  C10  1  0.63894500  0.50000000  0.00000000  1
  C  C11  1  0.36105500  0.00000000  0.50000000  1
  C  C12  1  0.24641900  0.63907400  0.13907400  1
  C  C13  1  0.75358200  0.13907400  0.36092600  1
  C  C14  1  0.75358200  0.86092600  0.63907400  1
  C  C15  1  0.24641900  0.36092600  0.86092600  1
  C  C16  1  0.67681400  0.80421700  0.07813000  1
  C  C17  1  0.32318600  0.07813000  0.19578300  1
  C  C18  1  0.32318600  0.92187000  0.80421700  1
  C  C19  1  0.67681400  0.19578300  0.92187000  1
  C  C20  1  0.32318600  0.30421700  0.42187000  1
  C  C21  1  0.32318600  0.69578300  0.57813000  1
  C  C22  1  0.67681400  0.42187000  0.69578300  1
  C  C23  1  0.67681400  0.57813000  0.30421700  1
