# generated using pymatgen
data_CuNiC5
_symmetry_space_group_name_H-M   'P 1'
_cell_length_a   5.91758100
_cell_length_b   7.19355000
_cell_length_c   10.02194400
_cell_angle_alpha   90.00000000
_cell_angle_beta   90.00000000
_cell_angle_gamma   90.00000000
_symmetry_Int_Tables_number   1
_chemical_formula_structural   CuNiC5
_chemical_formula_sum   'Cu4 Ni4 C20'
_cell_volume   426.61826932
_cell_formula_units_Z   4
loop_
 _symmetry_equiv_pos_site_id
 _symmetry_equiv_pos_as_xyz
  1  'x, y, z'
loop_
 _atom_site_type_symbol
 _atom_site_label
 _atom_site_symmetry_multiplicity
 _atom_site_fract_x
 _atom_site_fract_y
 _atom_site_fract_z
 _atom_site_occupancy
  Ni  Ni0  1  0.50643000  0.42294300  0.07840600  1
  Ni  Ni1  1  0.00643000  0.07705700  0.92159400  1
  Ni  Ni2  1  0.49357000  0.92294300  0.42159400  1
  Ni  Ni3  1  0.99357000  0.57705700  0.57840600  1
  Cu  Cu4  1  0.51164900  0.25299400  0.70121300  1
  Cu  Cu5  1  0.01164900  0.24700600  0.29878700  1
  Cu  Cu6  1  0.48835100  0.75299400  0.79878700  1
  Cu  Cu7  1  0.98835100  0.74700600  0.20121300  1
  C  C8  1  0.48644500  0.46650200  0.41694600  1
  C  C9  1  0.98644500  0.03349800  0.58305400  1
  C  C10  1  0.51355500  0.96650200  0.08305400  1
  C  C11  1  0.01355500  0.53349800  0.91694600  1
  C  C12  1  0.50130300  0.60024600  0.57764800  1
  C  C13  1  0.00130300  0.89975400  0.42235200  1
  C  C14  1  0.49869700  0.10024600  0.92235200  1
  C  C15  1  0.99869700  0.39975400  0.07764800  1
  C  C16  1  0.25738700  0.55427400  0.30133500  1
  C  C17  1  0.75738700  0.94572600  0.69866500  1
  C  C18  1  0.74261300  0.05427400  0.19866500  1
  C  C19  1  0.24261300  0.44572600  0.80133500  1
  C  C20  1  0.33159900  0.25265300  0.47117400  1
  C  C21  1  0.83159900  0.24734700  0.52882600  1
  C  C22  1  0.66840100  0.75265300  0.02882600  1
  C  C23  1  0.16840100  0.74734700  0.97117400  1
  C  C24  1  0.74757200  0.51231500  0.31734200  1
  C  C25  1  0.24757200  0.98768500  0.68265800  1
  C  C26  1  0.25242800  0.01231500  0.18265800  1
  C  C27  1  0.75242800  0.48768500  0.81734200  1
