# generated using pymatgen
data_Cu2NiC24
_symmetry_space_group_name_H-M   'P 1'
_cell_length_a   17.62250200
_cell_length_b   6.82481700
_cell_length_c   12.29134463
_cell_angle_alpha   82.84298460
_cell_angle_beta   90.00000000
_cell_angle_gamma   90.00000000
_symmetry_Int_Tables_number   1
_chemical_formula_structural   Cu2NiC24
_chemical_formula_sum   'Cu8 Ni4 C96'
_cell_volume   1466.76620900
_cell_formula_units_Z   4
loop_
 _symmetry_equiv_pos_site_id
 _symmetry_equiv_pos_as_xyz
  1  'x, y, z'
loop_
 _atom_site_type_symbol
 _atom_site_label
 _atom_site_symmetry_multiplicity
 _atom_site_fract_x
 _atom_site_fract_y
 _atom_site_fract_z
 _atom_site_occupancy
  C  C0  1  0.72430600  0.02433800  0.17994900  1
  C  C1  1  0.86506400  0.78946000  0.43193400  1
  C  C2  1  0.22544700  0.68731800  0.59468400  1
  C  C3  1  0.36506400  0.71054000  0.06806600  1
  C  C4  1  0.01884300  0.51303800  0.28878900  1
  C  C5  1  0.34653500  0.23957400  0.57403900  1
  C  C6  1  0.10560600  0.00876200  0.30172400  1
  C  C7  1  0.84653500  0.26042600  0.92596100  1
  C  C8  1  0.22430600  0.47566200  0.32005100  1
  C  C9  1  0.44561200  0.77555900  0.50693700  1
  C  C10  1  0.51884300  0.98696200  0.21121100  1
  C  C11  1  0.72544700  0.81268200  0.90531600  1
  C  C12  1  0.77455300  0.31268200  0.40531600  1
  C  C13  1  0.48115700  0.01303800  0.78878900  1
  C  C14  1  0.65346500  0.76042600  0.42596100  1
  C  C15  1  0.15346500  0.73957400  0.07403900  1
  C  C16  1  0.13493600  0.21054000  0.56806600  1
  C  C17  1  0.98115700  0.48696200  0.71121100  1
  C  C18  1  0.55438800  0.22444100  0.49306300  1
  C  C19  1  0.63493600  0.28946000  0.93193400  1
  C  C20  1  0.27455300  0.18731800  0.09468400  1
  C  C21  1  0.60560600  0.49123800  0.19827600  1
  C  C22  1  0.39439400  0.50876200  0.80172400  1
  C  C23  1  0.89439400  0.99123800  0.69827600  1
  C  C24  1  0.05438800  0.27555900  0.00693700  1
  C  C25  1  0.94561200  0.72444100  0.99306300  1
  C  C26  1  0.27569400  0.97566200  0.82005100  1
  C  C27  1  0.77569400  0.52433800  0.67994900  1
  Ni  Ni28  1  0.93226000  0.24837800  0.50072400  1
  Ni  Ni29  1  0.06774000  0.75162200  0.49927600  1
  Ni  Ni30  1  0.43226000  0.25162200  0.99927600  1
  Ni  Ni31  1  0.56774000  0.74837800  0.00072400  1
  Cu  Cu32  1  0.80140500  0.55117600  0.16451200  1
  Cu  Cu33  1  0.06264500  0.96266900  0.81729300  1
  Cu  Cu34  1  0.93735500  0.03733100  0.18270700  1
  Cu  Cu35  1  0.30140500  0.94882400  0.33548800  1
  Cu  Cu36  1  0.43735500  0.46266900  0.31729300  1
  Cu  Cu37  1  0.19859500  0.44882400  0.83548800  1
  Cu  Cu38  1  0.69859500  0.05117600  0.66451200  1
  Cu  Cu39  1  0.56264500  0.53733100  0.68270700  1
  C  C40  1  0.14360400  0.08486400  0.11872100  1
  C  C41  1  0.25750700  0.00348300  0.62539200  1
  C  C42  1  0.86771200  0.30467000  0.73996100  1
  C  C43  1  0.24249300  0.50348300  0.12539200  1
  C  C44  1  0.25851500  0.61781400  0.80750600  1
  C  C45  1  0.35639600  0.58486400  0.61872100  1
  C  C46  1  0.63981800  0.54800100  0.73786100  1
  C  C47  1  0.17236700  0.39757400  0.72257500  1
  C  C48  1  0.01262700  0.77950000  0.41764300  1
  C  C49  1  0.13380700  0.51973700  0.90544000  1
  C  C50  1  0.13981800  0.95199900  0.76213900  1
  C  C51  1  0.51262700  0.72050000  0.08235700  1
  C  C52  1  0.76475700  0.73504700  0.09797300  1
  C  C53  1  0.23524300  0.26495300  0.90202700  1
  C  C54  1  0.12290600  0.90268200  0.49913300  1
  C  C55  1  0.63228800  0.80467000  0.23996100  1
  C  C56  1  0.64360400  0.41513600  0.38127900  1
  C  C57  1  0.67236700  0.10242600  0.77742500  1
  C  C58  1  0.95723800  0.46494500  0.90221500  1
  C  C59  1  0.24148500  0.11781400  0.30750600  1
  C  C60  1  0.74148500  0.38218600  0.19249400  1
  C  C61  1  0.42085300  0.08596800  0.07325600  1
  C  C62  1  0.60920300  0.19236800  0.12451400  1
  C  C63  1  0.53097700  0.32400100  0.69690300  1
  C  C64  1  0.86018200  0.04800100  0.23786100  1
  C  C65  1  0.10920300  0.30763200  0.37548600  1
  C  C66  1  0.26521600  0.89600400  0.00716400  1
  C  C67  1  0.48737300  0.27950000  0.91764300  1
  C  C68  1  0.73478400  0.10399600  0.99283600  1
  C  C69  1  0.07914700  0.58596800  0.57325600  1
  C  C70  1  0.56455600  0.59394700  0.55523600  1
  C  C71  1  0.62290600  0.59731800  0.00086700  1
  C  C72  1  0.63380700  0.98026300  0.59456000  1
  C  C73  1  0.03097700  0.17599900  0.80309700  1
  C  C74  1  0.74249300  0.99651700  0.37460800  1
  C  C75  1  0.93544400  0.09394700  0.05523600  1
  C  C76  1  0.92085300  0.41403200  0.42674400  1
  C  C77  1  0.45723800  0.03505500  0.59778500  1
  C  C78  1  0.89079700  0.69236800  0.62451400  1
  C  C79  1  0.75851500  0.88218600  0.69249400  1
  C  C80  1  0.13228800  0.69533000  0.26003900  1
  C  C81  1  0.37709400  0.40268200  0.99913300  1
  C  C82  1  0.50444700  0.67793200  0.72886700  1
  C  C83  1  0.99555300  0.17793200  0.22886700  1
  C  C84  1  0.43544400  0.40605300  0.44476400  1
  C  C85  1  0.36771200  0.19533000  0.76003900  1
  C  C86  1  0.39079700  0.80763200  0.87548600  1
  C  C87  1  0.87709400  0.09731800  0.50086700  1
  C  C88  1  0.57914700  0.91403200  0.92674400  1
  C  C89  1  0.36018200  0.45199900  0.26213900  1
  C  C90  1  0.98737300  0.22050000  0.58235700  1
  C  C91  1  0.00444700  0.82206800  0.77113300  1
  C  C92  1  0.96902300  0.82400100  0.19690300  1
  C  C93  1  0.86619300  0.48026300  0.09456000  1
  C  C94  1  0.46902300  0.67599900  0.30309700  1
  C  C95  1  0.76521600  0.60399600  0.49283600  1
  C  C96  1  0.82763300  0.60242600  0.27742500  1
  C  C97  1  0.49555300  0.32206800  0.27113300  1
  C  C98  1  0.32763300  0.89757400  0.22257500  1
  C  C99  1  0.36619300  0.01973700  0.40544000  1
  C  C100  1  0.73524300  0.23504700  0.59797300  1
  C  C101  1  0.04276200  0.53505500  0.09778500  1
  C  C102  1  0.54276200  0.96494500  0.40221500  1
  C  C103  1  0.75750700  0.49651700  0.87460800  1
  C  C104  1  0.06455600  0.90605300  0.94476400  1
  C  C105  1  0.85639600  0.91513600  0.88127900  1
  C  C106  1  0.26475700  0.76495300  0.40202700  1
  C  C107  1  0.23478400  0.39600400  0.50716400  1
