# generated using pymatgen
data_CuNiC2
_symmetry_space_group_name_H-M   'P 1'
_cell_length_a   7.27602100
_cell_length_b   8.08811500
_cell_length_c   13.08189147
_cell_angle_alpha   85.38630673
_cell_angle_beta   90.00000000
_cell_angle_gamma   90.00000000
_symmetry_Int_Tables_number   1
_chemical_formula_structural   CuNiC2
_chemical_formula_sum   'Cu8 Ni8 C16'
_cell_volume   767.36549451
_cell_formula_units_Z   8
loop_
 _symmetry_equiv_pos_site_id
 _symmetry_equiv_pos_as_xyz
  1  'x, y, z'
loop_
 _atom_site_type_symbol
 _atom_site_label
 _atom_site_symmetry_multiplicity
 _atom_site_fract_x
 _atom_site_fract_y
 _atom_site_fract_z
 _atom_site_occupancy
  C  C0  1  0.39650300  0.32106500  0.58834600  1
  C  C1  1  0.45107800  0.64435800  0.77687700  1
  C  C2  1  0.54892200  0.35564200  0.22312300  1
  C  C3  1  0.04892200  0.14435800  0.77687700  1
  C  C4  1  0.89650300  0.17893500  0.41165400  1
  C  C5  1  0.95107800  0.85564200  0.22312300  1
  C  C6  1  0.60349700  0.67893500  0.41165400  1
  C  C7  1  0.10349700  0.82106500  0.58834600  1
  C  C8  1  0.23703400  0.95982000  0.15726700  1
  C  C9  1  0.12039100  0.28526500  0.92440600  1
  C  C10  1  0.37960900  0.78526500  0.92440600  1
  C  C11  1  0.62039100  0.21473500  0.07559400  1
  C  C12  1  0.26296600  0.45982000  0.15726700  1
  C  C13  1  0.73703400  0.54018000  0.84273300  1
  C  C14  1  0.87960900  0.71473500  0.07559400  1
  C  C15  1  0.76296600  0.04018000  0.84273300  1
  Ni  Ni16  1  0.97488400  0.96759800  0.38995400  1
  Ni  Ni17  1  0.47488400  0.53240200  0.61004600  1
  Ni  Ni18  1  0.34437800  0.23561100  0.71857200  1
  Ni  Ni19  1  0.15562200  0.73561100  0.71857200  1
  Ni  Ni20  1  0.02511600  0.03240200  0.61004600  1
  Ni  Ni21  1  0.52511600  0.46759800  0.38995400  1
  Ni  Ni22  1  0.84437800  0.26438900  0.28142800  1
  Ni  Ni23  1  0.65562200  0.76438900  0.28142800  1
  Cu  Cu24  1  0.85739100  0.58528100  0.42412800  1
  Cu  Cu25  1  0.64260900  0.08528100  0.42412800  1
  Cu  Cu26  1  0.84728600  0.74770800  0.60903600  1
  Cu  Cu27  1  0.15271400  0.25229200  0.39096400  1
  Cu  Cu28  1  0.35739100  0.91471900  0.57587200  1
  Cu  Cu29  1  0.34728600  0.75229200  0.39096400  1
  Cu  Cu30  1  0.14260900  0.41471900  0.57587200  1
  Cu  Cu31  1  0.65271400  0.24770800  0.60903600  1
