# generated using pymatgen
data_Cu2NiC8
_symmetry_space_group_name_H-M   'P 1'
_cell_length_a   7.81744500
_cell_length_b   10.84098600
_cell_length_c   13.70343300
_cell_angle_alpha   90.00000000
_cell_angle_beta   90.00000000
_cell_angle_gamma   90.00000000
_symmetry_Int_Tables_number   1
_chemical_formula_structural   Cu2NiC8
_chemical_formula_sum   'Cu16 Ni8 C64'
_cell_volume   1161.34966434
_cell_formula_units_Z   8
loop_
 _symmetry_equiv_pos_site_id
 _symmetry_equiv_pos_as_xyz
  1  'x, y, z'
loop_
 _atom_site_type_symbol
 _atom_site_label
 _atom_site_symmetry_multiplicity
 _atom_site_fract_x
 _atom_site_fract_y
 _atom_site_fract_z
 _atom_site_occupancy
  C  C0  1  0.38564100  0.25000000  0.95480700  1
  C  C1  1  0.66421200  0.47655100  0.78347800  1
  C  C2  1  0.83578800  0.97655100  0.28347800  1
  C  C3  1  0.16421200  0.02344900  0.71652200  1
  C  C4  1  0.33578800  0.97655100  0.21652200  1
  C  C5  1  0.66421200  0.02344900  0.78347800  1
  C  C6  1  0.33578800  0.52344900  0.21652200  1
  C  C7  1  0.50000000  0.50000000  0.50000000  1
  C  C8  1  0.61435900  0.75000000  0.04519300  1
  C  C9  1  0.16421200  0.47655100  0.71652200  1
  C  C10  1  0.00000000  0.00000000  0.00000000  1
  C  C11  1  0.50000000  0.00000000  0.50000000  1
  C  C12  1  0.83578800  0.52344900  0.28347800  1
  C  C13  1  0.00000000  0.50000000  0.00000000  1
  C  C14  1  0.11435900  0.75000000  0.45480700  1
  C  C15  1  0.88564100  0.25000000  0.54519300  1
  Ni  Ni16  1  0.53145800  0.25000000  0.20001000  1
  Ni  Ni17  1  0.96854200  0.75000000  0.70001000  1
  Ni  Ni18  1  0.80718400  0.25000000  0.92996500  1
  Ni  Ni19  1  0.46854200  0.75000000  0.79999000  1
  Ni  Ni20  1  0.69281600  0.75000000  0.42996500  1
  Ni  Ni21  1  0.03145800  0.25000000  0.29999000  1
  Ni  Ni22  1  0.30718400  0.25000000  0.57003500  1
  Ni  Ni23  1  0.19281600  0.75000000  0.07003500  1
  Cu  Cu24  1  0.63167800  0.43708200  0.06763000  1
  Cu  Cu25  1  0.98416300  0.25000000  0.78847400  1
  Cu  Cu26  1  0.92848200  0.75000000  0.87164700  1
  Cu  Cu27  1  0.36832200  0.56291800  0.93237000  1
  Cu  Cu28  1  0.57151800  0.25000000  0.37164700  1
  Cu  Cu29  1  0.36832200  0.93708200  0.93237000  1
  Cu  Cu30  1  0.63167800  0.06291800  0.06763000  1
  Cu  Cu31  1  0.86832200  0.93708200  0.56763000  1
  Cu  Cu32  1  0.48416300  0.25000000  0.71152600  1
  Cu  Cu33  1  0.01583700  0.75000000  0.21152600  1
  Cu  Cu34  1  0.86832200  0.56291800  0.56763000  1
  Cu  Cu35  1  0.13167800  0.06291800  0.43237000  1
  Cu  Cu36  1  0.42848200  0.75000000  0.62835300  1
  Cu  Cu37  1  0.07151800  0.25000000  0.12835300  1
  Cu  Cu38  1  0.13167800  0.43708200  0.43237000  1
  Cu  Cu39  1  0.51583700  0.75000000  0.28847400  1
  C  C40  1  0.56183300  0.64068900  0.33544300  1
  C  C41  1  0.19896300  0.39892400  0.52202000  1
  C  C42  1  0.79689000  0.03581300  0.61457400  1
  C  C43  1  0.01301100  0.87600600  0.60389700  1
  C  C44  1  0.06896500  0.25000000  0.70192700  1
  C  C45  1  0.48698900  0.12399400  0.10389700  1
  C  C46  1  0.30103700  0.89892400  0.02202000  1
  C  C47  1  0.06183300  0.64068900  0.16455700  1
  C  C48  1  0.93103500  0.75000000  0.29807300  1
  C  C49  1  0.06205500  0.14103900  0.18466700  1
  C  C50  1  0.29689000  0.46418700  0.88542600  1
  C  C51  1  0.08621600  0.25000000  0.02995700  1
  C  C52  1  0.19896300  0.10107600  0.52202000  1
  C  C53  1  0.80103700  0.60107600  0.47798000  1
  C  C54  1  0.93816700  0.14068900  0.83544300  1
  C  C55  1  0.56205500  0.14103900  0.31533300  1
  C  C56  1  0.51301100  0.62399400  0.89610300  1
  C  C57  1  0.56896500  0.25000000  0.79807300  1
  C  C58  1  0.93816700  0.35931100  0.83544300  1
  C  C59  1  0.56183300  0.85931100  0.33544300  1
  C  C60  1  0.06183300  0.85931100  0.16455700  1
  C  C61  1  0.98698900  0.12399400  0.39610300  1
  C  C62  1  0.56205500  0.35896100  0.31533300  1
  C  C63  1  0.98698900  0.37600600  0.39610300  1
  C  C64  1  0.01301100  0.62399400  0.60389700  1
  C  C65  1  0.30103700  0.60107600  0.02202000  1
  C  C66  1  0.48698900  0.37600600  0.10389700  1
  C  C67  1  0.58621600  0.25000000  0.47004300  1
  C  C68  1  0.69896300  0.10107600  0.97798000  1
  C  C69  1  0.91378400  0.75000000  0.97004300  1
  C  C70  1  0.20311000  0.53581300  0.38542600  1
  C  C71  1  0.43816700  0.14068900  0.66455700  1
  C  C72  1  0.69896300  0.39892400  0.97798000  1
  C  C73  1  0.70311000  0.96418700  0.11457400  1
  C  C74  1  0.43816700  0.35931100  0.66455700  1
  C  C75  1  0.93794500  0.85896100  0.81533300  1
  C  C76  1  0.43103500  0.75000000  0.20192700  1
  C  C77  1  0.29689000  0.03581300  0.88542600  1
  C  C78  1  0.20311000  0.96418700  0.38542600  1
  C  C79  1  0.93794500  0.64103900  0.81533300  1
  C  C80  1  0.51301100  0.87600600  0.89610300  1
  C  C81  1  0.06205500  0.35896100  0.18466700  1
  C  C82  1  0.80103700  0.89892400  0.47798000  1
  C  C83  1  0.70311000  0.53581300  0.11457400  1
  C  C84  1  0.43794500  0.85896100  0.68466700  1
  C  C85  1  0.41378400  0.75000000  0.52995700  1
  C  C86  1  0.43794500  0.64103900  0.68466700  1
  C  C87  1  0.79689000  0.46418700  0.61457400  1
