# generated using pymatgen
data_CuNi3C2
_symmetry_space_group_name_H-M   'P 1'
_cell_length_a   7.21812200
_cell_length_b   8.54238600
_cell_length_c   18.36095168
_cell_angle_alpha   83.23485849
_cell_angle_beta   90.00000000
_cell_angle_gamma   90.00000000
_symmetry_Int_Tables_number   1
_chemical_formula_structural   CuNi3C2
_chemical_formula_sum   'Cu12 Ni36 C24'
_cell_volume   1124.25333835
_cell_formula_units_Z   12
loop_
 _symmetry_equiv_pos_site_id
 _symmetry_equiv_pos_as_xyz
  1  'x, y, z'
loop_
 _atom_site_type_symbol
 _atom_site_label
 _atom_site_symmetry_multiplicity
 _atom_site_fract_x
 _atom_site_fract_y
 _atom_site_fract_z
 _atom_site_occupancy
  C  C0  1  0.66629900  0.38271700  0.15420000  1
  C  C1  1  0.66948800  0.20260200  0.95421400  1
  C  C2  1  0.83051200  0.70260200  0.95421400  1
  C  C3  1  0.16629900  0.11728300  0.84580000  1
  C  C4  1  0.83370100  0.88271700  0.15420000  1
  C  C5  1  0.17658100  0.18643400  0.54934800  1
  C  C6  1  0.67658100  0.31356600  0.45065200  1
  C  C7  1  0.32341900  0.68643400  0.54934800  1
  C  C8  1  0.16948800  0.29739800  0.04578600  1
  C  C9  1  0.33370100  0.61728300  0.84580000  1
  C  C10  1  0.33051200  0.79739800  0.04578600  1
  C  C11  1  0.82341900  0.81356600  0.45065200  1
  C  C12  1  0.90392500  0.09553400  0.30293900  1
  C  C13  1  0.67870100  0.02177400  0.59993300  1
  C  C14  1  0.82757200  0.47653800  0.80340500  1
  C  C15  1  0.17870100  0.47822600  0.40006700  1
  C  C16  1  0.40392500  0.40446600  0.69706100  1
  C  C17  1  0.67242800  0.97653800  0.80340500  1
  C  C18  1  0.32129900  0.97822600  0.40006700  1
  C  C19  1  0.09607500  0.90446600  0.69706100  1
  C  C20  1  0.17242800  0.52346200  0.19659500  1
  C  C21  1  0.59607500  0.59553400  0.30293900  1
  C  C22  1  0.82129900  0.52177400  0.59993300  1
  C  C23  1  0.32757200  0.02346200  0.19659500  1
  Ni  Ni24  1  0.98429800  0.58846600  0.84794300  1
  Ni  Ni25  1  0.11067600  0.71510200  0.17167000  1
  Ni  Ni26  1  0.01570200  0.41153400  0.15205700  1
  Ni  Ni27  1  0.09380600  0.64006900  0.43561200  1
  Ni  Ni28  1  0.88932400  0.28489800  0.82833000  1
  Ni  Ni29  1  0.38932400  0.21510200  0.17167000  1
  Ni  Ni30  1  0.51570200  0.08846600  0.84794300  1
  Ni  Ni31  1  0.74588700  0.62691900  0.22931900  1
  Ni  Ni32  1  0.63989000  0.47096800  0.86314000  1
  Ni  Ni33  1  0.93286500  0.89597700  0.30240700  1
  Ni  Ni34  1  0.34892200  0.43619300  0.46774300  1
  Ni  Ni35  1  0.73506800  0.58856700  0.38037400  1
  Ni  Ni36  1  0.02718600  0.32426400  0.42490800  1
  Ni  Ni37  1  0.75411300  0.12691900  0.22931900  1
  Ni  Ni38  1  0.65107800  0.56380700  0.53225700  1
  Ni  Ni39  1  0.47281400  0.82426400  0.42490800  1
  Ni  Ni40  1  0.24588700  0.87308100  0.77068100  1
  Ni  Ni41  1  0.15107800  0.93619300  0.46774300  1
  Ni  Ni42  1  0.23506800  0.91143300  0.61962600  1
  Ni  Ni43  1  0.59380600  0.85993100  0.56438800  1
  Ni  Ni44  1  0.52718600  0.17573600  0.57509200  1
  Ni  Ni45  1  0.40619400  0.14006900  0.43561200  1
  Ni  Ni46  1  0.36011000  0.52903200  0.13686000  1
  Ni  Ni47  1  0.26493200  0.41143300  0.61962600  1
  Ni  Ni48  1  0.25411300  0.37308100  0.77068100  1
  Ni  Ni49  1  0.84892200  0.06380700  0.53225700  1
  Ni  Ni50  1  0.43286500  0.60402300  0.69759300  1
  Ni  Ni51  1  0.61067600  0.78489800  0.82833000  1
  Ni  Ni52  1  0.13989000  0.02903200  0.13686000  1
  Ni  Ni53  1  0.90619400  0.35993100  0.56438800  1
  Ni  Ni54  1  0.86011000  0.97096800  0.86314000  1
  Ni  Ni55  1  0.76493200  0.08856700  0.38037400  1
  Ni  Ni56  1  0.97281400  0.67573600  0.57509200  1
  Ni  Ni57  1  0.48429800  0.91153400  0.15205700  1
  Ni  Ni58  1  0.06713500  0.10402300  0.69759300  1
  Ni  Ni59  1  0.56713500  0.39597700  0.30240700  1
  Cu  Cu60  1  0.29295000  0.34361800  0.91541200  1
  Cu  Cu61  1  0.50085200  0.34500700  0.03782100  1
  Cu  Cu62  1  0.20705000  0.84361800  0.91541200  1
  Cu  Cu63  1  0.70705000  0.65638200  0.08458800  1
  Cu  Cu64  1  0.00085200  0.15499300  0.96217900  1
  Cu  Cu65  1  0.99914800  0.84500700  0.03782100  1
  Cu  Cu66  1  0.84756600  0.42236200  0.00122200  1
  Cu  Cu67  1  0.65243400  0.92236200  0.00122200  1
  Cu  Cu68  1  0.79295000  0.15638200  0.08458800  1
  Cu  Cu69  1  0.15243400  0.57763800  0.99877800  1
  Cu  Cu70  1  0.49914800  0.65499300  0.96217900  1
  Cu  Cu71  1  0.34756600  0.07763800  0.99877800  1
