# generated using pymatgen
data_CuNi4C7
_symmetry_space_group_name_H-M   'P 1'
_cell_length_a   10.13538900
_cell_length_b   11.45765500
_cell_length_c   13.48230000
_cell_angle_alpha   90.00000000
_cell_angle_beta   90.00000000
_cell_angle_gamma   90.00000000
_symmetry_Int_Tables_number   1
_chemical_formula_structural   CuNi4C7
_chemical_formula_sum   'Cu8 Ni32 C56'
_cell_volume   1565.66970922
_cell_formula_units_Z   8
loop_
 _symmetry_equiv_pos_site_id
 _symmetry_equiv_pos_as_xyz
  1  'x, y, z'
loop_
 _atom_site_type_symbol
 _atom_site_label
 _atom_site_symmetry_multiplicity
 _atom_site_fract_x
 _atom_site_fract_y
 _atom_site_fract_z
 _atom_site_occupancy
  Ni  Ni0  1  0.88281200  0.40627900  0.69097000  1
  Ni  Ni1  1  0.88281200  0.09372100  0.19097000  1
  Ni  Ni2  1  0.06431600  0.55601400  0.89066700  1
  Ni  Ni3  1  0.93568400  0.05601400  0.60933300  1
  Ni  Ni4  1  0.79359000  0.80962900  0.30986700  1
  Ni  Ni5  1  0.83512400  0.97777300  0.93813300  1
  Ni  Ni6  1  0.06431600  0.94398600  0.39066700  1
  Ni  Ni7  1  0.56431600  0.94398600  0.10933300  1
  Ni  Ni8  1  0.43568400  0.05601400  0.89066700  1
  Ni  Ni9  1  0.38281200  0.09372100  0.30903000  1
  Ni  Ni10  1  0.16487600  0.02222700  0.06186700  1
  Ni  Ni11  1  0.29359000  0.80962900  0.19013300  1
  Ni  Ni12  1  0.20641000  0.19037100  0.69013300  1
  Ni  Ni13  1  0.20641000  0.30962900  0.19013300  1
  Ni  Ni14  1  0.43568400  0.44398600  0.39066700  1
  Ni  Ni15  1  0.16487600  0.47777300  0.56186700  1
  Ni  Ni16  1  0.70641000  0.30962900  0.30986700  1
  Ni  Ni17  1  0.56431600  0.55601400  0.60933300  1
  Ni  Ni18  1  0.61718800  0.59372100  0.19097000  1
  Ni  Ni19  1  0.33512400  0.52222700  0.06186700  1
  Ni  Ni20  1  0.70641000  0.19037100  0.80986700  1
  Ni  Ni21  1  0.79359000  0.69037100  0.80986700  1
  Ni  Ni22  1  0.66487600  0.02222700  0.43813300  1
  Ni  Ni23  1  0.11718800  0.59372100  0.30903000  1
  Ni  Ni24  1  0.61718800  0.90627900  0.69097000  1
  Ni  Ni25  1  0.93568400  0.44398600  0.10933300  1
  Ni  Ni26  1  0.33512400  0.97777300  0.56186700  1
  Ni  Ni27  1  0.29359000  0.69037100  0.69013300  1
  Ni  Ni28  1  0.11718800  0.90627900  0.80903000  1
  Ni  Ni29  1  0.38281200  0.40627900  0.80903000  1
  Ni  Ni30  1  0.83512400  0.52222700  0.43813300  1
  Ni  Ni31  1  0.66487600  0.47777300  0.93813300  1
  Cu  Cu32  1  0.80106900  0.25209600  0.50956900  1
  Cu  Cu33  1  0.19893100  0.74790400  0.49043100  1
  Cu  Cu34  1  0.19893100  0.75209600  0.99043100  1
  Cu  Cu35  1  0.80106900  0.24790400  0.00956900  1
  Cu  Cu36  1  0.69893100  0.75209600  0.50956900  1
  Cu  Cu37  1  0.30106900  0.25209600  0.99043100  1
  Cu  Cu38  1  0.69893100  0.74790400  0.00956900  1
  Cu  Cu39  1  0.30106900  0.24790400  0.49043100  1
  C  C40  1  0.54555800  0.25438000  0.60149400  1
  C  C41  1  0.04555800  0.24562000  0.39850600  1
  C  C42  1  0.45444200  0.74562000  0.39850600  1
  C  C43  1  0.54555800  0.24562000  0.10149400  1
  C  C44  1  0.95444200  0.74562000  0.10149400  1
  C  C45  1  0.04555800  0.25438000  0.89850600  1
  C  C46  1  0.95444200  0.75438000  0.60149400  1
  C  C47  1  0.45444200  0.75438000  0.89850600  1
  C  C48  1  0.61338400  0.65141200  0.40542000  1
  C  C49  1  0.79787900  0.65844600  0.60464800  1
  C  C50  1  0.52912900  0.66673100  0.00821300  1
  C  C51  1  0.02912900  0.83326900  0.99178700  1
  C  C52  1  0.63933300  0.14883800  0.00616100  1
  C  C53  1  0.47087100  0.16673100  0.49178700  1
  C  C54  1  0.97087100  0.33326900  0.50821300  1
  C  C55  1  0.70212100  0.34155400  0.10464800  1
  C  C56  1  0.88661600  0.34858800  0.90542000  1
  C  C57  1  0.11338400  0.84858800  0.59458000  1
  C  C58  1  0.39028300  0.85371500  0.79492300  1
  C  C59  1  0.36066700  0.85116200  0.99383900  1
  C  C60  1  0.20212100  0.15844600  0.89535200  1
  C  C61  1  0.53286100  0.84982600  0.30449300  1
  C  C62  1  0.29787900  0.65844600  0.89535200  1
  C  C63  1  0.60971700  0.14628500  0.20507700  1
  C  C64  1  0.70212100  0.15844600  0.60464800  1
  C  C65  1  0.86066700  0.85116200  0.50616100  1
  C  C66  1  0.60971700  0.35371500  0.70507700  1
  C  C67  1  0.61338400  0.84858800  0.90542000  1
  C  C68  1  0.38661600  0.15141200  0.09458000  1
  C  C69  1  0.47087100  0.33326900  0.99178700  1
  C  C70  1  0.10971700  0.35371500  0.79492300  1
  C  C71  1  0.79787900  0.84155400  0.10464800  1
  C  C72  1  0.96713900  0.34982600  0.30449300  1
  C  C73  1  0.89028300  0.85371500  0.70507700  1
  C  C74  1  0.96713900  0.15017400  0.80449300  1
  C  C75  1  0.88661600  0.15141200  0.40542000  1
  C  C76  1  0.13933300  0.35116200  0.99383900  1
  C  C77  1  0.89028300  0.64628500  0.20507700  1
  C  C78  1  0.29787900  0.84155400  0.39535200  1
  C  C79  1  0.02912900  0.66673100  0.49178700  1
  C  C80  1  0.10971700  0.14628500  0.29492300  1
  C  C81  1  0.53286100  0.65017400  0.80449300  1
  C  C82  1  0.46713900  0.34982600  0.19550700  1
  C  C83  1  0.03286100  0.65017400  0.69550700  1
  C  C84  1  0.38661600  0.34858800  0.59458000  1
  C  C85  1  0.97087100  0.16673100  0.00821300  1
  C  C86  1  0.03286100  0.84982600  0.19550700  1
  C  C87  1  0.46713900  0.15017400  0.69550700  1
  C  C88  1  0.52912900  0.83326900  0.50821300  1
  C  C89  1  0.20212100  0.34155400  0.39535200  1
  C  C90  1  0.13933300  0.14883800  0.49383900  1
  C  C91  1  0.86066700  0.64883800  0.00616100  1
  C  C92  1  0.36066700  0.64883800  0.49383900  1
  C  C93  1  0.11338400  0.65141200  0.09458000  1
  C  C94  1  0.39028300  0.64628500  0.29492300  1
  C  C95  1  0.63933300  0.35116200  0.50616100  1
