# generated using pymatgen
data_CuNiC10
_symmetry_space_group_name_H-M   'P 1'
_cell_length_a   10.20283226
_cell_length_b   10.20283226
_cell_length_c   5.86961300
_cell_angle_alpha   90.00000000
_cell_angle_beta   90.00000000
_cell_angle_gamma   120.00000167
_symmetry_Int_Tables_number   1
_chemical_formula_structural   CuNiC10
_chemical_formula_sum   'Cu2 Ni2 C20'
_cell_volume   529.15339331
_cell_formula_units_Z   2
loop_
 _symmetry_equiv_pos_site_id
 _symmetry_equiv_pos_as_xyz
  1  'x, y, z'
loop_
 _atom_site_type_symbol
 _atom_site_label
 _atom_site_symmetry_multiplicity
 _atom_site_fract_x
 _atom_site_fract_y
 _atom_site_fract_z
 _atom_site_occupancy
  C  C0  1  0.22851700  0.87222400  0.75034300  1
  C  C1  1  0.35629300  0.22851700  0.25034300  1
  C  C2  1  0.77148300  0.12777600  0.25034300  1
  C  C3  1  0.12777600  0.35629300  0.75034300  1
  C  C4  1  0.87222400  0.64370700  0.25034300  1
  C  C5  1  0.64370700  0.77148300  0.75034300  1
  Ni  Ni6  1  0.00000000  0.00000000  0.21877500  1
  Ni  Ni7  1  0.00000000  0.00000000  0.71877500  1
  Cu  Cu8  1  0.66666700  0.33333300  0.83229000  1
  Cu  Cu9  1  0.33333300  0.66666700  0.33229000  1
  C  C10  1  0.83837500  0.09107700  0.73141600  1
  C  C11  1  0.90892300  0.74729900  0.73141600  1
  C  C12  1  0.16162500  0.90892300  0.23141600  1
  C  C13  1  0.89619300  0.41676500  0.98710500  1
  C  C14  1  0.33333300  0.66666700  0.95704100  1
  C  C15  1  0.66666700  0.33333300  0.45704100  1
  C  C16  1  0.74729900  0.83837500  0.23141600  1
  C  C17  1  0.47942800  0.89619300  0.48710500  1
  C  C18  1  0.41676500  0.52057200  0.48710500  1
  C  C19  1  0.52057200  0.10380700  0.98710500  1
  C  C20  1  0.58323500  0.47942800  0.98710500  1
  C  C21  1  0.09107700  0.25270100  0.23141600  1
  C  C22  1  0.25270100  0.16162500  0.73141600  1
  C  C23  1  0.10380700  0.58323500  0.48710500  1
