# generated using pymatgen
data_Cu2Ni4C11
_symmetry_space_group_name_H-M   'P 1'
_cell_length_a   5.66514000
_cell_length_b   5.66514000
_cell_length_c   9.91386000
_cell_angle_alpha   90.00000000
_cell_angle_beta   90.00000000
_cell_angle_gamma   90.00000000
_symmetry_Int_Tables_number   1
_chemical_formula_structural   Cu2Ni4C11
_chemical_formula_sum   'Cu2 Ni4 C11'
_cell_volume   318.17355130
_cell_formula_units_Z   1
loop_
 _symmetry_equiv_pos_site_id
 _symmetry_equiv_pos_as_xyz
  1  'x, y, z'
loop_
 _atom_site_type_symbol
 _atom_site_label
 _atom_site_symmetry_multiplicity
 _atom_site_fract_x
 _atom_site_fract_y
 _atom_site_fract_z
 _atom_site_occupancy
  Ni  Ni0  1  0.00000000  0.00000000  0.79659000  1
  Ni  Ni1  1  0.50000000  0.00000000  0.55430900  1
  Ni  Ni2  1  0.00000000  0.50000000  0.55430900  1
  Ni  Ni3  1  0.50000000  0.50000000  0.81027300  1
  Cu  Cu4  1  0.00000000  0.00000000  0.29338400  1
  Cu  Cu5  1  0.50000000  0.50000000  0.36318700  1
  C  C6  1  0.00000000  0.50000000  0.96780700  1
  C  C7  1  0.50000000  0.00000000  0.96780700  1
  C  C8  1  0.25958800  0.25958800  0.32337300  1
  C  C9  1  0.00000000  0.00000000  0.48591600  1
  C  C10  1  0.25601200  0.25601200  0.68034800  1
  C  C11  1  0.74041200  0.25958800  0.32337300  1
  C  C12  1  0.25601200  0.74398800  0.68034800  1
  C  C13  1  0.74398800  0.74398800  0.68034800  1
  C  C14  1  0.74041200  0.74041200  0.32337300  1
  C  C15  1  0.25958800  0.74041200  0.32337300  1
  C  C16  1  0.74398800  0.25601200  0.68034800  1
