# generated using pymatgen
data_Cu2NiC
_symmetry_space_group_name_H-M   'P 1'
_cell_length_a   7.22463400
_cell_length_b   9.21327900
_cell_length_c   12.33017900
_cell_angle_alpha   90.00000000
_cell_angle_beta   90.00000000
_cell_angle_gamma   90.00000000
_symmetry_Int_Tables_number   1
_chemical_formula_structural   Cu2NiC
_chemical_formula_sum   'Cu24 Ni12 C12'
_cell_volume   820.72838695
_cell_formula_units_Z   12
loop_
 _symmetry_equiv_pos_site_id
 _symmetry_equiv_pos_as_xyz
  1  'x, y, z'
loop_
 _atom_site_type_symbol
 _atom_site_label
 _atom_site_symmetry_multiplicity
 _atom_site_fract_x
 _atom_site_fract_y
 _atom_site_fract_z
 _atom_site_occupancy
  C  C0  1  0.66718100  0.59892900  0.86136100  1
  C  C1  1  0.59192600  0.55905300  0.25000000  1
  C  C2  1  0.83281900  0.09892900  0.13863900  1
  C  C3  1  0.90807400  0.05905300  0.75000000  1
  C  C4  1  0.33281900  0.40107100  0.36136100  1
  C  C5  1  0.09192600  0.94094700  0.25000000  1
  C  C6  1  0.16718100  0.90107100  0.86136100  1
  C  C7  1  0.33281900  0.40107100  0.13863900  1
  C  C8  1  0.66718100  0.59892900  0.63863900  1
  C  C9  1  0.83281900  0.09892900  0.36136100  1
  C  C10  1  0.40807400  0.44094700  0.75000000  1
  C  C11  1  0.16718100  0.90107100  0.63863900  1
  Ni  Ni12  1  0.50317400  0.50892300  0.36090000  1
  Ni  Ni13  1  0.49682600  0.49107700  0.86090000  1
  Ni  Ni14  1  0.99682600  0.00892300  0.63910000  1
  Ni  Ni15  1  0.25412000  0.84911200  0.75000000  1
  Ni  Ni16  1  0.00317400  0.99107700  0.13910000  1
  Ni  Ni17  1  0.49682600  0.49107700  0.63910000  1
  Ni  Ni18  1  0.99682600  0.00892300  0.86090000  1
  Ni  Ni19  1  0.00317400  0.99107700  0.36090000  1
  Ni  Ni20  1  0.74588000  0.15088800  0.25000000  1
  Ni  Ni21  1  0.24588000  0.34911200  0.25000000  1
  Ni  Ni22  1  0.75412000  0.65088800  0.75000000  1
  Ni  Ni23  1  0.50317400  0.50892300  0.13910000  1
  Cu  Cu24  1  0.11861400  0.76519200  0.56907900  1
  Cu  Cu25  1  0.89124500  0.22808300  0.75000000  1
  Cu  Cu26  1  0.69753300  0.02267400  0.75000000  1
  Cu  Cu27  1  0.61861400  0.73480800  0.56907900  1
  Cu  Cu28  1  0.60875500  0.72808300  0.25000000  1
  Cu  Cu29  1  0.80246700  0.52267400  0.25000000  1
  Cu  Cu30  1  0.17692200  0.46487700  0.43399900  1
  Cu  Cu31  1  0.88138600  0.23480800  0.06907900  1
  Cu  Cu32  1  0.11861400  0.76519200  0.93092100  1
  Cu  Cu33  1  0.39124500  0.27191700  0.75000000  1
  Cu  Cu34  1  0.82307800  0.53512300  0.93399900  1
  Cu  Cu35  1  0.19753300  0.47732600  0.75000000  1
  Cu  Cu36  1  0.82307800  0.53512300  0.56600100  1
  Cu  Cu37  1  0.30246700  0.97732600  0.25000000  1
  Cu  Cu38  1  0.32307800  0.96487700  0.93399900  1
  Cu  Cu39  1  0.67692200  0.03512300  0.43399900  1
  Cu  Cu40  1  0.10875500  0.77191700  0.25000000  1
  Cu  Cu41  1  0.88138600  0.23480800  0.43092100  1
  Cu  Cu42  1  0.17692200  0.46487700  0.06600100  1
  Cu  Cu43  1  0.38138600  0.26519200  0.43092100  1
  Cu  Cu44  1  0.61861400  0.73480800  0.93092100  1
  Cu  Cu45  1  0.67692200  0.03512300  0.06600100  1
  Cu  Cu46  1  0.32307800  0.96487700  0.56600100  1
  Cu  Cu47  1  0.38138600  0.26519200  0.06907900  1
