# generated using pymatgen
data_Cu(NiC2)6
_symmetry_space_group_name_H-M   'P 1'
_cell_length_a   8.67936549
_cell_length_b   8.67936549
_cell_length_c   8.67936549
_cell_angle_alpha   109.47122063
_cell_angle_beta   109.47122063
_cell_angle_gamma   109.47122063
_symmetry_Int_Tables_number   1
_chemical_formula_structural   Cu(NiC2)6
_chemical_formula_sum   'Cu1 Ni6 C12'
_cell_volume   503.31751032
_cell_formula_units_Z   1
loop_
 _symmetry_equiv_pos_site_id
 _symmetry_equiv_pos_as_xyz
  1  'x, y, z'
loop_
 _atom_site_type_symbol
 _atom_site_label
 _atom_site_symmetry_multiplicity
 _atom_site_fract_x
 _atom_site_fract_y
 _atom_site_fract_z
 _atom_site_occupancy
  C  C0  1  0.30568700  0.49852100  0.19283400  1
  C  C1  1  0.80716600  0.69431300  0.50147900  1
  C  C2  1  0.11285200  0.80716600  0.30568700  1
  C  C3  1  0.80716600  0.30568700  0.11285200  1
  C  C4  1  0.88714800  0.19283400  0.69431300  1
  C  C5  1  0.19283400  0.30568700  0.49852100  1
  C  C6  1  0.49852100  0.19283400  0.30568700  1
  C  C7  1  0.50147900  0.80716600  0.69431300  1
  C  C8  1  0.19283400  0.69431300  0.88714800  1
  C  C9  1  0.30568700  0.11285200  0.80716600  1
  C  C10  1  0.69431300  0.88714800  0.19283400  1
  C  C11  1  0.69431300  0.50147900  0.80716600  1
  Ni  Ni12  1  0.61069200  0.50000000  0.11069200  1
  Ni  Ni13  1  0.11069200  0.61069200  0.50000000  1
  Ni  Ni14  1  0.50000000  0.88930800  0.38930800  1
  Ni  Ni15  1  0.88930800  0.38930800  0.50000000  1
  Ni  Ni16  1  0.50000000  0.11069200  0.61069200  1
  Ni  Ni17  1  0.38930800  0.50000000  0.88930800  1
  Cu  Cu18  1  0.00000000  0.00000000  0.00000000  1
