# generated using pymatgen
data_Cu(NiC2)8
_symmetry_space_group_name_H-M   'P 1'
_cell_length_a   10.94386902
_cell_length_b   10.94386902
_cell_length_c   11.25497800
_cell_angle_alpha   90.00000000
_cell_angle_beta   90.00000000
_cell_angle_gamma   107.46216460
_symmetry_Int_Tables_number   1
_chemical_formula_structural   Cu(NiC2)8
_chemical_formula_sum   'Cu2 Ni16 C32'
_cell_volume   1285.86757448
_cell_formula_units_Z   2
loop_
 _symmetry_equiv_pos_site_id
 _symmetry_equiv_pos_as_xyz
  1  'x, y, z'
loop_
 _atom_site_type_symbol
 _atom_site_label
 _atom_site_symmetry_multiplicity
 _atom_site_fract_x
 _atom_site_fract_y
 _atom_site_fract_z
 _atom_site_occupancy
  C  C0  1  0.54307800  0.28210400  0.38340900  1
  C  C1  1  0.23265300  0.06425200  0.25000000  1
  C  C2  1  0.06425200  0.23265300  0.25000000  1
  C  C3  1  0.45692200  0.71789600  0.88340900  1
  C  C4  1  0.80340200  0.98913100  0.25000000  1
  C  C5  1  0.74914400  0.74914300  0.50305700  1
  C  C6  1  0.71789600  0.45692200  0.88340900  1
  C  C7  1  0.32096900  0.94180200  0.49922300  1
  C  C8  1  0.25085700  0.25085600  0.00305700  1
  C  C9  1  0.94180200  0.32096900  0.49922300  1
  C  C10  1  0.67903100  0.05819800  0.99922300  1
  C  C11  1  0.19659800  0.01086900  0.75000000  1
  C  C12  1  0.74914400  0.74914300  0.99694300  1
  C  C13  1  0.01086900  0.19659800  0.75000000  1
  C  C14  1  0.43263300  0.43263300  0.75000000  1
  C  C15  1  0.05819800  0.67903100  0.50077700  1
  C  C16  1  0.05819800  0.67903100  0.99922300  1
  C  C17  1  0.67903100  0.05819800  0.50077700  1
  C  C18  1  0.98913100  0.80340200  0.25000000  1
  C  C19  1  0.28210400  0.54307800  0.38340900  1
  C  C20  1  0.71789600  0.45692200  0.61659100  1
  C  C21  1  0.28210400  0.54307800  0.11659100  1
  C  C22  1  0.76734700  0.93574800  0.75000000  1
  C  C23  1  0.94180200  0.32096900  0.00077700  1
  C  C24  1  0.45692200  0.71789600  0.61659100  1
  C  C25  1  0.25085700  0.25085600  0.49694300  1
  C  C26  1  0.93574800  0.76734700  0.75000000  1
  C  C27  1  0.32096900  0.94180200  0.00077700  1
  C  C28  1  0.54307800  0.28210400  0.11659100  1
  C  C29  1  0.56736700  0.56736700  0.25000000  1
  C  C30  1  0.00000000  0.00000000  0.50000000  1
  C  C31  1  0.00000000  0.00000000  0.00000000  1
  Ni  Ni32  1  0.50484100  0.01127200  0.25000000  1
  Ni  Ni33  1  0.19627500  0.69669400  0.75000000  1
  Ni  Ni34  1  0.69669400  0.19627500  0.75000000  1
  Ni  Ni35  1  0.80920300  0.51705800  0.36375900  1
  Ni  Ni36  1  0.48294200  0.19079700  0.63624100  1
  Ni  Ni37  1  0.19079700  0.48294200  0.63624100  1
  Ni  Ni38  1  0.49515900  0.98872800  0.75000000  1
  Ni  Ni39  1  0.19079700  0.48294200  0.86375900  1
  Ni  Ni40  1  0.98872800  0.49515900  0.75000000  1
  Ni  Ni41  1  0.51705800  0.80920300  0.36375900  1
  Ni  Ni42  1  0.48294200  0.19079700  0.86375900  1
  Ni  Ni43  1  0.80920300  0.51705800  0.13624100  1
  Ni  Ni44  1  0.30330600  0.80372500  0.25000000  1
  Ni  Ni45  1  0.01127200  0.50484100  0.25000000  1
  Ni  Ni46  1  0.51705800  0.80920300  0.13624100  1
  Ni  Ni47  1  0.80372500  0.30330600  0.25000000  1
  Cu  Cu48  1  0.34384600  0.34384600  0.25000000  1
  Cu  Cu49  1  0.65615400  0.65615400  0.75000000  1
