# generated using pymatgen
data_Cu2NiC13
_symmetry_space_group_name_H-M   'P 1'
_cell_length_a   6.40610700
_cell_length_b   8.17286400
_cell_length_c   14.80236900
_cell_angle_alpha   90.00000000
_cell_angle_beta   90.00000000
_cell_angle_gamma   90.00000000
_symmetry_Int_Tables_number   1
_chemical_formula_structural   Cu2NiC13
_chemical_formula_sum   'Cu8 Ni4 C52'
_cell_volume   774.99640289
_cell_formula_units_Z   4
loop_
 _symmetry_equiv_pos_site_id
 _symmetry_equiv_pos_as_xyz
  1  'x, y, z'
loop_
 _atom_site_type_symbol
 _atom_site_label
 _atom_site_symmetry_multiplicity
 _atom_site_fract_x
 _atom_site_fract_y
 _atom_site_fract_z
 _atom_site_occupancy
  Ni  Ni0  1  0.63044600  0.75000000  0.00000000  1
  Ni  Ni1  1  0.13044600  0.75000000  0.50000000  1
  Ni  Ni2  1  0.36955400  0.25000000  0.00000000  1
  Ni  Ni3  1  0.86955400  0.25000000  0.50000000  1
  Cu  Cu4  1  0.60814800  0.63408500  0.60149300  1
  Cu  Cu5  1  0.89185200  0.13408500  0.89850700  1
  Cu  Cu6  1  0.60814800  0.86591500  0.39850700  1
  Cu  Cu7  1  0.39185200  0.13408500  0.60149300  1
  Cu  Cu8  1  0.89185200  0.36591500  0.10149300  1
  Cu  Cu9  1  0.10814800  0.86591500  0.10149300  1
  Cu  Cu10  1  0.39185200  0.36591500  0.39850700  1
  Cu  Cu11  1  0.10814800  0.63408500  0.89850700  1
  C  C12  1  0.39302400  0.50525600  0.16450200  1
  C  C13  1  0.60697600  0.00525600  0.16450200  1
  C  C14  1  0.89302400  0.50525600  0.33549800  1
  C  C15  1  0.10697600  0.49474400  0.66450200  1
  C  C16  1  0.10697600  0.00525600  0.33549800  1
  C  C17  1  0.89302400  0.99474400  0.66450200  1
  C  C18  1  0.60697600  0.49474400  0.83549800  1
  C  C19  1  0.39302400  0.99474400  0.83549800  1
  C  C20  1  0.43578300  0.06548400  0.74568000  1
  C  C21  1  0.59341800  0.97547400  0.88573400  1
  C  C22  1  0.40658200  0.47547400  0.88573400  1
  C  C23  1  0.24206900  0.60883400  0.61033200  1
  C  C24  1  0.43578300  0.43451600  0.25432000  1
  C  C25  1  0.56421700  0.56548400  0.74568000  1
  C  C26  1  0.06421700  0.56548400  0.75432000  1
  C  C27  1  0.06421700  0.93451600  0.24568000  1
  C  C28  1  0.75793100  0.10883400  0.61033200  1
  C  C29  1  0.21077200  0.16482200  0.32380900  1
  C  C30  1  0.93578300  0.43451600  0.24568000  1
  C  C31  1  0.90658200  0.47547400  0.61426600  1
  C  C32  1  0.71077200  0.16482200  0.17619100  1
  C  C33  1  0.71077200  0.33517800  0.82380900  1
  C  C34  1  0.40658200  0.02452600  0.11426600  1
  C  C35  1  0.74206900  0.89116600  0.11033200  1
  C  C36  1  0.28922800  0.83517800  0.82380900  1
  C  C37  1  0.28922800  0.66482200  0.17619100  1
  C  C38  1  0.93578300  0.06548400  0.75432000  1
  C  C39  1  0.56421700  0.93451600  0.25432000  1
  C  C40  1  0.25793100  0.10883400  0.88966800  1
  C  C41  1  0.78922800  0.66482200  0.32380900  1
  C  C42  1  0.21077200  0.33517800  0.67619100  1
  C  C43  1  0.24206900  0.89116600  0.38966800  1
  C  C44  1  0.25793100  0.39116600  0.11033200  1
  C  C45  1  0.59341800  0.52452600  0.11426600  1
  C  C46  1  0.09341800  0.97547400  0.61426600  1
  C  C47  1  0.74206900  0.60883400  0.88966800  1
  C  C48  1  0.90658200  0.02452600  0.38573400  1
  C  C49  1  0.78922800  0.83517800  0.67619100  1
  C  C50  1  0.09341800  0.52452600  0.38573400  1
  C  C51  1  0.75793100  0.39116600  0.38966800  1
  C  C52  1  0.03633000  0.37511300  0.94887100  1
  C  C53  1  0.96367000  0.87511300  0.94887100  1
  C  C54  1  0.96367000  0.62488700  0.05112900  1
  C  C55  1  0.67642400  0.25000000  0.00000000  1
  C  C56  1  0.03633000  0.12488700  0.05112900  1
  C  C57  1  0.53633000  0.37511300  0.55112900  1
  C  C58  1  0.32357600  0.75000000  0.00000000  1
  C  C59  1  0.53633000  0.12488700  0.44887100  1
  C  C60  1  0.82357600  0.75000000  0.50000000  1
  C  C61  1  0.46367000  0.87511300  0.55112900  1
  C  C62  1  0.17642400  0.25000000  0.50000000  1
  C  C63  1  0.46367000  0.62488700  0.44887100  1
