# generated using pymatgen
data_Cu2NiC9
_symmetry_space_group_name_H-M   'P 1'
_cell_length_a   5.46018100
_cell_length_b   5.46018100
_cell_length_c   19.73387900
_cell_angle_alpha   90.00000000
_cell_angle_beta   90.00000000
_cell_angle_gamma   90.00000000
_symmetry_Int_Tables_number   1
_chemical_formula_structural   Cu2NiC9
_chemical_formula_sum   'Cu8 Ni4 C36'
_cell_volume   588.33751225
_cell_formula_units_Z   4
loop_
 _symmetry_equiv_pos_site_id
 _symmetry_equiv_pos_as_xyz
  1  'x, y, z'
loop_
 _atom_site_type_symbol
 _atom_site_label
 _atom_site_symmetry_multiplicity
 _atom_site_fract_x
 _atom_site_fract_y
 _atom_site_fract_z
 _atom_site_occupancy
  Ni  Ni0  1  0.74272200  0.74272200  0.00000000  1
  Ni  Ni1  1  0.75727800  0.24272200  0.50000000  1
  Ni  Ni2  1  0.25727800  0.25727800  0.00000000  1
  Ni  Ni3  1  0.24272200  0.75727800  0.50000000  1
  Cu  Cu4  1  0.26956700  0.26956700  0.81854200  1
  Cu  Cu5  1  0.76956700  0.23043300  0.31854200  1
  Cu  Cu6  1  0.23043300  0.76956700  0.31854200  1
  Cu  Cu7  1  0.26956700  0.26956700  0.18145800  1
  Cu  Cu8  1  0.73043300  0.73043300  0.18145800  1
  Cu  Cu9  1  0.73043300  0.73043300  0.81854200  1
  Cu  Cu10  1  0.23043300  0.76956700  0.68145800  1
  Cu  Cu11  1  0.76956700  0.23043300  0.68145800  1
  C  C12  1  0.74511500  0.74511500  0.40113300  1
  C  C13  1  0.24511500  0.75488500  0.09886700  1
  C  C14  1  0.75488500  0.24511500  0.09886700  1
  C  C15  1  0.75488500  0.24511500  0.90113300  1
  C  C16  1  0.24511500  0.75488500  0.90113300  1
  C  C17  1  0.25488500  0.25488500  0.59886700  1
  C  C18  1  0.25488500  0.25488500  0.40113300  1
  C  C19  1  0.74511500  0.74511500  0.59886700  1
  C  C20  1  0.50000000  0.50000000  0.37743300  1
  C  C21  1  0.29749100  0.70250900  0.79256400  1
  C  C22  1  0.50000000  0.00000000  0.39353000  1
  C  C23  1  0.00000000  0.00000000  0.59263700  1
  C  C24  1  0.00000000  0.50000000  0.89353000  1
  C  C25  1  0.50000000  0.00000000  0.89353000  1
  C  C26  1  0.71410500  0.71410500  0.50000000  1
  C  C27  1  0.00000000  0.00000000  0.12256700  1
  C  C28  1  0.29749100  0.70250900  0.20743600  1
  C  C29  1  0.00000000  0.50000000  0.10647000  1
  C  C30  1  0.70250900  0.29749100  0.79256400  1
  C  C31  1  0.79749100  0.79749100  0.70743600  1
  C  C32  1  0.79749100  0.79749100  0.29256400  1
  C  C33  1  0.21410500  0.78589500  0.00000000  1
  C  C34  1  0.50000000  0.50000000  0.62256700  1
  C  C35  1  0.00000000  0.00000000  0.87743300  1
  C  C36  1  0.20250900  0.20250900  0.70743600  1
  C  C37  1  0.00000000  0.50000000  0.39353000  1
  C  C38  1  0.78589500  0.21410500  0.00000000  1
  C  C39  1  0.50000000  0.00000000  0.60647000  1
  C  C40  1  0.00000000  0.50000000  0.60647000  1
  C  C41  1  0.70250900  0.29749100  0.20743600  1
  C  C42  1  0.50000000  0.00000000  0.10647000  1
  C  C43  1  0.50000000  0.50000000  0.09263700  1
  C  C44  1  0.50000000  0.50000000  0.90736300  1
  C  C45  1  0.28589500  0.28589500  0.50000000  1
  C  C46  1  0.00000000  0.00000000  0.40736300  1
  C  C47  1  0.20250900  0.20250900  0.29256400  1
