# generated using pymatgen
data_Cu2NiC6
_symmetry_space_group_name_H-M   'P 1'
_cell_length_a   6.45918600
_cell_length_b   7.59838071
_cell_length_c   7.47057970
_cell_angle_alpha   116.14758734
_cell_angle_beta   103.07832530
_cell_angle_gamma   97.46012037
_symmetry_Int_Tables_number   1
_chemical_formula_structural   Cu2NiC6
_chemical_formula_sum   'Cu4 Ni2 C12'
_cell_volume   309.34612989
_cell_formula_units_Z   2
loop_
 _symmetry_equiv_pos_site_id
 _symmetry_equiv_pos_as_xyz
  1  'x, y, z'
loop_
 _atom_site_type_symbol
 _atom_site_label
 _atom_site_symmetry_multiplicity
 _atom_site_fract_x
 _atom_site_fract_y
 _atom_site_fract_z
 _atom_site_occupancy
  C  C0  1  0.33219400  0.27810200  0.12660200  1
  C  C1  1  0.66780600  0.72189800  0.87339800  1
  C  C2  1  0.96083700  0.25005800  0.53551000  1
  C  C3  1  0.03916300  0.74994200  0.46449000  1
  Ni  Ni4  1  0.81241100  0.20836700  0.70704400  1
  Ni  Ni5  1  0.18758900  0.79163300  0.29295600  1
  Cu  Cu6  1  0.84351800  0.17288800  0.32435900  1
  Cu  Cu7  1  0.15648200  0.82711200  0.67564100  1
  Cu  Cu8  1  0.18152000  0.35940400  0.62607900  1
  Cu  Cu9  1  0.81848000  0.64059600  0.37392100  1
  C  C10  1  0.71792300  0.58157300  0.47254300  1
  C  C11  1  0.72140400  0.59659200  0.18621100  1
  C  C12  1  0.35977300  0.91547700  0.73690300  1
  C  C13  1  0.64022700  0.08452300  0.26309700  1
  C  C14  1  0.28207700  0.41842700  0.52745700  1
  C  C15  1  0.93511200  0.18343000  0.19525200  1
  C  C16  1  0.27859600  0.40340800  0.81378900  1
  C  C17  1  0.06488800  0.81657000  0.80474800  1
