# generated using pymatgen
data_Cu8NiC
_symmetry_space_group_name_H-M   'P 1'
_cell_length_a   12.29507479
_cell_length_b   12.29507479
_cell_length_c   12.29507479
_cell_angle_alpha   118.30554859
_cell_angle_beta   117.24832654
_cell_angle_gamma   93.89789162
_symmetry_Int_Tables_number   1
_chemical_formula_structural   Cu8NiC
_chemical_formula_sum   'Cu32 Ni4 C4'
_cell_volume   1354.88759874
_cell_formula_units_Z   4
loop_
 _symmetry_equiv_pos_site_id
 _symmetry_equiv_pos_as_xyz
  1  'x, y, z'
loop_
 _atom_site_type_symbol
 _atom_site_label
 _atom_site_symmetry_multiplicity
 _atom_site_fract_x
 _atom_site_fract_y
 _atom_site_fract_z
 _atom_site_occupancy
  C  C0  1  0.24648400  0.74648400  0.00000000  1
  C  C1  1  0.25351600  0.25351600  0.50000000  1
  C  C2  1  0.74648400  0.74648400  0.50000000  1
  C  C3  1  0.75351600  0.25351600  0.00000000  1
  Ni  Ni4  1  0.75000000  0.68962300  0.93962300  1
  Ni  Ni5  1  0.75000000  0.17844300  0.42844300  1
  Ni  Ni6  1  0.25000000  0.82155700  0.57155700  1
  Ni  Ni7  1  0.25000000  0.31037700  0.06037700  1
  Cu  Cu8  1  0.22623700  0.40206400  0.48493100  1
  Cu  Cu9  1  0.75000000  0.97890200  0.22890200  1
  Cu  Cu10  1  0.39308900  0.71603600  0.98048400  1
  Cu  Cu11  1  0.10691100  0.08739500  0.32294700  1
  Cu  Cu12  1  0.40090400  0.96971500  0.56881100  1
  Cu  Cu13  1  0.76444800  0.08739500  0.98048400  1
  Cu  Cu14  1  0.09909600  0.66790700  0.56881100  1
  Cu  Cu15  1  0.25000000  0.02109800  0.77109800  1
  Cu  Cu16  1  0.58286700  0.75869400  0.48493100  1
  Cu  Cu17  1  0.09885600  0.15781800  0.05896200  1
  Cu  Cu18  1  0.23555200  0.91260500  0.01951600  1
  Cu  Cu19  1  0.55283700  0.69227700  0.74511400  1
  Cu  Cu20  1  0.25000000  0.61888300  0.36888300  1
  Cu  Cu21  1  0.77376300  0.59793600  0.51506900  1
  Cu  Cu22  1  0.59885600  0.53989500  0.94103800  1
  Cu  Cu23  1  0.94716300  0.69227700  0.13944000  1
  Cu  Cu24  1  0.72623700  0.24130600  0.82417300  1
  Cu  Cu25  1  0.90090400  0.33209300  0.43118900  1
  Cu  Cu26  1  0.90114400  0.84218200  0.94103800  1
  Cu  Cu27  1  0.26444800  0.28396400  0.67705300  1
  Cu  Cu28  1  0.05283700  0.30772300  0.86056000  1
  Cu  Cu29  1  0.41713300  0.24130600  0.51506900  1
  Cu  Cu30  1  0.73555200  0.71603600  0.32294700  1
  Cu  Cu31  1  0.08286700  0.59793600  0.82417300  1
  Cu  Cu32  1  0.75000000  0.38111700  0.63111700  1
  Cu  Cu33  1  0.27376300  0.75869400  0.17582700  1
  Cu  Cu34  1  0.40114400  0.46010500  0.05896200  1
  Cu  Cu35  1  0.60691100  0.28396400  0.01951600  1
  Cu  Cu36  1  0.91713300  0.40206400  0.17582700  1
  Cu  Cu37  1  0.89308900  0.91260500  0.67705300  1
  Cu  Cu38  1  0.59909600  0.03028500  0.43118900  1
  Cu  Cu39  1  0.44716300  0.30772300  0.25488600  1
