# generated using pymatgen
data_Cu3NiC7
_symmetry_space_group_name_H-M   'P 1'
_cell_length_a   11.01216500
_cell_length_b   8.46292300
_cell_length_c   13.04672555
_cell_angle_alpha   78.98862562
_cell_angle_beta   90.00000000
_cell_angle_gamma   90.00000000
_symmetry_Int_Tables_number   1
_chemical_formula_structural   Cu3NiC7
_chemical_formula_sum   'Cu12 Ni4 C28'
_cell_volume   1193.50552832
_cell_formula_units_Z   4
loop_
 _symmetry_equiv_pos_site_id
 _symmetry_equiv_pos_as_xyz
  1  'x, y, z'
loop_
 _atom_site_type_symbol
 _atom_site_label
 _atom_site_symmetry_multiplicity
 _atom_site_fract_x
 _atom_site_fract_y
 _atom_site_fract_z
 _atom_site_occupancy
  Ni  Ni0  1  0.33395200  0.18690200  0.31003200  1
  Ni  Ni1  1  0.16604800  0.18690200  0.81003200  1
  Ni  Ni2  1  0.83395200  0.81309800  0.18996800  1
  Ni  Ni3  1  0.66604800  0.81309800  0.68996800  1
  C  C4  1  0.72496800  0.17337000  0.41893300  1
  C  C5  1  0.22496800  0.82663000  0.08106700  1
  C  C6  1  0.77503200  0.17337000  0.91893300  1
  C  C7  1  0.27503200  0.82663000  0.58106700  1
  Cu  Cu8  1  0.14879500  0.44523600  0.90414700  1
  Cu  Cu9  1  0.09819200  0.22521200  0.25372500  1
  Cu  Cu10  1  0.40180800  0.22521200  0.75372500  1
  Cu  Cu11  1  0.95409600  0.70848900  0.37063500  1
  Cu  Cu12  1  0.35120500  0.44523600  0.40414700  1
  Cu  Cu13  1  0.45409600  0.29151100  0.12936500  1
  Cu  Cu14  1  0.85120500  0.55476400  0.09585300  1
  Cu  Cu15  1  0.54590400  0.70848900  0.87063500  1
  Cu  Cu16  1  0.90180800  0.77478800  0.74627500  1
  Cu  Cu17  1  0.59819200  0.77478800  0.24627500  1
  Cu  Cu18  1  0.64879500  0.55476400  0.59585300  1
  Cu  Cu19  1  0.04590400  0.29151100  0.62936500  1
  C  C20  1  0.21810600  0.87688000  0.69844300  1
  C  C21  1  0.87084400  0.24157400  0.44737800  1
  C  C22  1  0.57779500  0.10211300  0.39114400  1
  C  C23  1  0.71810600  0.12312000  0.80155700  1
  C  C24  1  0.68586900  0.36843300  0.35291000  1
  C  C25  1  0.78189400  0.12312000  0.30155700  1
  C  C26  1  0.23880400  0.02550800  0.51320000  1
  C  C27  1  0.12915600  0.75842600  0.55262200  1
  C  C28  1  0.07779500  0.89788700  0.10885600  1
  C  C29  1  0.33223800  0.78336600  0.46159800  1
  C  C30  1  0.66776200  0.21663400  0.53840200  1
  C  C31  1  0.18586900  0.63156700  0.14709000  1
  C  C32  1  0.83223800  0.21663400  0.03840200  1
  C  C33  1  0.16776200  0.78336600  0.96159800  1
  C  C34  1  0.26119600  0.02550800  0.01320000  1
  C  C35  1  0.73880400  0.97449200  0.98680000  1
  C  C36  1  0.42220500  0.89788700  0.60885600  1
  C  C37  1  0.92220500  0.10211300  0.89114400  1
  C  C38  1  0.62915600  0.24157400  0.94737800  1
  C  C39  1  0.76119600  0.97449200  0.48680000  1
  C  C40  1  0.37084400  0.75842600  0.05262200  1
  C  C41  1  0.81413100  0.36843300  0.85291000  1
  C  C42  1  0.31413100  0.63156700  0.64709000  1
  C  C43  1  0.28189400  0.87688000  0.19844300  1
