# generated using pymatgen
data_Cu(Ni3C10)2
_symmetry_space_group_name_H-M   'P 1'
_cell_length_a   9.86218993
_cell_length_b   9.86218993
_cell_length_c   18.73291200
_cell_angle_alpha   90.00000000
_cell_angle_beta   90.00000000
_cell_angle_gamma   119.99999955
_symmetry_Int_Tables_number   1
_chemical_formula_structural   Cu(Ni3C10)2
_chemical_formula_sum   'Cu2 Ni12 C40'
_cell_volume   1577.91153539
_cell_formula_units_Z   2
loop_
 _symmetry_equiv_pos_site_id
 _symmetry_equiv_pos_as_xyz
  1  'x, y, z'
loop_
 _atom_site_type_symbol
 _atom_site_label
 _atom_site_symmetry_multiplicity
 _atom_site_fract_x
 _atom_site_fract_y
 _atom_site_fract_z
 _atom_site_occupancy
  C  C0  1  0.66666700  0.33333300  0.75000000  1
  C  C1  1  0.33333300  0.66666700  0.25000000  1
  C  C2  1  0.66666700  0.33333300  0.25000000  1
  C  C3  1  0.33333300  0.66666700  0.75000000  1
  Ni  Ni4  1  0.21985100  0.04197500  0.07486400  1
  Ni  Ni5  1  0.04197500  0.82212400  0.92513600  1
  Ni  Ni6  1  0.78014900  0.95802500  0.92513600  1
  Ni  Ni7  1  0.21985100  0.17787600  0.42513600  1
  Ni  Ni8  1  0.17787600  0.21985100  0.92513600  1
  Ni  Ni9  1  0.82212400  0.78014900  0.07486400  1
  Ni  Ni10  1  0.95802500  0.17787600  0.07486400  1
  Ni  Ni11  1  0.82212400  0.04197500  0.42513600  1
  Ni  Ni12  1  0.04197500  0.21985100  0.57486400  1
  Ni  Ni13  1  0.17787600  0.95802500  0.57486400  1
  Ni  Ni14  1  0.95802500  0.78014900  0.42513600  1
  Ni  Ni15  1  0.78014900  0.82212400  0.57486400  1
  Cu  Cu16  1  0.00000000  0.00000000  0.00000000  1
  Cu  Cu17  1  0.00000000  0.00000000  0.50000000  1
  C  C18  1  0.81177500  0.76744600  0.84159500  1
  C  C19  1  0.58053000  0.85346100  0.49881800  1
  C  C20  1  0.45628800  0.08112100  0.16335500  1
  C  C21  1  0.91887900  0.37516700  0.16335500  1
  C  C22  1  0.08112100  0.45628800  0.66335500  1
  C  C23  1  0.76744600  0.95567100  0.15840500  1
  C  C24  1  0.85346100  0.58053000  0.99881800  1
  C  C25  1  0.58053000  0.72706900  0.00118200  1
  C  C26  1  0.27293100  0.41947000  0.49881800  1
  C  C27  1  0.76744600  0.81177500  0.34159500  1
  C  C28  1  0.62483300  0.54371200  0.16335500  1
  C  C29  1  0.95567100  0.18822500  0.84159500  1
  C  C30  1  0.14653900  0.41947000  0.00118200  1
  C  C31  1  0.18822500  0.95567100  0.34159500  1
  C  C32  1  0.45628800  0.37516700  0.33664500  1
  C  C33  1  0.04432900  0.81177500  0.15840500  1
  C  C34  1  0.27293100  0.85346100  0.00118200  1
  C  C35  1  0.23255400  0.04432900  0.84159500  1
  C  C36  1  0.18822500  0.23255400  0.15840500  1
  C  C37  1  0.37516700  0.91887900  0.66335500  1
  C  C38  1  0.14653900  0.72706900  0.49881800  1
  C  C39  1  0.23255400  0.18822500  0.65840500  1
  C  C40  1  0.85346100  0.27293100  0.50118200  1
  C  C41  1  0.62483300  0.08112100  0.33664500  1
  C  C42  1  0.41947000  0.27293100  0.99881800  1
  C  C43  1  0.95567100  0.76744600  0.65840500  1
  C  C44  1  0.72706900  0.58053000  0.50118200  1
  C  C45  1  0.54371200  0.62483300  0.66335500  1
  C  C46  1  0.04432900  0.23255400  0.34159500  1
  C  C47  1  0.41947000  0.14653900  0.50118200  1
  C  C48  1  0.81177500  0.04432900  0.65840500  1
  C  C49  1  0.37516700  0.45628800  0.83664500  1
  C  C50  1  0.54371200  0.91887900  0.83664500  1
  C  C51  1  0.08112100  0.62483300  0.83664500  1
  C  C52  1  0.91887900  0.54371200  0.33664500  1
  C  C53  1  0.72706900  0.14653900  0.99881800  1
