# generated using pymatgen
data_CuNiC7
_symmetry_space_group_name_H-M   'P 1'
_cell_length_a   8.65235700
_cell_length_b   6.62332300
_cell_length_c   10.29983798
_cell_angle_alpha   76.88722747
_cell_angle_beta   90.00000000
_cell_angle_gamma   90.00000000
_symmetry_Int_Tables_number   1
_chemical_formula_structural   CuNiC7
_chemical_formula_sum   'Cu4 Ni4 C28'
_cell_volume   574.86578145
_cell_formula_units_Z   4
loop_
 _symmetry_equiv_pos_site_id
 _symmetry_equiv_pos_as_xyz
  1  'x, y, z'
loop_
 _atom_site_type_symbol
 _atom_site_label
 _atom_site_symmetry_multiplicity
 _atom_site_fract_x
 _atom_site_fract_y
 _atom_site_fract_z
 _atom_site_occupancy
  C  C0  1  0.23417900  0.46475100  0.34221900  1
  C  C1  1  0.76582100  0.53524900  0.65778100  1
  C  C2  1  0.73417900  0.53524900  0.15778100  1
  C  C3  1  0.26582100  0.46475100  0.84221900  1
  Ni  Ni4  1  0.51828900  0.97743600  0.32195100  1
  Ni  Ni5  1  0.98171100  0.97743600  0.82195100  1
  Ni  Ni6  1  0.48171100  0.02256400  0.67804900  1
  Ni  Ni7  1  0.01828900  0.02256400  0.17804900  1
  Cu  Cu8  1  0.15068400  0.88515700  0.54993100  1
  Cu  Cu9  1  0.65068400  0.11484300  0.95006900  1
  Cu  Cu10  1  0.84931600  0.11484300  0.45006900  1
  Cu  Cu11  1  0.34931600  0.88515700  0.04993100  1
  C  C12  1  0.01034600  0.26600300  0.76366300  1
  C  C13  1  0.56239100  0.92843000  0.11275100  1
  C  C14  1  0.04460300  0.31082900  0.12653100  1
  C  C15  1  0.54460300  0.68917100  0.37346900  1
  C  C16  1  0.28616900  0.91772300  0.22351800  1
  C  C17  1  0.98965400  0.73399700  0.23633700  1
  C  C18  1  0.14983400  0.00393200  0.98793100  1
  C  C19  1  0.64983400  0.99606800  0.51206900  1
  C  C20  1  0.21383100  0.91772300  0.72351800  1
  C  C21  1  0.06239100  0.07157000  0.38724900  1
  C  C22  1  0.85016600  0.99606800  0.01206900  1
  C  C23  1  0.93760900  0.92843000  0.61275100  1
  C  C24  1  0.65940500  0.37696400  0.94566600  1
  C  C25  1  0.95539700  0.68917100  0.87346900  1
  C  C26  1  0.84059500  0.37696400  0.44566600  1
  C  C27  1  0.34059500  0.62303600  0.05433400  1
  C  C28  1  0.15940500  0.62303600  0.55433400  1
  C  C29  1  0.35016600  0.00393200  0.48793100  1
  C  C30  1  0.71383100  0.08227700  0.77648200  1
  C  C31  1  0.45539700  0.31082900  0.62653100  1
  C  C32  1  0.43760900  0.07157000  0.88724900  1
  C  C33  1  0.78616900  0.08227700  0.27648200  1
  C  C34  1  0.51034600  0.73399700  0.73633700  1
  C  C35  1  0.48965400  0.26600300  0.26366300  1
