# generated using pymatgen
data_Cu2NiC15
_symmetry_space_group_name_H-M   'P 1'
_cell_length_a   9.49445100
_cell_length_b   6.85902600
_cell_length_c   9.65962917
_cell_angle_alpha   87.05721434
_cell_angle_beta   90.00000000
_cell_angle_gamma   90.00000000
_symmetry_Int_Tables_number   1
_chemical_formula_structural   Cu2NiC15
_chemical_formula_sum   'Cu8 Ni4 C60'
_cell_volume   628.23145602
_cell_formula_units_Z   4
loop_
 _symmetry_equiv_pos_site_id
 _symmetry_equiv_pos_as_xyz
  1  'x, y, z'
loop_
 _atom_site_type_symbol
 _atom_site_label
 _atom_site_symmetry_multiplicity
 _atom_site_fract_x
 _atom_site_fract_y
 _atom_site_fract_z
 _atom_site_occupancy
  Ni  Ni0  1  0.67536100  0.74478600  0.52073500  1
  Ni  Ni1  1  0.82463900  0.74478600  0.02073500  1
  Ni  Ni2  1  0.17536100  0.25521400  0.97926500  1
  Ni  Ni3  1  0.32463900  0.25521400  0.47926500  1
  C  C4  1  0.70608300  0.07297500  0.68811200  1
  C  C5  1  0.34258700  0.87966700  0.07196300  1
  C  C6  1  0.84258700  0.12033300  0.42803700  1
  C  C7  1  0.10008500  0.80372200  0.17884000  1
  C  C8  1  0.65562500  0.30811700  0.64453600  1
  C  C9  1  0.00000000  0.00000000  0.00000000  1
  C  C10  1  0.78749600  0.75841200  0.31578200  1
  C  C11  1  0.60008500  0.19627800  0.32116000  1
  C  C12  1  0.79391700  0.07297500  0.18811200  1
  C  C13  1  0.29391700  0.92702500  0.31188800  1
  C  C14  1  0.61275600  0.37091900  0.88385600  1
  C  C15  1  0.20608300  0.92702500  0.81188800  1
  C  C16  1  0.50581600  0.17672700  0.82313900  1
  C  C17  1  0.15741300  0.87966700  0.57196300  1
  C  C18  1  0.89991500  0.19627800  0.82116000  1
  C  C19  1  0.65736200  0.43980800  0.27374300  1
  C  C20  1  0.34437500  0.69188300  0.35546400  1
  C  C21  1  0.34263800  0.56019200  0.72625700  1
  C  C22  1  0.11275600  0.62908100  0.61614400  1
  C  C23  1  0.71250400  0.75841200  0.81578200  1
  C  C24  1  0.00581600  0.82327300  0.67686100  1
  C  C25  1  0.15562500  0.69188300  0.85546400  1
  C  C26  1  0.84437500  0.30811700  0.14453600  1
  C  C27  1  0.99418400  0.17672700  0.32313900  1
  C  C28  1  0.15736200  0.56019200  0.22625700  1
  C  C29  1  0.00000000  0.50000000  0.00000000  1
  C  C30  1  0.38724400  0.62908100  0.11614400  1
  C  C31  1  0.40585700  0.71552100  0.85607400  1
  C  C32  1  0.50000000  0.00000000  0.50000000  1
  C  C33  1  0.88724400  0.37091900  0.38385600  1
  C  C34  1  0.65741300  0.12033300  0.92803700  1
  C  C35  1  0.84263800  0.43980800  0.77374300  1
  C  C36  1  0.21250400  0.24158800  0.68421800  1
  C  C37  1  0.09414300  0.71552100  0.35607400  1
  C  C38  1  0.28749600  0.24158800  0.18421800  1
  C  C39  1  0.49418400  0.82327300  0.17686100  1
  C  C40  1  0.59414300  0.28447900  0.14392600  1
  C  C41  1  0.90585700  0.28447900  0.64392600  1
  C  C42  1  0.39991500  0.80372200  0.67884000  1
  C  C43  1  0.50000000  0.50000000  0.50000000  1
  Cu  Cu44  1  0.38690200  0.77828500  0.15170800  1
  Cu  Cu45  1  0.84780800  0.28941300  0.74158600  1
  Cu  Cu46  1  0.61309800  0.22171500  0.84829200  1
  Cu  Cu47  1  0.88690200  0.22171500  0.34829200  1
  Cu  Cu48  1  0.15219200  0.71058700  0.25841400  1
  Cu  Cu49  1  0.65219200  0.28941300  0.24158600  1
  Cu  Cu50  1  0.34780800  0.71058700  0.75841400  1
  Cu  Cu51  1  0.11309800  0.77828500  0.65170800  1
  C  C52  1  0.70198000  0.21709800  0.72148800  1
  C  C53  1  0.20198000  0.78290200  0.77851200  1
  C  C54  1  0.29802000  0.78290200  0.27851200  1
  C  C55  1  0.79802000  0.21709800  0.22148800  1
  C  C56  1  0.69340600  0.72911100  0.91856000  1
  C  C57  1  0.77083900  0.82774700  0.15453700  1
  C  C58  1  0.56342700  0.87439400  0.44372400  1
  C  C59  1  0.19340600  0.27088900  0.58144000  1
  C  C60  1  0.22916100  0.17225300  0.84546300  1
  C  C61  1  0.06342700  0.12560600  0.05627600  1
  C  C62  1  0.30659400  0.27088900  0.08144000  1
  C  C63  1  0.80659400  0.72911100  0.41856000  1
  C  C64  1  0.38568400  0.46527100  0.45218200  1
  C  C65  1  0.11431600  0.46527100  0.95218200  1
  C  C66  1  0.27083900  0.17225300  0.34546300  1
  C  C67  1  0.93657300  0.87439400  0.94372400  1
  C  C68  1  0.72916100  0.82774700  0.65453700  1
  C  C69  1  0.88568400  0.53472900  0.04781800  1
  C  C70  1  0.61431600  0.53472900  0.54781800  1
  C  C71  1  0.43657300  0.12560600  0.55627600  1
