# generated using pymatgen
data_CuNiC3
_symmetry_space_group_name_H-M   'P 1'
_cell_length_a   6.88675400
_cell_length_b   6.88675400
_cell_length_c   5.37290662
_cell_angle_alpha   73.72493080
_cell_angle_beta   73.72493080
_cell_angle_gamma   86.56440031
_symmetry_Int_Tables_number   1
_chemical_formula_structural   CuNiC3
_chemical_formula_sum   'Cu4 Ni4 C12'
_cell_volume   234.76130992
_cell_formula_units_Z   4
loop_
 _symmetry_equiv_pos_site_id
 _symmetry_equiv_pos_as_xyz
  1  'x, y, z'
loop_
 _atom_site_type_symbol
 _atom_site_label
 _atom_site_symmetry_multiplicity
 _atom_site_fract_x
 _atom_site_fract_y
 _atom_site_fract_z
 _atom_site_occupancy
  Ni  Ni0  1  0.11600500  0.88399500  0.75000000  1
  Ni  Ni1  1  0.76852600  0.23147400  0.75000000  1
  Ni  Ni2  1  0.23147400  0.76852600  0.25000000  1
  Ni  Ni3  1  0.88399500  0.11600500  0.25000000  1
  Cu  Cu4  1  0.38490700  0.21748300  0.23263000  1
  Cu  Cu5  1  0.61509300  0.78251700  0.76737000  1
  Cu  Cu6  1  0.21748300  0.38490700  0.73263000  1
  Cu  Cu7  1  0.78251700  0.61509300  0.26737000  1
  C  C8  1  0.32820000  0.37560800  0.97017700  1
  C  C9  1  0.37560800  0.32820000  0.47017700  1
  C  C10  1  0.62439200  0.67180000  0.52982300  1
  C  C11  1  0.85539100  0.38428100  0.37426700  1
  C  C12  1  0.38428100  0.85539100  0.87426700  1
  C  C13  1  0.96571500  0.78843100  0.14110200  1
  C  C14  1  0.78843100  0.96571500  0.64110200  1
  C  C15  1  0.67180000  0.62439200  0.02982300  1
  C  C16  1  0.14460900  0.61571900  0.62573300  1
  C  C17  1  0.61571900  0.14460900  0.12573300  1
  C  C18  1  0.03428500  0.21156900  0.85889800  1
  C  C19  1  0.21156900  0.03428500  0.35889800  1
