# generated using pymatgen
data_CuNi
_symmetry_space_group_name_H-M   'P 1'
_cell_length_a   3.09404116
_cell_length_b   3.09404116
_cell_length_c   45.55453500
_cell_angle_alpha   90.00000000
_cell_angle_beta   90.00000000
_cell_angle_gamma   119.99998199
_symmetry_Int_Tables_number   1
_chemical_formula_structural   CuNi
_chemical_formula_sum   'Cu18 Ni18'
_cell_volume   377.67175071
_cell_formula_units_Z   18
loop_
 _symmetry_equiv_pos_site_id
 _symmetry_equiv_pos_as_xyz
  1  'x, y, z'
loop_
 _atom_site_type_symbol
 _atom_site_label
 _atom_site_symmetry_multiplicity
 _atom_site_fract_x
 _atom_site_fract_y
 _atom_site_fract_z
 _atom_site_occupancy
  Ni  Ni0  1  0.00000000  0.00000000  0.22220200  1
  Ni  Ni1  1  0.66666700  0.33333300  0.33331600  1
  Ni  Ni2  1  0.33333300  0.66666700  0.72222900  1
  Ni  Ni3  1  0.66666700  0.33333300  0.55554100  1
  Ni  Ni4  1  0.00000000  0.00000000  0.44442700  1
  Ni  Ni5  1  0.33333300  0.66666700  0.27775700  1
  Ni  Ni6  1  0.00000000  0.00000000  0.66664700  1
  Ni  Ni7  1  0.33333300  0.66666700  0.05553100  1
  Ni  Ni8  1  0.33333300  0.66666700  0.61108700  1
  Ni  Ni9  1  0.66666700  0.33333300  0.88890000  1
  Ni  Ni10  1  0.00000000  0.00000000  0.83331600  1
  Ni  Ni11  1  0.33333300  0.66666700  0.94438900  1
  Ni  Ni12  1  0.66666700  0.33333300  0.11109400  1
  Ni  Ni13  1  0.00000000  0.00000000  0.99998200  1
  Ni  Ni14  1  0.33333300  0.66666700  0.16664200  1
  Ni  Ni15  1  0.66666700  0.33333300  0.77772700  1
  Ni  Ni16  1  0.33333300  0.66666700  0.38886600  1
  Ni  Ni17  1  0.33333300  0.66666700  0.49997100  1
  Cu  Cu18  1  0.33333300  0.66666700  0.54160000  1
  Cu  Cu19  1  0.66666700  0.33333300  0.93056700  1
  Cu  Cu20  1  0.00000000  0.00000000  0.04176400  1
  Cu  Cu21  1  0.66666700  0.33333300  0.59731500  1
  Cu  Cu22  1  0.00000000  0.00000000  0.26398400  1
  Cu  Cu23  1  0.33333300  0.66666700  0.20828100  1
  Cu  Cu24  1  0.33333300  0.66666700  0.43050400  1
  Cu  Cu25  1  0.00000000  0.00000000  0.70843600  1
  Cu  Cu26  1  0.66666700  0.33333300  0.15287500  1
  Cu  Cu27  1  0.33333300  0.66666700  0.98605600  1
  Cu  Cu28  1  0.33333300  0.66666700  0.76389000  1
  Cu  Cu29  1  0.33333300  0.66666700  0.09716900  1
  Cu  Cu30  1  0.33333300  0.66666700  0.31939500  1
  Cu  Cu31  1  0.00000000  0.00000000  0.48620100  1
  Cu  Cu32  1  0.66666700  0.33333300  0.81940800  1
  Cu  Cu33  1  0.33333300  0.66666700  0.65273600  1
  Cu  Cu34  1  0.00000000  0.00000000  0.87509700  1
  Cu  Cu35  1  0.66666700  0.33333300  0.37509600  1
