# generated using pymatgen
data_Cu(NiC5)2
_symmetry_space_group_name_H-M   'P 1'
_cell_length_a   5.41966700
_cell_length_b   9.35397300
_cell_length_c   16.84846834
_cell_angle_alpha   65.68436760
_cell_angle_beta   90.00000000
_cell_angle_gamma   90.00000000
_symmetry_Int_Tables_number   1
_chemical_formula_structural   Cu(NiC5)2
_chemical_formula_sum   'Cu4 Ni8 C40'
_cell_volume   778.37021061
_cell_formula_units_Z   4
loop_
 _symmetry_equiv_pos_site_id
 _symmetry_equiv_pos_as_xyz
  1  'x, y, z'
loop_
 _atom_site_type_symbol
 _atom_site_label
 _atom_site_symmetry_multiplicity
 _atom_site_fract_x
 _atom_site_fract_y
 _atom_site_fract_z
 _atom_site_occupancy
  C  C0  1  0.94342600  0.50000000  0.75000000  1
  C  C1  1  0.05657400  0.50000000  0.25000000  1
  C  C2  1  0.03858600  0.00000000  0.75000000  1
  C  C3  1  0.96141400  0.00000000  0.25000000  1
  C  C4  1  0.22226500  0.25237200  0.50105900  1
  C  C5  1  0.22226500  0.74762800  0.99894100  1
  C  C6  1  0.77773500  0.74762800  0.49894100  1
  C  C7  1  0.77773500  0.25237200  0.00105900  1
  Ni  Ni8  1  0.27551000  0.83569300  0.61136900  1
  Ni  Ni9  1  0.27551000  0.16430700  0.88863100  1
  Ni  Ni10  1  0.72449000  0.16430700  0.38863100  1
  Ni  Ni11  1  0.72449000  0.83569300  0.11136900  1
  Ni  Ni12  1  0.72128300  0.33327800  0.61472700  1
  Ni  Ni13  1  0.72128300  0.66672200  0.88527300  1
  Ni  Ni14  1  0.27871700  0.66672200  0.38527300  1
  Ni  Ni15  1  0.27871700  0.33327800  0.11472700  1
  Cu  Cu16  1  0.47727500  0.74907200  0.74284300  1
  Cu  Cu17  1  0.47727500  0.25092800  0.75715700  1
  Cu  Cu18  1  0.52272500  0.25092800  0.25715700  1
  Cu  Cu19  1  0.52272500  0.74907200  0.24284300  1
  C  C20  1  0.23713200  0.01145400  0.58852500  1
  C  C21  1  0.23713200  0.98854600  0.91147500  1
  C  C22  1  0.76286800  0.98854600  0.41147500  1
  C  C23  1  0.76286800  0.01145400  0.08852500  1
  C  C24  1  0.50756200  0.80519700  0.56908300  1
  C  C25  1  0.50756200  0.19480300  0.93091700  1
  C  C26  1  0.49243800  0.19480300  0.43091700  1
  C  C27  1  0.49243800  0.80519700  0.06908300  1
  C  C28  1  0.04363400  0.76785300  0.58721600  1
  C  C29  1  0.04363400  0.23214700  0.91278400  1
  C  C30  1  0.95636600  0.23214700  0.41278400  1
  C  C31  1  0.95636600  0.76785300  0.08721600  1
  C  C32  1  0.47954900  0.30897800  0.57330500  1
  C  C33  1  0.47954900  0.69102200  0.92669500  1
  C  C34  1  0.52045100  0.69102200  0.42669500  1
  C  C35  1  0.52045100  0.30897800  0.07330500  1
  C  C36  1  0.22800100  0.48864400  0.41442600  1
  C  C37  1  0.22800100  0.51135600  0.08557400  1
  C  C38  1  0.77199900  0.51135600  0.58557400  1
  C  C39  1  0.77199900  0.48864400  0.91442600  1
  C  C40  1  0.93927000  0.26310800  0.58267700  1
  C  C41  1  0.93927000  0.73689200  0.91732300  1
  C  C42  1  0.06073000  0.73689200  0.41732300  1
  C  C43  1  0.06073000  0.26310800  0.08267700  1
  C  C44  1  0.30120300  0.74747800  0.71354100  1
  C  C45  1  0.30120300  0.25252200  0.78645900  1
  C  C46  1  0.69879700  0.25252200  0.28645900  1
  C  C47  1  0.69879700  0.74747800  0.21354100  1
  C  C48  1  0.70511100  0.74703800  0.78562400  1
  C  C49  1  0.70511100  0.25296200  0.71437600  1
  C  C50  1  0.29488900  0.25296200  0.21437600  1
  C  C51  1  0.29488900  0.74703800  0.28562400  1
