# generated using pymatgen
data_Cu3Ni2C11
_symmetry_space_group_name_H-M   'P 1'
_cell_length_a   6.98091800
_cell_length_b   10.31488300
_cell_length_c   12.24735813
_cell_angle_alpha   73.28348183
_cell_angle_beta   90.00000000
_cell_angle_gamma   90.00000000
_symmetry_Int_Tables_number   1
_chemical_formula_structural   Cu3Ni2C11
_chemical_formula_sum   'Cu12 Ni8 C44'
_cell_volume   844.63040206
_cell_formula_units_Z   4
loop_
 _symmetry_equiv_pos_site_id
 _symmetry_equiv_pos_as_xyz
  1  'x, y, z'
loop_
 _atom_site_type_symbol
 _atom_site_label
 _atom_site_symmetry_multiplicity
 _atom_site_fract_x
 _atom_site_fract_y
 _atom_site_fract_z
 _atom_site_occupancy
  C  C0  1  0.37374000  0.54023400  0.14391400  1
  C  C1  1  0.10672000  0.06278200  0.35230800  1
  C  C2  1  0.87374000  0.45976600  0.35608600  1
  C  C3  1  0.62626000  0.45976600  0.85608600  1
  C  C4  1  0.12626000  0.54023400  0.64391400  1
  C  C5  1  0.39328000  0.06278200  0.85230800  1
  C  C6  1  0.89328000  0.93721800  0.64769200  1
  C  C7  1  0.60672000  0.93721800  0.14769200  1
  Ni  Ni8  1  0.07193900  0.06477100  0.05751900  1
  Ni  Ni9  1  0.92806100  0.93522900  0.94248100  1
  Ni  Ni10  1  0.57193900  0.93522900  0.44248100  1
  Ni  Ni11  1  0.09057500  0.42888100  0.95808500  1
  Ni  Ni12  1  0.59057500  0.57111900  0.54191500  1
  Ni  Ni13  1  0.42806100  0.06477100  0.55751900  1
  Ni  Ni14  1  0.40942500  0.42888100  0.45808500  1
  Ni  Ni15  1  0.90942500  0.57111900  0.04191500  1
  Cu  Cu16  1  0.31814800  0.74237800  0.37342000  1
  Cu  Cu17  1  0.88509200  0.76215600  0.41945400  1
  Cu  Cu18  1  0.11490800  0.23784400  0.58054600  1
  Cu  Cu19  1  0.61490800  0.76215600  0.91945400  1
  Cu  Cu20  1  0.96868700  0.24186000  0.81851900  1
  Cu  Cu21  1  0.18185200  0.74237800  0.87342000  1
  Cu  Cu22  1  0.38509200  0.23784400  0.08054600  1
  Cu  Cu23  1  0.81814800  0.25762200  0.12658000  1
  Cu  Cu24  1  0.53131300  0.24186000  0.31851900  1
  Cu  Cu25  1  0.03131300  0.75814000  0.18148100  1
  Cu  Cu26  1  0.68185200  0.25762200  0.62658000  1
  Cu  Cu27  1  0.46868700  0.75814000  0.68148100  1
  C  C28  1  0.80042500  0.62195100  0.50000400  1
  C  C29  1  0.19957500  0.37804900  0.49999600  1
  C  C30  1  0.87346900  0.76465000  0.28205200  1
  C  C31  1  0.30042500  0.37804900  0.99999600  1
  C  C32  1  0.45089100  0.87272300  0.36003500  1
  C  C33  1  0.37346900  0.23535000  0.21794800  1
  C  C34  1  0.69957500  0.62195100  0.00000400  1
  C  C35  1  0.12653100  0.23535000  0.71794800  1
  C  C36  1  0.98119500  0.10111400  0.92193900  1
  C  C37  1  0.54910900  0.12727700  0.63996500  1
  C  C38  1  0.87887800  0.24052800  0.55508700  1
  C  C39  1  0.74604600  0.25801400  0.25639700  1
  C  C40  1  0.50678800  0.62351100  0.64361800  1
  C  C41  1  0.48119500  0.89888600  0.57806100  1
  C  C42  1  0.25395400  0.74198600  0.74360300  1
  C  C43  1  0.00678800  0.37648900  0.85638200  1
  C  C44  1  0.99321200  0.62351100  0.14361800  1
  C  C45  1  0.12112200  0.75947200  0.44491300  1
  C  C46  1  0.20264000  0.10112700  0.56041800  1
  C  C47  1  0.62112200  0.24052800  0.05508700  1
  C  C48  1  0.42563400  0.59866200  0.43362600  1
  C  C49  1  0.79736000  0.89887300  0.43958200  1
  C  C50  1  0.04910900  0.87272300  0.86003500  1
  C  C51  1  0.92563400  0.40133800  0.06637400  1
  C  C52  1  0.07436600  0.59866200  0.93362600  1
  C  C53  1  0.49321200  0.37648900  0.35638200  1
  C  C54  1  0.57436600  0.40133800  0.56637400  1
  C  C55  1  0.37887800  0.75947200  0.94491300  1
  C  C56  1  0.75395400  0.25801400  0.75639700  1
  C  C57  1  0.51880500  0.10111400  0.42193900  1
  C  C58  1  0.24604600  0.74198600  0.24360300  1
  C  C59  1  0.01880500  0.89888600  0.07806100  1
  C  C60  1  0.29736000  0.10112700  0.06041800  1
  C  C61  1  0.95089100  0.12727700  0.13996500  1
  C  C62  1  0.70264000  0.89887300  0.93958200  1
  C  C63  1  0.62653100  0.76465000  0.78205200  1
