# generated using pymatgen
data_Cu4(Ni2C7)3
_symmetry_space_group_name_H-M   'P 1'
_cell_length_a   7.14766400
_cell_length_b   7.80564199
_cell_length_c   9.27921530
_cell_angle_alpha   107.35319609
_cell_angle_beta   92.37456184
_cell_angle_gamma   111.75213622
_symmetry_Int_Tables_number   1
_chemical_formula_structural   Cu4(Ni2C7)3
_chemical_formula_sum   'Cu4 Ni6 C21'
_cell_volume   452.16478030
_cell_formula_units_Z   1
loop_
 _symmetry_equiv_pos_site_id
 _symmetry_equiv_pos_as_xyz
  1  'x, y, z'
loop_
 _atom_site_type_symbol
 _atom_site_label
 _atom_site_symmetry_multiplicity
 _atom_site_fract_x
 _atom_site_fract_y
 _atom_site_fract_z
 _atom_site_occupancy
  C  C0  1  0.00000000  0.50000000  0.00000000  1
  Ni  Ni1  1  0.44178000  0.29658300  0.09017800  1
  Ni  Ni2  1  0.55822000  0.70341700  0.90982200  1
  Ni  Ni3  1  0.79837300  0.80646400  0.32715500  1
  Ni  Ni4  1  0.20162700  0.19353600  0.67284500  1
  Ni  Ni5  1  0.67356300  0.38012200  0.49068200  1
  Ni  Ni6  1  0.32643700  0.61987800  0.50931800  1
  Cu  Cu7  1  0.64640500  0.09501400  0.73818100  1
  Cu  Cu8  1  0.95869100  0.23028800  0.24900700  1
  Cu  Cu9  1  0.04130900  0.76971200  0.75099300  1
  Cu  Cu10  1  0.35359500  0.90498600  0.26181900  1
  C  C11  1  0.63622600  0.16778600  0.91108100  1
  C  C12  1  0.86731500  0.67965200  0.83557400  1
  C  C13  1  0.95457000  0.71343400  0.57806400  1
  C  C14  1  0.19760600  0.67317700  0.75650300  1
  C  C15  1  0.36377400  0.83221400  0.08891900  1
  C  C16  1  0.51272100  0.87026400  0.35780500  1
  C  C17  1  0.80239400  0.32682300  0.24349700  1
  C  C18  1  0.85468900  0.00345000  0.17364800  1
  C  C19  1  0.44480300  0.47260800  0.63683700  1
  C  C20  1  0.67181900  0.59745900  0.09852300  1
  C  C21  1  0.60337900  0.87254200  0.68452300  1
  C  C22  1  0.86204000  0.21375900  0.71144700  1
  C  C23  1  0.04543000  0.28656600  0.42193600  1
  C  C24  1  0.13268500  0.32034800  0.16442600  1
  C  C25  1  0.14531100  0.99655000  0.82635200  1
  C  C26  1  0.13796000  0.78624100  0.28855300  1
  C  C27  1  0.32818100  0.40254100  0.90147700  1
  C  C28  1  0.39662100  0.12745800  0.31547700  1
  C  C29  1  0.48727900  0.12973600  0.64219500  1
  C  C30  1  0.55519700  0.52739200  0.36316300  1
