# generated using pymatgen
data_Cu7NiC5
_symmetry_space_group_name_H-M   'P 1'
_cell_length_a   7.02012247
_cell_length_b   7.02012247
_cell_length_c   7.02012331
_cell_angle_alpha   65.07422209
_cell_angle_beta   65.07422209
_cell_angle_gamma   65.07421889
_symmetry_Int_Tables_number   1
_chemical_formula_structural   Cu7NiC5
_chemical_formula_sum   'Cu14 Ni2 C10'
_cell_volume   271.72466067
_cell_formula_units_Z   2
loop_
 _symmetry_equiv_pos_site_id
 _symmetry_equiv_pos_as_xyz
  1  'x, y, z'
loop_
 _atom_site_type_symbol
 _atom_site_label
 _atom_site_symmetry_multiplicity
 _atom_site_fract_x
 _atom_site_fract_y
 _atom_site_fract_z
 _atom_site_occupancy
  C  C0  1  0.00000000  0.00000000  0.00000000  1
  C  C1  1  0.00000000  0.50000000  0.00000000  1
  C  C2  1  0.50000000  0.00000000  0.00000000  1
  C  C3  1  0.00000000  0.00000000  0.50000000  1
  C  C4  1  0.63014400  0.63014400  0.19709800  1
  C  C5  1  0.19709800  0.63014400  0.63014400  1
  C  C6  1  0.63014400  0.19709800  0.63014400  1
  C  C7  1  0.36985600  0.80290200  0.36985600  1
  C  C8  1  0.36985600  0.36985600  0.80290200  1
  C  C9  1  0.80290200  0.36985600  0.36985600  1
  Ni  Ni10  1  0.31562400  0.31562400  0.31562400  1
  Ni  Ni11  1  0.68437600  0.68437600  0.68437600  1
  Cu  Cu12  1  0.40381300  0.40381300  0.40381300  1
  Cu  Cu13  1  0.59618700  0.59618700  0.59618700  1
  Cu  Cu14  1  0.50210800  0.17604300  0.17604300  1
  Cu  Cu15  1  0.17604300  0.17604300  0.50210800  1
  Cu  Cu16  1  0.17604300  0.50210800  0.17604300  1
  Cu  Cu17  1  0.82395700  0.49789200  0.82395700  1
  Cu  Cu18  1  0.49789200  0.82395700  0.82395700  1
  Cu  Cu19  1  0.82395700  0.82395700  0.49789200  1
  Cu  Cu20  1  0.88593400  0.27365300  0.27365300  1
  Cu  Cu21  1  0.27365300  0.27365300  0.88593400  1
  Cu  Cu22  1  0.27365300  0.88593400  0.27365300  1
  Cu  Cu23  1  0.72634700  0.11406600  0.72634700  1
  Cu  Cu24  1  0.11406600  0.72634700  0.72634700  1
  Cu  Cu25  1  0.72634700  0.72634700  0.11406600  1
