# generated using pymatgen
data_Cu(NiC)3
_symmetry_space_group_name_H-M   'P 1'
_cell_length_a   11.15525451
_cell_length_b   11.15525451
_cell_length_c   11.15525451
_cell_angle_alpha   99.17646559
_cell_angle_beta   99.17646559
_cell_angle_gamma   132.92563799
_symmetry_Int_Tables_number   1
_chemical_formula_structural   Cu(NiC)3
_chemical_formula_sum   'Cu8 Ni24 C24'
_cell_volume   931.89285448
_cell_formula_units_Z   8
loop_
 _symmetry_equiv_pos_site_id
 _symmetry_equiv_pos_as_xyz
  1  'x, y, z'
loop_
 _atom_site_type_symbol
 _atom_site_label
 _atom_site_symmetry_multiplicity
 _atom_site_fract_x
 _atom_site_fract_y
 _atom_site_fract_z
 _atom_site_occupancy
  Ni  Ni0  1  0.07846300  0.71367500  0.06468400  1
  Ni  Ni1  1  0.30826500  0.34615400  0.85515200  1
  Ni  Ni2  1  0.03240300  0.17713200  0.02244200  1
  Ni  Ni3  1  0.68320900  0.52882700  0.44977000  1
  Ni  Ni4  1  0.86569200  0.63827800  0.77087000  1
  Ni  Ni5  1  0.64899100  0.01377900  0.93531600  1
  Ni  Ni6  1  0.25996100  0.78240300  0.35527100  1
  Ni  Ni7  1  0.82122300  0.70770900  0.06541500  1
  Ni  Ni8  1  0.42713200  0.90469000  0.64472900  1
  Ni  Ni9  1  0.77882700  0.82905700  0.34561800  1
  Ni  Ni10  1  0.34482200  0.61569200  0.72741400  1
  Ni  Ni11  1  0.95770900  0.39229400  0.38648500  1
  Ni  Ni12  1  0.15469000  0.00996100  0.97755800  1
  Ni  Ni13  1  0.64229400  0.75580800  0.93458500  1
  Ni  Ni14  1  0.88827800  0.61740800  0.27258600  1
  Ni  Ni15  1  0.59615400  0.24100200  0.53788900  1
  Ni  Ni16  1  0.26377900  0.82846300  0.86478800  1
  Ni  Ni17  1  0.49100200  0.45311300  0.14484800  1
  Ni  Ni18  1  0.86740800  0.09482200  0.22913000  1
  Ni  Ni19  1  0.70311300  0.05826500  0.46211100  1
  Ni  Ni20  1  0.07905700  0.23343800  0.55023000  1
  Ni  Ni21  1  0.96367500  0.39899100  0.13521200  1
  Ni  Ni22  1  0.48343800  0.43320900  0.65438200  1
  Ni  Ni23  1  0.00580800  0.57122300  0.61351500  1
  Cu  Cu24  1  0.59458700  0.27622800  0.87905700  1
  Cu  Cu25  1  0.14671000  0.97331000  0.62887400  1
  Cu  Cu26  1  0.52622800  0.14717100  0.18164100  1
  Cu  Cu27  1  0.76783600  0.89671000  0.67340100  1
  Cu  Cu28  1  0.22331000  0.09443600  0.32659900  1
  Cu  Cu29  1  0.34443600  0.51783600  0.37112600  1
  Cu  Cu30  1  0.96553000  0.34458700  0.81835900  1
  Cu  Cu31  1  0.39717100  0.71553000  0.12094300  1
  C  C32  1  0.27612800  0.93540400  0.24886000  1
  C  C33  1  0.87030600  0.75681100  0.63045900  1
  C  C34  1  0.87176300  0.49648800  0.88120100  1
  C  C35  1  0.48213700  0.31113800  0.26443500  1
  C  C36  1  0.00681100  0.87635300  0.38650600  1
  C  C37  1  0.69044700  0.24517700  0.37309600  1
  C  C38  1  0.46770300  0.23213700  0.67100000  1
  C  C39  1  0.18540400  0.43654400  0.15927600  1
  C  C40  1  0.12635300  0.23984700  0.36954100  1
  C  C41  1  0.61528700  0.99056200  0.11879900  1
  C  C42  1  0.27726800  0.02612800  0.84072400  1
  C  C43  1  0.16923900  0.80313200  0.56500500  1
  C  C44  1  0.85423400  0.91923900  0.86610700  1
  C  C45  1  0.48984700  0.62030600  0.61349400  1
  C  C46  1  0.56735100  0.44044700  0.94527000  1
  C  C47  1  0.04670300  0.21770300  0.73556500  1
  C  C48  1  0.49517700  0.62208100  0.05473000  1
  C  C49  1  0.56113800  0.79670300  0.32900000  1
  C  C50  1  0.05313200  0.98812700  0.13389300  1
  C  C51  1  0.68654400  0.02726800  0.75114000  1
  C  C52  1  0.23812700  0.60423400  0.43499500  1
  C  C53  1  0.87208100  0.31735100  0.62690400  1
  C  C54  1  0.24056200  0.62176300  0.87527500  1
  C  C55  1  0.74648800  0.36528700  0.12472500  1
