# generated using pymatgen
data_Cu2Ni3
_symmetry_space_group_name_H-M   'P 1'
_cell_length_a   8.82735537
_cell_length_b   8.82735537
_cell_length_c   8.82735537
_cell_angle_alpha   109.47122063
_cell_angle_beta   109.47122063
_cell_angle_gamma   109.47122063
_symmetry_Int_Tables_number   1
_chemical_formula_structural   Cu2Ni3
_chemical_formula_sum   'Cu16 Ni24'
_cell_volume   529.50484896
_cell_formula_units_Z   8
loop_
 _symmetry_equiv_pos_site_id
 _symmetry_equiv_pos_as_xyz
  1  'x, y, z'
loop_
 _atom_site_type_symbol
 _atom_site_label
 _atom_site_symmetry_multiplicity
 _atom_site_fract_x
 _atom_site_fract_y
 _atom_site_fract_z
 _atom_site_occupancy
  Ni  Ni0  1  0.24880300  0.99581500  0.50471800  1
  Ni  Ni1  1  0.50890300  0.50418500  0.75298800  1
  Ni  Ni2  1  0.74408500  0.99528200  0.99109700  1
  Ni  Ni3  1  0.25119700  0.75591500  0.74701200  1
  Ni  Ni4  1  0.00890300  0.25591500  0.00471800  1
  Ni  Ni5  1  0.75298800  0.50890300  0.50418500  1
  Ni  Ni6  1  0.25298800  0.74880300  0.24408500  1
  Ni  Ni7  1  0.49581500  0.24701200  0.49109700  1
  Ni  Ni8  1  0.74701200  0.25119700  0.75591500  1
  Ni  Ni9  1  0.00418500  0.49528200  0.75119700  1
  Ni  Ni10  1  0.25591500  0.00471800  0.00890300  1
  Ni  Ni11  1  0.49528200  0.75119700  0.00418500  1
  Ni  Ni12  1  0.74880300  0.24408500  0.25298800  1
  Ni  Ni13  1  0.99581500  0.50471800  0.24880300  1
  Ni  Ni14  1  0.75591500  0.74701200  0.25119700  1
  Ni  Ni15  1  0.24408500  0.25298800  0.74880300  1
  Ni  Ni16  1  0.75119700  0.00418500  0.49528200  1
  Ni  Ni17  1  0.99528200  0.99109700  0.74408500  1
  Ni  Ni18  1  0.99109700  0.74408500  0.99528200  1
  Ni  Ni19  1  0.50471800  0.24880300  0.99581500  1
  Ni  Ni20  1  0.50418500  0.75298800  0.50890300  1
  Ni  Ni21  1  0.24701200  0.49109700  0.49581500  1
  Ni  Ni22  1  0.49109700  0.49581500  0.24701200  1
  Ni  Ni23  1  0.00471800  0.00890300  0.25591500  1
  Cu  Cu24  1  0.99437400  0.25000000  0.24437400  1
  Cu  Cu25  1  0.49437400  0.25000000  0.74437400  1
  Cu  Cu26  1  0.25000000  0.74437400  0.49437400  1
  Cu  Cu27  1  0.00562600  0.75000000  0.75562600  1
  Cu  Cu28  1  0.74437400  0.49437400  0.25000000  1
  Cu  Cu29  1  0.25000000  0.24437400  0.99437400  1
  Cu  Cu30  1  0.24437400  0.99437400  0.25000000  1
  Cu  Cu31  1  0.75000000  0.25562600  0.50562600  1
  Cu  Cu32  1  0.75562600  0.00562600  0.75000000  1
  Cu  Cu33  1  0.50000000  0.50000000  0.50000000  1
  Cu  Cu34  1  0.75000000  0.75562600  0.00562600  1
  Cu  Cu35  1  0.00000000  0.50000000  0.00000000  1
  Cu  Cu36  1  0.25562600  0.50562600  0.75000000  1
  Cu  Cu37  1  0.50562600  0.75000000  0.25562600  1
  Cu  Cu38  1  0.50000000  0.00000000  0.00000000  1
  Cu  Cu39  1  0.00000000  0.00000000  0.50000000  1
