# generated using pymatgen
data_Cu4NiC31
_symmetry_space_group_name_H-M   'P 1'
_cell_length_a   11.79078411
_cell_length_b   11.79078411
_cell_length_c   3.70275800
_cell_angle_alpha   90.00000000
_cell_angle_beta   90.00000000
_cell_angle_gamma   99.44153167
_symmetry_Int_Tables_number   1
_chemical_formula_structural   Cu4NiC31
_chemical_formula_sum   'Cu4 Ni1 C31'
_cell_volume   507.79372288
_cell_formula_units_Z   1
loop_
 _symmetry_equiv_pos_site_id
 _symmetry_equiv_pos_as_xyz
  1  'x, y, z'
loop_
 _atom_site_type_symbol
 _atom_site_label
 _atom_site_symmetry_multiplicity
 _atom_site_fract_x
 _atom_site_fract_y
 _atom_site_fract_z
 _atom_site_occupancy
  C  C0  1  0.47237700  0.77464400  0.50000000  1
  C  C1  1  0.22535600  0.52762300  0.50000000  1
  C  C2  1  0.01320000  0.73244100  0.50000000  1
  C  C3  1  0.73244100  0.01320000  0.50000000  1
  C  C4  1  0.77464400  0.47237700  0.50000000  1
  C  C5  1  0.98680000  0.26755900  0.50000000  1
  C  C6  1  0.26755900  0.98680000  0.50000000  1
  C  C7  1  0.52762300  0.22535600  0.50000000  1
  C  C8  1  0.72674100  0.72674100  0.00000000  1
  C  C9  1  0.50000000  0.50000000  0.00000000  1
  C  C10  1  0.27325900  0.27325900  0.00000000  1
  Ni  Ni11  1  0.00000000  0.00000000  0.00000000  1
  Cu  Cu12  1  0.75275700  0.24724300  0.00000000  1
  Cu  Cu13  1  0.00000000  0.50000000  0.00000000  1
  Cu  Cu14  1  0.50000000  0.00000000  0.00000000  1
  Cu  Cu15  1  0.24724300  0.75275700  0.00000000  1
  C  C16  1  0.61648000  0.38352000  0.00000000  1
  C  C17  1  0.91607600  0.91607600  0.50000000  1
  C  C18  1  0.09698000  0.90302000  0.00000000  1
  C  C19  1  0.13692100  0.36500300  0.00000000  1
  C  C20  1  0.36920900  0.87971000  0.00000000  1
  C  C21  1  0.08392400  0.08392400  0.50000000  1
  C  C22  1  0.12029000  0.63079100  0.00000000  1
  C  C23  1  0.90302000  0.09698000  0.00000000  1
  C  C24  1  0.37482600  0.37482600  0.50000000  1
  C  C25  1  0.38352000  0.61648000  0.00000000  1
  C  C26  1  0.63499700  0.86307900  0.00000000  1
  C  C27  1  0.87971000  0.36920900  0.00000000  1
  C  C28  1  0.86307900  0.63499700  0.00000000  1
  C  C29  1  0.00000000  0.50000000  0.50000000  1
  C  C30  1  0.76399400  0.23600600  0.50000000  1
  C  C31  1  0.50000000  0.00000000  0.50000000  1
  C  C32  1  0.36500300  0.13692100  0.00000000  1
  C  C33  1  0.23600600  0.76399400  0.50000000  1
  C  C34  1  0.62517400  0.62517400  0.50000000  1
  C  C35  1  0.63079100  0.12029000  0.00000000  1
