# generated using pymatgen
data_Cu4NiC25
_symmetry_space_group_name_H-M   'P 1'
_cell_length_a   9.09294000
_cell_length_b   9.79623500
_cell_length_c   18.60766700
_cell_angle_alpha   90.00000000
_cell_angle_beta   90.00000000
_cell_angle_gamma   90.00000000
_symmetry_Int_Tables_number   1
_chemical_formula_structural   Cu4NiC25
_chemical_formula_sum   'Cu8 Ni2 C50'
_cell_volume   1657.50728382
_cell_formula_units_Z   2
loop_
 _symmetry_equiv_pos_site_id
 _symmetry_equiv_pos_as_xyz
  1  'x, y, z'
loop_
 _atom_site_type_symbol
 _atom_site_label
 _atom_site_symmetry_multiplicity
 _atom_site_fract_x
 _atom_site_fract_y
 _atom_site_fract_z
 _atom_site_occupancy
  C  C0  1  0.14291900  0.99753700  0.57622400  1
  C  C1  1  0.12885100  0.48303300  0.41458500  1
  C  C2  1  0.47973500  0.23808000  0.73237000  1
  C  C3  1  0.50297300  0.75358100  0.25074700  1
  C  C4  1  0.50000000  0.23180000  0.50000000  1
  C  C5  1  0.62885100  0.51696700  0.08541500  1
  C  C6  1  0.35708100  0.00246300  0.07622400  1
  C  C7  1  0.85708100  0.99753700  0.42377600  1
  C  C8  1  0.00297300  0.24641900  0.24925300  1
  C  C9  1  0.99702700  0.24641900  0.75074700  1
  C  C10  1  0.49702700  0.75358100  0.74925300  1
  C  C11  1  0.37114900  0.51696700  0.91458500  1
  C  C12  1  0.00000000  0.76820000  0.00000000  1
  C  C13  1  0.64291900  0.00246300  0.92377600  1
  C  C14  1  0.02026500  0.76192000  0.23237000  1
  C  C15  1  0.97973500  0.76192000  0.76763000  1
  C  C16  1  0.52026500  0.23808000  0.26763000  1
  C  C17  1  0.87114900  0.48303300  0.58541500  1
  Ni  Ni18  1  0.50000000  0.72263200  0.50000000  1
  Ni  Ni19  1  0.00000000  0.27736800  0.00000000  1
  Cu  Cu20  1  0.79128400  0.49063700  0.87784100  1
  Cu  Cu21  1  0.72901900  0.97801600  0.63539500  1
  Cu  Cu22  1  0.70871600  0.50936300  0.37784100  1
  Cu  Cu23  1  0.29128400  0.50936300  0.62215900  1
  Cu  Cu24  1  0.22901900  0.02198400  0.86460500  1
  Cu  Cu25  1  0.27098100  0.97801600  0.36460500  1
  Cu  Cu26  1  0.77098100  0.02198400  0.13539500  1
  Cu  Cu27  1  0.20871600  0.49063700  0.12215900  1
  C  C28  1  0.76770600  0.99832300  0.24478400  1
  C  C29  1  0.30659000  0.84943300  0.91379500  1
  C  C30  1  0.78609600  0.66755400  0.44242200  1
  C  C31  1  0.64727700  0.18398600  0.10313800  1
  C  C32  1  0.85272300  0.81601400  0.60313800  1
  C  C33  1  0.51931400  0.51716600  0.60908200  1
  C  C34  1  0.71390400  0.33244600  0.94242200  1
  C  C35  1  0.98068600  0.48283400  0.10908200  1
  C  C36  1  0.70387600  0.66617700  0.91788100  1
  C  C37  1  0.69341000  0.84943300  0.08620500  1
  C  C38  1  0.76228700  0.52729400  0.27231500  1
  C  C39  1  0.14727700  0.81601400  0.39686200  1
  C  C40  1  0.01931400  0.48283400  0.89091800  1
  C  C41  1  0.26228700  0.47270600  0.22768500  1
  C  C42  1  0.48068600  0.51716600  0.39091800  1
  C  C43  1  0.00952800  0.05569600  0.89600000  1
  C  C44  1  0.26770600  0.00167700  0.25521600  1
  C  C45  1  0.73229400  0.00167700  0.74478400  1
  C  C46  1  0.99047200  0.05569600  0.10400000  1
  C  C47  1  0.79612400  0.33382300  0.41788100  1
  C  C48  1  0.23771300  0.52729400  0.72768500  1
  C  C49  1  0.21390400  0.66755400  0.55757800  1
  C  C50  1  0.35272300  0.18398600  0.89686200  1
  C  C51  1  0.28609600  0.33244600  0.05757800  1
  C  C52  1  0.19341000  0.15056700  0.41379500  1
  C  C53  1  0.29612400  0.66617700  0.08211900  1
  C  C54  1  0.20387600  0.33382300  0.58211900  1
  C  C55  1  0.23229400  0.99832300  0.75521600  1
  C  C56  1  0.73771300  0.47270600  0.77231500  1
  C  C57  1  0.50952800  0.94430400  0.60400000  1
  C  C58  1  0.80659000  0.15056700  0.58620500  1
  C  C59  1  0.49047200  0.94430400  0.39600000  1
