# generated using pymatgen
data_Cu3(NiC4)2
_symmetry_space_group_name_H-M   'P 1'
_cell_length_a   6.56909110
_cell_length_b   6.56909110
_cell_length_c   8.43496400
_cell_angle_alpha   90.00000000
_cell_angle_beta   90.00000000
_cell_angle_gamma   125.03540999
_symmetry_Int_Tables_number   1
_chemical_formula_structural   Cu3(NiC4)2
_chemical_formula_sum   'Cu6 Ni4 C16'
_cell_volume   298.03705285
_cell_formula_units_Z   2
loop_
 _symmetry_equiv_pos_site_id
 _symmetry_equiv_pos_as_xyz
  1  'x, y, z'
loop_
 _atom_site_type_symbol
 _atom_site_label
 _atom_site_symmetry_multiplicity
 _atom_site_fract_x
 _atom_site_fract_y
 _atom_site_fract_z
 _atom_site_occupancy
  Ni  Ni0  1  0.12403200  0.87596800  0.38195800  1
  Ni  Ni1  1  0.37596800  0.62403200  0.88195800  1
  Ni  Ni2  1  0.87596800  0.12403200  0.61804200  1
  Ni  Ni3  1  0.62403200  0.37596800  0.11804200  1
  Cu  Cu4  1  0.37817400  0.12182600  0.75000000  1
  Cu  Cu5  1  0.87817400  0.62182600  0.75000000  1
  Cu  Cu6  1  0.12182600  0.37817400  0.25000000  1
  Cu  Cu7  1  0.62182600  0.87817400  0.25000000  1
  Cu  Cu8  1  0.00000000  0.00000000  0.00000000  1
  Cu  Cu9  1  0.50000000  0.50000000  0.50000000  1
  C  C10  1  0.75296700  0.24703300  0.22540300  1
  C  C11  1  0.65132300  0.88599900  0.49716100  1
  C  C12  1  0.88599900  0.65132300  0.50283900  1
  C  C13  1  0.99735000  0.00265000  0.75475300  1
  C  C14  1  0.15132300  0.38599900  0.00283900  1
  C  C15  1  0.50265000  0.49735000  0.25475300  1
  C  C16  1  0.00265000  0.99735000  0.24524700  1
  C  C17  1  0.61400100  0.84867700  0.00283900  1
  C  C18  1  0.38599900  0.15132300  0.99716100  1
  C  C19  1  0.24703300  0.75296700  0.77459700  1
  C  C20  1  0.49735000  0.50265000  0.74524700  1
  C  C21  1  0.11400100  0.34867700  0.49716100  1
  C  C22  1  0.25296700  0.74703300  0.27459700  1
  C  C23  1  0.34867700  0.11400100  0.50283900  1
  C  C24  1  0.74703300  0.25296700  0.72540300  1
  C  C25  1  0.84867700  0.61400100  0.99716100  1
