# generated using pymatgen
data_Cu10Ni2C25
_symmetry_space_group_name_H-M   'P 1'
_cell_length_a   8.17164100
_cell_length_b   8.31348200
_cell_length_c   23.89507759
_cell_angle_alpha   78.44716647
_cell_angle_beta   90.00000000
_cell_angle_gamma   90.00000000
_symmetry_Int_Tables_number   1
_chemical_formula_structural   Cu10Ni2C25
_chemical_formula_sum   'Cu40 Ni8 C100'
_cell_volume   1590.41961091
_cell_formula_units_Z   4
loop_
 _symmetry_equiv_pos_site_id
 _symmetry_equiv_pos_as_xyz
  1  'x, y, z'
loop_
 _atom_site_type_symbol
 _atom_site_label
 _atom_site_symmetry_multiplicity
 _atom_site_fract_x
 _atom_site_fract_y
 _atom_site_fract_z
 _atom_site_occupancy
  C  C0  1  0.31430200  0.12359300  0.06735300  1
  C  C1  1  0.68569800  0.87640700  0.93264700  1
  C  C2  1  0.81430200  0.87640700  0.43264700  1
  C  C3  1  0.18569800  0.12359300  0.56735300  1
  C  C4  1  0.08948400  0.09237500  0.80585100  1
  C  C5  1  0.22867800  0.01767600  0.43473100  1
  C  C6  1  0.76308600  0.43392900  0.24793300  1
  C  C7  1  0.28264900  0.50210900  0.18418400  1
  C  C8  1  0.21297700  0.75092900  0.92603900  1
  C  C9  1  0.25937300  0.53452800  0.93878200  1
  C  C10  1  0.90512800  0.09661900  0.76366600  1
  C  C11  1  0.60124700  0.84423800  0.08503000  1
  C  C12  1  0.91051600  0.90762500  0.19414900  1
  C  C13  1  0.49778900  0.60641600  0.87138000  1
  C  C14  1  0.09487200  0.90338100  0.23633400  1
  C  C15  1  0.73691400  0.43392900  0.74793300  1
  C  C16  1  0.00221100  0.60641600  0.37138000  1
  C  C17  1  0.10124700  0.15576200  0.41497000  1
  C  C18  1  0.60216800  0.93076300  0.76737700  1
  C  C19  1  0.71297700  0.24907100  0.57396100  1
  C  C20  1  0.06744600  0.44206800  0.73883400  1
  C  C21  1  0.56744600  0.55793200  0.76116600  1
  C  C22  1  0.72867800  0.98232400  0.06526900  1
  C  C23  1  0.02941600  0.52218700  0.12230300  1
  C  C24  1  0.26308600  0.56607100  0.25206700  1
  C  C25  1  0.43039700  0.68445600  0.66042200  1
  C  C26  1  0.50221100  0.39358400  0.12862000  1
  C  C27  1  0.06688000  0.60464900  0.96187700  1
  C  C28  1  0.63807700  0.64450300  0.64066300  1
  C  C29  1  0.99778900  0.39358400  0.62862000  1
  C  C30  1  0.21735100  0.50210900  0.68418400  1
  C  C31  1  0.62146900  0.25240200  0.15521800  1
  C  C32  1  0.86192300  0.64450300  0.14066300  1
  C  C33  1  0.93255400  0.55793200  0.26116600  1
  C  C34  1  0.23691400  0.56607100  0.75206700  1
  C  C35  1  0.74062700  0.46547200  0.06121800  1
  C  C36  1  0.56688000  0.39535100  0.53812300  1
  C  C37  1  0.97058400  0.47781300  0.87769700  1
  C  C38  1  0.41051600  0.09237500  0.30585100  1
  C  C39  1  0.10216800  0.06923700  0.73262300  1
  C  C40  1  0.43312000  0.60464900  0.46187700  1
  C  C41  1  0.36192300  0.35549700  0.35933700  1
  C  C42  1  0.77132200  0.98232400  0.56526900  1
  C  C43  1  0.39875300  0.15576200  0.91497000  1
  C  C44  1  0.39783200  0.06923700  0.23262300  1
  C  C45  1  0.40512800  0.90338100  0.73633400  1
  C  C46  1  0.87853100  0.25240200  0.65521800  1
  C  C47  1  0.93039700  0.31554400  0.83957800  1
  C  C48  1  0.78702300  0.24907100  0.07396100  1
  C  C49  1  0.28702300  0.75092900  0.42603900  1
  C  C50  1  0.13807700  0.35549700  0.85933700  1
  C  C51  1  0.27132200  0.01767600  0.93473100  1
  C  C52  1  0.75937300  0.46547200  0.56121800  1
  C  C53  1  0.89875300  0.84423800  0.58503000  1
  C  C54  1  0.71735100  0.49789100  0.81581600  1
  C  C55  1  0.93312000  0.39535100  0.03812300  1
  C  C56  1  0.52941600  0.47781300  0.37769700  1
  C  C57  1  0.12146900  0.74759800  0.34478200  1
  C  C58  1  0.59487200  0.09661900  0.26366600  1
  C  C59  1  0.89783200  0.93076300  0.26737700  1
  C  C60  1  0.47058400  0.52218700  0.62230300  1
  C  C61  1  0.06960300  0.68445600  0.16042200  1
  C  C62  1  0.58948400  0.90762500  0.69414900  1
  C  C63  1  0.24062700  0.53452800  0.43878200  1
  C  C64  1  0.56960300  0.31554400  0.33957800  1
  C  C65  1  0.78264900  0.49789100  0.31581600  1
  C  C66  1  0.43255400  0.44206800  0.23883400  1
  C  C67  1  0.37853100  0.74759800  0.84478200  1
  C  C68  1  0.52835300  0.95486300  0.72834700  1
  C  C69  1  0.99161500  0.64365500  0.12873400  1
  C  C70  1  0.84760400  0.46068100  0.28040700  1
  C  C71  1  0.19695300  0.63238600  0.95496300  1
  C  C72  1  0.49161500  0.35634500  0.37126600  1
  C  C73  1  0.15239600  0.53931900  0.71959300  1
  C  C74  1  0.65239600  0.46068100  0.78040700  1
  C  C75  1  0.47164700  0.04513700  0.27165300  1
  C  C76  1  0.97164700  0.95486300  0.22834700  1
  C  C77  1  0.50838500  0.64365500  0.62873400  1
  C  C78  1  0.00838500  0.35634500  0.87126600  1
  C  C79  1  0.80304700  0.36761400  0.04503700  1
  C  C80  1  0.02835300  0.04513700  0.77165300  1
  C  C81  1  0.34760400  0.53931900  0.21959300  1
  C  C82  1  0.69695300  0.36761400  0.54503700  1
  C  C83  1  0.30304700  0.63238600  0.45496300  1
  C  C84  1  0.21146200  0.64064900  0.52151200  1
  C  C85  1  0.48354600  0.78841200  0.56384500  1
  C  C86  1  0.50936900  0.17027200  0.70436100  1
  C  C87  1  0.53587800  0.28072600  0.80727800  1
  C  C88  1  0.99063100  0.17027200  0.20436100  1
  C  C89  1  0.71146200  0.35935100  0.97848800  1
  C  C90  1  0.00936900  0.82972800  0.79563900  1
  C  C91  1  0.03587800  0.71927400  0.69272200  1
  C  C92  1  0.49063100  0.82972800  0.29563900  1
  C  C93  1  0.96412200  0.28072600  0.30727800  1
  C  C94  1  0.98354600  0.21158800  0.93615500  1
  C  C95  1  0.01645400  0.78841200  0.06384500  1
  C  C96  1  0.78853800  0.35935100  0.47848800  1
  C  C97  1  0.46412200  0.71927400  0.19272200  1
  C  C98  1  0.28853800  0.64064900  0.02151200  1
  C  C99  1  0.51645400  0.21158800  0.43615500  1
  Ni  Ni100  1  0.20420600  0.79067000  0.04460700  1
  Ni  Ni101  1  0.70420600  0.20933000  0.45539300  1
  Ni  Ni102  1  0.42956000  0.24293200  0.75543900  1
  Ni  Ni103  1  0.29579400  0.79067000  0.54460700  1
  Ni  Ni104  1  0.92956000  0.75706800  0.74456100  1
  Ni  Ni105  1  0.79579400  0.20933000  0.95539300  1
  Ni  Ni106  1  0.57044000  0.75706800  0.24456100  1
  Ni  Ni107  1  0.07044000  0.24293200  0.25543900  1
  Cu  Cu108  1  0.48682700  0.72564100  0.86272700  1
  Cu  Cu109  1  0.25951100  0.48172900  0.05972800  1
  Cu  Cu110  1  0.60975700  0.80152100  0.34218500  1
  Cu  Cu111  1  0.07938700  0.32612000  0.34876000  1
  Cu  Cu112  1  0.74048900  0.51827100  0.94027200  1
  Cu  Cu113  1  0.01317300  0.72564100  0.36272700  1
  Cu  Cu114  1  0.39024300  0.19847900  0.65781500  1
  Cu  Cu115  1  0.32547700  0.76576200  0.31098100  1
  Cu  Cu116  1  0.88469200  0.95182700  0.55908600  1
  Cu  Cu117  1  0.67452300  0.23423800  0.68901900  1
  Cu  Cu118  1  0.11530800  0.04817300  0.44091400  1
  Cu  Cu119  1  0.75951100  0.51827100  0.44027200  1
  Cu  Cu120  1  0.38469200  0.04817300  0.94091400  1
  Cu  Cu121  1  0.51317300  0.27435900  0.13727300  1
  Cu  Cu122  1  0.90254600  0.74084100  0.02258900  1
  Cu  Cu123  1  0.98719500  0.95165900  0.07673000  1
  Cu  Cu124  1  0.17452300  0.76576200  0.81098100  1
  Cu  Cu125  1  0.57938700  0.67388000  0.15124000  1
  Cu  Cu126  1  0.84914300  0.14875900  0.33145500  1
  Cu  Cu127  1  0.42061300  0.32612000  0.84876000  1
  Cu  Cu128  1  0.15085700  0.85124100  0.66854500  1
  Cu  Cu129  1  0.92061300  0.67388000  0.65124000  1
  Cu  Cu130  1  0.09745400  0.25915900  0.97741100  1
  Cu  Cu131  1  0.01280500  0.04834100  0.92327000  1
  Cu  Cu132  1  0.61530800  0.95182700  0.05908600  1
  Cu  Cu133  1  0.04036600  0.68623200  0.51118700  1
  Cu  Cu134  1  0.82547700  0.23423800  0.18901900  1
  Cu  Cu135  1  0.24048900  0.48172900  0.55972800  1
  Cu  Cu136  1  0.40254600  0.25915900  0.47741100  1
  Cu  Cu137  1  0.89024300  0.80152100  0.84218500  1
  Cu  Cu138  1  0.59745400  0.74084100  0.52258900  1
  Cu  Cu139  1  0.45963400  0.68623200  0.01118700  1
  Cu  Cu140  1  0.10975700  0.19847900  0.15781500  1
  Cu  Cu141  1  0.48719500  0.04834100  0.42327000  1
  Cu  Cu142  1  0.34914300  0.85124100  0.16854500  1
  Cu  Cu143  1  0.51280500  0.95165900  0.57673000  1
  Cu  Cu144  1  0.54036600  0.31376800  0.98881300  1
  Cu  Cu145  1  0.65085700  0.14875900  0.83145500  1
  Cu  Cu146  1  0.95963400  0.31376800  0.48881300  1
  Cu  Cu147  1  0.98682700  0.27435900  0.63727300  1
