# generated using pymatgen
data_Cu7NiC10
_symmetry_space_group_name_H-M   'P 1'
_cell_length_a   13.50471000
_cell_length_b   13.50471000
_cell_length_c   13.50471000
_cell_angle_alpha   90.00000000
_cell_angle_beta   90.00000000
_cell_angle_gamma   90.00000000
_symmetry_Int_Tables_number   1
_chemical_formula_structural   Cu7NiC10
_chemical_formula_sum   'Cu28 Ni4 C40'
_cell_volume   2462.95109106
_cell_formula_units_Z   4
loop_
 _symmetry_equiv_pos_site_id
 _symmetry_equiv_pos_as_xyz
  1  'x, y, z'
loop_
 _atom_site_type_symbol
 _atom_site_label
 _atom_site_symmetry_multiplicity
 _atom_site_fract_x
 _atom_site_fract_y
 _atom_site_fract_z
 _atom_site_occupancy
  Ni  Ni0  1  0.76497700  0.76497700  0.76497700  1
  Ni  Ni1  1  0.23502300  0.26497700  0.73502300  1
  Ni  Ni2  1  0.26497700  0.73502300  0.23502300  1
  Ni  Ni3  1  0.73502300  0.23502300  0.26497700  1
  Cu  Cu4  1  0.31830700  0.09797600  0.07647400  1
  Cu  Cu5  1  0.06880600  0.49978100  0.75105500  1
  Cu  Cu6  1  0.43119400  0.50021900  0.25105500  1
  Cu  Cu7  1  0.93119400  0.99978100  0.74894500  1
  Cu  Cu8  1  0.53509800  0.46490200  0.96490200  1
  Cu  Cu9  1  0.68169300  0.59797600  0.42352600  1
  Cu  Cu10  1  0.57647400  0.18169300  0.90202400  1
  Cu  Cu11  1  0.03509800  0.03509800  0.03509800  1
  Cu  Cu12  1  0.18169300  0.90202400  0.57647400  1
  Cu  Cu13  1  0.24894500  0.56880600  0.00021900  1
  Cu  Cu14  1  0.90202400  0.57647400  0.18169300  1
  Cu  Cu15  1  0.25105500  0.43119400  0.50021900  1
  Cu  Cu16  1  0.74894500  0.93119400  0.99978100  1
  Cu  Cu17  1  0.49978100  0.75105500  0.06880600  1
  Cu  Cu18  1  0.59797600  0.42352600  0.68169300  1
  Cu  Cu19  1  0.09797600  0.07647400  0.31830700  1
  Cu  Cu20  1  0.81830700  0.40202400  0.92352600  1
  Cu  Cu21  1  0.92352600  0.81830700  0.40202400  1
  Cu  Cu22  1  0.50021900  0.25105500  0.43119400  1
  Cu  Cu23  1  0.40202400  0.92352600  0.81830700  1
  Cu  Cu24  1  0.46490200  0.96490200  0.53509800  1
  Cu  Cu25  1  0.42352600  0.68169300  0.59797600  1
  Cu  Cu26  1  0.07647400  0.31830700  0.09797600  1
  Cu  Cu27  1  0.99978100  0.74894500  0.93119400  1
  Cu  Cu28  1  0.56880600  0.00021900  0.24894500  1
  Cu  Cu29  1  0.96490200  0.53509800  0.46490200  1
  Cu  Cu30  1  0.75105500  0.06880600  0.49978100  1
  Cu  Cu31  1  0.00021900  0.24894500  0.56880600  1
  C  C32  1  0.96381900  0.46381900  0.03618100  1
  C  C33  1  0.53618100  0.53618100  0.53618100  1
  C  C34  1  0.07376700  0.42623300  0.57376700  1
  C  C35  1  0.06916200  0.56916200  0.93083800  1
  C  C36  1  0.85635700  0.64364300  0.35635700  1
  C  C37  1  0.64364300  0.35635700  0.85635700  1
  C  C38  1  0.03618100  0.96381900  0.46381900  1
  C  C39  1  0.43083800  0.43083800  0.43083800  1
  C  C40  1  0.14364300  0.14364300  0.14364300  1
  C  C41  1  0.57376700  0.07376700  0.42623300  1
  C  C42  1  0.56916200  0.93083800  0.06916200  1
  C  C43  1  0.93083800  0.06916200  0.56916200  1
  C  C44  1  0.42623300  0.57376700  0.07376700  1
  C  C45  1  0.35635700  0.85635700  0.64364300  1
  C  C46  1  0.92623300  0.92623300  0.92623300  1
  C  C47  1  0.46381900  0.03618100  0.96381900  1
  C  C48  1  0.52630700  0.73627500  0.31425200  1
  C  C49  1  0.78684900  0.18753200  0.05542800  1
  C  C50  1  0.71315100  0.81246800  0.55542800  1
  C  C51  1  0.81425200  0.97369300  0.26372500  1
  C  C52  1  0.68753200  0.44457200  0.21315100  1
  C  C53  1  0.18574800  0.47369300  0.23627500  1
  C  C54  1  0.55542800  0.71315100  0.81246800  1
  C  C55  1  0.44457200  0.21315100  0.68753200  1
  C  C56  1  0.76372500  0.68574800  0.02630700  1
  C  C57  1  0.23627500  0.18574800  0.47369300  1
  C  C58  1  0.47369300  0.23627500  0.18574800  1
  C  C59  1  0.28684900  0.31246800  0.94457200  1
  C  C60  1  0.31246800  0.94457200  0.28684900  1
  C  C61  1  0.68574800  0.02630700  0.76372500  1
  C  C62  1  0.05542800  0.78684900  0.18753200  1
  C  C63  1  0.94457200  0.28684900  0.31246800  1
  C  C64  1  0.02630700  0.76372500  0.68574800  1
  C  C65  1  0.73627500  0.31425200  0.52630700  1
  C  C66  1  0.18753200  0.05542800  0.78684900  1
  C  C67  1  0.26372500  0.81425200  0.97369300  1
  C  C68  1  0.21315100  0.68753200  0.44457200  1
  C  C69  1  0.81246800  0.55542800  0.71315100  1
  C  C70  1  0.31425200  0.52630700  0.73627500  1
  C  C71  1  0.97369300  0.26372500  0.81425200  1
