# generated using pymatgen
data_Cu2NiC4
_symmetry_space_group_name_H-M   'P 1'
_cell_length_a   6.18217188
_cell_length_b   6.18217188
_cell_length_c   20.15547246
_cell_angle_alpha   82.83359769
_cell_angle_beta   82.83359769
_cell_angle_gamma   58.39222280
_symmetry_Int_Tables_number   1
_chemical_formula_structural   Cu2NiC4
_chemical_formula_sum   'Cu16 Ni8 C32'
_cell_volume   649.31982074
_cell_formula_units_Z   8
loop_
 _symmetry_equiv_pos_site_id
 _symmetry_equiv_pos_as_xyz
  1  'x, y, z'
loop_
 _atom_site_type_symbol
 _atom_site_label
 _atom_site_symmetry_multiplicity
 _atom_site_fract_x
 _atom_site_fract_y
 _atom_site_fract_z
 _atom_site_occupancy
  Ni  Ni0  1  0.83561100  0.83561100  0.96904400  1
  Ni  Ni1  1  0.36971300  0.36971300  0.87168100  1
  Ni  Ni2  1  0.12113400  0.12113400  0.62063100  1
  Ni  Ni3  1  0.24403000  0.24403000  0.74669200  1
  Ni  Ni4  1  0.87429100  0.87429100  0.36948000  1
  Ni  Ni5  1  0.99413500  0.99413500  0.49611700  1
  Ni  Ni6  1  0.60668000  0.60668000  0.12504000  1
  Ni  Ni7  1  0.74780000  0.74780000  0.24461400  1
  Cu  Cu8  1  0.49665000  0.49665000  0.00134100  1
  Cu  Cu9  1  0.58452900  0.58452900  0.72261400  1
  Cu  Cu10  1  0.36823500  0.87775900  0.87707400  1
  Cu  Cu11  1  0.87775900  0.36823500  0.87707400  1
  Cu  Cu12  1  0.33604800  0.33604800  0.47117700  1
  Cu  Cu13  1  0.12511500  0.62557500  0.62564800  1
  Cu  Cu14  1  0.91220100  0.91220100  0.77958200  1
  Cu  Cu15  1  0.08813900  0.08813900  0.21861900  1
  Cu  Cu16  1  0.62557500  0.12511500  0.62564800  1
  Cu  Cu17  1  0.87838700  0.37760100  0.37458300  1
  Cu  Cu18  1  0.66323500  0.66323500  0.52740400  1
  Cu  Cu19  1  0.37760100  0.87838700  0.37458300  1
  Cu  Cu20  1  0.62630000  0.12602800  0.12329500  1
  Cu  Cu21  1  0.41571300  0.41571300  0.28331900  1
  Cu  Cu22  1  0.12602800  0.62630000  0.12329500  1
  Cu  Cu23  1  0.16496200  0.16496200  0.03229500  1
  C  C24  1  0.67873900  0.17713800  0.93500300  1
  C  C25  1  0.54021900  0.54021900  0.82573900  1
  C  C26  1  0.17713800  0.67873900  0.93500300  1
  C  C27  1  0.67965200  0.67965200  0.93999500  1
  C  C28  1  0.41226300  0.96381500  0.68867400  1
  C  C29  1  0.08647000  0.08647000  0.80861000  1
  C  C30  1  0.20884200  0.20884200  0.93025300  1
  C  C31  1  0.96381500  0.41226300  0.68867400  1
  C  C32  1  0.53218000  0.08900200  0.81302800  1
  C  C33  1  0.29098000  0.29098000  0.57266100  1
  C  C34  1  0.41299400  0.41299400  0.69341400  1
  C  C35  1  0.08900200  0.53218000  0.81302800  1
  C  C36  1  0.16511200  0.71635200  0.43771000  1
  C  C37  1  0.83836400  0.83836400  0.55769000  1
  C  C38  1  0.95987600  0.95987600  0.67915100  1
  C  C39  1  0.28652100  0.83962000  0.56302900  1
  C  C40  1  0.04230700  0.04230700  0.32039300  1
  C  C41  1  0.71635200  0.16511200  0.43771000  1
  C  C42  1  0.16392100  0.16392100  0.44155700  1
  C  C43  1  0.83962000  0.28652100  0.56302900  1
  C  C44  1  0.91214500  0.47001100  0.18768700  1
  C  C45  1  0.59139800  0.59139800  0.30853500  1
  C  C46  1  0.71344600  0.71344600  0.42832600  1
  C  C47  1  0.47001100  0.91214500  0.18768700  1
  C  C48  1  0.03751500  0.59144400  0.31258100  1
  C  C49  1  0.80349400  0.80349400  0.06057500  1
  C  C50  1  0.91395300  0.91395300  0.18975900  1
  C  C51  1  0.59144400  0.03751500  0.31258100  1
  C  C52  1  0.33204000  0.33204000  0.06436500  1
  C  C53  1  0.80077700  0.33293900  0.06995700  1
  C  C54  1  0.45659900  0.45659900  0.18278600  1
  C  C55  1  0.33293900  0.80077700  0.06995700  1
