# generated using pymatgen
data_Cu4Ni6C7
_symmetry_space_group_name_H-M   'P 1'
_cell_length_a   12.70259000
_cell_length_b   12.70259000
_cell_length_c   12.70259000
_cell_angle_alpha   90.00000000
_cell_angle_beta   90.00000000
_cell_angle_gamma   90.00000000
_symmetry_Int_Tables_number   1
_chemical_formula_structural   Cu4Ni6C7
_chemical_formula_sum   'Cu16 Ni24 C28'
_cell_volume   2049.63647890
_cell_formula_units_Z   4
loop_
 _symmetry_equiv_pos_site_id
 _symmetry_equiv_pos_as_xyz
  1  'x, y, z'
loop_
 _atom_site_type_symbol
 _atom_site_label
 _atom_site_symmetry_multiplicity
 _atom_site_fract_x
 _atom_site_fract_y
 _atom_site_fract_z
 _atom_site_occupancy
  C  C0  1  0.50000000  0.00000000  0.50000000  1
  C  C1  1  0.00000000  0.00000000  0.00000000  1
  C  C2  1  0.00000000  0.50000000  0.50000000  1
  C  C3  1  0.50000000  0.50000000  0.00000000  1
  Ni  Ni4  1  0.71421500  0.71780600  0.47599300  1
  Ni  Ni5  1  0.21780600  0.02400700  0.28578500  1
  Ni  Ni6  1  0.97599300  0.71421500  0.78219400  1
  Ni  Ni7  1  0.78578500  0.28219400  0.97599300  1
  Ni  Ni8  1  0.52400700  0.28578500  0.28219400  1
  Ni  Ni9  1  0.78219400  0.97599300  0.71421500  1
  Ni  Ni10  1  0.02400700  0.21421500  0.71780600  1
  Ni  Ni11  1  0.47599300  0.78578500  0.21780600  1
  Ni  Ni12  1  0.21780600  0.47599300  0.78578500  1
  Ni  Ni13  1  0.47599300  0.71421500  0.71780600  1
  Ni  Ni14  1  0.78578500  0.21780600  0.47599300  1
  Ni  Ni15  1  0.28578500  0.28219400  0.52400700  1
  Ni  Ni16  1  0.02400700  0.28578500  0.21780600  1
  Ni  Ni17  1  0.97599300  0.78578500  0.28219400  1
  Ni  Ni18  1  0.78219400  0.52400700  0.21421500  1
  Ni  Ni19  1  0.28219400  0.52400700  0.28578500  1
  Ni  Ni20  1  0.28578500  0.21780600  0.02400700  1
  Ni  Ni21  1  0.28219400  0.97599300  0.78578500  1
  Ni  Ni22  1  0.52400700  0.21421500  0.78219400  1
  Ni  Ni23  1  0.21421500  0.71780600  0.02400700  1
  Ni  Ni24  1  0.71780600  0.47599300  0.71421500  1
  Ni  Ni25  1  0.71421500  0.78219400  0.97599300  1
  Ni  Ni26  1  0.21421500  0.78219400  0.52400700  1
  Ni  Ni27  1  0.71780600  0.02400700  0.21421500  1
  Cu  Cu28  1  0.82908900  0.17091100  0.67091100  1
  Cu  Cu29  1  0.78269800  0.71730200  0.28269800  1
  Cu  Cu30  1  0.82908900  0.32908900  0.17091100  1
  Cu  Cu31  1  0.17091100  0.67091100  0.82908900  1
  Cu  Cu32  1  0.32908900  0.17091100  0.82908900  1
  Cu  Cu33  1  0.32908900  0.32908900  0.32908900  1
  Cu  Cu34  1  0.21730200  0.28269800  0.71730200  1
  Cu  Cu35  1  0.71730200  0.21730200  0.28269800  1
  Cu  Cu36  1  0.17091100  0.82908900  0.32908900  1
  Cu  Cu37  1  0.67091100  0.82908900  0.17091100  1
  Cu  Cu38  1  0.78269800  0.78269800  0.78269800  1
  Cu  Cu39  1  0.21730200  0.21730200  0.21730200  1
  Cu  Cu40  1  0.28269800  0.78269800  0.71730200  1
  Cu  Cu41  1  0.71730200  0.28269800  0.78269800  1
  Cu  Cu42  1  0.67091100  0.67091100  0.67091100  1
  Cu  Cu43  1  0.28269800  0.71730200  0.21730200  1
  C  C44  1  0.03174200  0.21781500  0.96218800  1
  C  C45  1  0.78218500  0.46218800  0.46825800  1
  C  C46  1  0.96825800  0.78218500  0.03781200  1
  C  C47  1  0.53174200  0.28218500  0.03781200  1
  C  C48  1  0.96825800  0.71781500  0.53781200  1
  C  C49  1  0.28218500  0.46218800  0.03174200  1
  C  C50  1  0.03781200  0.53174200  0.28218500  1
  C  C51  1  0.46218800  0.03174200  0.28218500  1
  C  C52  1  0.78218500  0.03781200  0.96825800  1
  C  C53  1  0.53781200  0.53174200  0.21781500  1
  C  C54  1  0.71781500  0.96218800  0.46825800  1
  C  C55  1  0.21781500  0.96218800  0.03174200  1
  C  C56  1  0.46218800  0.46825800  0.78218500  1
  C  C57  1  0.28218500  0.03781200  0.53174200  1
  C  C58  1  0.96218800  0.03174200  0.21781500  1
  C  C59  1  0.03174200  0.28218500  0.46218800  1
  C  C60  1  0.53781200  0.96825800  0.71781500  1
  C  C61  1  0.71781500  0.53781200  0.96825800  1
  C  C62  1  0.21781500  0.53781200  0.53174200  1
  C  C63  1  0.53174200  0.21781500  0.53781200  1
  C  C64  1  0.96218800  0.46825800  0.71781500  1
  C  C65  1  0.03781200  0.96825800  0.78218500  1
  C  C66  1  0.46825800  0.78218500  0.46218800  1
  C  C67  1  0.46825800  0.71781500  0.96218800  1
