# generated using pymatgen
data_CuNiC8
_symmetry_space_group_name_H-M   'P 1'
_cell_length_a   8.21803305
_cell_length_b   8.21803305
_cell_length_c   13.24702300
_cell_angle_alpha   90.00000000
_cell_angle_beta   90.00000000
_cell_angle_gamma   96.62586382
_symmetry_Int_Tables_number   1
_chemical_formula_structural   CuNiC8
_chemical_formula_sum   'Cu4 Ni4 C32'
_cell_volume   888.67625925
_cell_formula_units_Z   4
loop_
 _symmetry_equiv_pos_site_id
 _symmetry_equiv_pos_as_xyz
  1  'x, y, z'
loop_
 _atom_site_type_symbol
 _atom_site_label
 _atom_site_symmetry_multiplicity
 _atom_site_fract_x
 _atom_site_fract_y
 _atom_site_fract_z
 _atom_site_occupancy
  Ni  Ni0  1  0.29466100  0.70533900  0.55823600  1
  Ni  Ni1  1  0.20533900  0.79466100  0.05823600  1
  Ni  Ni2  1  0.79466100  0.20533900  0.94176400  1
  Ni  Ni3  1  0.70533900  0.29466100  0.44176400  1
  Cu  Cu4  1  0.34236100  0.15763900  0.75000000  1
  Cu  Cu5  1  0.65763900  0.84236100  0.25000000  1
  Cu  Cu6  1  0.84236100  0.65763900  0.75000000  1
  Cu  Cu7  1  0.15763900  0.34236100  0.25000000  1
  C  C8  1  0.13231800  0.19500400  0.64065600  1
  C  C9  1  0.63231800  0.69500400  0.85934400  1
  C  C10  1  0.86768200  0.80499600  0.35934400  1
  C  C11  1  0.19500400  0.13231800  0.35934400  1
  C  C12  1  0.36768200  0.30499600  0.14065600  1
  C  C13  1  0.69500400  0.63231800  0.14065600  1
  C  C14  1  0.30499600  0.36768200  0.85934400  1
  C  C15  1  0.80499600  0.86768200  0.64065600  1
  C  C16  1  0.13540100  0.61637600  0.15245100  1
  C  C17  1  0.07084900  0.92915100  0.13016000  1
  C  C18  1  0.92915100  0.07084900  0.86984000  1
  C  C19  1  0.63540100  0.11637600  0.34754900  1
  C  C20  1  0.03088900  0.71670700  0.96951300  1
  C  C21  1  0.84585300  0.15414700  0.50496900  1
  C  C22  1  0.42915100  0.57084900  0.63016000  1
  C  C23  1  0.57084900  0.42915100  0.36984000  1
  C  C24  1  0.38362400  0.86459900  0.15245100  1
  C  C25  1  0.71670700  0.03088900  0.03048700  1
  C  C26  1  0.11637600  0.63540100  0.65245100  1
  C  C27  1  0.96911100  0.28329300  0.03048700  1
  C  C28  1  0.53088900  0.21670700  0.53048700  1
  C  C29  1  0.65414700  0.34585300  0.00496900  1
  C  C30  1  0.36459900  0.88362400  0.65245100  1
  C  C31  1  0.61637600  0.13540100  0.84754900  1
  C  C32  1  0.78329300  0.46911100  0.53048700  1
  C  C33  1  0.86459900  0.38362400  0.84754900  1
  C  C34  1  0.88362400  0.36459900  0.34754900  1
  C  C35  1  0.15414700  0.84585300  0.49503100  1
  C  C36  1  0.28329300  0.96911100  0.96951300  1
  C  C37  1  0.46911100  0.78329300  0.46951300  1
  C  C38  1  0.21670700  0.53088900  0.46951300  1
  C  C39  1  0.34585300  0.65414700  0.99503100  1
