# generated using pymatgen
data_Cu11NiC16
_symmetry_space_group_name_H-M   'P 1'
_cell_length_a   11.76566800
_cell_length_b   12.26677200
_cell_length_c   12.59264700
_cell_angle_alpha   90.00000000
_cell_angle_beta   90.00000000
_cell_angle_gamma   90.00000000
_symmetry_Int_Tables_number   1
_chemical_formula_structural   Cu11NiC16
_chemical_formula_sum   'Cu44 Ni4 C64'
_cell_volume   1817.45602676
_cell_formula_units_Z   4
loop_
 _symmetry_equiv_pos_site_id
 _symmetry_equiv_pos_as_xyz
  1  'x, y, z'
loop_
 _atom_site_type_symbol
 _atom_site_label
 _atom_site_symmetry_multiplicity
 _atom_site_fract_x
 _atom_site_fract_y
 _atom_site_fract_z
 _atom_site_occupancy
  Ni  Ni0  1  0.00000000  0.00000000  0.50000000  1
  Ni  Ni1  1  0.50000000  0.00000000  0.00000000  1
  Ni  Ni2  1  0.50000000  0.50000000  0.50000000  1
  Ni  Ni3  1  0.00000000  0.50000000  0.00000000  1
  Cu  Cu4  1  0.13113500  0.55487800  0.76409800  1
  Cu  Cu5  1  0.86886500  0.44512200  0.23590200  1
  Cu  Cu6  1  0.63113500  0.94512200  0.76409800  1
  Cu  Cu7  1  0.63113500  0.44512200  0.73590200  1
  Cu  Cu8  1  0.77919800  0.18916900  0.32795500  1
  Cu  Cu9  1  0.25710500  0.37572000  0.59402400  1
  Cu  Cu10  1  0.75710500  0.62428000  0.90597600  1
  Cu  Cu11  1  0.27919800  0.31083100  0.32795500  1
  Cu  Cu12  1  0.38283900  0.02077000  0.73124200  1
  Cu  Cu13  1  0.44998200  0.74078200  0.62197300  1
  Cu  Cu14  1  0.36886500  0.05487800  0.23590200  1
  Cu  Cu15  1  0.94998200  0.25921800  0.87802700  1
  Cu  Cu16  1  0.88283900  0.97923000  0.76875800  1
  Cu  Cu17  1  0.11716100  0.02077000  0.23124200  1
  Cu  Cu18  1  0.75710500  0.12428000  0.59402400  1
  Cu  Cu19  1  0.74289500  0.12428000  0.09402400  1
  Cu  Cu20  1  0.55001800  0.25921800  0.37802700  1
  Cu  Cu21  1  0.13113500  0.05487800  0.73590200  1
  Cu  Cu22  1  0.94998200  0.75921800  0.62197300  1
  Cu  Cu23  1  0.24289500  0.87572000  0.40597600  1
  Cu  Cu24  1  0.22080200  0.81083100  0.67204500  1
  Cu  Cu25  1  0.61716100  0.47923000  0.23124200  1
  Cu  Cu26  1  0.00000000  0.00000000  0.00000000  1
  Cu  Cu27  1  0.25710500  0.87572000  0.90597600  1
  Cu  Cu28  1  0.05001800  0.74078200  0.12197300  1
  Cu  Cu29  1  0.74289500  0.62428000  0.40597600  1
  Cu  Cu30  1  0.11716100  0.52077000  0.26875800  1
  Cu  Cu31  1  0.44998200  0.24078200  0.87802700  1
  Cu  Cu32  1  0.27919800  0.81083100  0.17204500  1
  Cu  Cu33  1  0.50000000  0.50000000  0.00000000  1
  Cu  Cu34  1  0.24289500  0.37572000  0.09402400  1
  Cu  Cu35  1  0.38283900  0.52077000  0.76875800  1
  Cu  Cu36  1  0.00000000  0.50000000  0.50000000  1
  Cu  Cu37  1  0.36886500  0.55487800  0.26409800  1
  Cu  Cu38  1  0.50000000  0.00000000  0.50000000  1
  Cu  Cu39  1  0.61716100  0.97923000  0.26875800  1
  Cu  Cu40  1  0.72080200  0.18916900  0.82795500  1
  Cu  Cu41  1  0.55001800  0.75921800  0.12197300  1
  Cu  Cu42  1  0.86886500  0.94512200  0.26409800  1
  Cu  Cu43  1  0.88283900  0.47923000  0.73124200  1
  Cu  Cu44  1  0.22080200  0.31083100  0.82795500  1
  Cu  Cu45  1  0.72080200  0.68916900  0.67204500  1
  Cu  Cu46  1  0.77919800  0.68916900  0.17204500  1
  Cu  Cu47  1  0.05001800  0.24078200  0.37802700  1
  C  C48  1  0.99004500  0.73803900  0.36389600  1
  C  C49  1  0.73441900  0.38322100  0.00817400  1
  C  C50  1  0.73441900  0.88322100  0.49182600  1
  C  C51  1  0.00995500  0.26196100  0.63610400  1
  C  C52  1  0.99004500  0.23803900  0.13610400  1
  C  C53  1  0.23441900  0.61677900  0.49182600  1
  C  C54  1  0.49004500  0.26196100  0.13610400  1
  C  C55  1  0.50995500  0.73803900  0.86389600  1
  C  C56  1  0.76558100  0.38322100  0.50817400  1
  C  C57  1  0.50995500  0.23803900  0.63610400  1
  C  C58  1  0.26558100  0.61677900  0.99182600  1
  C  C59  1  0.00995500  0.76196100  0.86389600  1
  C  C60  1  0.49004500  0.76196100  0.36389600  1
  C  C61  1  0.26558100  0.11677900  0.50817400  1
  C  C62  1  0.76558100  0.88322100  0.99182600  1
  C  C63  1  0.23441900  0.11677900  0.00817400  1
  C  C64  1  0.06748300  0.34265400  0.21155500  1
  C  C65  1  0.27133500  0.60461700  0.63245800  1
  C  C66  1  0.27128300  0.48034800  0.93037400  1
  C  C67  1  0.22866500  0.10461700  0.36754200  1
  C  C68  1  0.14467000  0.19931000  0.57400900  1
  C  C69  1  0.85533000  0.30069000  0.07400900  1
  C  C70  1  0.77133500  0.89538300  0.63245800  1
  C  C71  1  0.56748300  0.15734600  0.21155500  1
  C  C72  1  0.05560800  0.87300600  0.77448500  1
  C  C73  1  0.72866500  0.89538300  0.13245800  1
  C  C74  1  0.72871700  0.51965200  0.06962600  1
  C  C75  1  0.94439200  0.62699400  0.27448500  1
  C  C76  1  0.93251700  0.65734600  0.78844500  1
  C  C77  1  0.72866500  0.39538300  0.36754200  1
  C  C78  1  0.91418900  0.31264900  0.51966400  1
  C  C79  1  0.58581100  0.81264900  0.48033600  1
  C  C80  1  0.27133500  0.10461700  0.86754200  1
  C  C81  1  0.06748300  0.84265400  0.28844500  1
  C  C82  1  0.22871700  0.48034800  0.43037400  1
  C  C83  1  0.35533000  0.19931000  0.07400900  1
  C  C84  1  0.22871700  0.98034800  0.06962600  1
  C  C85  1  0.22866500  0.60461700  0.13245800  1
  C  C86  1  0.58581100  0.31264900  0.01966400  1
  C  C87  1  0.91418900  0.81264900  0.98033600  1
  C  C88  1  0.64467000  0.30069000  0.57400900  1
  C  C89  1  0.08581100  0.68735100  0.48033600  1
  C  C90  1  0.27128300  0.98034800  0.56962600  1
  C  C91  1  0.44439200  0.37300600  0.22551500  1
  C  C92  1  0.77128300  0.01965200  0.93037400  1
  C  C93  1  0.14467000  0.69931000  0.92599100  1
  C  C94  1  0.41418900  0.68735100  0.98033600  1
  C  C95  1  0.85533000  0.80069000  0.42599100  1
  C  C96  1  0.08581100  0.18735100  0.01966400  1
  C  C97  1  0.44439200  0.87300600  0.27448500  1
  C  C98  1  0.93251700  0.15734600  0.71155500  1
  C  C99  1  0.35533000  0.69931000  0.42599100  1
  C  C100  1  0.72871700  0.01965200  0.43037400  1
  C  C101  1  0.55560800  0.12699400  0.72551500  1
  C  C102  1  0.43251700  0.34265400  0.71155500  1
  C  C103  1  0.05560800  0.37300600  0.72551500  1
  C  C104  1  0.41418900  0.18735100  0.51966400  1
  C  C105  1  0.55560800  0.62699400  0.77448500  1
  C  C106  1  0.77133500  0.39538300  0.86754200  1
  C  C107  1  0.64467000  0.80069000  0.92599100  1
  C  C108  1  0.94439200  0.12699400  0.22551500  1
  C  C109  1  0.56748300  0.65734600  0.28844500  1
  C  C110  1  0.43251700  0.84265400  0.78844500  1
  C  C111  1  0.77128300  0.51965200  0.56962600  1
