# generated using pymatgen
data_Cu4NiC11
_symmetry_space_group_name_H-M   'P 1'
_cell_length_a   7.85770700
_cell_length_b   8.95624800
_cell_length_c   9.09561492
_cell_angle_alpha   76.87760828
_cell_angle_beta   90.00000000
_cell_angle_gamma   90.00000000
_symmetry_Int_Tables_number   1
_chemical_formula_structural   Cu4NiC11
_chemical_formula_sum   'Cu16 Ni4 C44'
_cell_volume   623.39414118
_cell_formula_units_Z   4
loop_
 _symmetry_equiv_pos_site_id
 _symmetry_equiv_pos_as_xyz
  1  'x, y, z'
loop_
 _atom_site_type_symbol
 _atom_site_label
 _atom_site_symmetry_multiplicity
 _atom_site_fract_x
 _atom_site_fract_y
 _atom_site_fract_z
 _atom_site_occupancy
  C  C0  1  0.52362300  0.38770800  0.23512400  1
  C  C1  1  0.47637700  0.61229200  0.76487600  1
  C  C2  1  0.97637700  0.88770800  0.23512400  1
  C  C3  1  0.02362300  0.11229200  0.76487600  1
  C  C4  1  0.01520400  0.23588100  0.44881300  1
  C  C5  1  0.48479600  0.73588100  0.44881300  1
  C  C6  1  0.86247900  0.34799400  0.09829500  1
  C  C7  1  0.61723900  0.02392800  0.82083700  1
  C  C8  1  0.55713100  0.31130700  0.71919900  1
  C  C9  1  0.20984600  0.27680900  0.36512000  1
  C  C10  1  0.99826000  0.85910600  0.99853800  1
  C  C11  1  0.05713100  0.18869300  0.28080100  1
  C  C12  1  0.98479600  0.76411900  0.55118700  1
  C  C13  1  0.00919100  0.49987300  0.34261500  1
  C  C14  1  0.63752100  0.84799400  0.09829500  1
  C  C15  1  0.50174000  0.35910600  0.99853800  1
  C  C16  1  0.79015400  0.72319100  0.63488000  1
  C  C17  1  0.51520400  0.26411900  0.55118700  1
  C  C18  1  0.29015400  0.77680900  0.36512000  1
  C  C19  1  0.49080900  0.99987300  0.34261500  1
  C  C20  1  0.36247900  0.15200600  0.90170500  1
  C  C21  1  0.99080900  0.50012700  0.65738500  1
  C  C22  1  0.94286900  0.81130700  0.71919900  1
  C  C23  1  0.44286900  0.68869300  0.28080100  1
  C  C24  1  0.17808200  0.46042700  0.88093600  1
  C  C25  1  0.11723900  0.47607200  0.17916300  1
  C  C26  1  0.70984600  0.22319100  0.63488000  1
  C  C27  1  0.32191800  0.96042700  0.88093600  1
  C  C28  1  0.13752100  0.65200600  0.90170500  1
  C  C29  1  0.50919100  0.00012700  0.65738500  1
  C  C30  1  0.00174000  0.14089400  0.00146200  1
  C  C31  1  0.49826000  0.64089400  0.00146200  1
  C  C32  1  0.88276100  0.52392800  0.82083700  1
  C  C33  1  0.82191800  0.53957300  0.11906400  1
  C  C34  1  0.38276100  0.97607200  0.17916300  1
  C  C35  1  0.67808200  0.03957300  0.11906400  1
  C  C36  1  0.48064700  0.92597800  0.26188600  1
  C  C37  1  0.51935300  0.07402200  0.73811400  1
  C  C38  1  0.85264500  0.42182200  0.17974600  1
  C  C39  1  0.98064700  0.57402200  0.73811400  1
  C  C40  1  0.01935300  0.42597800  0.26188600  1
  C  C41  1  0.35264500  0.07817800  0.82025400  1
  C  C42  1  0.64735500  0.92182200  0.17974600  1
  C  C43  1  0.14735500  0.57817800  0.82025400  1
  Ni  Ni44  1  0.07819200  0.27130700  0.34446900  1
  Ni  Ni45  1  0.92180800  0.72869300  0.65553100  1
  Ni  Ni46  1  0.57819200  0.22869300  0.65553100  1
  Ni  Ni47  1  0.42180800  0.77130700  0.34446900  1
  Cu  Cu48  1  0.07610200  0.81288000  0.37442000  1
  Cu  Cu49  1  0.57610200  0.68712000  0.62558000  1
  Cu  Cu50  1  0.92389800  0.18712000  0.62558000  1
  Cu  Cu51  1  0.22051300  0.13695000  0.71225700  1
  Cu  Cu52  1  0.49667600  0.29461700  0.10775200  1
  Cu  Cu53  1  0.77948700  0.86305000  0.28774300  1
  Cu  Cu54  1  0.99076900  0.94219100  0.83128900  1
  Cu  Cu55  1  0.00332400  0.79461700  0.10775200  1
  Cu  Cu56  1  0.99667600  0.20538300  0.89224800  1
  Cu  Cu57  1  0.49076900  0.55780900  0.16871100  1
  Cu  Cu58  1  0.50332400  0.70538300  0.89224800  1
  Cu  Cu59  1  0.00923100  0.05780900  0.16871100  1
  Cu  Cu60  1  0.72051300  0.36305000  0.28774300  1
  Cu  Cu61  1  0.27948700  0.63695000  0.71225700  1
  Cu  Cu62  1  0.50923100  0.44219100  0.83128900  1
  Cu  Cu63  1  0.42389800  0.31288000  0.37442000  1
