# generated using pymatgen
data_CuNi3C11
_symmetry_space_group_name_H-M   'P 1'
_cell_length_a   6.91018410
_cell_length_b   6.91018410
_cell_length_c   15.20516600
_cell_angle_alpha   90.00000000
_cell_angle_beta   90.00000000
_cell_angle_gamma   120.00000092
_symmetry_Int_Tables_number   1
_chemical_formula_structural   CuNi3C11
_chemical_formula_sum   'Cu2 Ni6 C22'
_cell_volume   628.78334379
_cell_formula_units_Z   2
loop_
 _symmetry_equiv_pos_site_id
 _symmetry_equiv_pos_as_xyz
  1  'x, y, z'
loop_
 _atom_site_type_symbol
 _atom_site_label
 _atom_site_symmetry_multiplicity
 _atom_site_fract_x
 _atom_site_fract_y
 _atom_site_fract_z
 _atom_site_occupancy
  Ni  Ni0  1  0.00000000  0.00000000  0.25000000  1
  Ni  Ni1  1  0.00000000  0.00000000  0.75000000  1
  Ni  Ni2  1  0.33333300  0.66666700  0.89185400  1
  Ni  Ni3  1  0.66666700  0.33333300  0.39185400  1
  Ni  Ni4  1  0.66666700  0.33333300  0.10814600  1
  Ni  Ni5  1  0.33333300  0.66666700  0.60814600  1
  Cu  Cu6  1  0.00000000  0.00000000  0.00000000  1
  Cu  Cu7  1  0.00000000  0.00000000  0.50000000  1
  C  C8  1  0.33333300  0.66666700  0.16125900  1
  C  C9  1  0.66666700  0.33333300  0.66125900  1
  C  C10  1  0.66666700  0.33333300  0.83874100  1
  C  C11  1  0.33333300  0.66666700  0.33874100  1
  C  C12  1  0.45426300  0.90852700  0.25000000  1
  C  C13  1  0.54573700  0.45426300  0.75000000  1
  C  C14  1  0.90852700  0.45426300  0.75000000  1
  C  C15  1  0.09147300  0.54573700  0.25000000  1
  C  C16  1  0.45426300  0.54573700  0.25000000  1
  C  C17  1  0.54573700  0.09147300  0.75000000  1
  C  C18  1  0.86507200  0.73014400  0.39620500  1
  C  C19  1  0.13492800  0.86507200  0.89620500  1
  C  C20  1  0.73014400  0.86507200  0.89620500  1
  C  C21  1  0.26985600  0.13492800  0.39620500  1
  C  C22  1  0.86507200  0.13492800  0.39620500  1
  C  C23  1  0.13492800  0.26985600  0.60379500  1
  C  C24  1  0.13492800  0.86507200  0.60379500  1
  C  C25  1  0.13492800  0.26985600  0.89620500  1
  C  C26  1  0.73014400  0.86507200  0.60379500  1
  C  C27  1  0.26985600  0.13492800  0.10379500  1
  C  C28  1  0.86507200  0.73014400  0.10379500  1
  C  C29  1  0.86507200  0.13492800  0.10379500  1
