# generated using pymatgen
data_CuNiC6
_symmetry_space_group_name_H-M   'P 1'
_cell_length_a   6.62629500
_cell_length_b   8.80125700
_cell_length_c   11.67825300
_cell_angle_alpha   90.00000000
_cell_angle_beta   90.00000000
_cell_angle_gamma   90.00000000
_symmetry_Int_Tables_number   1
_chemical_formula_structural   CuNiC6
_chemical_formula_sum   'Cu4 Ni4 C24'
_cell_volume   681.07250639
_cell_formula_units_Z   4
loop_
 _symmetry_equiv_pos_site_id
 _symmetry_equiv_pos_as_xyz
  1  'x, y, z'
loop_
 _atom_site_type_symbol
 _atom_site_label
 _atom_site_symmetry_multiplicity
 _atom_site_fract_x
 _atom_site_fract_y
 _atom_site_fract_z
 _atom_site_occupancy
  C  C0  1  0.27875100  0.38527800  0.17524000  1
  C  C1  1  0.72124900  0.88527800  0.32476000  1
  C  C2  1  0.22124900  0.61472200  0.67524000  1
  C  C3  1  0.77875100  0.11472200  0.82476000  1
  C  C4  1  0.20984100  0.92618500  0.05590200  1
  C  C5  1  0.79015900  0.42618500  0.44409800  1
  C  C6  1  0.29015900  0.07381500  0.55590200  1
  C  C7  1  0.70984100  0.57381500  0.94409800  1
  Ni  Ni8  1  0.49726200  0.97381200  0.57838700  1
  Ni  Ni9  1  0.00273800  0.02618800  0.07838700  1
  Ni  Ni10  1  0.99726200  0.52618800  0.42161300  1
  Ni  Ni11  1  0.50273800  0.47381200  0.92161300  1
  Cu  Cu12  1  0.78538100  0.28307100  0.27157900  1
  Cu  Cu13  1  0.71461900  0.71692900  0.77157900  1
  Cu  Cu14  1  0.21461900  0.78307100  0.22842100  1
  Cu  Cu15  1  0.28538100  0.21692900  0.72842100  1
  C  C16  1  0.18358000  0.85167000  0.89779200  1
  C  C17  1  0.11991800  0.73792500  0.97949400  1
  C  C18  1  0.08920000  0.92228000  0.50498300  1
  C  C19  1  0.31642000  0.14833000  0.39779200  1
  C  C20  1  0.43005900  0.04556300  0.12573700  1
  C  C21  1  0.06994100  0.95443700  0.62573700  1
  C  C22  1  0.58920000  0.57772000  0.49501700  1
  C  C23  1  0.68358000  0.64833000  0.10220800  1
  C  C24  1  0.88008200  0.23792500  0.52050600  1
  C  C25  1  0.91080000  0.42228000  0.99501700  1
  C  C26  1  0.41080000  0.07772000  0.00498300  1
  C  C27  1  0.38008200  0.26207500  0.47949400  1
  C  C28  1  0.93005900  0.45443700  0.87426300  1
  C  C29  1  0.56994100  0.54556300  0.37426300  1
  C  C30  1  0.81642000  0.35167000  0.60220800  1
  C  C31  1  0.61991800  0.76207500  0.02050600  1
