# generated using pymatgen
data_Cu(Ni2C3)2
_symmetry_space_group_name_H-M   'P 1'
_cell_length_a   9.40473800
_cell_length_b   9.40473800
_cell_length_c   9.96461400
_cell_angle_alpha   90.00000000
_cell_angle_beta   90.00000000
_cell_angle_gamma   90.00000000
_symmetry_Int_Tables_number   1
_chemical_formula_structural   Cu(Ni2C3)2
_chemical_formula_sum   'Cu2 Ni8 C12'
_cell_volume   881.36110875
_cell_formula_units_Z   2
loop_
 _symmetry_equiv_pos_site_id
 _symmetry_equiv_pos_as_xyz
  1  'x, y, z'
loop_
 _atom_site_type_symbol
 _atom_site_label
 _atom_site_symmetry_multiplicity
 _atom_site_fract_x
 _atom_site_fract_y
 _atom_site_fract_z
 _atom_site_occupancy
  Ni  Ni0  1  0.15217800  0.34782200  0.25000000  1
  Ni  Ni1  1  0.84782200  0.65217800  0.75000000  1
  Ni  Ni2  1  0.15217800  0.34782200  0.75000000  1
  Ni  Ni3  1  0.34782200  0.84782200  0.25000000  1
  Ni  Ni4  1  0.34782200  0.84782200  0.75000000  1
  Ni  Ni5  1  0.84782200  0.65217800  0.25000000  1
  Ni  Ni6  1  0.65217800  0.15217800  0.25000000  1
  Ni  Ni7  1  0.65217800  0.15217800  0.75000000  1
  Cu  Cu8  1  0.00000000  0.00000000  0.00000000  1
  Cu  Cu9  1  0.50000000  0.50000000  0.50000000  1
  C  C10  1  0.80710200  0.36367100  0.50000000  1
  C  C11  1  0.00000000  0.00000000  0.28953500  1
  C  C12  1  0.00000000  0.00000000  0.71046500  1
  C  C13  1  0.13632900  0.69289800  0.00000000  1
  C  C14  1  0.69289800  0.86367100  0.00000000  1
  C  C15  1  0.19289800  0.63632900  0.50000000  1
  C  C16  1  0.36367100  0.19289800  0.50000000  1
  C  C17  1  0.63632900  0.80710200  0.50000000  1
  C  C18  1  0.50000000  0.50000000  0.21046500  1
  C  C19  1  0.30710200  0.13632900  0.00000000  1
  C  C20  1  0.86367100  0.30710200  0.00000000  1
  C  C21  1  0.50000000  0.50000000  0.78953500  1
