# generated using pymatgen
data_CuNiC8
_symmetry_space_group_name_H-M   'P 1'
_cell_length_a   5.80295176
_cell_length_b   5.80295190
_cell_length_c   10.05105228
_cell_angle_alpha   106.77828115
_cell_angle_beta   73.22171365
_cell_angle_gamma   119.99938281
_symmetry_Int_Tables_number   1
_chemical_formula_structural   CuNiC8
_chemical_formula_sum   'Cu2 Ni2 C16'
_cell_volume   276.35513096
_cell_formula_units_Z   2
loop_
 _symmetry_equiv_pos_site_id
 _symmetry_equiv_pos_as_xyz
  1  'x, y, z'
loop_
 _atom_site_type_symbol
 _atom_site_label
 _atom_site_symmetry_multiplicity
 _atom_site_fract_x
 _atom_site_fract_y
 _atom_site_fract_z
 _atom_site_occupancy
  C  C0  1  0.62500000  0.37500000  0.12500000  1
  C  C1  1  0.12500000  0.87500000  0.62500000  1
  C  C2  1  0.87500000  0.12500000  0.37500000  1
  C  C3  1  0.37500000  0.62500000  0.87500000  1
  Ni  Ni4  1  0.75000000  0.25000000  0.74999900  1
  Ni  Ni5  1  0.25000000  0.75000000  0.25000100  1
  Cu  Cu6  1  0.50000000  0.50000000  0.50000000  1
  Cu  Cu7  1  0.00000000  0.00000000  0.99999900  1
  C  C8  1  0.38033300  0.14099600  0.38033100  1
  C  C9  1  0.88033400  0.64100000  0.88033300  1
  C  C10  1  0.11966700  0.88033300  0.11966700  1
  C  C11  1  0.61966700  0.38033300  0.61966800  1
  C  C12  1  0.38033200  0.61966700  0.38033200  1
  C  C13  1  0.88033400  0.11966600  0.88033300  1
  C  C14  1  0.85900400  0.61966800  0.38033100  1
  C  C15  1  0.35900000  0.11966700  0.88033300  1
  C  C16  1  0.11966700  0.35900100  0.11966700  1
  C  C17  1  0.61966700  0.85900300  0.61966800  1
  C  C18  1  0.64099900  0.88033300  0.11966800  1
  C  C19  1  0.14099700  0.38033300  0.61966800  1
