# generated using pymatgen
data_Cu(NiC2)3
_symmetry_space_group_name_H-M   'P 1'
_cell_length_a   14.02711322
_cell_length_b   14.02711322
_cell_length_c   14.02711322
_cell_angle_alpha   131.49091313
_cell_angle_beta   131.09615052
_cell_angle_gamma   71.34760519
_symmetry_Int_Tables_number   1
_chemical_formula_structural   Cu(NiC2)3
_chemical_formula_sum   'Cu8 Ni24 C48'
_cell_volume   1524.95053654
_cell_formula_units_Z   8
loop_
 _symmetry_equiv_pos_site_id
 _symmetry_equiv_pos_as_xyz
  1  'x, y, z'
loop_
 _atom_site_type_symbol
 _atom_site_label
 _atom_site_symmetry_multiplicity
 _atom_site_fract_x
 _atom_site_fract_y
 _atom_site_fract_z
 _atom_site_occupancy
  C  C0  1  0.45200400  0.62461600  0.96042500  1
  C  C1  1  0.16290500  0.98938400  0.53845200  1
  C  C2  1  0.35196600  0.35812000  0.78039100  1
  C  C3  1  0.04799600  0.00842200  0.17261200  1
  C  C4  1  0.66290500  0.12445300  0.17352100  1
  C  C5  1  0.12938100  0.45465000  0.96900000  1
  C  C6  1  0.98737100  0.66649800  0.54595000  1
  C  C7  1  0.37945200  0.55857900  0.04595000  1
  C  C8  1  0.48565000  0.95465000  0.82526900  1
  C  C9  1  0.57772900  0.85812000  0.50615400  1
  C  C10  1  0.62054800  0.44142100  0.95405000  1
  C  C11  1  0.83709500  0.01061600  0.46154800  1
  C  C12  1  0.07864000  0.08541600  0.72413900  1
  C  C13  1  0.12054800  0.16649800  0.17912700  1
  C  C14  1  0.14803400  0.92842500  0.00615400  1
  C  C15  1  0.04906900  0.37554700  0.03845200  1
  C  C16  1  0.83581000  0.50842200  0.46042500  1
  C  C17  1  0.87061900  0.54535000  0.03100000  1
  C  C18  1  0.01262900  0.33350200  0.45405000  1
  C  C19  1  0.95200400  0.99157800  0.82738800  1
  C  C20  1  0.54799600  0.37538400  0.03957500  1
  C  C21  1  0.86127700  0.35450100  0.77586100  1
  C  C22  1  0.63872300  0.41458400  0.49322400  1
  C  C23  1  0.42136000  0.14549900  0.00677600  1
  C  C24  1  0.98565000  0.16038100  0.53100000  1
  C  C25  1  0.62938100  0.66038100  0.67473100  1
  C  C26  1  0.92136000  0.91458400  0.27586100  1
  C  C27  1  0.66419000  0.12461600  0.67261200  1
  C  C28  1  0.51435000  0.04535000  0.17473100  1
  C  C29  1  0.92227100  0.42842500  0.28039100  1
  C  C30  1  0.07772900  0.57157500  0.71960900  1
  C  C31  1  0.95093100  0.62445300  0.96154800  1
  C  C32  1  0.33709500  0.87554700  0.82647900  1
  C  C33  1  0.01435000  0.83961900  0.46900000  1
  C  C34  1  0.37061900  0.33961900  0.32526900  1
  C  C35  1  0.36127700  0.58541600  0.50677600  1
  C  C36  1  0.16419000  0.49157800  0.53957500  1
  C  C37  1  0.64803400  0.64188000  0.21960900  1
  C  C38  1  0.87945200  0.83350200  0.82087300  1
  C  C39  1  0.42227100  0.14188000  0.49384600  1
  C  C40  1  0.85196600  0.07157500  0.99384600  1
  C  C41  1  0.45093100  0.48938400  0.32647900  1
  C  C42  1  0.33581000  0.87538400  0.32738800  1
  C  C43  1  0.13872300  0.64549900  0.22413900  1
  C  C44  1  0.51262900  0.05857900  0.67912700  1
  C  C45  1  0.57864000  0.85450100  0.99322400  1
  C  C46  1  0.54906900  0.51061600  0.67352100  1
  C  C47  1  0.48737100  0.94142100  0.32087300  1
  Ni  Ni48  1  0.75000000  0.22096000  0.47096000  1
  Ni  Ni49  1  0.86417900  0.61417900  0.25000000  1
  Ni  Ni50  1  0.63832400  0.35918600  0.74315800  1
  Ni  Ni51  1  0.73028400  0.25000000  0.98028400  1
  Ni  Ni52  1  0.11602800  0.89516600  0.75684200  1
  Ni  Ni53  1  0.61316700  0.36316700  0.25000000  1
  Ni  Ni54  1  0.75000000  0.72096000  0.97096000  1
  Ni  Ni55  1  0.13832400  0.39516600  0.27913800  1
  Ni  Ni56  1  0.26971600  0.75000000  0.01971600  1
  Ni  Ni57  1  0.88397200  0.10483400  0.24315800  1
  Ni  Ni58  1  0.11316700  0.86316700  0.25000000  1
  Ni  Ni59  1  0.76971600  0.75000000  0.51971600  1
  Ni  Ni60  1  0.25000000  0.27904000  0.02904000  1
  Ni  Ni61  1  0.36417900  0.11417900  0.25000000  1
  Ni  Ni62  1  0.63582100  0.88582100  0.75000000  1
  Ni  Ni63  1  0.38683300  0.63683300  0.75000000  1
  Ni  Ni64  1  0.23028400  0.25000000  0.48028400  1
  Ni  Ni65  1  0.38397200  0.14081400  0.77913800  1
  Ni  Ni66  1  0.61602800  0.85918600  0.22086200  1
  Ni  Ni67  1  0.25000000  0.77904000  0.52904000  1
  Ni  Ni68  1  0.13582100  0.38582100  0.75000000  1
  Ni  Ni69  1  0.88683300  0.13683300  0.75000000  1
  Ni  Ni70  1  0.36167600  0.64081400  0.25684200  1
  Ni  Ni71  1  0.86167600  0.60483400  0.72086200  1
  Cu  Cu72  1  0.50000000  0.50000000  0.50000000  1
  Cu  Cu73  1  0.00000000  0.00000000  0.00000000  1
  Cu  Cu74  1  0.50000000  0.50000000  0.00000000  1
  Cu  Cu75  1  0.50000000  0.00000000  0.00000000  1
  Cu  Cu76  1  0.00000000  0.50000000  0.50000000  1
  Cu  Cu77  1  0.50000000  0.00000000  0.50000000  1
  Cu  Cu78  1  0.00000000  0.00000000  0.50000000  1
  Cu  Cu79  1  0.00000000  0.50000000  0.00000000  1
