# generated using pymatgen
data_Cu(Ni4C)2
_symmetry_space_group_name_H-M   'P 1'
_cell_length_a   5.03895500
_cell_length_b   6.64933900
_cell_length_c   11.41064300
_cell_angle_alpha   90.00000000
_cell_angle_beta   90.00000000
_cell_angle_gamma   90.00000000
_symmetry_Int_Tables_number   1
_chemical_formula_structural   Cu(Ni4C)2
_chemical_formula_sum   'Cu4 Ni32 C8'
_cell_volume   382.32180939
_cell_formula_units_Z   4
loop_
 _symmetry_equiv_pos_site_id
 _symmetry_equiv_pos_as_xyz
  1  'x, y, z'
loop_
 _atom_site_type_symbol
 _atom_site_label
 _atom_site_symmetry_multiplicity
 _atom_site_fract_x
 _atom_site_fract_y
 _atom_site_fract_z
 _atom_site_occupancy
  C  C0  1  0.81938200  0.25000000  0.53248300  1
  C  C1  1  0.68061800  0.25000000  0.03248300  1
  C  C2  1  0.18061800  0.75000000  0.46751700  1
  C  C3  1  0.31938200  0.75000000  0.96751700  1
  Ni  Ni4  1  0.05464500  0.38373300  0.74301100  1
  Ni  Ni5  1  0.28903200  0.59926000  0.42840200  1
  Ni  Ni6  1  0.36246600  0.25000000  0.73109600  1
  Ni  Ni7  1  0.21712600  0.37363600  0.54379900  1
  Ni  Ni8  1  0.63753400  0.75000000  0.26890400  1
  Ni  Ni9  1  0.94535500  0.61626700  0.25698900  1
  Ni  Ni10  1  0.17644300  0.75000000  0.57460300  1
  Ni  Ni11  1  0.05464500  0.11626700  0.74301100  1
  Ni  Ni12  1  0.55464500  0.88373300  0.75698900  1
  Ni  Ni13  1  0.86246600  0.75000000  0.76890400  1
  Ni  Ni14  1  0.78287400  0.87363600  0.45620100  1
  Ni  Ni15  1  0.44535500  0.38373300  0.24301100  1
  Ni  Ni16  1  0.71096800  0.40074000  0.57159800  1
  Ni  Ni17  1  0.67644300  0.25000000  0.92539700  1
  Ni  Ni18  1  0.78287400  0.62636400  0.45620100  1
  Ni  Ni19  1  0.55464500  0.61626700  0.75698900  1
  Ni  Ni20  1  0.28287400  0.12636400  0.04379900  1
  Ni  Ni21  1  0.28287400  0.37363600  0.04379900  1
  Ni  Ni22  1  0.21096800  0.59926000  0.92840200  1
  Ni  Ni23  1  0.13753400  0.25000000  0.23109600  1
  Ni  Ni24  1  0.32355700  0.75000000  0.07460300  1
  Ni  Ni25  1  0.21712600  0.12636400  0.54379900  1
  Ni  Ni26  1  0.78903200  0.40074000  0.07159800  1
  Ni  Ni27  1  0.28903200  0.90074000  0.42840200  1
  Ni  Ni28  1  0.21096800  0.90074000  0.92840200  1
  Ni  Ni29  1  0.71712600  0.87363600  0.95620100  1
  Ni  Ni30  1  0.82355700  0.25000000  0.42539700  1
  Ni  Ni31  1  0.71096800  0.09926000  0.57159800  1
  Ni  Ni32  1  0.78903200  0.09926000  0.07159800  1
  Ni  Ni33  1  0.44535500  0.11626700  0.24301100  1
  Ni  Ni34  1  0.94535500  0.88373300  0.25698900  1
  Ni  Ni35  1  0.71712600  0.62636400  0.95620100  1
  Cu  Cu36  1  0.84827300  0.75000000  0.29299500  1
  Cu  Cu37  1  0.65172700  0.75000000  0.79299500  1
  Cu  Cu38  1  0.34827300  0.25000000  0.20700500  1
  Cu  Cu39  1  0.15172700  0.25000000  0.70700500  1
  C  C40  1  0.12036700  0.25000000  0.57763800  1
  C  C41  1  0.87963300  0.75000000  0.42236200  1
  C  C42  1  0.62036700  0.75000000  0.92236200  1
  C  C43  1  0.37963300  0.25000000  0.07763800  1
