# generated using pymatgen
data_CuNiC6
_symmetry_space_group_name_H-M   'P 1'
_cell_length_a   6.04922800
_cell_length_b   8.59703200
_cell_length_c   9.73268100
_cell_angle_alpha   90.00000000
_cell_angle_beta   90.00000000
_cell_angle_gamma   90.00000000
_symmetry_Int_Tables_number   1
_chemical_formula_structural   CuNiC6
_chemical_formula_sum   'Cu4 Ni4 C24'
_cell_volume   506.15203360
_cell_formula_units_Z   4
loop_
 _symmetry_equiv_pos_site_id
 _symmetry_equiv_pos_as_xyz
  1  'x, y, z'
loop_
 _atom_site_type_symbol
 _atom_site_label
 _atom_site_symmetry_multiplicity
 _atom_site_fract_x
 _atom_site_fract_y
 _atom_site_fract_z
 _atom_site_occupancy
  Ni  Ni0  1  0.25000000  0.02635900  0.35812000  1
  Ni  Ni1  1  0.75000000  0.52635900  0.14188000  1
  Ni  Ni2  1  0.25000000  0.47364100  0.85812000  1
  Ni  Ni3  1  0.75000000  0.97364100  0.64188000  1
  Cu  Cu4  1  0.25000000  0.92790000  0.19915400  1
  Cu  Cu5  1  0.25000000  0.57210000  0.69915400  1
  Cu  Cu6  1  0.75000000  0.07210000  0.80084600  1
  Cu  Cu7  1  0.75000000  0.42790000  0.30084600  1
  C  C8  1  0.25000000  0.40790400  0.96269000  1
  C  C9  1  0.75000000  0.90790400  0.53731000  1
  C  C10  1  0.25000000  0.09209600  0.46269000  1
  C  C11  1  0.75000000  0.59209600  0.03731000  1
  C  C12  1  0.25000000  0.09156100  0.11982400  1
  C  C13  1  0.25000000  0.83857700  0.05551200  1
  C  C14  1  0.25000000  0.76355200  0.27817800  1
  C  C15  1  0.01548000  0.42756300  0.30085200  1
  C  C16  1  0.25000000  0.66142300  0.55551200  1
  C  C17  1  0.75000000  0.59156100  0.38017600  1
  C  C18  1  0.25000000  0.40843900  0.61982400  1
  C  C19  1  0.98452000  0.92756300  0.19914800  1
  C  C20  1  0.01548000  0.07243700  0.80085200  1
  C  C21  1  0.98452000  0.57243700  0.69914800  1
  C  C22  1  0.51548000  0.57243700  0.69914800  1
  C  C23  1  0.48452000  0.07243700  0.80085200  1
  C  C24  1  0.75000000  0.33857700  0.44448800  1
  C  C25  1  0.48452000  0.42756300  0.30085200  1
  C  C26  1  0.75000000  0.16142300  0.94448800  1
  C  C27  1  0.75000000  0.23644800  0.72182200  1
  C  C28  1  0.51548000  0.92756300  0.19914800  1
  C  C29  1  0.75000000  0.26355200  0.22182200  1
  C  C30  1  0.25000000  0.73644800  0.77817800  1
  C  C31  1  0.75000000  0.90843900  0.88017600  1
