# generated using pymatgen
data_Cu2NiC9
_symmetry_space_group_name_H-M   'P 1'
_cell_length_a   10.09320100
_cell_length_b   10.53351700
_cell_length_c   15.02929500
_cell_angle_alpha   90.00000000
_cell_angle_beta   90.00000000
_cell_angle_gamma   90.00000000
_symmetry_Int_Tables_number   1
_chemical_formula_structural   Cu2NiC9
_chemical_formula_sum   'Cu16 Ni8 C72'
_cell_volume   1597.86811848
_cell_formula_units_Z   8
loop_
 _symmetry_equiv_pos_site_id
 _symmetry_equiv_pos_as_xyz
  1  'x, y, z'
loop_
 _atom_site_type_symbol
 _atom_site_label
 _atom_site_symmetry_multiplicity
 _atom_site_fract_x
 _atom_site_fract_y
 _atom_site_fract_z
 _atom_site_occupancy
  C  C0  1  0.77714300  0.03490000  0.89638100  1
  C  C1  1  0.27714300  0.46510000  0.89638100  1
  C  C2  1  0.22285700  0.46510000  0.39638100  1
  C  C3  1  0.72285700  0.53490000  0.10361900  1
  C  C4  1  0.77714300  0.53490000  0.60361900  1
  C  C5  1  0.27714300  0.96510000  0.60361900  1
  C  C6  1  0.72285700  0.03490000  0.39638100  1
  C  C7  1  0.22285700  0.96510000  0.10361900  1
  Ni  Ni8  1  0.19440400  0.81899800  0.30608500  1
  Ni  Ni9  1  0.30559600  0.81899800  0.80608500  1
  Ni  Ni10  1  0.80559600  0.18100200  0.69391500  1
  Ni  Ni11  1  0.69440400  0.68100200  0.30608500  1
  Ni  Ni12  1  0.80559600  0.68100200  0.80608500  1
  Ni  Ni13  1  0.69440400  0.18100200  0.19391500  1
  Ni  Ni14  1  0.19440400  0.31899800  0.19391500  1
  Ni  Ni15  1  0.30559600  0.31899800  0.69391500  1
  Cu  Cu16  1  0.49770100  0.27867700  0.55831800  1
  Cu  Cu17  1  0.17133300  0.10287000  0.84657500  1
  Cu  Cu18  1  0.67133300  0.89713000  0.65342500  1
  Cu  Cu19  1  0.17133300  0.60287000  0.65342500  1
  Cu  Cu20  1  0.99770100  0.22132300  0.55831800  1
  Cu  Cu21  1  0.99770100  0.72132300  0.94168200  1
  Cu  Cu22  1  0.00229900  0.77867700  0.44168200  1
  Cu  Cu23  1  0.32866700  0.10287000  0.34657500  1
  Cu  Cu24  1  0.32866700  0.60287000  0.15342500  1
  Cu  Cu25  1  0.82866700  0.39713000  0.34657500  1
  Cu  Cu26  1  0.82866700  0.89713000  0.15342500  1
  Cu  Cu27  1  0.50229900  0.72132300  0.44168200  1
  Cu  Cu28  1  0.00229900  0.27867700  0.05831800  1
  Cu  Cu29  1  0.49770100  0.77867700  0.94168200  1
  Cu  Cu30  1  0.50229900  0.22132300  0.05831800  1
  Cu  Cu31  1  0.67133300  0.39713000  0.84657500  1
  C  C32  1  0.11474100  0.68460300  0.36855000  1
  C  C33  1  0.24470500  0.98712700  0.27412100  1
  C  C34  1  0.39518100  0.33321000  0.00549700  1
  C  C35  1  0.00352400  0.41225400  0.33481600  1
  C  C36  1  0.60481900  0.16679000  0.50549700  1
  C  C37  1  0.25529500  0.48712700  0.72587900  1
  C  C38  1  0.59208300  0.13542600  0.97574900  1
  C  C39  1  0.24470500  0.48712700  0.22587900  1
  C  C40  1  0.89518100  0.16679000  0.00549700  1
  C  C41  1  0.40791700  0.36457400  0.47574900  1
  C  C42  1  0.90271000  0.38436900  0.12400300  1
  C  C43  1  0.59729000  0.38436900  0.62400300  1
  C  C44  1  0.78579000  0.92170000  0.04006700  1
  C  C45  1  0.72568700  0.73885600  0.68424200  1
  C  C46  1  0.27431300  0.26114400  0.31575800  1
  C  C47  1  0.28579000  0.57830000  0.04006700  1
  C  C48  1  0.39518100  0.83321000  0.49450300  1
  C  C49  1  0.40271000  0.61563100  0.37599700  1
  C  C50  1  0.09729000  0.61563100  0.87599700  1
  C  C51  1  0.88525900  0.31539700  0.63145000  1
  C  C52  1  0.38525900  0.68460300  0.86855000  1
  C  C53  1  0.21421000  0.57830000  0.54006700  1
  C  C54  1  0.71421000  0.42170000  0.95993300  1
  C  C55  1  0.99647600  0.08774600  0.83481600  1
  C  C56  1  0.59208300  0.63542600  0.52425100  1
  C  C57  1  0.27431300  0.76114400  0.18424200  1
  C  C58  1  0.90271000  0.88436900  0.37599700  1
  C  C59  1  0.77431300  0.23885600  0.31575800  1
  C  C60  1  0.49647600  0.91225400  0.66518400  1
  C  C61  1  0.72568700  0.23885600  0.81575800  1
  C  C62  1  0.59729000  0.88436900  0.87599700  1
  C  C63  1  0.22568700  0.26114400  0.81575800  1
  C  C64  1  0.71421000  0.92170000  0.54006700  1
  C  C65  1  0.90791700  0.13542600  0.47574900  1
  C  C66  1  0.90791700  0.63542600  0.02425100  1
  C  C67  1  0.11474100  0.18460300  0.13145000  1
  C  C68  1  0.40271000  0.11563100  0.12400300  1
  C  C69  1  0.25529500  0.98712700  0.77412100  1
  C  C70  1  0.61474100  0.81539700  0.36855000  1
  C  C71  1  0.38525900  0.18460300  0.63145000  1
  C  C72  1  0.50352400  0.08774600  0.33481600  1
  C  C73  1  0.88525900  0.81539700  0.86855000  1
  C  C74  1  0.09208300  0.86457400  0.52425100  1
  C  C75  1  0.10481900  0.33321000  0.50549700  1
  C  C76  1  0.09208300  0.36457400  0.97574900  1
  C  C77  1  0.74470500  0.51287300  0.27412100  1
  C  C78  1  0.75529500  0.01287300  0.72587900  1
  C  C79  1  0.40791700  0.86457400  0.02425100  1
  C  C80  1  0.22568700  0.76114400  0.68424200  1
  C  C81  1  0.60481900  0.66679000  0.99450300  1
  C  C82  1  0.89518100  0.66679000  0.49450300  1
  C  C83  1  0.09729000  0.11563100  0.62400300  1
  C  C84  1  0.74470500  0.01287300  0.22587900  1
  C  C85  1  0.00352400  0.91225400  0.16518400  1
  C  C86  1  0.21421000  0.07830000  0.95993300  1
  C  C87  1  0.77431300  0.73885600  0.18424200  1
  C  C88  1  0.78579000  0.42170000  0.45993300  1
  C  C89  1  0.99647600  0.58774600  0.66518400  1
  C  C90  1  0.75529500  0.51287300  0.77412100  1
  C  C91  1  0.28579000  0.07830000  0.45993300  1
  C  C92  1  0.61474100  0.31539700  0.13145000  1
  C  C93  1  0.50352400  0.58774600  0.16518400  1
  C  C94  1  0.49647600  0.41225400  0.83481600  1
  C  C95  1  0.10481900  0.83321000  0.99450300  1
