# generated using pymatgen
data_Cu2Ni2C3
_symmetry_space_group_name_H-M   'P 1'
_cell_length_a   9.30253536
_cell_length_b   9.30253536
_cell_length_c   7.29469527
_cell_angle_alpha   83.93544211
_cell_angle_beta   83.93544211
_cell_angle_gamma   29.53032248
_symmetry_Int_Tables_number   1
_chemical_formula_structural   Cu2Ni2C3
_chemical_formula_sum   'Cu4 Ni4 C6'
_cell_volume   309.27650971
_cell_formula_units_Z   2
loop_
 _symmetry_equiv_pos_site_id
 _symmetry_equiv_pos_as_xyz
  1  'x, y, z'
loop_
 _atom_site_type_symbol
 _atom_site_label
 _atom_site_symmetry_multiplicity
 _atom_site_fract_x
 _atom_site_fract_y
 _atom_site_fract_z
 _atom_site_occupancy
  C  C0  1  0.41391900  0.89445400  0.36698600  1
  C  C1  1  0.14355700  0.85644300  0.25000000  1
  C  C2  1  0.85644300  0.14355700  0.75000000  1
  C  C3  1  0.58608100  0.10554600  0.63301400  1
  C  C4  1  0.10554600  0.58608100  0.13301400  1
  C  C5  1  0.89445400  0.41391900  0.86698600  1
  Ni  Ni6  1  0.86769500  0.78934800  0.62550100  1
  Ni  Ni7  1  0.13230500  0.21065200  0.37449900  1
  Ni  Ni8  1  0.78934800  0.86769500  0.12550100  1
  Ni  Ni9  1  0.21065200  0.13230500  0.87449900  1
  Cu  Cu10  1  0.42964500  0.69657700  0.30336300  1
  Cu  Cu11  1  0.30342300  0.57035500  0.19663700  1
  Cu  Cu12  1  0.57035500  0.30342300  0.69663700  1
  Cu  Cu13  1  0.69657700  0.42964500  0.80336300  1
