# generated using pymatgen
data_CuNi
_symmetry_space_group_name_H-M   'P 1'
_cell_length_a   32.90377964
_cell_length_b   32.90377960
_cell_length_c   32.90377991
_cell_angle_alpha   5.39747702
_cell_angle_beta   5.39747756
_cell_angle_gamma   5.39747801
_symmetry_Int_Tables_number   1
_chemical_formula_structural   CuNi
_chemical_formula_sum   'Cu13 Ni13'
_cell_volume   273.17465331
_cell_formula_units_Z   13
loop_
 _symmetry_equiv_pos_site_id
 _symmetry_equiv_pos_as_xyz
  1  'x, y, z'
loop_
 _atom_site_type_symbol
 _atom_site_label
 _atom_site_symmetry_multiplicity
 _atom_site_fract_x
 _atom_site_fract_y
 _atom_site_fract_z
 _atom_site_occupancy
  Ni  Ni0  1  0.61536500  0.61536500  0.61536500  1
  Ni  Ni1  1  0.15383000  0.15383000  0.15383000  1
  Ni  Ni2  1  0.92307100  0.92307100  0.92307100  1
  Ni  Ni3  1  0.76921700  0.76921700  0.76921700  1
  Ni  Ni4  1  0.71791300  0.71791300  0.71791300  1
  Ni  Ni5  1  0.07690200  0.07690200  0.07690200  1
  Ni  Ni6  1  0.35896100  0.35896100  0.35896100  1
  Ni  Ni7  1  0.99998000  0.99998000  0.99998000  1
  Ni  Ni8  1  0.30765500  0.30765500  0.30765500  1
  Ni  Ni9  1  0.46150500  0.46150500  0.46150500  1
  Ni  Ni10  1  0.23075600  0.23075600  0.23075600  1
  Ni  Ni11  1  0.87176300  0.87176300  0.87176300  1
  Ni  Ni12  1  0.51281000  0.51281000  0.51281000  1
  Cu  Cu13  1  0.53206700  0.53206700  0.53206700  1
  Cu  Cu14  1  0.32690400  0.32690400  0.32690400  1
  Cu  Cu15  1  0.17314200  0.17314200  0.17314200  1
  Cu  Cu16  1  0.89101100  0.89101100  0.89101100  1
  Cu  Cu17  1  0.09622100  0.09622100  0.09622100  1
  Cu  Cu18  1  0.94232900  0.94232900  0.94232900  1
  Cu  Cu19  1  0.01929600  0.01929600  0.01929600  1
  Cu  Cu20  1  0.48075300  0.48075300  0.48075300  1
  Cu  Cu21  1  0.63461800  0.63461800  0.63461800  1
  Cu  Cu22  1  0.78847800  0.78847800  0.78847800  1
  Cu  Cu23  1  0.25006900  0.25006900  0.25006900  1
  Cu  Cu24  1  0.37821600  0.37821600  0.37821600  1
  Cu  Cu25  1  0.73715800  0.73715800  0.73715800  1
