# generated using pymatgen
data_Cu6Ni2C
_symmetry_space_group_name_H-M   'P 1'
_cell_length_a   5.59748900
_cell_length_b   11.34823700
_cell_length_c   17.87955900
_cell_angle_alpha   90.00000000
_cell_angle_beta   90.00000000
_cell_angle_gamma   90.00000000
_symmetry_Int_Tables_number   1
_chemical_formula_structural   Cu6Ni2C
_chemical_formula_sum   'Cu48 Ni16 C8'
_cell_volume   1135.73876313
_cell_formula_units_Z   8
loop_
 _symmetry_equiv_pos_site_id
 _symmetry_equiv_pos_as_xyz
  1  'x, y, z'
loop_
 _atom_site_type_symbol
 _atom_site_label
 _atom_site_symmetry_multiplicity
 _atom_site_fract_x
 _atom_site_fract_y
 _atom_site_fract_z
 _atom_site_occupancy
  C  C0  1  0.27336600  0.63208300  0.11149100  1
  C  C1  1  0.21966900  0.84915700  0.94070300  1
  C  C2  1  0.78033100  0.34915700  0.05929700  1
  C  C3  1  0.72663400  0.63208300  0.61149100  1
  C  C4  1  0.27336600  0.13208300  0.38850900  1
  C  C5  1  0.72663400  0.13208300  0.88850900  1
  C  C6  1  0.78033100  0.84915700  0.44070300  1
  C  C7  1  0.21966900  0.34915700  0.55929700  1
  Ni  Ni8  1  0.27170200  0.37629100  0.19720100  1
  Ni  Ni9  1  0.32067300  0.36323400  0.89078400  1
  Ni  Ni10  1  0.78532300  0.60706200  0.96990100  1
  Ni  Ni11  1  0.19771800  0.62118500  0.77671600  1
  Ni  Ni12  1  0.67932700  0.86323400  0.10921600  1
  Ni  Ni13  1  0.72829800  0.37629100  0.69720100  1
  Ni  Ni14  1  0.72829800  0.87629100  0.80279900  1
  Ni  Ni15  1  0.78532300  0.10706200  0.53009900  1
  Ni  Ni16  1  0.19771800  0.12118500  0.72328400  1
  Ni  Ni17  1  0.21467700  0.60706200  0.46990100  1
  Ni  Ni18  1  0.80228200  0.12118500  0.22328400  1
  Ni  Ni19  1  0.32067300  0.86323400  0.60921600  1
  Ni  Ni20  1  0.27170200  0.87629100  0.30279900  1
  Ni  Ni21  1  0.80228200  0.62118500  0.27671600  1
  Ni  Ni22  1  0.67932700  0.36323400  0.39078400  1
  Ni  Ni23  1  0.21467700  0.10706200  0.03009900  1
  Cu  Cu24  1  0.48519800  0.79506800  0.85025200  1
  Cu  Cu25  1  0.11196300  0.43413400  0.11369800  1
  Cu  Cu26  1  0.57688200  0.51837800  0.71101700  1
  Cu  Cu27  1  0.46020900  0.80148900  0.52337700  1
  Cu  Cu28  1  0.98948200  0.69100100  0.35107900  1
  Cu  Cu29  1  0.57688200  0.01837800  0.78898300  1
  Cu  Cu30  1  0.96490700  0.69318500  0.51545400  1
  Cu  Cu31  1  0.93775600  0.46535700  0.95803000  1
  Cu  Cu32  1  0.98948200  0.19100100  0.14892100  1
  Cu  Cu33  1  0.51480200  0.79506800  0.35025200  1
  Cu  Cu34  1  0.01051800  0.19100100  0.64892100  1
  Cu  Cu35  1  0.46438000  0.29016000  0.32658300  1
  Cu  Cu36  1  0.93775600  0.96535700  0.54197000  1
  Cu  Cu37  1  0.53979100  0.80148900  0.02337600  1
  Cu  Cu38  1  0.96033500  0.18347800  0.30425800  1
  Cu  Cu39  1  0.88803700  0.93413400  0.88630200  1
  Cu  Cu40  1  0.03966500  0.18347800  0.80425800  1
  Cu  Cu41  1  0.46438000  0.79016000  0.17341700  1
  Cu  Cu42  1  0.03966500  0.68347800  0.69574200  1
  Cu  Cu43  1  0.96033500  0.68347800  0.19574200  1
  Cu  Cu44  1  0.44379900  0.51298200  0.89073200  1
  Cu  Cu45  1  0.53562000  0.29016000  0.82658300  1
  Cu  Cu46  1  0.53562000  0.79016000  0.67341700  1
  Cu  Cu47  1  0.62561000  0.05334400  0.44588600  1
  Cu  Cu48  1  0.07715300  0.47001200  0.77917800  1
  Cu  Cu49  1  0.55620100  0.01298200  0.10926800  1
  Cu  Cu50  1  0.55620100  0.51298200  0.39073200  1
  Cu  Cu51  1  0.44379900  0.01298200  0.60926800  1
  Cu  Cu52  1  0.62561000  0.55334400  0.05411400  1
  Cu  Cu53  1  0.37439000  0.55334400  0.55411400  1
  Cu  Cu54  1  0.01051800  0.69100100  0.85107900  1
  Cu  Cu55  1  0.11196300  0.93413400  0.38630200  1
  Cu  Cu56  1  0.96490700  0.19318500  0.98454600  1
  Cu  Cu57  1  0.03509300  0.19318500  0.48454600  1
  Cu  Cu58  1  0.37439000  0.05334400  0.94588600  1
  Cu  Cu59  1  0.92284700  0.47001200  0.27917800  1
  Cu  Cu60  1  0.03509300  0.69318500  0.01545400  1
  Cu  Cu61  1  0.06224400  0.96535700  0.04197000  1
  Cu  Cu62  1  0.07715300  0.97001200  0.72082200  1
  Cu  Cu63  1  0.42311800  0.01837800  0.28898300  1
  Cu  Cu64  1  0.42311800  0.51837800  0.21101700  1
  Cu  Cu65  1  0.92284700  0.97001200  0.22082200  1
  Cu  Cu66  1  0.48519800  0.29506800  0.64974800  1
  Cu  Cu67  1  0.53979100  0.30148900  0.47662300  1
  Cu  Cu68  1  0.51480200  0.29506800  0.14974800  1
  Cu  Cu69  1  0.88803700  0.43413400  0.61369800  1
  Cu  Cu70  1  0.46020900  0.30148900  0.97662300  1
  Cu  Cu71  1  0.06224400  0.46535700  0.45803000  1
