# generated using pymatgen
data_Cu4NiC
_symmetry_space_group_name_H-M   'P 1'
_cell_length_a   8.15948900
_cell_length_b   12.75518100
_cell_length_c   14.88765000
_cell_angle_alpha   90.00000000
_cell_angle_beta   90.00000000
_cell_angle_gamma   90.00000000
_symmetry_Int_Tables_number   1
_chemical_formula_structural   Cu4NiC
_chemical_formula_sum   'Cu64 Ni16 C16'
_cell_volume   1549.44347441
_cell_formula_units_Z   16
loop_
 _symmetry_equiv_pos_site_id
 _symmetry_equiv_pos_as_xyz
  1  'x, y, z'
loop_
 _atom_site_type_symbol
 _atom_site_label
 _atom_site_symmetry_multiplicity
 _atom_site_fract_x
 _atom_site_fract_y
 _atom_site_fract_z
 _atom_site_occupancy
  C  C0  1  0.86327200  0.75000000  0.93127800  1
  C  C1  1  0.36327200  0.75000000  0.56872200  1
  C  C2  1  0.60754200  0.48664500  0.72918400  1
  C  C3  1  0.63672800  0.25000000  0.43127800  1
  C  C4  1  0.10754200  0.48664500  0.77081600  1
  C  C5  1  0.89245800  0.98664500  0.22918400  1
  C  C6  1  0.60754200  0.01335500  0.72918400  1
  C  C7  1  0.39245800  0.98664500  0.27081600  1
  C  C8  1  0.39245800  0.51335500  0.27081600  1
  C  C9  1  0.10754200  0.01335500  0.77081600  1
  C  C10  1  0.13672800  0.25000000  0.06872200  1
  C  C11  1  0.89245800  0.51335500  0.22918400  1
  C  C12  1  0.14891100  0.25000000  0.51030900  1
  C  C13  1  0.85108900  0.75000000  0.48969100  1
  C  C14  1  0.35108900  0.75000000  0.01030900  1
  C  C15  1  0.64891100  0.25000000  0.98969100  1
  Ni  Ni16  1  0.56938900  0.75000000  0.15780100  1
  Ni  Ni17  1  0.72998100  0.54458100  0.47461400  1
  Ni  Ni18  1  0.87797400  0.75000000  0.68077300  1
  Ni  Ni19  1  0.22998100  0.54458100  0.02538600  1
  Ni  Ni20  1  0.37797400  0.75000000  0.81922700  1
  Ni  Ni21  1  0.93061100  0.25000000  0.65780100  1
  Ni  Ni22  1  0.22998100  0.95541900  0.02538600  1
  Ni  Ni23  1  0.12202600  0.25000000  0.31922700  1
  Ni  Ni24  1  0.62202600  0.25000000  0.18077300  1
  Ni  Ni25  1  0.06938900  0.75000000  0.34219900  1
  Ni  Ni26  1  0.72998100  0.95541900  0.47461400  1
  Ni  Ni27  1  0.43061100  0.25000000  0.84219900  1
  Ni  Ni28  1  0.77001900  0.04458100  0.97461400  1
  Ni  Ni29  1  0.27001900  0.04458100  0.52538600  1
  Ni  Ni30  1  0.77001900  0.45541900  0.97461400  1
  Ni  Ni31  1  0.27001900  0.45541900  0.52538600  1
  Cu  Cu32  1  0.66647900  0.01125400  0.55154800  1
  Cu  Cu33  1  0.88334000  0.84550300  0.73435900  1
  Cu  Cu34  1  0.87520000  0.34610500  0.70012100  1
  Cu  Cu35  1  0.72972800  0.01513500  0.39147400  1
  Cu  Cu36  1  0.51023200  0.75000000  0.89290200  1
  Cu  Cu37  1  0.90268800  0.91013200  0.49534200  1
  Cu  Cu38  1  0.59731200  0.08986800  0.99534200  1
  Cu  Cu39  1  0.61666000  0.34550300  0.23435900  1
  Cu  Cu40  1  0.72972800  0.48486500  0.39147400  1
  Cu  Cu41  1  0.77340000  0.25000000  0.11814500  1
  Cu  Cu42  1  0.35601600  0.15208300  0.53866400  1
  Cu  Cu43  1  0.85601600  0.34791700  0.96133600  1
  Cu  Cu44  1  0.37847200  0.75000000  0.15077900  1
  Cu  Cu45  1  0.89526200  0.25000000  0.55614400  1
  Cu  Cu46  1  0.16647900  0.01125400  0.94845200  1
  Cu  Cu47  1  0.38334000  0.84550300  0.76564100  1
  Cu  Cu48  1  0.10473800  0.75000000  0.44385600  1
  Cu  Cu49  1  0.61666000  0.15449700  0.23435900  1
  Cu  Cu50  1  0.37520000  0.15389500  0.79987900  1
  Cu  Cu51  1  0.77027200  0.51513500  0.89147400  1
  Cu  Cu52  1  0.85601600  0.15208300  0.96133600  1
  Cu  Cu53  1  0.40268800  0.58986800  0.00465800  1
  Cu  Cu54  1  0.27027200  0.51513500  0.60852600  1
  Cu  Cu55  1  0.62152800  0.25000000  0.84922100  1
  Cu  Cu56  1  0.22972800  0.01513500  0.10852600  1
  Cu  Cu57  1  0.77027200  0.98486500  0.89147400  1
  Cu  Cu58  1  0.09731200  0.41013200  0.50465800  1
  Cu  Cu59  1  0.14398400  0.84791700  0.03866400  1
  Cu  Cu60  1  0.66647900  0.48874600  0.55154800  1
  Cu  Cu61  1  0.01023200  0.75000000  0.60709800  1
  Cu  Cu62  1  0.22972800  0.48486500  0.10852600  1
  Cu  Cu63  1  0.09731200  0.08986800  0.50465800  1
  Cu  Cu64  1  0.33352100  0.51125400  0.44845200  1
  Cu  Cu65  1  0.62480000  0.65389500  0.20012100  1
  Cu  Cu66  1  0.27027200  0.98486500  0.60852600  1
  Cu  Cu67  1  0.11666000  0.34550300  0.26564100  1
  Cu  Cu68  1  0.14398400  0.65208300  0.03866400  1
  Cu  Cu69  1  0.64398400  0.65208300  0.46133600  1
  Cu  Cu70  1  0.33352100  0.98874600  0.44845200  1
  Cu  Cu71  1  0.16647900  0.48874600  0.94845200  1
  Cu  Cu72  1  0.72660000  0.75000000  0.61814500  1
  Cu  Cu73  1  0.62480000  0.84610500  0.20012100  1
  Cu  Cu74  1  0.27340000  0.25000000  0.38185500  1
  Cu  Cu75  1  0.39526200  0.25000000  0.94385600  1
  Cu  Cu76  1  0.87520000  0.15389500  0.70012100  1
  Cu  Cu77  1  0.83352100  0.51125400  0.05154800  1
  Cu  Cu78  1  0.12152800  0.25000000  0.65077900  1
  Cu  Cu79  1  0.64398400  0.84791700  0.46133600  1
  Cu  Cu80  1  0.12480000  0.65389500  0.29987900  1
  Cu  Cu81  1  0.11666000  0.15449700  0.26564100  1
  Cu  Cu82  1  0.87847200  0.75000000  0.34922100  1
  Cu  Cu83  1  0.88334000  0.65449700  0.73435900  1
  Cu  Cu84  1  0.60473800  0.75000000  0.05614400  1
  Cu  Cu85  1  0.90268800  0.58986800  0.49534200  1
  Cu  Cu86  1  0.48976800  0.25000000  0.10709800  1
  Cu  Cu87  1  0.35601600  0.34791700  0.53866400  1
  Cu  Cu88  1  0.12480000  0.84610500  0.29987900  1
  Cu  Cu89  1  0.59731200  0.41013200  0.99534200  1
  Cu  Cu90  1  0.22660000  0.75000000  0.88185500  1
  Cu  Cu91  1  0.98976800  0.25000000  0.39290200  1
  Cu  Cu92  1  0.83352100  0.98874600  0.05154800  1
  Cu  Cu93  1  0.37520000  0.34610500  0.79987900  1
  Cu  Cu94  1  0.38334000  0.65449700  0.76564100  1
  Cu  Cu95  1  0.40268800  0.91013200  0.00465800  1
