# generated using pymatgen
data_Cu(NiC2)2
_symmetry_space_group_name_H-M   'P 1'
_cell_length_a   6.02139506
_cell_length_b   6.02139597
_cell_length_c   24.13702262
_cell_angle_alpha   59.87240879
_cell_angle_beta   59.87240312
_cell_angle_gamma   60.43564946
_symmetry_Int_Tables_number   1
_chemical_formula_structural   Cu(NiC2)2
_chemical_formula_sum   'Cu8 Ni16 C32'
_cell_volume   619.62174691
_cell_formula_units_Z   8
loop_
 _symmetry_equiv_pos_site_id
 _symmetry_equiv_pos_as_xyz
  1  'x, y, z'
loop_
 _atom_site_type_symbol
 _atom_site_label
 _atom_site_symmetry_multiplicity
 _atom_site_fract_x
 _atom_site_fract_y
 _atom_site_fract_z
 _atom_site_occupancy
  Ni  Ni0  1  0.11420800  0.11420800  0.03202200  1
  Ni  Ni1  1  0.99369600  0.49884600  0.12572100  1
  Ni  Ni2  1  0.12769300  0.12769300  0.27862700  1
  Ni  Ni3  1  0.49479200  0.49479200  0.99941000  1
  Ni  Ni4  1  0.49884600  0.99369600  0.12572100  1
  Ni  Ni5  1  0.99965400  0.50618500  0.37438400  1
  Ni  Ni6  1  0.50769900  0.50769900  0.24759100  1
  Ni  Ni7  1  0.12161700  0.12161700  0.53154100  1
  Ni  Ni8  1  0.50618500  0.99965400  0.37438400  1
  Ni  Ni9  1  0.00011500  0.49962600  0.62520400  1
  Ni  Ni10  1  0.49962600  0.00011500  0.62520400  1
  Ni  Ni11  1  0.11889000  0.11889000  0.78315700  1
  Ni  Ni12  1  0.49885400  0.99617500  0.87579600  1
  Ni  Ni13  1  0.88048500  0.88048500  0.46814800  1
  Ni  Ni14  1  0.87991200  0.87991200  0.71751000  1
  Ni  Ni15  1  0.99617500  0.49885400  0.87579600  1
  Cu  Cu16  1  0.49971400  0.49971400  0.12591500  1
  Cu  Cu17  1  0.50316600  0.50316600  0.37410200  1
  Cu  Cu18  1  0.50140600  0.50140600  0.49922200  1
  Cu  Cu19  1  0.88099200  0.88099200  0.21918200  1
  Cu  Cu20  1  0.49999500  0.49999500  0.62491400  1
  Cu  Cu21  1  0.49855800  0.49855800  0.75075800  1
  Cu  Cu22  1  0.49950200  0.49950200  0.87517600  1
  Cu  Cu23  1  0.87599700  0.87599700  0.97026800  1
  C  C24  1  0.25050800  0.25050800  0.06202900  1
  C  C25  1  0.24981200  0.24981200  0.18022500  1
  C  C26  1  0.23977100  0.71988500  0.06624600  1
  C  C27  1  0.71988500  0.23977100  0.06624600  1
  C  C28  1  0.27229400  0.27229400  0.30803200  1
  C  C29  1  0.28428100  0.75307200  0.18438400  1
  C  C30  1  0.74460100  0.74460100  0.07265300  1
  C  C31  1  0.25365500  0.25365500  0.43158800  1
  C  C32  1  0.25491600  0.73713200  0.31253500  1
  C  C33  1  0.75307200  0.28428100  0.18438400  1
  C  C34  1  0.73357000  0.73357000  0.19118300  1
  C  C35  1  0.73713200  0.25491600  0.31253500  1
  C  C36  1  0.25185000  0.25185000  0.56571700  1
  C  C37  1  0.26826800  0.75802600  0.43364100  1
  C  C38  1  0.74762400  0.74762400  0.32079200  1
  C  C39  1  0.25018800  0.25018800  0.68310600  1
  C  C40  1  0.75802600  0.26826800  0.43364100  1
  C  C41  1  0.24970600  0.73281600  0.56416000  1
  C  C42  1  0.75225600  0.75225600  0.43320200  1
  C  C43  1  0.73281600  0.24970600  0.56416000  1
  C  C44  1  0.24797700  0.24797700  0.81752000  1
  C  C45  1  0.26916200  0.75106100  0.68489600  1
  C  C46  1  0.74977700  0.74977700  0.56692600  1
  C  C47  1  0.24591900  0.73082300  0.81601400  1
  C  C48  1  0.75106100  0.26916200  0.68489600  1
  C  C49  1  0.24683700  0.24683700  0.93391700  1
  C  C50  1  0.74940900  0.74940900  0.68329700  1
  C  C51  1  0.73082300  0.24591900  0.81601400  1
  C  C52  1  0.27954300  0.74090000  0.93648100  1
  C  C53  1  0.74090000  0.27954300  0.93648100  1
  C  C54  1  0.75096600  0.75096600  0.81600700  1
  C  C55  1  0.73561600  0.73561600  0.93733700  1
