# generated using pymatgen
data_Cu3NiC
_symmetry_space_group_name_H-M   'P 1'
_cell_length_a   8.04348687
_cell_length_b   8.04342912
_cell_length_c   8.04298081
_cell_angle_alpha   109.25440238
_cell_angle_beta   109.26197314
_cell_angle_gamma   109.26371617
_symmetry_Int_Tables_number   1
_chemical_formula_structural   Cu3NiC
_chemical_formula_sum   'Cu18 Ni6 C6'
_cell_volume   403.67386953
_cell_formula_units_Z   6
loop_
 _symmetry_equiv_pos_site_id
 _symmetry_equiv_pos_as_xyz
  1  'x, y, z'
loop_
 _atom_site_type_symbol
 _atom_site_label
 _atom_site_symmetry_multiplicity
 _atom_site_fract_x
 _atom_site_fract_y
 _atom_site_fract_z
 _atom_site_occupancy
  C  C0  1  0.31851300  0.63455300  0.81365800  1
  C  C1  1  0.68139200  0.36518500  0.18609700  1
  C  C2  1  0.63451400  0.81404000  0.31884000  1
  C  C3  1  0.36532500  0.18613800  0.68136300  1
  C  C4  1  0.81405600  0.31860100  0.63436100  1
  C  C5  1  0.18605600  0.68127900  0.36544300  1
  Ni  Ni6  1  0.21058700  0.35270900  0.02458600  1
  Ni  Ni7  1  0.64730800  0.97544400  0.78944400  1
  Ni  Ni8  1  0.02457900  0.21059300  0.35270500  1
  Ni  Ni9  1  0.78941400  0.64731900  0.97541400  1
  Ni  Ni10  1  0.97544400  0.78943600  0.64733000  1
  Ni  Ni11  1  0.35268500  0.02455800  0.21057900  1
  Cu  Cu12  1  0.55547000  0.22959300  0.34096100  1
  Cu  Cu13  1  0.77041900  0.65905200  0.44454800  1
  Cu  Cu14  1  0.44453100  0.77041400  0.65901700  1
  Cu  Cu15  1  0.34096400  0.55546100  0.22958700  1
  Cu  Cu16  1  0.22961100  0.34095300  0.55548300  1
  Cu  Cu17  1  0.65905400  0.44454000  0.77039800  1
  Cu  Cu18  1  0.87969200  0.58559800  0.13253900  1
  Cu  Cu19  1  0.86748100  0.12034000  0.41442300  1
  Cu  Cu20  1  0.13254500  0.87969100  0.58559200  1
  Cu  Cu21  1  0.58558200  0.13251300  0.87965100  1
  Cu  Cu22  1  0.41440400  0.86746500  0.12032200  1
  Cu  Cu23  1  0.12033200  0.41441500  0.86746700  1
  Cu  Cu24  1  0.01957900  0.62802400  0.68858100  1
  Cu  Cu25  1  0.98040200  0.37198200  0.31143000  1
  Cu  Cu26  1  0.62799100  0.68852300  0.01961100  1
  Cu  Cu27  1  0.37199600  0.31146900  0.98045700  1
  Cu  Cu28  1  0.31150000  0.98046000  0.37204500  1
  Cu  Cu29  1  0.68857300  0.01965200  0.62807000  1
