# generated using pymatgen
data_CuNiC4
_symmetry_space_group_name_H-M   'P 1'
_cell_length_a   9.80533000
_cell_length_b   14.13297200
_cell_length_c   18.27797500
_cell_angle_alpha   90.00000000
_cell_angle_beta   90.00000000
_cell_angle_gamma   90.00000000
_symmetry_Int_Tables_number   1
_chemical_formula_structural   CuNiC4
_chemical_formula_sum   'Cu24 Ni24 C96'
_cell_volume   2532.93352398
_cell_formula_units_Z   24
loop_
 _symmetry_equiv_pos_site_id
 _symmetry_equiv_pos_as_xyz
  1  'x, y, z'
loop_
 _atom_site_type_symbol
 _atom_site_label
 _atom_site_symmetry_multiplicity
 _atom_site_fract_x
 _atom_site_fract_y
 _atom_site_fract_z
 _atom_site_occupancy
  Ni  Ni0  1  0.83923100  0.75668800  0.20057200  1
  Ni  Ni1  1  0.33923100  0.24331200  0.29942800  1
  Ni  Ni2  1  0.66076900  0.25668800  0.79942800  1
  Ni  Ni3  1  0.16076900  0.74331200  0.70057200  1
  Ni  Ni4  1  0.16076900  0.24331200  0.79942800  1
  Ni  Ni5  1  0.66076900  0.75668800  0.70057200  1
  Ni  Ni6  1  0.33923100  0.74331200  0.20057200  1
  Ni  Ni7  1  0.83923100  0.25668800  0.29942800  1
  Ni  Ni8  1  0.15454300  0.96340700  0.32125900  1
  Ni  Ni9  1  0.65454300  0.03659300  0.17874100  1
  Ni  Ni10  1  0.34545700  0.46340700  0.67874100  1
  Ni  Ni11  1  0.84545700  0.53659300  0.82125900  1
  Ni  Ni12  1  0.84545700  0.03659300  0.67874100  1
  Ni  Ni13  1  0.34545700  0.96340700  0.82125900  1
  Ni  Ni14  1  0.65454300  0.53659300  0.32125900  1
  Ni  Ni15  1  0.15454300  0.46340700  0.17874100  1
  Ni  Ni16  1  0.62815000  0.92969200  0.41403100  1
  Ni  Ni17  1  0.12815000  0.07030800  0.08596900  1
  Ni  Ni18  1  0.87185000  0.42969200  0.58596900  1
  Ni  Ni19  1  0.37185000  0.57030800  0.91403100  1
  Ni  Ni20  1  0.37185000  0.07030800  0.58596900  1
  Ni  Ni21  1  0.87185000  0.92969200  0.91403100  1
  Ni  Ni22  1  0.12815000  0.57030800  0.41403100  1
  Ni  Ni23  1  0.62815000  0.42969200  0.08596900  1
  Cu  Cu24  1  0.59314100  0.75259200  0.30295400  1
  Cu  Cu25  1  0.09314100  0.24740800  0.19704600  1
  Cu  Cu26  1  0.90685900  0.25259200  0.69704600  1
  Cu  Cu27  1  0.40685900  0.74740800  0.80295400  1
  Cu  Cu28  1  0.40685900  0.24740800  0.69704600  1
  Cu  Cu29  1  0.90685900  0.75259200  0.80295400  1
  Cu  Cu30  1  0.09314100  0.74740800  0.30295400  1
  Cu  Cu31  1  0.59314100  0.25259200  0.19704600  1
  Cu  Cu32  1  0.34168200  0.96291700  0.17611800  1
  Cu  Cu33  1  0.84168200  0.03708300  0.32388200  1
  Cu  Cu34  1  0.15831800  0.46291700  0.82388200  1
  Cu  Cu35  1  0.65831800  0.53708300  0.67611800  1
  Cu  Cu36  1  0.65831800  0.03708300  0.82388200  1
  Cu  Cu37  1  0.15831800  0.96291700  0.67611800  1
  Cu  Cu38  1  0.84168200  0.53708300  0.17611800  1
  Cu  Cu39  1  0.34168200  0.46291700  0.32388200  1
  Cu  Cu40  1  0.86966300  0.92816000  0.08694300  1
  Cu  Cu41  1  0.36966300  0.07184000  0.41305700  1
  Cu  Cu42  1  0.63033700  0.42816000  0.91305700  1
  Cu  Cu43  1  0.13033700  0.57184000  0.58694300  1
  Cu  Cu44  1  0.13033700  0.07184000  0.91305700  1
  Cu  Cu45  1  0.63033700  0.92816000  0.58694300  1
  Cu  Cu46  1  0.36966300  0.57184000  0.08694300  1
  Cu  Cu47  1  0.86966300  0.42816000  0.41305700  1
  C  C48  1  0.67657500  0.78335800  0.23520900  1
  C  C49  1  0.17657500  0.21664200  0.26479100  1
  C  C50  1  0.82342500  0.28335800  0.76479100  1
  C  C51  1  0.32342500  0.71664200  0.73520900  1
  C  C52  1  0.32342500  0.21664200  0.76479100  1
  C  C53  1  0.82342500  0.78335800  0.73520900  1
  C  C54  1  0.17657500  0.71664200  0.23520900  1
  C  C55  1  0.67657500  0.28335800  0.26479100  1
  C  C56  1  0.59963700  0.82780400  0.36275100  1
  C  C57  1  0.09963700  0.17219600  0.13724900  1
  C  C58  1  0.90036300  0.32780400  0.63724900  1
  C  C59  1  0.40036300  0.67219600  0.86275100  1
  C  C60  1  0.40036300  0.17219600  0.63724900  1
  C  C61  1  0.90036300  0.82780400  0.86275100  1
  C  C62  1  0.09963700  0.67219600  0.36275100  1
  C  C63  1  0.59963700  0.32780400  0.13724900  1
  C  C64  1  0.44447100  0.73916200  0.27820000  1
  C  C65  1  0.94447100  0.26083800  0.22180000  1
  C  C66  1  0.05552900  0.23916200  0.72180000  1
  C  C67  1  0.55552900  0.76083800  0.77820000  1
  C  C68  1  0.55552900  0.26083800  0.72180000  1
  C  C69  1  0.05552900  0.73916200  0.77820000  1
  C  C70  1  0.94447100  0.76083800  0.27820000  1
  C  C71  1  0.44447100  0.23916200  0.22180000  1
  C  C72  1  0.64880900  0.65941300  0.33484800  1
  C  C73  1  0.14880900  0.34058700  0.16515200  1
  C  C74  1  0.85119100  0.15941300  0.66515200  1
  C  C75  1  0.35119100  0.84058700  0.83484800  1
  C  C76  1  0.35119100  0.34058700  0.66515200  1
  C  C77  1  0.85119100  0.65941300  0.83484800  1
  C  C78  1  0.14880900  0.84058700  0.33484800  1
  C  C79  1  0.64880900  0.15941300  0.16515200  1
  C  C80  1  0.48890100  0.99427000  0.19053000  1
  C  C81  1  0.98890100  0.00573000  0.30947000  1
  C  C82  1  0.01109900  0.49427000  0.80947000  1
  C  C83  1  0.25363800  0.98658400  0.24345200  1
  C  C84  1  0.51109900  0.50573000  0.69053000  1
  C  C85  1  0.01109900  0.99427000  0.69053000  1
  C  C86  1  0.98890100  0.50573000  0.19053000  1
  C  C87  1  0.48890100  0.49427000  0.30947000  1
  C  C88  1  0.33937500  0.85594900  0.16041500  1
  C  C89  1  0.83937500  0.14405100  0.33958500  1
  C  C90  1  0.16062500  0.35594900  0.83958500  1
  C  C91  1  0.66062500  0.64405100  0.66041500  1
  C  C92  1  0.66062500  0.14405100  0.83958500  1
  C  C93  1  0.16062500  0.85594900  0.66041500  1
  C  C94  1  0.83937500  0.64405100  0.16041500  1
  C  C95  1  0.33937500  0.35594900  0.33958500  1
  C  C96  1  0.88397100  0.33879300  0.36599600  1
  C  C97  1  0.38397100  0.66120700  0.13400400  1
  C  C98  1  0.61602900  0.83879300  0.63400400  1
  C  C99  1  0.11602900  0.16120700  0.86599600  1
  C  C100  1  0.11602900  0.66120700  0.63400400  1
  C  C101  1  0.61602900  0.33879300  0.86599600  1
  C  C102  1  0.38397100  0.16120700  0.36599600  1
  C  C103  1  0.88397100  0.83879300  0.13400400  1
  C  C104  1  0.86594700  0.39825300  0.49366500  1
  C  C105  1  0.36594700  0.60174700  0.00633500  1
  C  C106  1  0.63405300  0.89825300  0.50633500  1
  C  C107  1  0.13405300  0.10174700  0.99366500  1
  C  C108  1  0.13405300  0.60174700  0.50633500  1
  C  C109  1  0.63405300  0.39825300  0.99366500  1
  C  C110  1  0.36594700  0.10174700  0.49366500  1
  C  C111  1  0.86594700  0.89825300  0.00633500  1
  C  C112  1  0.73634100  0.48113200  0.39494000  1
  C  C113  1  0.23634100  0.51886800  0.10506000  1
  C  C114  1  0.76365900  0.98113200  0.60506000  1
  C  C115  1  0.26365900  0.01886800  0.89494000  1
  C  C116  1  0.26365900  0.51886800  0.60506000  1
  C  C117  1  0.76365900  0.48113200  0.89494000  1
  C  C118  1  0.23634100  0.01886800  0.39494000  1
  C  C119  1  0.73634100  0.98113200  0.10506000  1
  C  C120  1  0.99319100  0.49203100  0.39787600  1
  C  C121  1  0.49319100  0.50796900  0.10212400  1
  C  C122  1  0.50680900  0.99203100  0.60212400  1
  C  C123  1  0.00680900  0.00796900  0.89787600  1
  C  C124  1  0.00680900  0.50796900  0.60212400  1
  C  C125  1  0.50680900  0.49203100  0.89787600  1
  C  C126  1  0.49319100  0.00796900  0.39787600  1
  C  C127  1  0.99319100  0.99203100  0.10212400  1
  C  C128  1  0.28383400  0.51625100  0.39043600  1
  C  C129  1  0.78383400  0.48374900  0.10956400  1
  C  C130  1  0.21616600  0.01625100  0.60956400  1
  C  C131  1  0.71616600  0.98374900  0.89043600  1
  C  C132  1  0.71616600  0.48374900  0.60956400  1
  C  C133  1  0.21616600  0.51625100  0.89043600  1
  C  C134  1  0.78383400  0.98374900  0.39043600  1
  C  C135  1  0.28383400  0.01625100  0.10956400  1
  C  C136  1  0.25363800  0.48658400  0.25654800  1
  C  C137  1  0.75363800  0.51341600  0.24345200  1
  C  C138  1  0.24636200  0.98658400  0.74345200  1
  C  C139  1  0.74636200  0.01341600  0.75654800  1
  C  C140  1  0.74636200  0.51341600  0.74345200  1
  C  C141  1  0.24636200  0.48658400  0.75654800  1
  C  C142  1  0.75363800  0.01341600  0.25654800  1
  C  C143  1  0.51109900  0.00573000  0.80947000  1
