# generated using pymatgen
data_Cu2NiC6
_symmetry_space_group_name_H-M   'P 1'
_cell_length_a   8.53146392
_cell_length_b   8.53146392
_cell_length_c   9.04218800
_cell_angle_alpha   90.00000000
_cell_angle_beta   90.00000000
_cell_angle_gamma   127.16501266
_symmetry_Int_Tables_number   1
_chemical_formula_structural   Cu2NiC6
_chemical_formula_sum   'Cu8 Ni4 C24'
_cell_volume   524.47393697
_cell_formula_units_Z   4
loop_
 _symmetry_equiv_pos_site_id
 _symmetry_equiv_pos_as_xyz
  1  'x, y, z'
loop_
 _atom_site_type_symbol
 _atom_site_label
 _atom_site_symmetry_multiplicity
 _atom_site_fract_x
 _atom_site_fract_y
 _atom_site_fract_z
 _atom_site_occupancy
  C  C0  1  0.99605700  0.76868400  0.93276100  1
  C  C1  1  0.00394300  0.23131600  0.43276100  1
  C  C2  1  0.76868400  0.99605700  0.06723900  1
  C  C3  1  0.23131600  0.00394300  0.56723900  1
  Ni  Ni4  1  0.38724700  0.61275300  0.75000000  1
  Ni  Ni5  1  0.27432700  0.72567300  0.25000000  1
  Ni  Ni6  1  0.61275300  0.38724700  0.25000000  1
  Ni  Ni7  1  0.72567300  0.27432700  0.75000000  1
  Cu  Cu8  1  0.65733500  0.52550600  0.36231700  1
  Cu  Cu9  1  0.34266500  0.47449400  0.86231700  1
  Cu  Cu10  1  0.25376200  0.61109600  0.12661500  1
  Cu  Cu11  1  0.47449400  0.34266500  0.13768300  1
  Cu  Cu12  1  0.38890400  0.74623800  0.37338500  1
  Cu  Cu13  1  0.61109600  0.25376200  0.87338500  1
  Cu  Cu14  1  0.74623800  0.38890400  0.62661500  1
  Cu  Cu15  1  0.52550600  0.65733500  0.63768300  1
  C  C16  1  0.92658400  0.23973800  0.00097500  1
  C  C17  1  0.40118000  0.96687600  0.65013800  1
  C  C18  1  0.03235300  0.03235300  0.50000000  1
  C  C19  1  0.07341600  0.76026200  0.50097500  1
  C  C20  1  0.36522200  0.24672900  0.63495500  1
  C  C21  1  0.96687600  0.40118000  0.34986200  1
  C  C22  1  0.59882000  0.03312400  0.15013800  1
  C  C23  1  0.63477800  0.75327100  0.13495500  1
  C  C24  1  0.91379000  0.63861700  0.11164900  1
  C  C25  1  0.03312400  0.59882000  0.84986200  1
  C  C26  1  0.96764700  0.96764700  0.00000000  1
  C  C27  1  0.08037600  0.91962400  0.75000000  1
  C  C28  1  0.24672900  0.36522200  0.36504500  1
  C  C29  1  0.75327100  0.63477800  0.86504500  1
  C  C30  1  0.76026200  0.07341600  0.49902500  1
  C  C31  1  0.63861700  0.91379000  0.88835100  1
  C  C32  1  0.08621000  0.36138300  0.61164900  1
  C  C33  1  0.36138300  0.08621000  0.38835100  1
  C  C34  1  0.23973800  0.92658400  0.99902500  1
  C  C35  1  0.91962400  0.08037600  0.25000000  1
