# generated using pymatgen
data_CuNiC8
_symmetry_space_group_name_H-M   'P 1'
_cell_length_a   8.21646772
_cell_length_b   8.21646772
_cell_length_c   14.17221848
_cell_angle_alpha   87.25164854
_cell_angle_beta   87.25164854
_cell_angle_gamma   108.47967822
_symmetry_Int_Tables_number   1
_chemical_formula_structural   CuNiC8
_chemical_formula_sum   'Cu4 Ni4 C32'
_cell_volume   904.37682089
_cell_formula_units_Z   4
loop_
 _symmetry_equiv_pos_site_id
 _symmetry_equiv_pos_as_xyz
  1  'x, y, z'
loop_
 _atom_site_type_symbol
 _atom_site_label
 _atom_site_symmetry_multiplicity
 _atom_site_fract_x
 _atom_site_fract_y
 _atom_site_fract_z
 _atom_site_occupancy
  Ni  Ni0  1  0.82241100  0.17758900  0.25000000  1
  Ni  Ni1  1  0.17758900  0.82241100  0.75000000  1
  Ni  Ni2  1  0.50000000  0.50000000  0.00000000  1
  Ni  Ni3  1  0.50000000  0.50000000  0.50000000  1
  Cu  Cu4  1  0.78987100  0.40420000  0.74621500  1
  Cu  Cu5  1  0.21012900  0.59580000  0.25378500  1
  Cu  Cu6  1  0.40420000  0.78987100  0.24621500  1
  Cu  Cu7  1  0.59580000  0.21012900  0.75378500  1
  C  C8  1  0.25914700  0.98088700  0.08095600  1
  C  C9  1  0.98088700  0.25914700  0.58095600  1
  C  C10  1  0.00998600  0.68556600  0.11259900  1
  C  C11  1  0.74085300  0.01911300  0.91904400  1
  C  C12  1  0.99001400  0.31443400  0.88740100  1
  C  C13  1  0.31443400  0.99001400  0.38740100  1
  C  C14  1  0.68556600  0.00998600  0.61259900  1
  C  C15  1  0.01911300  0.74085300  0.41904400  1
  C  C16  1  0.59916900  0.54054600  0.10851600  1
  C  C17  1  0.27886300  0.91975400  0.63830800  1
  C  C18  1  0.97330900  0.80547100  0.70829600  1
  C  C19  1  0.72113600  0.08024600  0.36169200  1
  C  C20  1  0.40083100  0.45945400  0.89148400  1
  C  C21  1  0.38475600  0.84087700  0.78974100  1
  C  C22  1  0.08024600  0.72113600  0.86169200  1
  C  C23  1  0.84087700  0.38475600  0.28974100  1
  C  C24  1  0.52341100  0.29018400  0.00387200  1
  C  C25  1  0.29018400  0.52341100  0.50387200  1
  C  C26  1  0.54054600  0.59916900  0.60851600  1
  C  C27  1  0.80547100  0.97330900  0.20829600  1
  C  C28  1  0.02669100  0.19452900  0.29170400  1
  C  C29  1  0.70981600  0.47658900  0.49612800  1
  C  C30  1  0.61524400  0.15912300  0.21025900  1
  C  C31  1  0.15912300  0.61524400  0.71025900  1
  C  C32  1  0.41315000  0.29600000  0.56225900  1
  C  C33  1  0.45945400  0.40083100  0.39148400  1
  C  C34  1  0.91975400  0.27886400  0.13830800  1
  C  C35  1  0.47658900  0.70981600  0.99612800  1
  C  C36  1  0.19452900  0.02669100  0.79170400  1
  C  C37  1  0.58685000  0.70400000  0.43774100  1
  C  C38  1  0.70400000  0.58685000  0.93774100  1
  C  C39  1  0.29600000  0.41315000  0.06225900  1
