# generated using pymatgen
data_Cu2Ni2C9
_symmetry_space_group_name_H-M   'P 1'
_cell_length_a   8.05597000
_cell_length_b   10.54893100
_cell_length_c   15.55133700
_cell_angle_alpha   90.00000000
_cell_angle_beta   90.00000000
_cell_angle_gamma   90.00000000
_symmetry_Int_Tables_number   1
_chemical_formula_structural   Cu2Ni2C9
_chemical_formula_sum   'Cu16 Ni16 C72'
_cell_volume   1321.58172520
_cell_formula_units_Z   8
loop_
 _symmetry_equiv_pos_site_id
 _symmetry_equiv_pos_as_xyz
  1  'x, y, z'
loop_
 _atom_site_type_symbol
 _atom_site_label
 _atom_site_symmetry_multiplicity
 _atom_site_fract_x
 _atom_site_fract_y
 _atom_site_fract_z
 _atom_site_occupancy
  C  C0  1  0.97213700  0.91387000  0.12400300  1
  C  C1  1  0.47213700  0.08613000  0.62400300  1
  C  C2  1  0.02786300  0.58613000  0.62400300  1
  C  C3  1  0.52786300  0.91387000  0.37599700  1
  C  C4  1  0.52786300  0.41387000  0.12400300  1
  C  C5  1  0.97213700  0.41387000  0.37599700  1
  C  C6  1  0.02786300  0.08613000  0.87599700  1
  C  C7  1  0.47213700  0.58613000  0.87599700  1
  Ni  Ni8  1  0.08242200  0.05062800  0.32737800  1
  Ni  Ni9  1  0.91757800  0.94937200  0.67262200  1
  Ni  Ni10  1  0.90609800  0.29015500  0.07669000  1
  Ni  Ni11  1  0.08242200  0.55062800  0.17262200  1
  Ni  Ni12  1  0.91757800  0.44937200  0.82737800  1
  Ni  Ni13  1  0.59390200  0.79015500  0.07669000  1
  Ni  Ni14  1  0.09390200  0.70984500  0.92331000  1
  Ni  Ni15  1  0.40609800  0.20984500  0.92331000  1
  Ni  Ni16  1  0.40609800  0.70984500  0.57669000  1
  Ni  Ni17  1  0.59390200  0.29015500  0.42331000  1
  Ni  Ni18  1  0.41757800  0.55062800  0.32737800  1
  Ni  Ni19  1  0.41757800  0.05062800  0.17262200  1
  Ni  Ni20  1  0.58242200  0.44937200  0.67262200  1
  Ni  Ni21  1  0.58242200  0.94937200  0.82737800  1
  Ni  Ni22  1  0.09390200  0.20984500  0.57669000  1
  Ni  Ni23  1  0.90609800  0.79015500  0.42331000  1
  Cu  Cu24  1  0.25000000  0.32781600  0.75000000  1
  Cu  Cu25  1  0.75000000  0.70427600  0.75000000  1
  Cu  Cu26  1  0.79540300  0.56968700  0.00664500  1
  Cu  Cu27  1  0.25000000  0.82781600  0.75000000  1
  Cu  Cu28  1  0.20459700  0.93031300  0.50664500  1
  Cu  Cu29  1  0.29540300  0.93031300  0.99335500  1
  Cu  Cu30  1  0.25000000  0.29572400  0.25000000  1
  Cu  Cu31  1  0.70459700  0.06968700  0.00664500  1
  Cu  Cu32  1  0.75000000  0.20427600  0.75000000  1
  Cu  Cu33  1  0.75000000  0.67218400  0.25000000  1
  Cu  Cu34  1  0.20459700  0.43031300  0.99335500  1
  Cu  Cu35  1  0.70459700  0.56968700  0.49335500  1
  Cu  Cu36  1  0.75000000  0.17218400  0.25000000  1
  Cu  Cu37  1  0.79540300  0.06968700  0.49335500  1
  Cu  Cu38  1  0.25000000  0.79572400  0.25000000  1
  Cu  Cu39  1  0.29540300  0.43031300  0.50664500  1
  C  C40  1  0.65346200  0.47385500  0.42123200  1
  C  C41  1  0.76782600  0.50281400  0.91917500  1
  C  C42  1  0.08629400  0.81508300  0.50392700  1
  C  C43  1  0.91370600  0.68491700  0.00392700  1
  C  C44  1  0.59153500  0.08850600  0.25789500  1
  C  C45  1  0.26782600  0.99718600  0.08082500  1
  C  C46  1  0.75878100  0.75804200  0.16866600  1
  C  C47  1  0.61501200  0.11501100  0.46821500  1
  C  C48  1  0.74121900  0.75804200  0.33133400  1
  C  C49  1  0.24121900  0.74195800  0.66866600  1
  C  C50  1  0.90373100  0.62042500  0.77376200  1
  C  C51  1  0.75878100  0.25804200  0.33133400  1
  C  C52  1  0.09626900  0.87957500  0.27376200  1
  C  C53  1  0.09626900  0.37957500  0.22623800  1
  C  C54  1  0.90846500  0.58850600  0.25789500  1
  C  C55  1  0.65346200  0.97385500  0.07876800  1
  C  C56  1  0.74121900  0.25804200  0.16866600  1
  C  C57  1  0.30858200  0.71879500  0.32934100  1
  C  C58  1  0.19141800  0.71879500  0.17065900  1
  C  C59  1  0.25878100  0.24195800  0.66866600  1
  C  C60  1  0.11501200  0.38498900  0.53178500  1
  C  C61  1  0.40373100  0.87957500  0.22623800  1
  C  C62  1  0.09153500  0.91149400  0.75789500  1
  C  C63  1  0.23217400  0.49718600  0.08082500  1
  C  C64  1  0.59153500  0.58850600  0.24210500  1
  C  C65  1  0.15346200  0.52614500  0.92123200  1
  C  C66  1  0.73217400  0.00281400  0.91917500  1
  C  C67  1  0.09153500  0.41149400  0.74210500  1
  C  C68  1  0.88498800  0.61501100  0.46821500  1
  C  C69  1  0.91370600  0.18491700  0.49607300  1
  C  C70  1  0.08629400  0.31508300  0.99607300  1
  C  C71  1  0.25878100  0.74195800  0.83133400  1
  C  C72  1  0.24121900  0.24195800  0.83133400  1
  C  C73  1  0.41370600  0.31508300  0.50392700  1
  C  C74  1  0.26782600  0.49718600  0.41917500  1
  C  C75  1  0.40846500  0.41149400  0.75789500  1
  C  C76  1  0.40373100  0.37957500  0.27376200  1
  C  C77  1  0.76782600  0.00281400  0.58082500  1
  C  C78  1  0.80858200  0.78120500  0.67065900  1
  C  C79  1  0.80858200  0.28120500  0.82934100  1
  C  C80  1  0.90373100  0.12042500  0.72623800  1
  C  C81  1  0.34653800  0.02614500  0.92123200  1
  C  C82  1  0.59626900  0.62042500  0.72623800  1
  C  C83  1  0.38498800  0.88498900  0.53178500  1
  C  C84  1  0.58629400  0.18491700  0.00392700  1
  C  C85  1  0.19141800  0.21879500  0.32934100  1
  C  C86  1  0.40846500  0.91149400  0.74210500  1
  C  C87  1  0.58629400  0.68491700  0.49607300  1
  C  C88  1  0.38498800  0.38498900  0.96821500  1
  C  C89  1  0.84653800  0.97385500  0.42123200  1
  C  C90  1  0.73217400  0.50281400  0.58082500  1
  C  C91  1  0.23217400  0.99718600  0.41917500  1
  C  C92  1  0.90846500  0.08850600  0.24210500  1
  C  C93  1  0.41370600  0.81508300  0.99607300  1
  C  C94  1  0.15346200  0.02614500  0.57876800  1
  C  C95  1  0.30858200  0.21879500  0.17065900  1
  C  C96  1  0.11501200  0.88498900  0.96821500  1
  C  C97  1  0.69141800  0.28120500  0.67065900  1
  C  C98  1  0.61501200  0.61501100  0.03178500  1
  C  C99  1  0.84653800  0.47385500  0.07876800  1
  C  C100  1  0.59626900  0.12042500  0.77376200  1
  C  C101  1  0.34653800  0.52614500  0.57876800  1
  C  C102  1  0.88498800  0.11501100  0.03178500  1
  C  C103  1  0.69141800  0.78120500  0.82934100  1
