# generated using pymatgen
data_Cu6NiC4
_symmetry_space_group_name_H-M   'P 1'
_cell_length_a   10.47931400
_cell_length_b   12.65027300
_cell_length_c   16.39011600
_cell_angle_alpha   90.00000000
_cell_angle_beta   90.00000000
_cell_angle_gamma   90.00000000
_symmetry_Int_Tables_number   1
_chemical_formula_structural   Cu6NiC4
_chemical_formula_sum   'Cu48 Ni8 C32'
_cell_volume   2172.77511627
_cell_formula_units_Z   8
loop_
 _symmetry_equiv_pos_site_id
 _symmetry_equiv_pos_as_xyz
  1  'x, y, z'
loop_
 _atom_site_type_symbol
 _atom_site_label
 _atom_site_symmetry_multiplicity
 _atom_site_fract_x
 _atom_site_fract_y
 _atom_site_fract_z
 _atom_site_occupancy
  C  C0  1  0.25000000  0.37706600  0.63871600  1
  C  C1  1  0.96399200  0.61812000  0.88822700  1
  C  C2  1  0.25000000  0.11497800  0.12478600  1
  C  C3  1  0.46399200  0.38188000  0.11177300  1
  C  C4  1  0.25000000  0.87706600  0.86128400  1
  C  C5  1  0.53600800  0.61812000  0.88822700  1
  C  C6  1  0.25000000  0.61497800  0.37521400  1
  C  C7  1  0.54392400  0.31239100  0.40553500  1
  C  C8  1  0.04392400  0.68760900  0.59446500  1
  C  C9  1  0.95607600  0.31239100  0.40553500  1
  C  C10  1  0.45607600  0.18760900  0.90553500  1
  C  C11  1  0.95607600  0.81239100  0.09446500  1
  C  C12  1  0.45607600  0.68760900  0.59446500  1
  C  C13  1  0.03600800  0.38188000  0.11177300  1
  C  C14  1  0.96399200  0.11812000  0.61177300  1
  C  C15  1  0.53600800  0.11812000  0.61177300  1
  C  C16  1  0.75000000  0.12293400  0.13871600  1
  C  C17  1  0.04392400  0.18760900  0.90553500  1
  C  C18  1  0.46399200  0.88188000  0.38822700  1
  C  C19  1  0.03600800  0.88188000  0.38822700  1
  C  C20  1  0.75000000  0.88502200  0.87521400  1
  C  C21  1  0.54392400  0.81239100  0.09446500  1
  C  C22  1  0.75000000  0.38502200  0.62478600  1
  C  C23  1  0.75000000  0.62293400  0.36128400  1
  Ni  Ni24  1  0.25000000  0.33568800  0.27762500  1
  Ni  Ni25  1  0.25000000  0.83568800  0.22237500  1
  Ni  Ni26  1  0.75000000  0.16431200  0.77762500  1
  Ni  Ni27  1  0.25000000  0.61663300  0.75934400  1
  Ni  Ni28  1  0.75000000  0.88336700  0.25934400  1
  Ni  Ni29  1  0.75000000  0.66431200  0.72237500  1
  Ni  Ni30  1  0.25000000  0.11663300  0.74065600  1
  Ni  Ni31  1  0.75000000  0.38336700  0.24065600  1
  Cu  Cu32  1  0.75000000  0.02258500  0.70778700  1
  Cu  Cu33  1  0.00969800  0.34162900  0.56967100  1
  Cu  Cu34  1  0.75000000  0.61851700  0.59772100  1
  Cu  Cu35  1  0.25000000  0.06250800  0.95380100  1
  Cu  Cu36  1  0.58295400  0.97083600  0.22965500  1
  Cu  Cu37  1  0.50969800  0.65837100  0.43032900  1
  Cu  Cu38  1  0.25000000  0.97741500  0.29221300  1
  Cu  Cu39  1  0.40915200  0.73962100  0.25347700  1
  Cu  Cu40  1  0.99030200  0.15837100  0.06967100  1
  Cu  Cu41  1  0.49030200  0.34162900  0.56967100  1
  Cu  Cu42  1  0.75000000  0.68786800  0.97242500  1
  Cu  Cu43  1  0.25000000  0.56250800  0.54619900  1
  Cu  Cu44  1  0.25000000  0.47741500  0.20778700  1
  Cu  Cu45  1  0.09084800  0.23962100  0.24652300  1
  Cu  Cu46  1  0.41704600  0.52916400  0.72965500  1
  Cu  Cu47  1  0.25000000  0.76868200  0.69892700  1
  Cu  Cu48  1  0.75000000  0.23131800  0.30107300  1
  Cu  Cu49  1  0.75000000  0.35539000  0.11275100  1
  Cu  Cu50  1  0.75000000  0.85539000  0.38724900  1
  Cu  Cu51  1  0.08295400  0.52916400  0.72965500  1
  Cu  Cu52  1  0.25000000  0.64461000  0.88724900  1
  Cu  Cu53  1  0.75000000  0.18786800  0.52757500  1
  Cu  Cu54  1  0.91704600  0.47083600  0.27034500  1
  Cu  Cu55  1  0.09084800  0.73962100  0.25347700  1
  Cu  Cu56  1  0.99030200  0.65837100  0.43032900  1
  Cu  Cu57  1  0.75000000  0.43749200  0.45380100  1
  Cu  Cu58  1  0.75000000  0.11851700  0.90227900  1
  Cu  Cu59  1  0.25000000  0.14461000  0.61275100  1
  Cu  Cu60  1  0.50969800  0.15837100  0.06967100  1
  Cu  Cu61  1  0.25000000  0.88148300  0.09772100  1
  Cu  Cu62  1  0.25000000  0.38148300  0.40227900  1
  Cu  Cu63  1  0.91704600  0.97083600  0.22965500  1
  Cu  Cu64  1  0.25000000  0.81213200  0.47242500  1
  Cu  Cu65  1  0.00969800  0.84162900  0.93032900  1
  Cu  Cu66  1  0.41704600  0.02916400  0.77034500  1
  Cu  Cu67  1  0.59084800  0.26037900  0.74652300  1
  Cu  Cu68  1  0.40915200  0.23962100  0.24652300  1
  Cu  Cu69  1  0.59084800  0.76037900  0.75347700  1
  Cu  Cu70  1  0.75000000  0.93749200  0.04619900  1
  Cu  Cu71  1  0.08295400  0.02916400  0.77034500  1
  Cu  Cu72  1  0.25000000  0.26868200  0.80107300  1
  Cu  Cu73  1  0.90915200  0.26037900  0.74652300  1
  Cu  Cu74  1  0.49030200  0.84162900  0.93032900  1
  Cu  Cu75  1  0.58295400  0.47083600  0.27034500  1
  Cu  Cu76  1  0.90915200  0.76037900  0.75347700  1
  Cu  Cu77  1  0.75000000  0.52258500  0.79221300  1
  Cu  Cu78  1  0.25000000  0.31213200  0.02757500  1
  Cu  Cu79  1  0.75000000  0.73131800  0.19892700  1
  C  C80  1  0.95676400  0.89669100  0.55987500  1
  C  C81  1  0.54323600  0.39669100  0.94012500  1
  C  C82  1  0.54323600  0.89669100  0.55987500  1
  C  C83  1  0.04323600  0.10330900  0.44012500  1
  C  C84  1  0.95676400  0.39669100  0.94012500  1
  C  C85  1  0.45676400  0.10330900  0.44012500  1
  C  C86  1  0.04323600  0.60330900  0.05987500  1
  C  C87  1  0.45676400  0.60330900  0.05987500  1
