# generated using pymatgen
data_CuNiC5
_symmetry_space_group_name_H-M   'P 1'
_cell_length_a   6.18035100
_cell_length_b   7.66490900
_cell_length_c   12.73057900
_cell_angle_alpha   90.00000000
_cell_angle_beta   90.00000000
_cell_angle_gamma   90.00000000
_symmetry_Int_Tables_number   1
_chemical_formula_structural   CuNiC5
_chemical_formula_sum   'Cu4 Ni4 C20'
_cell_volume   603.07079877
_cell_formula_units_Z   4
loop_
 _symmetry_equiv_pos_site_id
 _symmetry_equiv_pos_as_xyz
  1  'x, y, z'
loop_
 _atom_site_type_symbol
 _atom_site_label
 _atom_site_symmetry_multiplicity
 _atom_site_fract_x
 _atom_site_fract_y
 _atom_site_fract_z
 _atom_site_occupancy
  Ni  Ni0  1  0.50302200  0.51299800  0.65895700  1
  Ni  Ni1  1  0.00302200  0.48700200  0.34104300  1
  Ni  Ni2  1  0.50302200  0.98700200  0.15895700  1
  Ni  Ni3  1  0.00302200  0.01299800  0.84104300  1
  Cu  Cu4  1  0.50011100  0.22044700  0.42825500  1
  Cu  Cu5  1  0.00011100  0.72044700  0.07174500  1
  Cu  Cu6  1  0.00011100  0.77955300  0.57174500  1
  Cu  Cu7  1  0.50011100  0.27955300  0.92825500  1
  C  C8  1  0.50557000  0.73113600  0.40489500  1
  C  C9  1  0.00557000  0.23113600  0.09510500  1
  C  C10  1  0.50557000  0.76886400  0.90489500  1
  C  C11  1  0.00557000  0.26886400  0.59510500  1
  C  C12  1  0.61772800  0.98991400  0.83038200  1
  C  C13  1  0.11772800  0.48991400  0.66961800  1
  C  C14  1  0.17188900  0.74945100  0.88672000  1
  C  C15  1  0.17188900  0.75054900  0.38672000  1
  C  C16  1  0.64348900  0.55309400  0.83291400  1
  C  C17  1  0.64348900  0.94690600  0.33291400  1
  C  C18  1  0.58749000  0.76560300  0.56165900  1
  C  C19  1  0.11772800  0.01008600  0.16961800  1
  C  C20  1  0.58749000  0.73439700  0.06165900  1
  C  C21  1  0.67188900  0.24945100  0.61328000  1
  C  C22  1  0.08749000  0.23439700  0.43834100  1
  C  C23  1  0.14348900  0.44690600  0.16708600  1
  C  C24  1  0.14348900  0.05309400  0.66708600  1
  C  C25  1  0.67188900  0.25054900  0.11328000  1
  C  C26  1  0.08749000  0.26560300  0.93834100  1
  C  C27  1  0.61772800  0.51008600  0.33038200  1
