# generated using pymatgen
data_Cu4NiC2
_symmetry_space_group_name_H-M   'P 1'
_cell_length_a   18.07729100
_cell_length_b   9.67543600
_cell_length_c   10.16086909
_cell_angle_alpha   89.53329409
_cell_angle_beta   90.00000000
_cell_angle_gamma   90.00000000
_symmetry_Int_Tables_number   1
_chemical_formula_structural   Cu4NiC2
_chemical_formula_sum   'Cu32 Ni8 C16'
_cell_volume   1777.13467860
_cell_formula_units_Z   8
loop_
 _symmetry_equiv_pos_site_id
 _symmetry_equiv_pos_as_xyz
  1  'x, y, z'
loop_
 _atom_site_type_symbol
 _atom_site_label
 _atom_site_symmetry_multiplicity
 _atom_site_fract_x
 _atom_site_fract_y
 _atom_site_fract_z
 _atom_site_occupancy
  C  C0  1  0.20669100  0.12070300  0.37297200  1
  C  C1  1  0.70669100  0.87929700  0.12702800  1
  C  C2  1  0.79330900  0.87929700  0.62702800  1
  C  C3  1  0.29330900  0.12070300  0.87297200  1
  C  C4  1  0.71450600  0.38202500  0.62604200  1
  C  C5  1  0.21450600  0.61797500  0.87395800  1
  C  C6  1  0.28549400  0.61797500  0.37395800  1
  C  C7  1  0.78549400  0.38202500  0.12604200  1
  C  C8  1  0.96777100  0.26965300  0.51313300  1
  C  C9  1  0.46777100  0.73034700  0.98686700  1
  C  C10  1  0.03222900  0.73034700  0.48686700  1
  C  C11  1  0.53222900  0.26965300  0.01313300  1
  C  C12  1  0.01358500  0.22596200  0.97074600  1
  C  C13  1  0.51358500  0.77403800  0.52925400  1
  C  C14  1  0.98641500  0.77403800  0.02925400  1
  C  C15  1  0.48641500  0.22596200  0.47074600  1
  Ni  Ni16  1  0.90178800  0.52582400  0.77725100  1
  Ni  Ni17  1  0.40178800  0.47417600  0.72274900  1
  Ni  Ni18  1  0.09821200  0.47417600  0.22274900  1
  Ni  Ni19  1  0.59821200  0.52582400  0.27725100  1
  Ni  Ni20  1  0.10258500  0.99340800  0.75413600  1
  Ni  Ni21  1  0.60258500  0.00659200  0.74586400  1
  Ni  Ni22  1  0.89741500  0.00659200  0.24586400  1
  Ni  Ni23  1  0.39741500  0.99340800  0.25413600  1
  Cu  Cu24  1  0.12546300  0.96485900  0.97015500  1
  Cu  Cu25  1  0.62546300  0.03514100  0.52984500  1
  Cu  Cu26  1  0.87453700  0.03514100  0.02984500  1
  Cu  Cu27  1  0.37453700  0.96485900  0.47015500  1
  Cu  Cu28  1  0.01809300  0.05722700  0.25282500  1
  Cu  Cu29  1  0.51809300  0.94277300  0.24717500  1
  Cu  Cu30  1  0.98190700  0.94277300  0.74717500  1
  Cu  Cu31  1  0.48190700  0.05722700  0.75282500  1
  Cu  Cu32  1  0.02360800  0.53787000  0.82114000  1
  Cu  Cu33  1  0.52360800  0.46213000  0.67886000  1
  Cu  Cu34  1  0.97639200  0.46213000  0.17886000  1
  Cu  Cu35  1  0.47639200  0.53787000  0.32114000  1
  Cu  Cu36  1  0.86912000  0.30886500  0.82715600  1
  Cu  Cu37  1  0.36912000  0.69113500  0.67284400  1
  Cu  Cu38  1  0.13088000  0.69113500  0.17284400  1
  Cu  Cu39  1  0.63088000  0.30886500  0.32715600  1
  Cu  Cu40  1  0.11469700  0.21910700  0.72170800  1
  Cu  Cu41  1  0.61469700  0.78089300  0.77829200  1
  Cu  Cu42  1  0.88530300  0.78089300  0.27829200  1
  Cu  Cu43  1  0.38530300  0.21910700  0.22170800  1
  Cu  Cu44  1  0.18007000  0.87429700  0.63385100  1
  Cu  Cu45  1  0.68007000  0.12570300  0.86614900  1
  Cu  Cu46  1  0.81993000  0.12570300  0.36614900  1
  Cu  Cu47  1  0.31993000  0.87429700  0.13385100  1
  Cu  Cu48  1  0.87414800  0.57061900  0.57080800  1
  Cu  Cu49  1  0.37414800  0.42938100  0.92919200  1
  Cu  Cu50  1  0.12585200  0.42938100  0.42919200  1
  Cu  Cu51  1  0.62585200  0.57061900  0.07080800  1
  Cu  Cu52  1  0.15824100  0.33032800  0.09035200  1
  Cu  Cu53  1  0.65824100  0.66967200  0.40964800  1
  Cu  Cu54  1  0.84175900  0.66967200  0.90964800  1
  Cu  Cu55  1  0.34175900  0.33032800  0.59035200  1
