# generated using pymatgen
data_Cu7Ni4C7
_symmetry_space_group_name_H-M   'P 1'
_cell_length_a   12.71642100
_cell_length_b   12.71642100
_cell_length_c   12.71642100
_cell_angle_alpha   90.00000000
_cell_angle_beta   90.00000000
_cell_angle_gamma   90.00000000
_symmetry_Int_Tables_number   1
_chemical_formula_structural   Cu7Ni4C7
_chemical_formula_sum   'Cu28 Ni16 C28'
_cell_volume   2056.33890733
_cell_formula_units_Z   4
loop_
 _symmetry_equiv_pos_site_id
 _symmetry_equiv_pos_as_xyz
  1  'x, y, z'
loop_
 _atom_site_type_symbol
 _atom_site_label
 _atom_site_symmetry_multiplicity
 _atom_site_fract_x
 _atom_site_fract_y
 _atom_site_fract_z
 _atom_site_occupancy
  C  C0  1  0.00000000  0.50000000  0.00000000  1
  C  C1  1  0.50000000  0.50000000  0.50000000  1
  C  C2  1  0.00000000  0.00000000  0.50000000  1
  C  C3  1  0.50000000  0.00000000  0.00000000  1
  C  C4  1  0.04174500  0.69251600  0.30265800  1
  C  C5  1  0.19251600  0.30265800  0.45825500  1
  C  C6  1  0.30748400  0.69734200  0.95825500  1
  C  C7  1  0.80265800  0.04174500  0.80748400  1
  C  C8  1  0.54174500  0.69251600  0.19734200  1
  C  C9  1  0.45825500  0.30748400  0.80265800  1
  C  C10  1  0.95825500  0.19251600  0.19734200  1
  C  C11  1  0.19734200  0.54174500  0.69251600  1
  C  C12  1  0.95825500  0.30748400  0.69734200  1
  C  C13  1  0.04174500  0.80748400  0.80265800  1
  C  C14  1  0.80748400  0.80265800  0.04174500  1
  C  C15  1  0.19734200  0.95825500  0.19251600  1
  C  C16  1  0.69251600  0.30265800  0.04174500  1
  C  C17  1  0.30265800  0.04174500  0.69251600  1
  C  C18  1  0.80265800  0.45825500  0.30748400  1
  C  C19  1  0.30265800  0.45825500  0.19251600  1
  C  C20  1  0.54174500  0.80748400  0.69734200  1
  C  C21  1  0.45825500  0.19251600  0.30265800  1
  C  C22  1  0.19251600  0.19734200  0.95825500  1
  C  C23  1  0.80748400  0.69734200  0.54174500  1
  C  C24  1  0.69734200  0.95825500  0.30748400  1
  C  C25  1  0.69734200  0.54174500  0.80748400  1
  C  C26  1  0.69251600  0.19734200  0.54174500  1
  C  C27  1  0.30748400  0.80265800  0.45825500  1
  Ni  Ni28  1  0.15595800  0.15595800  0.15595800  1
  Ni  Ni29  1  0.34404200  0.65595800  0.15595800  1
  Ni  Ni30  1  0.22940100  0.77059900  0.27059900  1
  Ni  Ni31  1  0.72940100  0.72940100  0.72940100  1
  Ni  Ni32  1  0.84404200  0.65595800  0.34404200  1
  Ni  Ni33  1  0.15595800  0.34404200  0.65595800  1
  Ni  Ni34  1  0.34404200  0.84404200  0.65595800  1
  Ni  Ni35  1  0.65595800  0.34404200  0.84404200  1
  Ni  Ni36  1  0.27059900  0.22940100  0.77059900  1
  Ni  Ni37  1  0.77059900  0.22940100  0.72940100  1
  Ni  Ni38  1  0.77059900  0.27059900  0.22940100  1
  Ni  Ni39  1  0.27059900  0.27059900  0.27059900  1
  Ni  Ni40  1  0.72940100  0.77059900  0.22940100  1
  Ni  Ni41  1  0.84404200  0.84404200  0.84404200  1
  Ni  Ni42  1  0.65595800  0.15595800  0.34404200  1
  Ni  Ni43  1  0.22940100  0.72940100  0.77059900  1
  Cu  Cu44  1  0.53889900  0.04512400  0.80779600  1
  Cu  Cu45  1  0.30779600  0.53889900  0.45487600  1
  Cu  Cu46  1  0.30779600  0.96110100  0.95487600  1
  Cu  Cu47  1  0.45487600  0.19220400  0.03889900  1
  Cu  Cu48  1  0.95487600  0.30779600  0.96110100  1
  Cu  Cu49  1  0.04512400  0.69220400  0.03889900  1
  Cu  Cu50  1  0.04512400  0.80779600  0.53889900  1
  Cu  Cu51  1  0.00000000  0.00000000  0.00000000  1
  Cu  Cu52  1  0.54512400  0.80779600  0.96110100  1
  Cu  Cu53  1  0.03889900  0.04512400  0.69220400  1
  Cu  Cu54  1  0.46110100  0.95487600  0.19220400  1
  Cu  Cu55  1  0.53889900  0.45487600  0.30779600  1
  Cu  Cu56  1  0.03889900  0.45487600  0.19220400  1
  Cu  Cu57  1  0.50000000  0.50000000  0.00000000  1
  Cu  Cu58  1  0.96110100  0.54512400  0.80779600  1
  Cu  Cu59  1  0.54512400  0.69220400  0.46110100  1
  Cu  Cu60  1  0.80779600  0.96110100  0.54512400  1
  Cu  Cu61  1  0.50000000  0.00000000  0.50000000  1
  Cu  Cu62  1  0.19220400  0.03889900  0.45487600  1
  Cu  Cu63  1  0.95487600  0.19220400  0.46110100  1
  Cu  Cu64  1  0.96110100  0.95487600  0.30779600  1
  Cu  Cu65  1  0.46110100  0.54512400  0.69220400  1
  Cu  Cu66  1  0.19220400  0.46110100  0.95487600  1
  Cu  Cu67  1  0.45487600  0.30779600  0.53889900  1
  Cu  Cu68  1  0.00000000  0.50000000  0.50000000  1
  Cu  Cu69  1  0.80779600  0.53889900  0.04512400  1
  Cu  Cu70  1  0.69220400  0.46110100  0.54512400  1
  Cu  Cu71  1  0.69220400  0.03889900  0.04512400  1
