# generated using pymatgen
data_Cu4Ni2C19
_symmetry_space_group_name_H-M   'P 1'
_cell_length_a   8.75320536
_cell_length_b   8.75320536
_cell_length_c   18.40634365
_cell_angle_alpha   82.09039851
_cell_angle_beta   82.09039851
_cell_angle_gamma   106.28228202
_symmetry_Int_Tables_number   1
_chemical_formula_structural   Cu4Ni2C19
_chemical_formula_sum   'Cu16 Ni8 C76'
_cell_volume   1317.60193869
_cell_formula_units_Z   4
loop_
 _symmetry_equiv_pos_site_id
 _symmetry_equiv_pos_as_xyz
  1  'x, y, z'
loop_
 _atom_site_type_symbol
 _atom_site_label
 _atom_site_symmetry_multiplicity
 _atom_site_fract_x
 _atom_site_fract_y
 _atom_site_fract_z
 _atom_site_occupancy
  Ni  Ni0  1  0.41233200  0.88855600  0.29987600  1
  Ni  Ni1  1  0.45033200  0.64947800  0.05120700  1
  Ni  Ni2  1  0.35052200  0.54966800  0.44879300  1
  Ni  Ni3  1  0.58766800  0.11144400  0.70012400  1
  Ni  Ni4  1  0.54966800  0.35052200  0.94879300  1
  Ni  Ni5  1  0.88855600  0.41233200  0.79987600  1
  Ni  Ni6  1  0.11144400  0.58766800  0.20012400  1
  Ni  Ni7  1  0.64947800  0.45033200  0.55120700  1
  Cu  Cu8  1  0.73005700  0.08641800  0.06824200  1
  Cu  Cu9  1  0.03887800  0.15134100  0.93250500  1
  Cu  Cu10  1  0.53955700  0.46044300  0.25000000  1
  Cu  Cu11  1  0.82793800  0.17206200  0.25000000  1
  Cu  Cu12  1  0.46044300  0.53955700  0.75000000  1
  Cu  Cu13  1  0.50000000  0.00000000  0.50000000  1
  Cu  Cu14  1  0.96112200  0.84865900  0.06749500  1
  Cu  Cu15  1  0.08641800  0.73005700  0.56824200  1
  Cu  Cu16  1  0.84865900  0.96112200  0.56749500  1
  Cu  Cu17  1  0.04644300  0.95355700  0.25000000  1
  Cu  Cu18  1  0.17206200  0.82793800  0.75000000  1
  Cu  Cu19  1  0.15134100  0.03887800  0.43250500  1
  Cu  Cu20  1  0.95355700  0.04644300  0.75000000  1
  Cu  Cu21  1  0.00000000  0.50000000  0.00000000  1
  Cu  Cu22  1  0.91358200  0.26994300  0.43175800  1
  Cu  Cu23  1  0.26994300  0.91358200  0.93175800  1
  C  C24  1  0.22757900  0.55782600  0.87884000  1
  C  C25  1  0.77955200  0.89772100  0.40251400  1
  C  C26  1  0.31250500  0.01303600  0.09794800  1
  C  C27  1  0.98696400  0.68749500  0.40205200  1
  C  C28  1  0.10227900  0.22044800  0.09748600  1
  C  C29  1  0.72325400  0.83982100  0.17888300  1
  C  C30  1  0.16017900  0.27674600  0.32111700  1
  C  C31  1  0.77242100  0.44217400  0.12116000  1
  C  C32  1  0.89772100  0.77955200  0.90251400  1
  C  C33  1  0.83982100  0.72325400  0.67888300  1
  C  C34  1  0.27674600  0.16017900  0.82111700  1
  C  C35  1  0.22044800  0.10227900  0.59748600  1
  C  C36  1  0.68749500  0.98696400  0.90205200  1
  C  C37  1  0.55782600  0.22757900  0.37884000  1
  C  C38  1  0.01303600  0.31250500  0.59794800  1
  C  C39  1  0.44217400  0.77242100  0.62116000  1
  C  C40  1  0.60075200  0.86809100  0.42924800  1
  C  C41  1  0.66945300  0.21832300  0.43845400  1
  C  C42  1  0.40910600  0.29702300  0.76734400  1
  C  C43  1  0.94941900  0.25155200  0.68130700  1
  C  C44  1  0.05058100  0.74844800  0.31869300  1
  C  C45  1  0.54237300  0.39909600  0.35910000  1
  C  C46  1  0.25155200  0.94941900  0.18130700  1
  C  C47  1  0.82746700  0.38566100  0.19324300  1
  C  C48  1  0.49159200  0.05406600  0.07104500  1
  C  C49  1  0.61433900  0.17253300  0.30675700  1
  C  C50  1  0.38566100  0.82746700  0.69324300  1
  C  C51  1  0.16348800  0.03982600  0.68159800  1
  C  C52  1  0.70283800  0.00931600  0.18747100  1
  C  C53  1  0.50840800  0.94593400  0.92895500  1
  C  C54  1  0.74844800  0.05058100  0.81869300  1
  C  C55  1  0.03982600  0.16348800  0.18159800  1
  C  C56  1  0.00793000  0.88867100  0.94871200  1
  C  C57  1  0.96017400  0.83651200  0.81840200  1
  C  C58  1  0.09547900  0.39496700  0.92043400  1
  C  C59  1  0.99068400  0.29716200  0.31252900  1
  C  C60  1  0.21275100  0.90055700  0.05068900  1
  C  C61  1  0.72435900  0.81168300  0.92088900  1
  C  C62  1  0.09944300  0.78724900  0.44931100  1
  C  C63  1  0.21832300  0.66945300  0.93845400  1
  C  C64  1  0.89757800  0.82970200  0.18363200  1
  C  C65  1  0.17253300  0.61433900  0.80675700  1
  C  C66  1  0.83907100  0.71573000  0.59297800  1
  C  C67  1  0.29716200  0.99068400  0.81252900  1
  C  C68  1  0.81168300  0.72435900  0.42088900  1
  C  C69  1  0.39496700  0.09547900  0.42043400  1
  C  C70  1  0.99207000  0.11132900  0.05128800  1
  C  C71  1  0.90055700  0.21275100  0.55069000  1
  C  C72  1  0.27564100  0.18831700  0.07911100  1
  C  C73  1  0.33054700  0.78167700  0.56154600  1
  C  C74  1  0.00931600  0.70283800  0.68747100  1
  C  C75  1  0.82970200  0.89757800  0.68363200  1
  C  C76  1  0.86809100  0.60075200  0.92924800  1
  C  C77  1  0.16092900  0.28427000  0.40702200  1
  C  C78  1  0.59089400  0.70297700  0.23265600  1
  C  C79  1  0.28427000  0.16092900  0.90702200  1
  C  C80  1  0.18831700  0.27564100  0.57911100  1
  C  C81  1  0.60503300  0.90452100  0.57956600  1
  C  C82  1  0.78167700  0.33054700  0.06154600  1
  C  C83  1  0.29702300  0.40910600  0.26734400  1
  C  C84  1  0.11132900  0.99207000  0.55128800  1
  C  C85  1  0.90452100  0.60503300  0.07956600  1
  C  C86  1  0.39924800  0.13190900  0.57075200  1
  C  C87  1  0.10242200  0.17029800  0.81636800  1
  C  C88  1  0.71573000  0.83907100  0.09297800  1
  C  C89  1  0.05406600  0.49159200  0.57104500  1
  C  C90  1  0.13190900  0.39924800  0.07075200  1
  C  C91  1  0.83651200  0.96017400  0.31840200  1
  C  C92  1  0.39909600  0.54237300  0.85910000  1
  C  C93  1  0.94593400  0.50840800  0.42895500  1
  C  C94  1  0.88867100  0.00793000  0.44871200  1
  C  C95  1  0.60090400  0.45762700  0.14090000  1
  C  C96  1  0.45762700  0.60090400  0.64090000  1
  C  C97  1  0.70297700  0.59089400  0.73265600  1
  C  C98  1  0.17029800  0.10242200  0.31636800  1
  C  C99  1  0.78724900  0.09944300  0.94931000  1
