# generated using pymatgen
data_Cu6Ni2C5
_symmetry_space_group_name_H-M   'P 1'
_cell_length_a   8.85999289
_cell_length_b   8.85999289
_cell_length_c   11.10909969
_cell_angle_alpha   76.86140857
_cell_angle_beta   76.86140857
_cell_angle_gamma   37.57313010
_symmetry_Int_Tables_number   1
_chemical_formula_structural   Cu6Ni2C5
_chemical_formula_sum   'Cu12 Ni4 C10'
_cell_volume   516.20346843
_cell_formula_units_Z   2
loop_
 _symmetry_equiv_pos_site_id
 _symmetry_equiv_pos_as_xyz
  1  'x, y, z'
loop_
 _atom_site_type_symbol
 _atom_site_label
 _atom_site_symmetry_multiplicity
 _atom_site_fract_x
 _atom_site_fract_y
 _atom_site_fract_z
 _atom_site_occupancy
  C  C0  1  0.39738900  0.39738900  0.05235300  1
  C  C1  1  0.87169300  0.87169300  0.59313900  1
  C  C2  1  0.12830700  0.12830700  0.40686100  1
  C  C3  1  0.60261100  0.60261100  0.94764700  1
  C  C4  1  0.66196500  0.66196500  0.60744900  1
  C  C5  1  0.73884000  0.73884000  0.20254200  1
  C  C6  1  0.33803500  0.33803500  0.39255100  1
  C  C7  1  0.97893400  0.97893400  0.19989000  1
  C  C8  1  0.02106600  0.02106600  0.80011000  1
  C  C9  1  0.26116000  0.26116000  0.79745800  1
  Ni  Ni10  1  0.18276500  0.18276500  0.09987100  1
  Ni  Ni11  1  0.54121500  0.54121500  0.29898400  1
  Ni  Ni12  1  0.45878500  0.45878500  0.70101600  1
  Ni  Ni13  1  0.81723500  0.81723500  0.90012900  1
  Cu  Cu14  1  0.54972300  0.03077600  0.61486800  1
  Cu  Cu15  1  0.89565300  0.89565300  0.41846600  1
  Cu  Cu16  1  0.39821100  0.86624600  0.81521500  1
  Cu  Cu17  1  0.45027700  0.96922400  0.38513200  1
  Cu  Cu18  1  0.13375400  0.60178900  0.18478500  1
  Cu  Cu19  1  0.03077600  0.54972300  0.61486800  1
  Cu  Cu20  1  0.86624600  0.39821100  0.81521500  1
  Cu  Cu21  1  0.60178900  0.13375400  0.18478500  1
  Cu  Cu22  1  0.28449200  0.71550800  0.00000000  1
  Cu  Cu23  1  0.10434800  0.10434700  0.58153400  1
  Cu  Cu24  1  0.96922400  0.45027700  0.38513200  1
  Cu  Cu25  1  0.71550800  0.28449200  0.00000000  1
