# generated using pymatgen
data_Cu2Ni12C17
_symmetry_space_group_name_H-M   'P 1'
_cell_length_a   12.39953300
_cell_length_b   6.44849300
_cell_length_c   9.21338999
_cell_angle_alpha   77.39835442
_cell_angle_beta   90.00000000
_cell_angle_gamma   90.00000000
_symmetry_Int_Tables_number   1
_chemical_formula_structural   Cu2Ni12C17
_chemical_formula_sum   'Cu4 Ni24 C34'
_cell_volume   718.94059255
_cell_formula_units_Z   2
loop_
 _symmetry_equiv_pos_site_id
 _symmetry_equiv_pos_as_xyz
  1  'x, y, z'
loop_
 _atom_site_type_symbol
 _atom_site_label
 _atom_site_symmetry_multiplicity
 _atom_site_fract_x
 _atom_site_fract_y
 _atom_site_fract_z
 _atom_site_occupancy
  C  C0  1  0.83712400  0.34526800  0.35545200  1
  C  C1  1  0.66287600  0.34526800  0.85545200  1
  C  C2  1  0.33712400  0.65473200  0.14454800  1
  C  C3  1  0.16287600  0.65473200  0.64454800  1
  C  C4  1  0.00000000  0.00000000  0.00000000  1
  C  C5  1  0.50000000  0.00000000  0.50000000  1
  Ni  Ni6  1  0.86423700  0.68611900  0.02226700  1
  Ni  Ni7  1  0.09713200  0.07780900  0.74127600  1
  Ni  Ni8  1  0.44392600  0.30598600  0.61569600  1
  Ni  Ni9  1  0.18526900  0.99488000  0.86835500  1
  Ni  Ni10  1  0.81473100  0.00512000  0.13164500  1
  Ni  Ni11  1  0.63155500  0.11720000  0.23508200  1
  Ni  Ni12  1  0.59084300  0.32903500  0.27770700  1
  Ni  Ni13  1  0.36844500  0.88280000  0.76491800  1
  Ni  Ni14  1  0.63576300  0.68611900  0.52226700  1
  Ni  Ni15  1  0.68526900  0.00512000  0.63164500  1
  Ni  Ni16  1  0.90286800  0.92219100  0.25872400  1
  Ni  Ni17  1  0.31473100  0.99488000  0.36835500  1
  Ni  Ni18  1  0.40286800  0.07780900  0.24127600  1
  Ni  Ni19  1  0.90915700  0.32903500  0.77770700  1
  Ni  Ni20  1  0.59713200  0.92219100  0.75872400  1
  Ni  Ni21  1  0.05607400  0.30598600  0.11569600  1
  Ni  Ni22  1  0.55607400  0.69401400  0.38430400  1
  Ni  Ni23  1  0.09084300  0.67096500  0.22229300  1
  Ni  Ni24  1  0.36423700  0.31388100  0.47773300  1
  Ni  Ni25  1  0.13576300  0.31388100  0.97773300  1
  Ni  Ni26  1  0.86844500  0.11720000  0.73508200  1
  Ni  Ni27  1  0.94392600  0.69401400  0.88430400  1
  Ni  Ni28  1  0.13155500  0.88280000  0.26491800  1
  Ni  Ni29  1  0.40915700  0.67096500  0.72229300  1
  Cu  Cu30  1  0.86052500  0.73747500  0.57776100  1
  Cu  Cu31  1  0.36052500  0.26252500  0.92223900  1
  Cu  Cu32  1  0.13947500  0.26252500  0.42223900  1
  Cu  Cu33  1  0.63947500  0.73747500  0.07776100  1
  C  C34  1  0.43991200  0.27648200  0.51347500  1
  C  C35  1  0.62440400  0.18981200  0.31870500  1
  C  C36  1  0.74754700  0.57856000  0.08319000  1
  C  C37  1  0.25245300  0.42144000  0.91681000  1
  C  C38  1  0.57378300  0.75010200  0.91787100  1
  C  C39  1  0.60982200  0.02977700  0.66316800  1
  C  C40  1  0.10982200  0.97022300  0.83683200  1
  C  C41  1  0.81967600  0.98071500  0.59398300  1
  C  C42  1  0.42621700  0.24989800  0.08212900  1
  C  C43  1  0.94298000  0.62817800  0.71830700  1
  C  C44  1  0.44298000  0.37182200  0.78169300  1
  C  C45  1  0.87559600  0.18981200  0.81870500  1
  C  C46  1  0.12440400  0.81018800  0.18129500  1
  C  C47  1  0.07378300  0.24989800  0.58212900  1
  C  C48  1  0.89017800  0.02977700  0.16316800  1
  C  C49  1  0.24754700  0.42144000  0.41681000  1
  C  C50  1  0.37559600  0.81018800  0.68129500  1
  C  C51  1  0.68032400  0.98071500  0.09398300  1
  C  C52  1  0.18032400  0.01928500  0.40601700  1
  C  C53  1  0.55702000  0.62817800  0.21830700  1
  C  C54  1  0.75245300  0.57856000  0.58319000  1
  C  C55  1  0.92621700  0.75010200  0.41787100  1
  C  C56  1  0.56008800  0.72351800  0.48652500  1
  C  C57  1  0.06008800  0.27648200  0.01347500  1
  C  C58  1  0.31967600  0.01928500  0.90601700  1
  C  C59  1  0.05702000  0.37182200  0.28169300  1
  C  C60  1  0.93991200  0.72351800  0.98652500  1
  C  C61  1  0.39017800  0.97022300  0.33683200  1
