# generated using pymatgen
data_Cu10Ni12C37
_symmetry_space_group_name_H-M   'P 1'
_cell_length_a   10.54590333
_cell_length_b   10.54590333
_cell_length_c   15.00515800
_cell_angle_alpha   90.00000000
_cell_angle_beta   90.00000000
_cell_angle_gamma   119.99999582
_symmetry_Int_Tables_number   1
_chemical_formula_structural   Cu10Ni12C37
_chemical_formula_sum   'Cu20 Ni24 C74'
_cell_volume   1445.23607993
_cell_formula_units_Z   2
loop_
 _symmetry_equiv_pos_site_id
 _symmetry_equiv_pos_as_xyz
  1  'x, y, z'
loop_
 _atom_site_type_symbol
 _atom_site_label
 _atom_site_symmetry_multiplicity
 _atom_site_fract_x
 _atom_site_fract_y
 _atom_site_fract_z
 _atom_site_occupancy
  C  C0  1  0.33333300  0.66666700  0.03710800  1
  C  C1  1  0.33333300  0.66666700  0.53710800  1
  C  C2  1  0.66666700  0.33333300  0.46289200  1
  C  C3  1  0.66666700  0.33333300  0.96289200  1
  Ni  Ni4  1  0.45688500  0.56688100  0.67595100  1
  Ni  Ni5  1  0.81656500  0.56002200  0.33332500  1
  Ni  Ni6  1  0.89000400  0.43311900  0.82404900  1
  Ni  Ni7  1  0.18343500  0.43997800  0.66667500  1
  Ni  Ni8  1  0.43997800  0.25654300  0.33332500  1
  Ni  Ni9  1  0.25654300  0.81656500  0.66667500  1
  Ni  Ni10  1  0.74345700  0.18343500  0.33332500  1
  Ni  Ni11  1  0.56002200  0.81656500  0.16667500  1
  Ni  Ni12  1  0.45688500  0.89000400  0.17595100  1
  Ni  Ni13  1  0.54311500  0.10999600  0.82404900  1
  Ni  Ni14  1  0.25654300  0.43997800  0.16667500  1
  Ni  Ni15  1  0.56688100  0.45688500  0.82404900  1
  Ni  Ni16  1  0.43997800  0.18343500  0.83332500  1
  Ni  Ni17  1  0.43311900  0.54311500  0.17595100  1
  Ni  Ni18  1  0.18343500  0.74345700  0.16667500  1
  Ni  Ni19  1  0.56688100  0.10999600  0.32404900  1
  Ni  Ni20  1  0.56002200  0.74345700  0.66667500  1
  Ni  Ni21  1  0.43311900  0.89000400  0.67595100  1
  Ni  Ni22  1  0.10999600  0.54311500  0.67595100  1
  Ni  Ni23  1  0.54311500  0.43311900  0.32404900  1
  Ni  Ni24  1  0.89000400  0.45688500  0.32404900  1
  Ni  Ni25  1  0.81656500  0.25654300  0.83332500  1
  Ni  Ni26  1  0.10999600  0.56688100  0.17595100  1
  Ni  Ni27  1  0.74345700  0.56002200  0.83332500  1
  Cu  Cu28  1  0.68950800  0.68950800  0.25000000  1
  Cu  Cu29  1  0.00000000  0.31049200  0.25000000  1
  Cu  Cu30  1  0.22977600  0.40241700  0.45347200  1
  Cu  Cu31  1  0.77022400  0.17264200  0.04652800  1
  Cu  Cu32  1  0.17264200  0.40241700  0.95347200  1
  Cu  Cu33  1  0.40241700  0.17264200  0.54652800  1
  Cu  Cu34  1  0.31049200  0.00000000  0.25000000  1
  Cu  Cu35  1  0.17264200  0.77022400  0.45347200  1
  Cu  Cu36  1  0.59758300  0.77022400  0.95347200  1
  Cu  Cu37  1  0.77022400  0.59758300  0.54652800  1
  Cu  Cu38  1  0.00000000  0.00000000  0.75000000  1
  Cu  Cu39  1  0.40241700  0.22977600  0.04652800  1
  Cu  Cu40  1  0.22977600  0.82735800  0.95347200  1
  Cu  Cu41  1  0.00000000  0.68950800  0.75000000  1
  Cu  Cu42  1  0.31049200  0.31049200  0.75000000  1
  Cu  Cu43  1  0.82735800  0.22977600  0.54652800  1
  Cu  Cu44  1  0.59758300  0.82735800  0.45347200  1
  Cu  Cu45  1  0.68950800  0.00000000  0.75000000  1
  Cu  Cu46  1  0.00000000  0.00000000  0.25000000  1
  Cu  Cu47  1  0.82735800  0.59758300  0.04652800  1
  C  C48  1  0.10481300  0.80250100  0.71563900  1
  C  C49  1  0.80087400  0.49857800  0.57243600  1
  C  C50  1  0.87339100  0.55742000  0.97775100  1
  C  C51  1  0.71535100  0.81619200  0.91698800  1
  C  C52  1  0.80250100  0.69768800  0.28436100  1
  C  C53  1  0.65273900  0.16856900  0.36388600  1
  C  C54  1  0.10084100  0.81619200  0.41698800  1
  C  C55  1  0.48417000  0.65273900  0.63611400  1
  C  C56  1  0.43179200  0.00000000  0.25000000  1
  C  C57  1  0.55742000  0.68403000  0.02224900  1
  C  C58  1  0.30229600  0.80087400  0.42756400  1
  C  C59  1  0.83143100  0.34726100  0.86388600  1
  C  C60  1  0.43179200  0.43179200  0.75000000  1
  C  C61  1  0.51583000  0.16856900  0.86388600  1
  C  C62  1  0.89518700  0.69768800  0.78436100  1
  C  C63  1  0.89518700  0.19749900  0.28436100  1
  C  C64  1  0.30231200  0.10481300  0.28436100  1
  C  C65  1  0.83143100  0.48417000  0.36388600  1
  C  C66  1  0.19912600  0.69770400  0.92756400  1
  C  C67  1  0.80087400  0.30229600  0.07243600  1
  C  C68  1  0.80250100  0.10481300  0.78436100  1
  C  C69  1  0.12660900  0.44258000  0.02224900  1
  C  C70  1  0.89915900  0.18380800  0.58301200  1
  C  C71  1  0.51583000  0.34726100  0.36388600  1
  C  C72  1  0.00000000  0.00000000  0.17412800  1
  C  C73  1  0.69770400  0.19912600  0.57243600  1
  C  C74  1  0.55742000  0.87339100  0.52224900  1
  C  C75  1  0.69770400  0.49857800  0.07243600  1
  C  C76  1  0.89915900  0.71535100  0.08301200  1
  C  C77  1  0.10481300  0.30231200  0.21563900  1
  C  C78  1  0.12660900  0.68403000  0.52224900  1
  C  C79  1  0.34726100  0.51583000  0.13611400  1
  C  C80  1  0.69768800  0.89518700  0.71563900  1
  C  C81  1  0.18380800  0.89915900  0.91698800  1
  C  C82  1  0.50142200  0.19912600  0.07243600  1
  C  C83  1  0.30229600  0.50142200  0.92756400  1
  C  C84  1  0.16856900  0.65273900  0.13611400  1
  C  C85  1  0.31597000  0.44258000  0.52224900  1
  C  C86  1  0.68403000  0.55742000  0.47775100  1
  C  C87  1  0.34726100  0.83143100  0.63611400  1
  C  C88  1  0.81619200  0.10084100  0.08301200  1
  C  C89  1  0.50142200  0.30229600  0.57243600  1
  C  C90  1  0.28464900  0.10084100  0.58301200  1
  C  C91  1  0.44258000  0.12660900  0.47775100  1
  C  C92  1  0.48417000  0.83143100  0.13611400  1
  C  C93  1  0.00000000  0.00000000  0.67412800  1
  C  C94  1  0.49857800  0.69770400  0.42756400  1
  C  C95  1  0.16856900  0.51583000  0.63611400  1
  C  C96  1  0.49857800  0.80087400  0.92756400  1
  C  C97  1  0.00000000  0.56820800  0.75000000  1
  C  C98  1  0.44258000  0.31597000  0.97775100  1
  C  C99  1  0.69768800  0.80250100  0.21563900  1
  C  C100  1  0.87339100  0.31597000  0.47775100  1
  C  C101  1  0.56820800  0.00000000  0.75000000  1
  C  C102  1  0.81619200  0.71535100  0.58301200  1
  C  C103  1  0.10084100  0.28464900  0.91698800  1
  C  C104  1  0.00000000  0.00000000  0.82587200  1
  C  C105  1  0.65273900  0.48417000  0.86388600  1
  C  C106  1  0.19912600  0.50142200  0.42756400  1
  C  C107  1  0.00000000  0.43179200  0.25000000  1
  C  C108  1  0.56820800  0.56820800  0.25000000  1
  C  C109  1  0.18380800  0.28464900  0.41698800  1
  C  C110  1  0.00000000  0.00000000  0.32587200  1
  C  C111  1  0.71535100  0.89915900  0.41698800  1
  C  C112  1  0.19749900  0.89518700  0.21563900  1
  C  C113  1  0.28464900  0.18380800  0.08301200  1
  C  C114  1  0.30231200  0.19749900  0.78436100  1
  C  C115  1  0.19749900  0.30231200  0.71563900  1
  C  C116  1  0.31597000  0.87339100  0.02224900  1
  C  C117  1  0.68403000  0.12660900  0.97775100  1
