# generated using pymatgen
data_Cu7NiC4
_symmetry_space_group_name_H-M   'P 1'
_cell_length_a   5.89018000
_cell_length_b   7.83134500
_cell_length_c   9.05903040
_cell_angle_alpha   73.18988380
_cell_angle_beta   90.00000000
_cell_angle_gamma   90.00000000
_symmetry_Int_Tables_number   1
_chemical_formula_structural   Cu7NiC4
_chemical_formula_sum   'Cu14 Ni2 C8'
_cell_volume   400.01878510
_cell_formula_units_Z   2
loop_
 _symmetry_equiv_pos_site_id
 _symmetry_equiv_pos_as_xyz
  1  'x, y, z'
loop_
 _atom_site_type_symbol
 _atom_site_label
 _atom_site_symmetry_multiplicity
 _atom_site_fract_x
 _atom_site_fract_y
 _atom_site_fract_z
 _atom_site_occupancy
  C  C0  1  0.75000000  0.33247300  0.41262600  1
  C  C1  1  0.25000000  0.69620900  0.07438000  1
  C  C2  1  0.75000000  0.30379100  0.92562000  1
  C  C3  1  0.25000000  0.66752700  0.58737400  1
  C  C4  1  0.25000000  0.18235100  0.17458200  1
  C  C5  1  0.75000000  0.82728900  0.26609500  1
  C  C6  1  0.75000000  0.81764900  0.82541800  1
  C  C7  1  0.25000000  0.17271100  0.73390500  1
  Ni  Ni8  1  0.25000000  0.11791900  0.47027000  1
  Ni  Ni9  1  0.75000000  0.88208100  0.52973000  1
  Cu  Cu10  1  0.99862000  0.00506900  0.17169700  1
  Cu  Cu11  1  0.49792700  0.36158400  0.65450900  1
  Cu  Cu12  1  0.25000000  0.25394200  0.93374200  1
  Cu  Cu13  1  0.50138000  0.00506900  0.17169700  1
  Cu  Cu14  1  0.75000000  0.74605800  0.06625800  1
  Cu  Cu15  1  0.00138000  0.99493100  0.82830300  1
  Cu  Cu16  1  0.00207300  0.36158400  0.65450900  1
  Cu  Cu17  1  0.49322100  0.37050300  0.16074800  1
  Cu  Cu18  1  0.50207300  0.63841600  0.34549100  1
  Cu  Cu19  1  0.99792700  0.63841600  0.34549100  1
  Cu  Cu20  1  0.50677900  0.62949700  0.83925200  1
  Cu  Cu21  1  0.00677900  0.37050300  0.16074800  1
  Cu  Cu22  1  0.99322100  0.62949700  0.83925200  1
  Cu  Cu23  1  0.49862000  0.99493100  0.82830300  1
