# generated using pymatgen
data_Cu9(Ni2C)10
_symmetry_space_group_name_H-M   'P 1'
_cell_length_a   13.48987900
_cell_length_b   13.48987900
_cell_length_c   9.36372500
_cell_angle_alpha   90.00000000
_cell_angle_beta   90.00000000
_cell_angle_gamma   90.00000000
_symmetry_Int_Tables_number   1
_chemical_formula_structural   Cu9(Ni2C)10
_chemical_formula_sum   'Cu18 Ni40 C20'
_cell_volume   1703.98104338
_cell_formula_units_Z   2
loop_
 _symmetry_equiv_pos_site_id
 _symmetry_equiv_pos_as_xyz
  1  'x, y, z'
loop_
 _atom_site_type_symbol
 _atom_site_label
 _atom_site_symmetry_multiplicity
 _atom_site_fract_x
 _atom_site_fract_y
 _atom_site_fract_z
 _atom_site_occupancy
  C  C0  1  0.79644600  0.29644600  0.73016600  1
  C  C1  1  0.00000000  0.50000000  0.63542400  1
  C  C2  1  0.27498100  0.50000000  0.23171900  1
  C  C3  1  0.70355400  0.20355400  0.26983400  1
  C  C4  1  0.79644600  0.70355400  0.73016600  1
  C  C5  1  0.50000000  0.00000000  0.84348100  1
  C  C6  1  0.22501900  0.00000000  0.76828100  1
  C  C7  1  0.77498100  0.00000000  0.76828100  1
  C  C8  1  0.70355400  0.79644600  0.26983400  1
  C  C9  1  0.50000000  0.00000000  0.36457600  1
  C  C10  1  0.29644600  0.79644600  0.26983400  1
  C  C11  1  0.20355400  0.70355400  0.73016600  1
  C  C12  1  0.50000000  0.72501900  0.76828100  1
  C  C13  1  0.00000000  0.77498100  0.23171900  1
  C  C14  1  0.29644600  0.20355400  0.26983400  1
  C  C15  1  0.00000000  0.22501900  0.23171900  1
  C  C16  1  0.20355400  0.29644600  0.73016600  1
  C  C17  1  0.00000000  0.50000000  0.15651900  1
  C  C18  1  0.72501900  0.50000000  0.23171900  1
  C  C19  1  0.50000000  0.27498100  0.76828100  1
  Ni  Ni20  1  0.13146500  0.13146500  0.50000000  1
  Ni  Ni21  1  0.63146500  0.36853500  0.50000000  1
  Ni  Ni22  1  0.50000000  0.61278600  0.24086200  1
  Ni  Ni23  1  0.50000000  0.16759600  0.09994100  1
  Ni  Ni24  1  0.00000000  0.11278600  0.75913800  1
  Ni  Ni25  1  0.16759600  0.50000000  0.90005900  1
  Ni  Ni26  1  0.33240400  0.00000000  0.09994100  1
  Ni  Ni27  1  0.63146500  0.63146500  0.50000000  1
  Ni  Ni28  1  0.88721400  0.00000000  0.24086200  1
  Ni  Ni29  1  0.86961700  0.36961700  0.40675300  1
  Ni  Ni30  1  0.13146500  0.86853500  0.50000000  1
  Ni  Ni31  1  0.36961700  0.86961700  0.59324700  1
  Ni  Ni32  1  0.83240400  0.50000000  0.90005900  1
  Ni  Ni33  1  0.63038300  0.13038300  0.59324700  1
  Ni  Ni34  1  0.86853500  0.86853500  0.50000000  1
  Ni  Ni35  1  0.50000000  0.83240400  0.09994100  1
  Ni  Ni36  1  0.65019800  0.34980200  0.00000000  1
  Ni  Ni37  1  0.00000000  0.33240400  0.90005900  1
  Ni  Ni38  1  0.11278600  0.00000000  0.24086200  1
  Ni  Ni39  1  0.63038300  0.86961700  0.59324700  1
  Ni  Ni40  1  0.86853500  0.13146500  0.50000000  1
  Ni  Ni41  1  0.65019800  0.65019800  0.00000000  1
  Ni  Ni42  1  0.34980200  0.65019800  0.00000000  1
  Ni  Ni43  1  0.36853500  0.63146500  0.50000000  1
  Ni  Ni44  1  0.61278600  0.50000000  0.75913800  1
  Ni  Ni45  1  0.00000000  0.88721400  0.75913800  1
  Ni  Ni46  1  0.13038300  0.63038300  0.40675300  1
  Ni  Ni47  1  0.36853500  0.36853500  0.50000000  1
  Ni  Ni48  1  0.86961700  0.63038300  0.40675300  1
  Ni  Ni49  1  0.66759600  0.00000000  0.09994100  1
  Ni  Ni50  1  0.13038300  0.36961700  0.40675300  1
  Ni  Ni51  1  0.00000000  0.66759600  0.90005900  1
  Ni  Ni52  1  0.15019800  0.84980200  0.00000000  1
  Ni  Ni53  1  0.15019800  0.15019800  0.00000000  1
  Ni  Ni54  1  0.38721400  0.50000000  0.75913800  1
  Ni  Ni55  1  0.50000000  0.38721400  0.24086200  1
  Ni  Ni56  1  0.84980200  0.84980200  0.00000000  1
  Ni  Ni57  1  0.84980200  0.15019800  0.00000000  1
  Ni  Ni58  1  0.36961700  0.13038300  0.59324700  1
  Ni  Ni59  1  0.34980200  0.34980200  0.00000000  1
  Cu  Cu60  1  0.50000000  0.77892600  0.40289300  1
  Cu  Cu61  1  0.72107400  0.00000000  0.40289300  1
  Cu  Cu62  1  0.84295900  0.65704100  0.10386000  1
  Cu  Cu63  1  0.77892600  0.50000000  0.59710700  1
  Cu  Cu64  1  0.15704100  0.65704100  0.10386000  1
  Cu  Cu65  1  0.15704100  0.34295900  0.10386000  1
  Cu  Cu66  1  0.65704100  0.15704100  0.89614000  1
  Cu  Cu67  1  0.65704100  0.84295900  0.89614000  1
  Cu  Cu68  1  0.00000000  0.27892600  0.59710700  1
  Cu  Cu69  1  0.84295900  0.34295900  0.10386000  1
  Cu  Cu70  1  0.34295900  0.84295900  0.89614000  1
  Cu  Cu71  1  0.50000000  0.22107400  0.40289300  1
  Cu  Cu72  1  0.50000000  0.50000000  0.00000000  1
  Cu  Cu73  1  0.34295900  0.15704100  0.89614000  1
  Cu  Cu74  1  0.22107400  0.50000000  0.59710700  1
  Cu  Cu75  1  0.00000000  0.00000000  0.00000000  1
  Cu  Cu76  1  0.27892600  0.00000000  0.40289300  1
  Cu  Cu77  1  0.00000000  0.72107400  0.59710700  1
