# generated using pymatgen
data_Cu6NiC5
_symmetry_space_group_name_H-M   'P 1'
_cell_length_a   10.13538900
_cell_length_b   11.45765500
_cell_length_c   13.48230000
_cell_angle_alpha   90.00000000
_cell_angle_beta   90.00000000
_cell_angle_gamma   90.00000000
_symmetry_Int_Tables_number   1
_chemical_formula_structural   Cu6NiC5
_chemical_formula_sum   'Cu48 Ni8 C40'
_cell_volume   1565.66970922
_cell_formula_units_Z   8
loop_
 _symmetry_equiv_pos_site_id
 _symmetry_equiv_pos_as_xyz
  1  'x, y, z'
loop_
 _atom_site_type_symbol
 _atom_site_label
 _atom_site_symmetry_multiplicity
 _atom_site_fract_x
 _atom_site_fract_y
 _atom_site_fract_z
 _atom_site_occupancy
  C  C0  1  0.88281200  0.40627900  0.69097000  1
  C  C1  1  0.88281200  0.09372100  0.19097000  1
  C  C2  1  0.06431600  0.55601400  0.89066700  1
  C  C3  1  0.93568400  0.05601400  0.60933300  1
  C  C4  1  0.79359000  0.80962900  0.30986700  1
  C  C5  1  0.83512400  0.97777300  0.93813300  1
  C  C6  1  0.06431600  0.94398600  0.39066700  1
  C  C7  1  0.56431600  0.94398600  0.10933300  1
  C  C8  1  0.43568400  0.05601400  0.89066700  1
  C  C9  1  0.38281200  0.09372100  0.30903000  1
  C  C10  1  0.16487600  0.02222700  0.06186700  1
  C  C11  1  0.29359000  0.80962900  0.19013300  1
  C  C12  1  0.20641000  0.19037100  0.69013300  1
  C  C13  1  0.20641000  0.30962900  0.19013300  1
  C  C14  1  0.43568400  0.44398600  0.39066700  1
  C  C15  1  0.16487600  0.47777300  0.56186700  1
  C  C16  1  0.70641000  0.30962900  0.30986700  1
  C  C17  1  0.56431600  0.55601400  0.60933300  1
  C  C18  1  0.61718800  0.59372100  0.19097000  1
  C  C19  1  0.33512400  0.52222700  0.06186700  1
  C  C20  1  0.70641000  0.19037100  0.80986700  1
  C  C21  1  0.79359000  0.69037100  0.80986700  1
  C  C22  1  0.66487600  0.02222700  0.43813300  1
  C  C23  1  0.11718800  0.59372100  0.30903000  1
  C  C24  1  0.61718800  0.90627900  0.69097000  1
  C  C25  1  0.93568400  0.44398600  0.10933300  1
  C  C26  1  0.33512400  0.97777300  0.56186700  1
  C  C27  1  0.29359000  0.69037100  0.69013300  1
  C  C28  1  0.11718800  0.90627900  0.80903000  1
  C  C29  1  0.38281200  0.40627900  0.80903000  1
  C  C30  1  0.83512400  0.52222700  0.43813300  1
  C  C31  1  0.66487600  0.47777300  0.93813300  1
  C  C32  1  0.80106900  0.25209600  0.50956900  1
  C  C33  1  0.19893100  0.74790400  0.49043100  1
  C  C34  1  0.19893100  0.75209600  0.99043100  1
  C  C35  1  0.80106900  0.24790400  0.00956900  1
  C  C36  1  0.69893100  0.75209600  0.50956900  1
  C  C37  1  0.30106900  0.25209600  0.99043100  1
  C  C38  1  0.69893100  0.74790400  0.00956900  1
  C  C39  1  0.30106900  0.24790400  0.49043100  1
  Ni  Ni40  1  0.54555800  0.25438000  0.60149400  1
  Ni  Ni41  1  0.04555800  0.24562000  0.39850600  1
  Ni  Ni42  1  0.45444200  0.74562000  0.39850600  1
  Ni  Ni43  1  0.54555800  0.24562000  0.10149400  1
  Ni  Ni44  1  0.95444200  0.74562000  0.10149400  1
  Ni  Ni45  1  0.04555800  0.25438000  0.89850600  1
  Ni  Ni46  1  0.95444200  0.75438000  0.60149400  1
  Ni  Ni47  1  0.45444200  0.75438000  0.89850600  1
  Cu  Cu48  1  0.61338400  0.65141200  0.40542000  1
  Cu  Cu49  1  0.79787900  0.65844600  0.60464800  1
  Cu  Cu50  1  0.52912900  0.66673100  0.00821300  1
  Cu  Cu51  1  0.02912900  0.83326900  0.99178700  1
  Cu  Cu52  1  0.63933300  0.14883800  0.00616100  1
  Cu  Cu53  1  0.47087100  0.16673100  0.49178700  1
  Cu  Cu54  1  0.97087100  0.33326900  0.50821300  1
  Cu  Cu55  1  0.70212100  0.34155400  0.10464800  1
  Cu  Cu56  1  0.88661600  0.34858800  0.90542000  1
  Cu  Cu57  1  0.11338400  0.84858800  0.59458000  1
  Cu  Cu58  1  0.39028300  0.85371500  0.79492300  1
  Cu  Cu59  1  0.36066700  0.85116200  0.99383900  1
  Cu  Cu60  1  0.20212100  0.15844600  0.89535200  1
  Cu  Cu61  1  0.53286100  0.84982600  0.30449300  1
  Cu  Cu62  1  0.29787900  0.65844600  0.89535200  1
  Cu  Cu63  1  0.60971700  0.14628500  0.20507700  1
  Cu  Cu64  1  0.70212100  0.15844600  0.60464800  1
  Cu  Cu65  1  0.86066700  0.85116200  0.50616100  1
  Cu  Cu66  1  0.60971700  0.35371500  0.70507700  1
  Cu  Cu67  1  0.61338400  0.84858800  0.90542000  1
  Cu  Cu68  1  0.38661600  0.15141200  0.09458000  1
  Cu  Cu69  1  0.47087100  0.33326900  0.99178700  1
  Cu  Cu70  1  0.10971700  0.35371500  0.79492300  1
  Cu  Cu71  1  0.79787900  0.84155400  0.10464800  1
  Cu  Cu72  1  0.96713900  0.34982600  0.30449300  1
  Cu  Cu73  1  0.89028300  0.85371500  0.70507700  1
  Cu  Cu74  1  0.96713900  0.15017400  0.80449300  1
  Cu  Cu75  1  0.88661600  0.15141200  0.40542000  1
  Cu  Cu76  1  0.13933300  0.35116200  0.99383900  1
  Cu  Cu77  1  0.89028300  0.64628500  0.20507700  1
  Cu  Cu78  1  0.29787900  0.84155400  0.39535200  1
  Cu  Cu79  1  0.02912900  0.66673100  0.49178700  1
  Cu  Cu80  1  0.10971700  0.14628500  0.29492300  1
  Cu  Cu81  1  0.53286100  0.65017400  0.80449300  1
  Cu  Cu82  1  0.46713900  0.34982600  0.19550700  1
  Cu  Cu83  1  0.03286100  0.65017400  0.69550700  1
  Cu  Cu84  1  0.38661600  0.34858800  0.59458000  1
  Cu  Cu85  1  0.97087100  0.16673100  0.00821300  1
  Cu  Cu86  1  0.03286100  0.84982600  0.19550700  1
  Cu  Cu87  1  0.46713900  0.15017400  0.69550700  1
  Cu  Cu88  1  0.52912900  0.83326900  0.50821300  1
  Cu  Cu89  1  0.20212100  0.34155400  0.39535200  1
  Cu  Cu90  1  0.13933300  0.14883800  0.49383900  1
  Cu  Cu91  1  0.86066700  0.64883800  0.00616100  1
  Cu  Cu92  1  0.36066700  0.64883800  0.49383900  1
  Cu  Cu93  1  0.11338400  0.65141200  0.09458000  1
  Cu  Cu94  1  0.39028300  0.64628500  0.29492300  1
  Cu  Cu95  1  0.63933300  0.35116200  0.50616100  1
