# generated using pymatgen
data_CuNiC9
_symmetry_space_group_name_H-M   'P 1'
_cell_length_a   17.51324200
_cell_length_b   5.60352000
_cell_length_c   7.71056650
_cell_angle_alpha   80.44085595
_cell_angle_beta   90.00000000
_cell_angle_gamma   90.00000000
_symmetry_Int_Tables_number   1
_chemical_formula_structural   CuNiC9
_chemical_formula_sum   'Cu4 Ni4 C36'
_cell_volume   746.17586348
_cell_formula_units_Z   4
loop_
 _symmetry_equiv_pos_site_id
 _symmetry_equiv_pos_as_xyz
  1  'x, y, z'
loop_
 _atom_site_type_symbol
 _atom_site_label
 _atom_site_symmetry_multiplicity
 _atom_site_fract_x
 _atom_site_fract_y
 _atom_site_fract_z
 _atom_site_occupancy
  Ni  Ni0  1  0.12230600  0.03368900  0.73883200  1
  Ni  Ni1  1  0.87769400  0.96631100  0.26116800  1
  Ni  Ni2  1  0.37769400  0.03368900  0.23883200  1
  Ni  Ni3  1  0.62230600  0.96631100  0.76116800  1
  Cu  Cu4  1  0.13071000  0.62534600  0.14442900  1
  Cu  Cu5  1  0.36929000  0.62534600  0.64442900  1
  Cu  Cu6  1  0.63071000  0.37465400  0.35557100  1
  Cu  Cu7  1  0.86929000  0.37465400  0.85557100  1
  C  C8  1  0.87293400  0.17339200  0.00431000  1
  C  C9  1  0.37293400  0.82660800  0.49569000  1
  C  C10  1  0.62706600  0.17339200  0.50431000  1
  C  C11  1  0.12706600  0.82660800  0.99569000  1
  C  C12  1  0.42016800  0.75366700  0.16834000  1
  C  C13  1  0.16368100  0.28484200  0.84871500  1
  C  C14  1  0.62087800  0.78018800  0.99043200  1
  C  C15  1  0.52282300  0.87173400  0.69909100  1
  C  C16  1  0.77697900  0.08355500  0.28922600  1
  C  C17  1  0.12087800  0.21981200  0.50956800  1
  C  C18  1  0.70346900  0.52541100  0.34719500  1
  C  C19  1  0.27697900  0.91644500  0.21077400  1
  C  C20  1  0.92016800  0.24633300  0.33166000  1
  C  C21  1  0.20346900  0.47458900  0.15280500  1
  C  C22  1  0.93356000  0.55946200  0.85178100  1
  C  C23  1  0.06644000  0.44053800  0.14821900  1
  C  C24  1  0.72302100  0.08355500  0.78922600  1
  C  C25  1  0.22302100  0.91644500  0.71077400  1
  C  C26  1  0.47717700  0.12826600  0.30090900  1
  C  C27  1  0.43356000  0.44053800  0.64821900  1
  C  C28  1  0.29653100  0.47458900  0.65280500  1
  C  C29  1  0.37912200  0.21981200  0.00956800  1
  C  C30  1  0.56644000  0.55946200  0.35178100  1
  C  C31  1  0.07983200  0.75366700  0.66834000  1
  C  C32  1  0.87308700  0.28924100  0.67848500  1
  C  C33  1  0.66368100  0.71515800  0.65128500  1
  C  C34  1  0.87912200  0.78018800  0.49043200  1
  C  C35  1  0.79653100  0.52541100  0.84719500  1
  C  C36  1  0.12691300  0.71075900  0.32151500  1
  C  C37  1  0.57983200  0.24633300  0.83166000  1
  C  C38  1  0.02282300  0.12826600  0.80090900  1
  C  C39  1  0.37308700  0.71075900  0.82151500  1
  C  C40  1  0.33631900  0.28484200  0.34871500  1
  C  C41  1  0.83631900  0.71515800  0.15128500  1
  C  C42  1  0.62691300  0.28924100  0.17848500  1
  C  C43  1  0.97717700  0.87173400  0.19909100  1
