# generated using pymatgen
data_Cu2Ni2C9
_symmetry_space_group_name_H-M   'P 1'
_cell_length_a   8.26705000
_cell_length_b   8.31279300
_cell_length_c   9.15951300
_cell_angle_alpha   90.00000000
_cell_angle_beta   90.00000000
_cell_angle_gamma   90.00000000
_symmetry_Int_Tables_number   1
_chemical_formula_structural   Cu2Ni2C9
_chemical_formula_sum   'Cu8 Ni8 C36'
_cell_volume   629.46257465
_cell_formula_units_Z   4
loop_
 _symmetry_equiv_pos_site_id
 _symmetry_equiv_pos_as_xyz
  1  'x, y, z'
loop_
 _atom_site_type_symbol
 _atom_site_label
 _atom_site_symmetry_multiplicity
 _atom_site_fract_x
 _atom_site_fract_y
 _atom_site_fract_z
 _atom_site_occupancy
  C  C0  1  0.75000000  0.60843500  0.91865000  1
  C  C1  1  0.25000000  0.39156500  0.08135000  1
  C  C2  1  0.75000000  0.10843500  0.58135000  1
  C  C3  1  0.25000000  0.89156500  0.41865000  1
  Ni  Ni4  1  0.43457700  0.92568800  0.81091200  1
  Ni  Ni5  1  0.06542300  0.92568800  0.81091200  1
  Ni  Ni6  1  0.93457700  0.07431200  0.18908800  1
  Ni  Ni7  1  0.56542300  0.07431200  0.18908800  1
  Ni  Ni8  1  0.56542300  0.57431200  0.31091200  1
  Ni  Ni9  1  0.93457700  0.57431200  0.31091200  1
  Ni  Ni10  1  0.43457700  0.42568800  0.68908800  1
  Ni  Ni11  1  0.06542300  0.42568800  0.68908800  1
  Cu  Cu12  1  0.91401500  0.22573600  0.90969200  1
  Cu  Cu13  1  0.08598500  0.27426400  0.40969200  1
  Cu  Cu14  1  0.41401500  0.77426400  0.09030800  1
  Cu  Cu15  1  0.91401500  0.72573600  0.59030800  1
  Cu  Cu16  1  0.41401500  0.27426400  0.40969200  1
  Cu  Cu17  1  0.58598500  0.72573600  0.59030800  1
  Cu  Cu18  1  0.08598500  0.77426400  0.09030800  1
  Cu  Cu19  1  0.58598500  0.22573600  0.90969200  1
  C  C20  1  0.75000000  0.78572100  0.61863600  1
  C  C21  1  0.25000000  0.71427900  0.11863600  1
  C  C22  1  0.97122700  0.64825600  0.14815900  1
  C  C23  1  0.95642800  0.21573200  0.06700100  1
  C  C24  1  0.06374200  0.92910600  0.16509500  1
  C  C25  1  0.97122700  0.14825600  0.35184100  1
  C  C26  1  0.75000000  0.50153800  0.31010100  1
  C  C27  1  0.02877300  0.35174400  0.85184100  1
  C  C28  1  0.47122700  0.35174400  0.85184100  1
  C  C29  1  0.93625800  0.07089400  0.83490500  1
  C  C30  1  0.02877300  0.85174400  0.64815900  1
  C  C31  1  0.54357200  0.21573200  0.06700100  1
  C  C32  1  0.25000000  0.21427900  0.38136400  1
  C  C33  1  0.45642800  0.28426800  0.56700100  1
  C  C34  1  0.06374200  0.42910600  0.33490500  1
  C  C35  1  0.43625800  0.92910600  0.16509500  1
  C  C36  1  0.52877300  0.14825600  0.35184100  1
  C  C37  1  0.56374200  0.57089400  0.66509500  1
  C  C38  1  0.75000000  0.28572100  0.88136400  1
  C  C39  1  0.04357200  0.28426800  0.56700100  1
  C  C40  1  0.56374200  0.07089400  0.83490500  1
  C  C41  1  0.75000000  0.00153800  0.18989900  1
  C  C42  1  0.93625800  0.57089400  0.66509500  1
  C  C43  1  0.45642800  0.78426800  0.93299900  1
  C  C44  1  0.25000000  0.99846200  0.81010100  1
  C  C45  1  0.04357200  0.78426800  0.93299900  1
  C  C46  1  0.43625800  0.42910600  0.33490500  1
  C  C47  1  0.95642800  0.71573200  0.43299900  1
  C  C48  1  0.47122700  0.85174400  0.64815900  1
  C  C49  1  0.52877300  0.64825600  0.14815900  1
  C  C50  1  0.25000000  0.49846200  0.68989900  1
  C  C51  1  0.54357200  0.71573200  0.43299900  1
