# generated using pymatgen
data_Cu18NiC8
_symmetry_space_group_name_H-M   'P 1'
_cell_length_a   11.46720625
_cell_length_b   11.46720625
_cell_length_c   7.81435000
_cell_angle_alpha   90.00000000
_cell_angle_beta   90.00000000
_cell_angle_gamma   120.00000147
_symmetry_Int_Tables_number   1
_chemical_formula_structural   Cu18NiC8
_chemical_formula_sum   'Cu36 Ni2 C16'
_cell_volume   889.89492979
_cell_formula_units_Z   2
loop_
 _symmetry_equiv_pos_site_id
 _symmetry_equiv_pos_as_xyz
  1  'x, y, z'
loop_
 _atom_site_type_symbol
 _atom_site_label
 _atom_site_symmetry_multiplicity
 _atom_site_fract_x
 _atom_site_fract_y
 _atom_site_fract_z
 _atom_site_occupancy
  C  C0  1  0.27926900  0.27926900  0.25213700  1
  C  C1  1  0.00000000  0.72073100  0.25213700  1
  C  C2  1  0.66666700  0.33333300  0.50327100  1
  C  C3  1  0.72073100  0.00000000  0.25213700  1
  C  C4  1  0.00000000  0.27926900  0.75213700  1
  C  C5  1  0.33333300  0.66666700  0.50327100  1
  C  C6  1  0.66666700  0.33333300  0.00327100  1
  C  C7  1  0.27926900  0.00000000  0.75213700  1
  C  C8  1  0.33333300  0.66666700  0.00327100  1
  C  C9  1  0.72073100  0.72073100  0.75213700  1
  C  C10  1  0.39562800  0.39562800  0.80235500  1
  C  C11  1  0.00000000  0.39562800  0.30235500  1
  C  C12  1  0.39562800  0.00000000  0.30235500  1
  C  C13  1  0.60437200  0.00000000  0.80235500  1
  C  C14  1  0.00000000  0.60437200  0.80235500  1
  C  C15  1  0.60437200  0.60437200  0.30235500  1
  Ni  Ni16  1  0.00000000  0.00000000  0.43876900  1
  Ni  Ni17  1  0.00000000  0.00000000  0.93876900  1
  Cu  Cu18  1  0.69509100  0.00000000  0.62006400  1
  Cu  Cu19  1  0.44960300  0.87238400  0.26103700  1
  Cu  Cu20  1  0.87097600  0.26807200  0.44426200  1
  Cu  Cu21  1  0.39709600  0.26807200  0.94426200  1
  Cu  Cu22  1  0.88949400  0.88949400  0.43674200  1
  Cu  Cu23  1  0.42278100  0.55039700  0.26103700  1
  Cu  Cu24  1  0.00000000  0.88949400  0.93674200  1
  Cu  Cu25  1  0.00000000  0.11050600  0.43674200  1
  Cu  Cu26  1  0.57721900  0.12761600  0.26103700  1
  Cu  Cu27  1  0.73192800  0.12902400  0.94426200  1
  Cu  Cu28  1  0.87238400  0.42278100  0.76103700  1
  Cu  Cu29  1  0.44960300  0.57721900  0.76103700  1
  Cu  Cu30  1  0.69509100  0.69509100  0.12006400  1
  Cu  Cu31  1  0.12761600  0.57721900  0.26103700  1
  Cu  Cu32  1  0.00000000  0.69509100  0.62006400  1
  Cu  Cu33  1  0.12902400  0.73192800  0.94426200  1
  Cu  Cu34  1  0.88949400  0.00000000  0.93674200  1
  Cu  Cu35  1  0.87238400  0.44960300  0.26103700  1
  Cu  Cu36  1  0.12761600  0.55039700  0.76103700  1
  Cu  Cu37  1  0.26807200  0.39709600  0.94426200  1
  Cu  Cu38  1  0.26807200  0.87097600  0.44426200  1
  Cu  Cu39  1  0.12902400  0.39709600  0.44426200  1
  Cu  Cu40  1  0.30490900  0.00000000  0.12006400  1
  Cu  Cu41  1  0.39709600  0.12902400  0.44426200  1
  Cu  Cu42  1  0.60290400  0.73192800  0.44426200  1
  Cu  Cu43  1  0.42278100  0.87238400  0.76103700  1
  Cu  Cu44  1  0.11050600  0.00000000  0.43674200  1
  Cu  Cu45  1  0.57721900  0.44960300  0.76103700  1
  Cu  Cu46  1  0.60290400  0.87097600  0.94426200  1
  Cu  Cu47  1  0.55039700  0.42278100  0.26103700  1
  Cu  Cu48  1  0.11050600  0.11050600  0.93674200  1
  Cu  Cu49  1  0.00000000  0.30490900  0.12006400  1
  Cu  Cu50  1  0.55039700  0.12761600  0.76103700  1
  Cu  Cu51  1  0.73192800  0.60290400  0.44426200  1
  Cu  Cu52  1  0.87097600  0.60290400  0.94426200  1
  Cu  Cu53  1  0.30490900  0.30490900  0.62006400  1
