# generated using pymatgen
data_CuNiC2
_symmetry_space_group_name_H-M   'P 1'
_cell_length_a   4.15243100
_cell_length_b   9.25405500
_cell_length_c   13.02525213
_cell_angle_alpha   70.92902025
_cell_angle_beta   90.00000000
_cell_angle_gamma   90.00000000
_symmetry_Int_Tables_number   1
_chemical_formula_structural   CuNiC2
_chemical_formula_sum   'Cu4 Ni4 C8'
_cell_volume   473.04785552
_cell_formula_units_Z   4
loop_
 _symmetry_equiv_pos_site_id
 _symmetry_equiv_pos_as_xyz
  1  'x, y, z'
loop_
 _atom_site_type_symbol
 _atom_site_label
 _atom_site_symmetry_multiplicity
 _atom_site_fract_x
 _atom_site_fract_y
 _atom_site_fract_z
 _atom_site_occupancy
  Ni  Ni0  1  0.75000000  0.31614100  0.13817500  1
  Ni  Ni1  1  0.25000000  0.68385900  0.86182500  1
  Ni  Ni2  1  0.75000000  0.94291700  0.35918600  1
  Ni  Ni3  1  0.25000000  0.05708300  0.64081400  1
  Cu  Cu4  1  0.75000000  0.81625400  0.10801900  1
  Cu  Cu5  1  0.25000000  0.18374600  0.89198100  1
  Cu  Cu6  1  0.75000000  0.41930300  0.39162600  1
  Cu  Cu7  1  0.25000000  0.58069700  0.60837400  1
  C  C8  1  0.75000000  0.94037500  0.89566500  1
  C  C9  1  0.25000000  0.05962500  0.10433500  1
  C  C10  1  0.75000000  0.34804300  0.60374600  1
  C  C11  1  0.25000000  0.65195700  0.39625400  1
  C  C12  1  0.75000000  0.38999000  0.88253200  1
  C  C13  1  0.25000000  0.61001000  0.11746800  1
  C  C14  1  0.75000000  0.78942200  0.60774600  1
  C  C15  1  0.25000000  0.21057800  0.39225400  1
