# generated using pymatgen
data_Cu8Ni3C25
_symmetry_space_group_name_H-M   'P 1'
_cell_length_a   3.99378400
_cell_length_b   24.09775500
_cell_length_c   22.13812900
_cell_angle_alpha   90.00000000
_cell_angle_beta   90.00000000
_cell_angle_gamma   90.00000000
_symmetry_Int_Tables_number   1
_chemical_formula_structural   Cu8Ni3C25
_chemical_formula_sum   'Cu32 Ni12 C100'
_cell_volume   2130.60072844
_cell_formula_units_Z   4
loop_
 _symmetry_equiv_pos_site_id
 _symmetry_equiv_pos_as_xyz
  1  'x, y, z'
loop_
 _atom_site_type_symbol
 _atom_site_label
 _atom_site_symmetry_multiplicity
 _atom_site_fract_x
 _atom_site_fract_y
 _atom_site_fract_z
 _atom_site_occupancy
  Ni  Ni0  1  0.50000000  0.00000000  0.00000000  1
  Ni  Ni1  1  0.50000000  0.00000000  0.50000000  1
  Ni  Ni2  1  0.50000000  0.50000000  0.00000000  1
  Ni  Ni3  1  0.50000000  0.50000000  0.50000000  1
  Ni  Ni4  1  0.97037800  0.02004000  0.09596700  1
  Ni  Ni5  1  0.02962200  0.97996000  0.59596700  1
  Ni  Ni6  1  0.97037800  0.47996000  0.90403300  1
  Ni  Ni7  1  0.02962200  0.52004000  0.40403300  1
  Ni  Ni8  1  0.02962200  0.97996000  0.90403300  1
  Ni  Ni9  1  0.97037800  0.02004000  0.40403300  1
  Ni  Ni10  1  0.02962200  0.52004000  0.09596700  1
  Ni  Ni11  1  0.97037800  0.47996000  0.59596700  1
  Cu  Cu12  1  0.93396800  0.82489900  0.25000000  1
  Cu  Cu13  1  0.06603200  0.17510100  0.75000000  1
  Cu  Cu14  1  0.93396800  0.67510100  0.75000000  1
  Cu  Cu15  1  0.06603200  0.32489900  0.25000000  1
  Cu  Cu16  1  0.08652500  0.96044300  0.25000000  1
  Cu  Cu17  1  0.91347500  0.03955700  0.75000000  1
  Cu  Cu18  1  0.08652500  0.53955700  0.75000000  1
  Cu  Cu19  1  0.91347500  0.46044300  0.25000000  1
  Cu  Cu20  1  0.06989600  0.87065400  0.10520500  1
  Cu  Cu21  1  0.93010400  0.12934600  0.60520500  1
  Cu  Cu22  1  0.06989600  0.62934600  0.89479500  1
  Cu  Cu23  1  0.93010400  0.37065400  0.39479500  1
  Cu  Cu24  1  0.93010400  0.12934600  0.89479500  1
  Cu  Cu25  1  0.06989600  0.87065400  0.39479500  1
  Cu  Cu26  1  0.93010400  0.37065400  0.10520500  1
  Cu  Cu27  1  0.06989600  0.62934600  0.60520500  1
  Cu  Cu28  1  0.07457700  0.71446900  0.16136500  1
  Cu  Cu29  1  0.92542300  0.28553100  0.66136500  1
  Cu  Cu30  1  0.07457700  0.78553100  0.83863500  1
  Cu  Cu31  1  0.92542300  0.21446900  0.33863500  1
  Cu  Cu32  1  0.92542300  0.28553100  0.83863500  1
  Cu  Cu33  1  0.07457700  0.71446900  0.33863500  1
  Cu  Cu34  1  0.92542300  0.21446900  0.16136500  1
  Cu  Cu35  1  0.07457700  0.78553100  0.66136500  1
  Cu  Cu36  1  0.08102400  0.08489900  0.25000000  1
  Cu  Cu37  1  0.91897600  0.91510100  0.75000000  1
  Cu  Cu38  1  0.08102400  0.41510100  0.75000000  1
  Cu  Cu39  1  0.91897600  0.58489900  0.25000000  1
  Cu  Cu40  1  0.93322900  0.75000000  0.00000000  1
  Cu  Cu41  1  0.06677100  0.25000000  0.50000000  1
  Cu  Cu42  1  0.06677100  0.25000000  0.00000000  1
  Cu  Cu43  1  0.93322900  0.75000000  0.50000000  1
  C  C44  1  0.48132000  0.07458200  0.06346500  1
  C  C45  1  0.51868000  0.92541800  0.56346500  1
  C  C46  1  0.48132000  0.42541800  0.93653500  1
  C  C47  1  0.51868000  0.57458200  0.43653500  1
  C  C48  1  0.51868000  0.92541800  0.93653500  1
  C  C49  1  0.48132000  0.07458200  0.43653500  1
  C  C50  1  0.51868000  0.57458200  0.06346500  1
  C  C51  1  0.48132000  0.42541800  0.56346500  1
  C  C52  1  0.49603500  0.82532100  0.25000000  1
  C  C53  1  0.50396500  0.17467900  0.75000000  1
  C  C54  1  0.49603500  0.67467900  0.75000000  1
  C  C55  1  0.50396500  0.32532100  0.25000000  1
  C  C56  1  0.00208000  0.79913700  0.16426500  1
  C  C57  1  0.99792000  0.20086300  0.66426500  1
  C  C58  1  0.00208000  0.70086300  0.83573500  1
  C  C59  1  0.99792000  0.29913700  0.33573500  1
  C  C60  1  0.99792000  0.20086300  0.83573500  1
  C  C61  1  0.00208000  0.79913700  0.33573500  1
  C  C62  1  0.99792000  0.29913700  0.16426500  1
  C  C63  1  0.00208000  0.70086300  0.66426500  1
  C  C64  1  0.00185400  0.74117900  0.25000000  1
  C  C65  1  0.99814600  0.25882100  0.75000000  1
  C  C66  1  0.00185400  0.75882100  0.75000000  1
  C  C67  1  0.99814600  0.24117900  0.25000000  1
  C  C68  1  0.00176800  0.89276500  0.19526800  1
  C  C69  1  0.99823200  0.10723500  0.69526800  1
  C  C70  1  0.00176800  0.60723500  0.80473200  1
  C  C71  1  0.99823200  0.39276500  0.30473200  1
  C  C72  1  0.99823200  0.10723500  0.80473200  1
  C  C73  1  0.00176800  0.89276500  0.30473200  1
  C  C74  1  0.99823200  0.39276500  0.19526800  1
  C  C75  1  0.00176800  0.60723500  0.69526800  1
  C  C76  1  0.52728000  0.95786800  0.25000000  1
  C  C77  1  0.47272000  0.04213200  0.75000000  1
  C  C78  1  0.52728000  0.54213200  0.75000000  1
  C  C79  1  0.47272000  0.45786800  0.25000000  1
  C  C80  1  0.01526600  0.02251400  0.19121400  1
  C  C81  1  0.98473400  0.97748600  0.69121400  1
  C  C82  1  0.01526600  0.47748600  0.80878600  1
  C  C83  1  0.98473400  0.52251400  0.30878600  1
  C  C84  1  0.98473400  0.97748600  0.80878600  1
  C  C85  1  0.01526600  0.02251400  0.30878600  1
  C  C86  1  0.98473400  0.52251400  0.19121400  1
  C  C87  1  0.01526600  0.47748600  0.69121400  1
  C  C88  1  0.51267500  0.86743000  0.11074800  1
  C  C89  1  0.48732500  0.13257000  0.61074800  1
  C  C90  1  0.51267500  0.63257000  0.88925200  1
  C  C91  1  0.48732500  0.36743000  0.38925200  1
  C  C92  1  0.48732500  0.13257000  0.88925200  1
  C  C93  1  0.51267500  0.86743000  0.38925200  1
  C  C94  1  0.48732500  0.36743000  0.11074800  1
  C  C95  1  0.51267500  0.63257000  0.61074800  1
  C  C96  1  0.01516300  0.94055300  0.08040600  1
  C  C97  1  0.98483700  0.05944700  0.58040600  1
  C  C98  1  0.01516300  0.55944700  0.91959400  1
  C  C99  1  0.98483700  0.44055300  0.41959400  1
  C  C100  1  0.98483700  0.05944700  0.91959400  1
  C  C101  1  0.01516300  0.94055300  0.41959400  1
  C  C102  1  0.98483700  0.44055300  0.08040600  1
  C  C103  1  0.01516300  0.55944700  0.58040600  1
  C  C104  1  0.00263500  0.82466300  0.03925900  1
  C  C105  1  0.99736500  0.17533700  0.53925900  1
  C  C106  1  0.00263500  0.67533700  0.96074100  1
  C  C107  1  0.99736500  0.32466300  0.46074100  1
  C  C108  1  0.99736500  0.17533700  0.96074100  1
  C  C109  1  0.00263500  0.82466300  0.46074100  1
  C  C110  1  0.99736500  0.32466300  0.03925900  1
  C  C111  1  0.00263500  0.67533700  0.53925900  1
  C  C112  1  0.51440200  0.71777700  0.16393300  1
  C  C113  1  0.48559800  0.28222300  0.66393300  1
  C  C114  1  0.51440200  0.78222300  0.83606700  1
  C  C115  1  0.48559800  0.21777700  0.33606700  1
  C  C116  1  0.48559800  0.28222300  0.83606700  1
  C  C117  1  0.51440200  0.71777700  0.33606700  1
  C  C118  1  0.48559800  0.21777700  0.16393300  1
  C  C119  1  0.51440200  0.78222300  0.66393300  1
  C  C120  1  0.00522200  0.64279000  0.18483500  1
  C  C121  1  0.99477800  0.35721000  0.68483500  1
  C  C122  1  0.00522200  0.85721000  0.81516500  1
  C  C123  1  0.99477800  0.14279000  0.31516500  1
  C  C124  1  0.99477800  0.35721000  0.81516500  1
  C  C125  1  0.00522200  0.64279000  0.31516500  1
  C  C126  1  0.99477800  0.14279000  0.18483500  1
  C  C127  1  0.00522200  0.85721000  0.68483500  1
  C  C128  1  0.00487200  0.71252700  0.07997800  1
  C  C129  1  0.99512800  0.28747300  0.57997800  1
  C  C130  1  0.00487200  0.78747300  0.92002200  1
  C  C131  1  0.99512800  0.21252700  0.42002200  1
  C  C132  1  0.99512800  0.28747300  0.92002200  1
  C  C133  1  0.00487200  0.71252700  0.42002200  1
  C  C134  1  0.99512800  0.21252700  0.07997800  1
  C  C135  1  0.00487200  0.78747300  0.57997800  1
  C  C136  1  0.52094900  0.08922900  0.25000000  1
  C  C137  1  0.47905100  0.91077100  0.75000000  1
  C  C138  1  0.52094900  0.41077100  0.75000000  1
  C  C139  1  0.47905100  0.58922900  0.25000000  1
  C  C140  1  0.49070100  0.75000000  0.00000000  1
  C  C141  1  0.50929900  0.25000000  0.50000000  1
  C  C142  1  0.50929900  0.25000000  0.00000000  1
  C  C143  1  0.49070100  0.75000000  0.50000000  1
