# generated using pymatgen
data_CuNiC9
_symmetry_space_group_name_H-M   'P 1'
_cell_length_a   5.36282700
_cell_length_b   8.75664200
_cell_length_c   12.82194000
_cell_angle_alpha   90.00000000
_cell_angle_beta   90.00000000
_cell_angle_gamma   90.00000000
_symmetry_Int_Tables_number   1
_chemical_formula_structural   CuNiC9
_chemical_formula_sum   'Cu4 Ni4 C36'
_cell_volume   602.12286889
_cell_formula_units_Z   4
loop_
 _symmetry_equiv_pos_site_id
 _symmetry_equiv_pos_as_xyz
  1  'x, y, z'
loop_
 _atom_site_type_symbol
 _atom_site_label
 _atom_site_symmetry_multiplicity
 _atom_site_fract_x
 _atom_site_fract_y
 _atom_site_fract_z
 _atom_site_occupancy
  Ni  Ni0  1  0.75000000  0.87889200  0.92087500  1
  Ni  Ni1  1  0.25000000  0.62110800  0.42087500  1
  Ni  Ni2  1  0.25000000  0.12110800  0.07912500  1
  Ni  Ni3  1  0.75000000  0.37889200  0.57912500  1
  Cu  Cu4  1  0.75000000  0.31695800  0.26414700  1
  Cu  Cu5  1  0.75000000  0.81695800  0.23585300  1
  Cu  Cu6  1  0.25000000  0.68304200  0.73585300  1
  Cu  Cu7  1  0.25000000  0.18304200  0.76414700  1
  C  C8  1  0.75000000  0.98330800  0.68108700  1
  C  C9  1  0.25000000  0.01669200  0.31891300  1
  C  C10  1  0.75000000  0.23371700  0.96683900  1
  C  C11  1  0.25000000  0.26628300  0.46683900  1
  C  C12  1  0.75000000  0.48330800  0.81891300  1
  C  C13  1  0.25000000  0.76628300  0.03316100  1
  C  C14  1  0.75000000  0.73371700  0.53316100  1
  C  C15  1  0.25000000  0.51669200  0.18108700  1
  C  C16  1  0.25000000  0.34373900  0.17504600  1
  C  C17  1  0.25000000  0.76752700  0.91460300  1
  C  C18  1  0.75000000  0.65626100  0.82495400  1
  C  C19  1  0.50841000  0.42783900  0.76548900  1
  C  C20  1  0.49159000  0.57216100  0.23451100  1
  C  C21  1  0.49159000  0.07216100  0.26548900  1
  C  C22  1  0.01427100  0.33957300  0.42101400  1
  C  C23  1  0.99159000  0.42783900  0.76548900  1
  C  C24  1  0.99159000  0.92783900  0.73451100  1
  C  C25  1  0.50841000  0.92783900  0.73451100  1
  C  C26  1  0.75000000  0.15626100  0.67504600  1
  C  C27  1  0.48572900  0.83957300  0.07898600  1
  C  C28  1  0.48572900  0.33957300  0.42101400  1
  C  C29  1  0.75000000  0.41469100  0.93611000  1
  C  C30  1  0.98572900  0.16042700  0.92101400  1
  C  C31  1  0.25000000  0.08530900  0.43611000  1
  C  C32  1  0.51427100  0.66042700  0.57898600  1
  C  C33  1  0.75000000  0.91469100  0.56389000  1
  C  C34  1  0.00841000  0.57216100  0.23451100  1
  C  C35  1  0.98572900  0.66042700  0.57898600  1
  C  C36  1  0.75000000  0.23247300  0.08539700  1
  C  C37  1  0.01427100  0.83957300  0.07898600  1
  C  C38  1  0.25000000  0.58530900  0.06389000  1
  C  C39  1  0.25000000  0.26752700  0.58539700  1
  C  C40  1  0.25000000  0.84373900  0.32495400  1
  C  C41  1  0.00841000  0.07216100  0.26548900  1
  C  C42  1  0.75000000  0.73247300  0.41460300  1
  C  C43  1  0.51427100  0.16042700  0.92101400  1
