# generated using pymatgen
data_Cu10NiC4
_symmetry_space_group_name_H-M   'P 1'
_cell_length_a   15.58417700
_cell_length_b   8.20323300
_cell_length_c   11.17474953
_cell_angle_alpha   49.75150234
_cell_angle_beta   90.00000000
_cell_angle_gamma   90.00000000
_symmetry_Int_Tables_number   1
_chemical_formula_structural   Cu10NiC4
_chemical_formula_sum   'Cu40 Ni4 C16'
_cell_volume   1090.36824501
_cell_formula_units_Z   4
loop_
 _symmetry_equiv_pos_site_id
 _symmetry_equiv_pos_as_xyz
  1  'x, y, z'
loop_
 _atom_site_type_symbol
 _atom_site_label
 _atom_site_symmetry_multiplicity
 _atom_site_fract_x
 _atom_site_fract_y
 _atom_site_fract_z
 _atom_site_occupancy
  C  C0  1  0.31626500  0.78500000  0.96775700  1
  C  C1  1  0.95701200  0.46502500  0.82898600  1
  C  C2  1  0.54298800  0.46502500  0.32898600  1
  C  C3  1  0.45701200  0.53497500  0.67101400  1
  C  C4  1  0.04298800  0.53497500  0.17101400  1
  C  C5  1  0.81626500  0.21500000  0.53224300  1
  C  C6  1  0.68373500  0.21500000  0.03224300  1
  C  C7  1  0.18373500  0.78500000  0.46775700  1
  C  C8  1  0.92822300  0.93162900  0.30730200  1
  C  C9  1  0.75713700  0.66968400  0.04767400  1
  C  C10  1  0.07177700  0.06837100  0.69269800  1
  C  C11  1  0.25713700  0.33031600  0.45232600  1
  C  C12  1  0.24286300  0.33031600  0.95232600  1
  C  C13  1  0.57177700  0.93162900  0.80730200  1
  C  C14  1  0.74286300  0.66968400  0.54767400  1
  C  C15  1  0.42822300  0.06837100  0.19269800  1
  Ni  Ni16  1  0.65725100  0.70583500  0.92638800  1
  Ni  Ni17  1  0.34274900  0.29416500  0.07361200  1
  Ni  Ni18  1  0.84274900  0.70583500  0.42638800  1
  Ni  Ni19  1  0.15725100  0.29416500  0.57361200  1
  Cu  Cu20  1  0.37007400  0.93133800  0.39018800  1
  Cu  Cu21  1  0.68561000  0.52456800  0.48597400  1
  Cu  Cu22  1  0.51492500  0.84711200  0.31391000  1
  Cu  Cu23  1  0.79039000  0.39773600  0.72748600  1
  Cu  Cu24  1  0.31439000  0.47543200  0.51402600  1
  Cu  Cu25  1  0.12992600  0.93133800  0.89018800  1
  Cu  Cu26  1  0.49636000  0.18921200  0.00643900  1
  Cu  Cu27  1  0.99636000  0.81078800  0.49356100  1
  Cu  Cu28  1  0.30840300  0.06271700  0.62223000  1
  Cu  Cu29  1  0.00519000  0.23988700  0.72031800  1
  Cu  Cu30  1  0.37309900  0.87690700  0.17268400  1
  Cu  Cu31  1  0.50364000  0.81078800  0.99356100  1
  Cu  Cu32  1  0.19159700  0.06271700  0.12223000  1
  Cu  Cu33  1  0.62690100  0.12309300  0.82731600  1
  Cu  Cu34  1  0.20961000  0.60226400  0.27251400  1
  Cu  Cu35  1  0.29838300  0.20764200  0.87169900  1
  Cu  Cu36  1  0.69159700  0.93728300  0.37777000  1
  Cu  Cu37  1  0.87309900  0.12309300  0.32731600  1
  Cu  Cu38  1  0.80840300  0.93728300  0.87777000  1
  Cu  Cu39  1  0.29039000  0.60226400  0.77251400  1
  Cu  Cu40  1  0.49481000  0.23988700  0.22031800  1
  Cu  Cu41  1  0.85584200  0.60502200  0.17632200  1
  Cu  Cu42  1  0.62992600  0.06866200  0.60981200  1
  Cu  Cu43  1  0.70961000  0.39773600  0.22748600  1
  Cu  Cu44  1  0.98507500  0.84711200  0.81391000  1
  Cu  Cu45  1  0.12690100  0.87690700  0.67268400  1
  Cu  Cu46  1  0.64415800  0.60502200  0.67632200  1
  Cu  Cu47  1  0.79838300  0.79235800  0.62830100  1
  Cu  Cu48  1  0.18561000  0.47543200  0.01402600  1
  Cu  Cu49  1  0.87007400  0.06866200  0.10981200  1
  Cu  Cu50  1  0.50519000  0.76011300  0.77968200  1
  Cu  Cu51  1  0.20161700  0.20764200  0.37169900  1
  Cu  Cu52  1  0.70161700  0.79235800  0.12830100  1
  Cu  Cu53  1  0.35584200  0.39497800  0.32367800  1
  Cu  Cu54  1  0.48507500  0.15288800  0.68609000  1
  Cu  Cu55  1  0.01492500  0.15288800  0.18609000  1
  Cu  Cu56  1  0.81439000  0.52456800  0.98597400  1
  Cu  Cu57  1  0.99481000  0.76011300  0.27968200  1
  Cu  Cu58  1  0.14415800  0.39497800  0.82367800  1
  Cu  Cu59  1  0.00364000  0.18921200  0.50643900  1
