# generated using pymatgen
data_Cu3Ni3C11
_symmetry_space_group_name_H-M   'P 1'
_cell_length_a   10.00561500
_cell_length_b   15.13817300
_cell_length_c   16.39257000
_cell_angle_alpha   90.00000000
_cell_angle_beta   90.00000000
_cell_angle_gamma   90.00000000
_symmetry_Int_Tables_number   1
_chemical_formula_structural   Cu3Ni3C11
_chemical_formula_sum   'Cu24 Ni24 C88'
_cell_volume   2482.92898799
_cell_formula_units_Z   8
loop_
 _symmetry_equiv_pos_site_id
 _symmetry_equiv_pos_as_xyz
  1  'x, y, z'
loop_
 _atom_site_type_symbol
 _atom_site_label
 _atom_site_symmetry_multiplicity
 _atom_site_fract_x
 _atom_site_fract_y
 _atom_site_fract_z
 _atom_site_occupancy
  Ni  Ni0  1  0.79332500  0.91649100  0.74295500  1
  Ni  Ni1  1  0.54609200  0.28620600  0.31793700  1
  Ni  Ni2  1  0.45390800  0.21379400  0.81793700  1
  Ni  Ni3  1  0.20667500  0.08350900  0.25704500  1
  Ni  Ni4  1  0.20199400  0.11525600  0.42366800  1
  Ni  Ni5  1  0.29332500  0.08350900  0.75704500  1
  Ni  Ni6  1  0.79800600  0.88474400  0.57633200  1
  Ni  Ni7  1  0.29332500  0.58350900  0.74295500  1
  Ni  Ni8  1  0.70667500  0.41649100  0.25704500  1
  Ni  Ni9  1  0.29800600  0.11525600  0.92366800  1
  Ni  Ni10  1  0.29800600  0.61525600  0.57633200  1
  Ni  Ni11  1  0.54609200  0.78620600  0.18206300  1
  Ni  Ni12  1  0.95390800  0.28620600  0.81793700  1
  Ni  Ni13  1  0.04609200  0.21379400  0.31793700  1
  Ni  Ni14  1  0.79800600  0.38474400  0.92366800  1
  Ni  Ni15  1  0.70667500  0.91649100  0.24295500  1
  Ni  Ni16  1  0.04609200  0.71379400  0.18206300  1
  Ni  Ni17  1  0.70199400  0.38474400  0.42366800  1
  Ni  Ni18  1  0.70199400  0.88474400  0.07633200  1
  Ni  Ni19  1  0.95390800  0.78620600  0.68206300  1
  Ni  Ni20  1  0.20667500  0.58350900  0.24295500  1
  Ni  Ni21  1  0.45390800  0.71379400  0.68206300  1
  Ni  Ni22  1  0.20199400  0.61525600  0.07633200  1
  Ni  Ni23  1  0.79332500  0.41649100  0.75704500  1
  Cu  Cu24  1  0.18280400  0.95620500  0.52289000  1
  Cu  Cu25  1  0.12763300  0.85805700  0.41851300  1
  Cu  Cu26  1  0.62763300  0.14194300  0.08148700  1
  Cu  Cu27  1  0.62763300  0.64194300  0.41851300  1
  Cu  Cu28  1  0.10193700  0.88484600  0.93247200  1
  Cu  Cu29  1  0.12763300  0.35805700  0.08148700  1
  Cu  Cu30  1  0.87236700  0.14194300  0.58148700  1
  Cu  Cu31  1  0.68280400  0.04379500  0.97711000  1
  Cu  Cu32  1  0.81719600  0.54379500  0.02289000  1
  Cu  Cu33  1  0.39806300  0.88484600  0.43247200  1
  Cu  Cu34  1  0.31719600  0.45620500  0.47711000  1
  Cu  Cu35  1  0.87236700  0.64194300  0.91851300  1
  Cu  Cu36  1  0.89806300  0.61515400  0.43247200  1
  Cu  Cu37  1  0.37236700  0.35805700  0.58148700  1
  Cu  Cu38  1  0.18280400  0.45620500  0.97711000  1
  Cu  Cu39  1  0.10193700  0.38484600  0.56752800  1
  Cu  Cu40  1  0.89806300  0.11515400  0.06752800  1
  Cu  Cu41  1  0.60193700  0.11515400  0.56752800  1
  Cu  Cu42  1  0.39806300  0.38484600  0.06752800  1
  Cu  Cu43  1  0.81719600  0.04379500  0.47711000  1
  Cu  Cu44  1  0.60193700  0.61515400  0.93247200  1
  Cu  Cu45  1  0.68280400  0.54379500  0.52289000  1
  Cu  Cu46  1  0.37236700  0.85805700  0.91851300  1
  Cu  Cu47  1  0.31719600  0.95620500  0.02289000  1
  C  C48  1  0.27693700  0.84517200  0.38365800  1
  C  C49  1  0.40039100  0.65898000  0.75779000  1
  C  C50  1  0.22306300  0.84517200  0.88365800  1
  C  C51  1  0.22306300  0.34517200  0.61634200  1
  C  C52  1  0.59960900  0.34102000  0.24221000  1
  C  C53  1  0.40437400  0.69211000  0.59332000  1
  C  C54  1  0.90039100  0.34102000  0.74221000  1
  C  C55  1  0.35262900  0.55331400  0.50237500  1
  C  C56  1  0.90437400  0.80789000  0.59332000  1
  C  C57  1  0.64737100  0.44668600  0.49762500  1
  C  C58  1  0.09960900  0.65898000  0.25779000  1
  C  C59  1  0.72306300  0.65482800  0.88365800  1
  C  C60  1  0.35262900  0.05331400  0.99762500  1
  C  C61  1  0.77693700  0.65482800  0.38365800  1
  C  C62  1  0.65794300  0.06776400  0.48767200  1
  C  C63  1  0.59960900  0.84102000  0.25779000  1
  C  C64  1  0.34205700  0.93223600  0.51232800  1
  C  C65  1  0.59562600  0.80789000  0.09332000  1
  C  C66  1  0.59562600  0.30789000  0.40668000  1
  C  C67  1  0.65794300  0.56776400  0.01232800  1
  C  C68  1  0.24441900  0.06141200  0.84592400  1
  C  C69  1  0.74441900  0.93858800  0.65407600  1
  C  C70  1  0.09562600  0.69211000  0.09332000  1
  C  C71  1  0.14737100  0.55331400  0.00237500  1
  C  C72  1  0.84205700  0.56776400  0.51232800  1
  C  C73  1  0.90437400  0.30789000  0.90668000  1
  C  C74  1  0.27693700  0.34517200  0.11634200  1
  C  C75  1  0.72306300  0.15482800  0.61634200  1
  C  C76  1  0.09960900  0.15898000  0.24221000  1
  C  C77  1  0.25558100  0.56141200  0.15407600  1
  C  C78  1  0.75558100  0.93858800  0.15407600  1
  C  C79  1  0.40039100  0.15898000  0.74221000  1
  C  C80  1  0.74441900  0.43858800  0.84592400  1
  C  C81  1  0.85262900  0.44668600  0.99762500  1
  C  C82  1  0.85262900  0.94668600  0.50237500  1
  C  C83  1  0.25558100  0.06141200  0.34592400  1
  C  C84  1  0.75558100  0.43858800  0.34592400  1
  C  C85  1  0.84205700  0.06776400  0.98767200  1
  C  C86  1  0.90039100  0.84102000  0.75779000  1
  C  C87  1  0.77693700  0.15482800  0.11634200  1
  C  C88  1  0.34205700  0.43223600  0.98767200  1
  C  C89  1  0.09562600  0.19211000  0.40668000  1
  C  C90  1  0.15794300  0.93223600  0.01232800  1
  C  C91  1  0.64737100  0.94668600  0.00237500  1
  C  C92  1  0.14737100  0.05331400  0.49762500  1
  C  C93  1  0.40437400  0.19211000  0.90668000  1
  C  C94  1  0.15794300  0.43223600  0.48767200  1
  C  C95  1  0.24441900  0.56141200  0.65407600  1
  C  C96  1  0.82850300  0.83804100  0.03753000  1
  C  C97  1  0.88952400  0.71140900  0.18421200  1
  C  C98  1  0.56412400  0.18579700  0.29980800  1
  C  C99  1  0.93587600  0.68579700  0.70019200  1
  C  C100  1  0.43587600  0.81420300  0.70019200  1
  C  C101  1  0.43587600  0.31420300  0.79980800  1
  C  C102  1  0.17031100  0.10060000  0.70029700  1
  C  C103  1  0.84411500  0.50275100  0.71485800  1
  C  C104  1  0.67031100  0.89940000  0.79970300  1
  C  C105  1  0.82968900  0.39940000  0.20029700  1
  C  C106  1  0.67149700  0.83804100  0.53753000  1
  C  C107  1  0.56412400  0.68579700  0.20019200  1
  C  C108  1  0.34411500  0.49724900  0.78514200  1
  C  C109  1  0.11047600  0.78859100  0.68421200  1
  C  C110  1  0.11047600  0.28859100  0.81578800  1
  C  C111  1  0.32968900  0.60060000  0.29970300  1
  C  C112  1  0.38952400  0.78859100  0.18421200  1
  C  C113  1  0.32850300  0.16195900  0.46247000  1
  C  C114  1  0.17031100  0.60060000  0.79970300  1
  C  C115  1  0.93587600  0.18579700  0.79980800  1
  C  C116  1  0.34411500  0.99724900  0.71485800  1
  C  C117  1  0.32850300  0.66195900  0.03753000  1
  C  C118  1  0.65588500  0.00275100  0.28514200  1
  C  C119  1  0.17149700  0.66195900  0.53753000  1
  C  C120  1  0.15588500  0.99724900  0.21485800  1
  C  C121  1  0.67031100  0.39940000  0.70029700  1
  C  C122  1  0.32968900  0.10060000  0.20029700  1
  C  C123  1  0.15588500  0.49724900  0.28514200  1
  C  C124  1  0.84411500  0.00275100  0.78514200  1
  C  C125  1  0.06412400  0.31420300  0.29980800  1
  C  C126  1  0.61047600  0.21140900  0.81578800  1
  C  C127  1  0.38952400  0.28859100  0.31578800  1
  C  C128  1  0.67149700  0.33804100  0.96247000  1
  C  C129  1  0.65588500  0.50275100  0.21485800  1
  C  C130  1  0.61047600  0.71140900  0.68421200  1
  C  C131  1  0.06412400  0.81420300  0.20019200  1
  C  C132  1  0.82968900  0.89940000  0.29970300  1
  C  C133  1  0.17149700  0.16195900  0.96247000  1
  C  C134  1  0.82850300  0.33804100  0.46247000  1
  C  C135  1  0.88952400  0.21140900  0.31578800  1
