# generated using pymatgen
data_Cu3Ni3C46
_symmetry_space_group_name_H-M   'P 1'
_cell_length_a   13.70747872
_cell_length_b   13.70747872
_cell_length_c   7.52589400
_cell_angle_alpha   90.00000000
_cell_angle_beta   90.00000000
_cell_angle_gamma   120.00000347
_symmetry_Int_Tables_number   1
_chemical_formula_structural   Cu3Ni3C46
_chemical_formula_sum   'Cu6 Ni6 C92'
_cell_volume   1224.62712384
_cell_formula_units_Z   2
loop_
 _symmetry_equiv_pos_site_id
 _symmetry_equiv_pos_as_xyz
  1  'x, y, z'
loop_
 _atom_site_type_symbol
 _atom_site_label
 _atom_site_symmetry_multiplicity
 _atom_site_fract_x
 _atom_site_fract_y
 _atom_site_fract_z
 _atom_site_occupancy
  C  C0  1  0.33333300  0.66666700  0.25000000  1
  C  C1  1  0.66666700  0.33333300  0.75000000  1
  C  C2  1  0.09918400  0.44916500  0.35575500  1
  C  C3  1  0.65001900  0.09918400  0.85575500  1
  C  C4  1  0.44916500  0.34998100  0.85575500  1
  C  C5  1  0.55083500  0.65001900  0.35575500  1
  C  C6  1  0.34998100  0.90081600  0.35575500  1
  C  C7  1  0.90081600  0.55083500  0.85575500  1
  C  C8  1  0.90081600  0.55083500  0.64424500  1
  C  C9  1  0.34998100  0.90081600  0.14424500  1
  C  C10  1  0.55083500  0.65001900  0.14424500  1
  C  C11  1  0.44916500  0.34998100  0.64424500  1
  C  C12  1  0.65001900  0.09918400  0.64424500  1
  C  C13  1  0.09918400  0.44916500  0.14424500  1
  C  C14  1  0.36259100  0.49211000  0.44847700  1
  C  C15  1  0.87048000  0.36259100  0.94847700  1
  C  C16  1  0.49211000  0.12952000  0.94847700  1
  C  C17  1  0.50789000  0.87048000  0.44847700  1
  C  C18  1  0.12952000  0.63740900  0.44847700  1
  C  C19  1  0.63740900  0.50789000  0.94847700  1
  C  C20  1  0.63740900  0.50789000  0.55152300  1
  C  C21  1  0.12952000  0.63740900  0.05152300  1
  C  C22  1  0.50789000  0.87048000  0.05152300  1
  C  C23  1  0.49211000  0.12952000  0.55152300  1
  C  C24  1  0.87048000  0.36259100  0.55152300  1
  C  C25  1  0.36259100  0.49211000  0.05152300  1
  C  C26  1  0.27977800  0.51286000  0.56774400  1
  C  C27  1  0.76691800  0.27977800  0.06774400  1
  C  C28  1  0.51286000  0.23308200  0.06774400  1
  C  C29  1  0.48714000  0.76691800  0.56774400  1
  C  C30  1  0.23308200  0.72022200  0.56774400  1
  C  C31  1  0.72022200  0.48714000  0.06774400  1
  C  C32  1  0.72022200  0.48714000  0.43225600  1
  C  C33  1  0.23308200  0.72022200  0.93225600  1
  C  C34  1  0.48714000  0.76691800  0.93225600  1
  C  C35  1  0.51286000  0.23308200  0.43225600  1
  C  C36  1  0.76691800  0.27977800  0.43225600  1
  C  C37  1  0.27977800  0.51286000  0.93225600  1
  Ni  Ni38  1  0.23161600  0.20479300  0.25000000  1
  Ni  Ni39  1  0.02682300  0.23161600  0.75000000  1
  Ni  Ni40  1  0.20479300  0.97317700  0.75000000  1
  Ni  Ni41  1  0.79520700  0.02682300  0.25000000  1
  Ni  Ni42  1  0.97317700  0.76838400  0.25000000  1
  Ni  Ni43  1  0.76838400  0.79520700  0.75000000  1
  Cu  Cu44  1  0.38359000  0.31660400  0.25000000  1
  Cu  Cu45  1  0.06698600  0.38359000  0.75000000  1
  Cu  Cu46  1  0.31660400  0.93301400  0.75000000  1
  Cu  Cu47  1  0.68339600  0.06698600  0.25000000  1
  Cu  Cu48  1  0.93301400  0.61641000  0.25000000  1
  Cu  Cu49  1  0.61641000  0.68339600  0.75000000  1
  C  C50  1  0.14357100  0.48781700  0.25000000  1
  C  C51  1  0.65575400  0.14357100  0.75000000  1
  C  C52  1  0.48781700  0.34424600  0.75000000  1
  C  C53  1  0.51218300  0.65575400  0.25000000  1
  C  C54  1  0.34424600  0.85642900  0.25000000  1
  C  C55  1  0.85642900  0.51218300  0.75000000  1
  C  C56  1  0.33722000  0.54652200  0.47322600  1
  C  C57  1  0.79069800  0.33722000  0.97322600  1
  C  C58  1  0.54652200  0.20930200  0.97322600  1
  C  C59  1  0.45347800  0.79069800  0.47322600  1
  C  C60  1  0.20930200  0.66278000  0.47322600  1
  C  C61  1  0.66278000  0.45347800  0.97322600  1
  C  C62  1  0.66278000  0.45347800  0.52677400  1
  C  C63  1  0.20930200  0.66278000  0.02677400  1
  C  C64  1  0.45347800  0.79069800  0.02677400  1
  C  C65  1  0.54652200  0.20930200  0.52677400  1
  C  C66  1  0.79069800  0.33722000  0.52677400  1
  C  C67  1  0.33722000  0.54652200  0.02677400  1
  C  C68  1  0.44369200  0.25299100  0.25000000  1
  C  C69  1  0.19070100  0.44369200  0.75000000  1
  C  C70  1  0.25299100  0.80929900  0.75000000  1
  C  C71  1  0.74700900  0.19070100  0.25000000  1
  C  C72  1  0.80929900  0.55630800  0.25000000  1
  C  C73  1  0.55630800  0.74700900  0.75000000  1
  C  C74  1  0.39741500  0.37935000  0.41441000  1
  C  C75  1  0.01806500  0.39741500  0.91441000  1
  C  C76  1  0.37935000  0.98193500  0.91441000  1
  C  C77  1  0.62065000  0.01806500  0.41441000  1
  C  C78  1  0.98193500  0.60258500  0.41441000  1
  C  C79  1  0.60258500  0.62065000  0.91441000  1
  C  C80  1  0.60258500  0.62065000  0.58559000  1
  C  C81  1  0.98193500  0.60258500  0.08559000  1
  C  C82  1  0.62065000  0.01806500  0.08559000  1
  C  C83  1  0.37935000  0.98193500  0.58559000  1
  C  C84  1  0.01806500  0.39741500  0.58559000  1
  C  C85  1  0.39741500  0.37935000  0.08559000  1
  C  C86  1  0.16663400  0.25340100  0.25000000  1
  C  C87  1  0.91323200  0.16663400  0.75000000  1
  C  C88  1  0.25340100  0.08676800  0.75000000  1
  C  C89  1  0.74659900  0.91323200  0.25000000  1
  C  C90  1  0.08676800  0.83336600  0.25000000  1
  C  C91  1  0.83336600  0.74659900  0.75000000  1
  C  C92  1  0.20760100  0.13930500  0.39586600  1
  C  C93  1  0.06829700  0.20760100  0.89586600  1
  C  C94  1  0.13930500  0.93170300  0.89586600  1
  C  C95  1  0.86069500  0.06829700  0.39586600  1
  C  C96  1  0.93170300  0.79239900  0.39586600  1
  C  C97  1  0.79239900  0.86069500  0.89586600  1
  C  C98  1  0.79239900  0.86069500  0.60413400  1
  C  C99  1  0.93170300  0.79239900  0.10413400  1
  C  C100  1  0.86069500  0.06829700  0.10413400  1
  C  C101  1  0.13930500  0.93170300  0.60413400  1
  C  C102  1  0.06829700  0.20760100  0.60413400  1
  C  C103  1  0.20760100  0.13930500  0.10413400  1
