# generated using pymatgen
data_Cu2Ni3C8
_symmetry_space_group_name_H-M   'P 1'
_cell_length_a   5.15829189
_cell_length_b   5.51148277
_cell_length_c   11.79880600
_cell_angle_alpha   90.00000000
_cell_angle_beta   90.00000000
_cell_angle_gamma   112.16307376
_symmetry_Int_Tables_number   1
_chemical_formula_structural   Cu2Ni3C8
_chemical_formula_sum   'Cu4 Ni6 C16'
_cell_volume   310.65391657
_cell_formula_units_Z   2
loop_
 _symmetry_equiv_pos_site_id
 _symmetry_equiv_pos_as_xyz
  1  'x, y, z'
loop_
 _atom_site_type_symbol
 _atom_site_label
 _atom_site_symmetry_multiplicity
 _atom_site_fract_x
 _atom_site_fract_y
 _atom_site_fract_z
 _atom_site_occupancy
  Ni  Ni0  1  0.24590500  0.85977700  0.16348600  1
  Ni  Ni1  1  0.74590500  0.85977700  0.33651400  1
  Ni  Ni2  1  0.00000000  0.50000000  0.50000000  1
  Ni  Ni3  1  0.25409500  0.14022300  0.66348600  1
  Ni  Ni4  1  0.50000000  0.50000000  0.00000000  1
  Ni  Ni5  1  0.75409500  0.14022300  0.83651400  1
  Cu  Cu6  1  0.89277100  0.26671700  0.11423300  1
  Cu  Cu7  1  0.60722900  0.73328300  0.61423300  1
  Cu  Cu8  1  0.39277100  0.26671700  0.38576700  1
  Cu  Cu9  1  0.10722900  0.73328300  0.88576700  1
  C  C10  1  0.78986700  0.72570700  0.48769000  1
  C  C11  1  0.67016000  0.99195400  0.18696500  1
  C  C12  1  0.17016000  0.99195400  0.31303500  1
  C  C13  1  0.69876400  0.22036900  0.41819500  1
  C  C14  1  0.40768900  0.54300900  0.31520500  1
  C  C15  1  0.28986700  0.72570700  0.01231000  1
  C  C16  1  0.82984000  0.00804600  0.68696500  1
  C  C17  1  0.30123600  0.77963100  0.58180500  1
  C  C18  1  0.21013300  0.27429300  0.51231000  1
  C  C19  1  0.90768900  0.54300900  0.18479500  1
  C  C20  1  0.80123600  0.77963100  0.91819500  1
  C  C21  1  0.19876400  0.22036900  0.08180500  1
  C  C22  1  0.59231100  0.45699100  0.68479500  1
  C  C23  1  0.32984000  0.00804600  0.81303500  1
  C  C24  1  0.09231100  0.45699100  0.81520500  1
  C  C25  1  0.71013300  0.27429300  0.98769000  1
