# generated using pymatgen
data_Cu3Ni2C7
_symmetry_space_group_name_H-M   'P 1'
_cell_length_a   7.82250200
_cell_length_b   10.16758800
_cell_length_c   20.30996440
_cell_angle_alpha   60.24932909
_cell_angle_beta   90.00000000
_cell_angle_gamma   90.00000000
_symmetry_Int_Tables_number   1
_chemical_formula_structural   Cu3Ni2C7
_chemical_formula_sum   'Cu12 Ni8 C28'
_cell_volume   1402.45542503
_cell_formula_units_Z   4
loop_
 _symmetry_equiv_pos_site_id
 _symmetry_equiv_pos_as_xyz
  1  'x, y, z'
loop_
 _atom_site_type_symbol
 _atom_site_label
 _atom_site_symmetry_multiplicity
 _atom_site_fract_x
 _atom_site_fract_y
 _atom_site_fract_z
 _atom_site_occupancy
  C  C0  1  0.17511500  0.16103800  0.83237700  1
  C  C1  1  0.82488500  0.83896200  0.16762300  1
  C  C2  1  0.32488500  0.16103800  0.33237700  1
  C  C3  1  0.67511500  0.83896200  0.66762300  1
  Ni  Ni4  1  0.46164000  0.45215300  0.08077800  1
  Ni  Ni5  1  0.48497900  0.35022500  0.49931000  1
  Ni  Ni6  1  0.98497900  0.64977500  0.00069000  1
  Ni  Ni7  1  0.53836000  0.54784700  0.91922200  1
  Ni  Ni8  1  0.96164000  0.54784700  0.41922200  1
  Ni  Ni9  1  0.51502100  0.64977500  0.50069000  1
  Ni  Ni10  1  0.01502100  0.35022500  0.99931000  1
  Ni  Ni11  1  0.03836000  0.45215300  0.58077800  1
  Cu  Cu12  1  0.84953900  0.95351000  0.35338000  1
  Cu  Cu13  1  0.36966200  0.65340500  0.27677500  1
  Cu  Cu14  1  0.61832400  0.21341200  0.91858700  1
  Cu  Cu15  1  0.11832400  0.78658800  0.58141300  1
  Cu  Cu16  1  0.15046100  0.04649000  0.64662000  1
  Cu  Cu17  1  0.88167600  0.21341200  0.41858700  1
  Cu  Cu18  1  0.65046100  0.95351000  0.85338000  1
  Cu  Cu19  1  0.86966200  0.34659500  0.22322500  1
  Cu  Cu20  1  0.38167600  0.78658800  0.08141300  1
  Cu  Cu21  1  0.34953900  0.04649000  0.14662000  1
  Cu  Cu22  1  0.13033800  0.65340500  0.77677500  1
  Cu  Cu23  1  0.63033800  0.34659500  0.72322500  1
  C  C24  1  0.24964600  0.45371500  0.89204300  1
  C  C25  1  0.25035400  0.45371500  0.39204300  1
  C  C26  1  0.80311400  0.13402800  0.73562600  1
  C  C27  1  0.30311400  0.86597200  0.76437400  1
  C  C28  1  0.72036800  0.40978500  0.31097100  1
  C  C29  1  0.27963200  0.59021500  0.68902900  1
  C  C30  1  0.30456000  0.73330700  0.98276700  1
  C  C31  1  0.70225800  0.73183300  0.37196700  1
  C  C32  1  0.77963200  0.40978500  0.81097100  1
  C  C33  1  0.29774200  0.26816700  0.62803300  1
  C  C34  1  0.20225800  0.26816700  0.12803300  1
  C  C35  1  0.80456000  0.26669300  0.51723300  1
  C  C36  1  0.79774200  0.73183300  0.87196700  1
  C  C37  1  0.69688600  0.13402800  0.23562600  1
  C  C38  1  0.20377400  0.01256900  0.04865300  1
  C  C39  1  0.79622600  0.98743100  0.95134700  1
  C  C40  1  0.29622600  0.01256900  0.54865300  1
  C  C41  1  0.69544000  0.26669300  0.01723300  1
  C  C42  1  0.22036800  0.59021500  0.18902900  1
  C  C43  1  0.70377400  0.98743100  0.45134700  1
  C  C44  1  0.19544000  0.73330700  0.48276700  1
  C  C45  1  0.74964600  0.54628500  0.60795700  1
  C  C46  1  0.19688600  0.86597200  0.26437400  1
  C  C47  1  0.75035400  0.54628500  0.10795700  1
