# generated using pymatgen
data_Cu(NiC)2
_symmetry_space_group_name_H-M   'P 1'
_cell_length_a   4.03845900
_cell_length_b   5.36357200
_cell_length_c   7.62975226
_cell_angle_alpha   79.65845808
_cell_angle_beta   90.00000000
_cell_angle_gamma   90.00000000
_symmetry_Int_Tables_number   1
_chemical_formula_structural   Cu(NiC)2
_chemical_formula_sum   'Cu2 Ni4 C4'
_cell_volume   162.58004668
_cell_formula_units_Z   2
loop_
 _symmetry_equiv_pos_site_id
 _symmetry_equiv_pos_as_xyz
  1  'x, y, z'
loop_
 _atom_site_type_symbol
 _atom_site_label
 _atom_site_symmetry_multiplicity
 _atom_site_fract_x
 _atom_site_fract_y
 _atom_site_fract_z
 _atom_site_occupancy
  C  C0  1  0.75000000  0.82277200  0.73591800  1
  C  C1  1  0.25000000  0.17722800  0.26408200  1
  C  C2  1  0.75000000  0.65308400  0.35824900  1
  C  C3  1  0.25000000  0.34691600  0.64175100  1
  Ni  Ni4  1  0.25000000  0.56823800  0.66077100  1
  Ni  Ni5  1  0.25000000  0.12260900  0.61845100  1
  Ni  Ni6  1  0.75000000  0.87739100  0.38154900  1
  Ni  Ni7  1  0.75000000  0.43176200  0.33922900  1
  Cu  Cu8  1  0.75000000  0.25478300  0.95800700  1
  Cu  Cu9  1  0.25000000  0.74521700  0.04199300  1
