# generated using pymatgen
data_Cu12Ni3C2
_symmetry_space_group_name_H-M   'P 1'
_cell_length_a   8.66209100
_cell_length_b   8.44665100
_cell_length_c   14.49231209
_cell_angle_alpha   54.95902220
_cell_angle_beta   90.00000000
_cell_angle_gamma   90.00000000
_symmetry_Int_Tables_number   1
_chemical_formula_structural   Cu12Ni3C2
_chemical_formula_sum   'Cu48 Ni12 C8'
_cell_volume   868.14413428
_cell_formula_units_Z   4
loop_
 _symmetry_equiv_pos_site_id
 _symmetry_equiv_pos_as_xyz
  1  'x, y, z'
loop_
 _atom_site_type_symbol
 _atom_site_label
 _atom_site_symmetry_multiplicity
 _atom_site_fract_x
 _atom_site_fract_y
 _atom_site_fract_z
 _atom_site_occupancy
  C  C0  1  0.46707200  0.86605100  0.38463400  1
  C  C1  1  0.96707200  0.13394900  0.11536600  1
  C  C2  1  0.53292800  0.13394900  0.61536600  1
  C  C3  1  0.03292800  0.86605100  0.88463400  1
  C  C4  1  0.03443100  0.63243400  0.61467900  1
  C  C5  1  0.53443100  0.36756600  0.88532100  1
  C  C6  1  0.96556900  0.36756600  0.38532100  1
  C  C7  1  0.46556900  0.63243400  0.11467900  1
  Ni  Ni8  1  0.25210400  0.45889200  0.50391300  1
  Ni  Ni9  1  0.75210400  0.54110800  0.99608700  1
  Ni  Ni10  1  0.74789600  0.54110800  0.49608700  1
  Ni  Ni11  1  0.24789600  0.45889200  0.00391300  1
  Ni  Ni12  1  0.38151000  0.74533800  0.65032400  1
  Ni  Ni13  1  0.88151000  0.25466200  0.84967600  1
  Ni  Ni14  1  0.61849000  0.25466200  0.34967600  1
  Ni  Ni15  1  0.11849000  0.74533800  0.15032400  1
  Ni  Ni16  1  0.11529500  0.03773900  0.35398700  1
  Ni  Ni17  1  0.61529500  0.96226100  0.14601300  1
  Ni  Ni18  1  0.88470500  0.96226100  0.64601300  1
  Ni  Ni19  1  0.38470500  0.03773900  0.85398700  1
  Cu  Cu20  1  0.12784900  0.48351700  0.42644900  1
  Cu  Cu21  1  0.62784900  0.51648300  0.07355100  1
  Cu  Cu22  1  0.87215100  0.51648300  0.57355100  1
  Cu  Cu23  1  0.37215100  0.48351700  0.92644900  1
  Cu  Cu24  1  0.18914600  0.46359400  0.59760800  1
  Cu  Cu25  1  0.68914600  0.53640600  0.90239200  1
  Cu  Cu26  1  0.81085400  0.53640600  0.40239200  1
  Cu  Cu27  1  0.31085400  0.46359400  0.09760800  1
  Cu  Cu28  1  0.32824100  0.27021000  0.55123000  1
  Cu  Cu29  1  0.82824100  0.72979000  0.94877000  1
  Cu  Cu30  1  0.67175900  0.72979000  0.44877000  1
  Cu  Cu31  1  0.17175900  0.27021000  0.05123000  1
  Cu  Cu32  1  0.36432600  0.61730400  0.43625700  1
  Cu  Cu33  1  0.86432600  0.38269600  0.06374300  1
  Cu  Cu34  1  0.63567400  0.38269600  0.56374300  1
  Cu  Cu35  1  0.13567400  0.61730400  0.93625700  1
  Cu  Cu36  1  0.47846100  0.56999700  0.72093100  1
  Cu  Cu37  1  0.97846100  0.43000300  0.77906900  1
  Cu  Cu38  1  0.52153900  0.43000300  0.27906900  1
  Cu  Cu39  1  0.02153900  0.56999700  0.22093100  1
  Cu  Cu40  1  0.41640800  0.88698300  0.67660100  1
  Cu  Cu41  1  0.91640800  0.11301700  0.82339900  1
  Cu  Cu42  1  0.58359200  0.11301700  0.32339900  1
  Cu  Cu43  1  0.08359200  0.88698300  0.17660100  1
  Cu  Cu44  1  0.41361100  0.83126800  0.53034000  1
  Cu  Cu45  1  0.91361100  0.16873200  0.96966000  1
  Cu  Cu46  1  0.58638900  0.16873200  0.46966000  1
  Cu  Cu47  1  0.08638900  0.83126800  0.03034000  1
  Cu  Cu48  1  0.21459200  0.69734600  0.67426900  1
  Cu  Cu49  1  0.71459200  0.30265400  0.82573100  1
  Cu  Cu50  1  0.78540800  0.30265400  0.32573100  1
  Cu  Cu51  1  0.28540800  0.69734600  0.17426900  1
  Cu  Cu52  1  0.00502100  0.10461600  0.26052200  1
  Cu  Cu53  1  0.50502100  0.89538400  0.23947800  1
  Cu  Cu54  1  0.99497900  0.89538400  0.73947800  1
  Cu  Cu55  1  0.49497900  0.10461600  0.76052200  1
  Cu  Cu56  1  0.06889700  0.84156800  0.45038200  1
  Cu  Cu57  1  0.56889700  0.15843200  0.04961800  1
  Cu  Cu58  1  0.93110300  0.15843200  0.54961800  1
  Cu  Cu59  1  0.43110300  0.84156800  0.95038200  1
  Cu  Cu60  1  0.11253300  0.17617800  0.38613200  1
  Cu  Cu61  1  0.61253300  0.82382200  0.11386800  1
  Cu  Cu62  1  0.88746700  0.82382200  0.61386800  1
  Cu  Cu63  1  0.38746700  0.17617800  0.88613200  1
  Cu  Cu64  1  0.27305400  0.02965900  0.31727100  1
  Cu  Cu65  1  0.77305400  0.97034100  0.18272900  1
  Cu  Cu66  1  0.72694600  0.97034100  0.68272900  1
  Cu  Cu67  1  0.22694600  0.02965900  0.81727100  1
