# generated using pymatgen
data_Cu4NiC14
_symmetry_space_group_name_H-M   'P 1'
_cell_length_a   10.28657400
_cell_length_b   9.58965100
_cell_length_c   9.71719717
_cell_angle_alpha   88.38935336
_cell_angle_beta   90.00000000
_cell_angle_gamma   90.00000000
_symmetry_Int_Tables_number   1
_chemical_formula_structural   Cu4NiC14
_chemical_formula_sum   'Cu16 Ni4 C56'
_cell_volume   958.17084536
_cell_formula_units_Z   4
loop_
 _symmetry_equiv_pos_site_id
 _symmetry_equiv_pos_as_xyz
  1  'x, y, z'
loop_
 _atom_site_type_symbol
 _atom_site_label
 _atom_site_symmetry_multiplicity
 _atom_site_fract_x
 _atom_site_fract_y
 _atom_site_fract_z
 _atom_site_occupancy
  C  C0  1  0.81781000  0.89126200  0.00235900  1
  C  C1  1  0.68205500  0.60631400  0.50027000  1
  C  C2  1  0.31781000  0.10873800  0.49764100  1
  C  C3  1  0.81794500  0.60631400  0.00027000  1
  C  C4  1  0.18219000  0.10873800  0.99764100  1
  C  C5  1  0.18205500  0.39368600  0.99973000  1
  C  C6  1  0.68219000  0.89126200  0.50235900  1
  C  C7  1  0.31794500  0.39368600  0.49973000  1
  Ni  Ni8  1  0.80615400  0.25158200  0.98885300  1
  Ni  Ni9  1  0.69384600  0.25158200  0.48885300  1
  Ni  Ni10  1  0.19384600  0.74841800  0.01114700  1
  Ni  Ni11  1  0.30615400  0.74841800  0.51114700  1
  Cu  Cu12  1  0.10519400  0.96545800  0.29285700  1
  Cu  Cu13  1  0.60002600  0.49331300  0.20318300  1
  Cu  Cu14  1  0.89997400  0.49331300  0.70318300  1
  Cu  Cu15  1  0.60519400  0.03454200  0.20714300  1
  Cu  Cu16  1  0.03590400  0.76208600  0.72941300  1
  Cu  Cu17  1  0.09768300  0.26675400  0.70037600  1
  Cu  Cu18  1  0.53590400  0.23791400  0.77058700  1
  Cu  Cu19  1  0.96409600  0.23791400  0.27058700  1
  Cu  Cu20  1  0.90231700  0.73324600  0.29962400  1
  Cu  Cu21  1  0.10002600  0.50668700  0.29681700  1
  Cu  Cu22  1  0.40231700  0.26675400  0.20037600  1
  Cu  Cu23  1  0.39480600  0.96545800  0.79285700  1
  Cu  Cu24  1  0.39997400  0.50668700  0.79681700  1
  Cu  Cu25  1  0.59768300  0.73324600  0.79962400  1
  Cu  Cu26  1  0.89480600  0.03454200  0.70714300  1
  Cu  Cu27  1  0.46409600  0.76208600  0.22941300  1
  C  C28  1  0.88161900  0.03316000  0.86098500  1
  C  C29  1  0.61838100  0.03316000  0.36098500  1
  C  C30  1  0.01747600  0.75808600  0.88497700  1
  C  C31  1  0.06264400  0.34572700  0.33679200  1
  C  C32  1  0.03182600  0.41526900  0.65694500  1
  C  C33  1  0.96817400  0.58473100  0.34305500  1
  C  C34  1  0.98252400  0.24191400  0.11502300  1
  C  C35  1  0.46817400  0.41526900  0.15694500  1
  C  C36  1  0.38193500  0.25545300  0.35326200  1
  C  C37  1  0.79093800  0.46186200  0.60587800  1
  C  C38  1  0.61707800  0.47642800  0.35646800  1
  C  C39  1  0.88193500  0.74454700  0.14673800  1
  C  C40  1  0.48664000  0.09471800  0.83804900  1
  C  C41  1  0.11707800  0.52357200  0.14353200  1
  C  C42  1  0.78947700  0.75151800  0.39502700  1
  C  C43  1  0.38292200  0.52357200  0.64353200  1
  C  C44  1  0.21052300  0.24848200  0.60497300  1
  C  C45  1  0.38161900  0.96684000  0.63901500  1
  C  C46  1  0.01336000  0.09471800  0.33804900  1
  C  C47  1  0.22331200  0.96755700  0.38415100  1
  C  C48  1  0.98103700  0.16409200  0.65255700  1
  C  C49  1  0.28947700  0.24848200  0.10497300  1
  C  C50  1  0.67237700  0.26413500  0.81710200  1
  C  C51  1  0.27668800  0.96755700  0.88415100  1
  C  C52  1  0.11838100  0.96684000  0.13901500  1
  C  C53  1  0.51336000  0.90528200  0.16195100  1
  C  C54  1  0.82762300  0.26413500  0.31710200  1
  C  C55  1  0.11806500  0.25545300  0.85326200  1
  C  C56  1  0.17237700  0.73586500  0.68289800  1
  C  C57  1  0.72331200  0.03244300  0.11584900  1
  C  C58  1  0.77668800  0.03244300  0.61584900  1
  C  C59  1  0.29093800  0.53813800  0.89412200  1
  C  C60  1  0.71052300  0.75151800  0.89502700  1
  C  C61  1  0.93735600  0.65427300  0.66320800  1
  C  C62  1  0.01896300  0.83590800  0.34744300  1
  C  C63  1  0.53182600  0.58473100  0.84305500  1
  C  C64  1  0.61806500  0.74454700  0.64673800  1
  C  C65  1  0.70906200  0.46186200  0.10587800  1
  C  C66  1  0.56264400  0.65427300  0.16320800  1
  C  C67  1  0.48103700  0.83590800  0.84744300  1
  C  C68  1  0.51747600  0.24191400  0.61502300  1
  C  C69  1  0.51896300  0.16409200  0.15255700  1
  C  C70  1  0.20906200  0.53813800  0.39412200  1
  C  C71  1  0.88292200  0.47642800  0.85646800  1
  C  C72  1  0.48252400  0.75808600  0.38497700  1
  C  C73  1  0.43735600  0.34572700  0.83679200  1
  C  C74  1  0.98664000  0.90528200  0.66195100  1
  C  C75  1  0.32762300  0.73586500  0.18289800  1
