# generated using pymatgen
data_Cu2NiC9
_symmetry_space_group_name_H-M   'P 1'
_cell_length_a   9.05986546
_cell_length_b   9.05986546
_cell_length_c   9.05986599
_cell_angle_alpha   31.07678406
_cell_angle_beta   31.07678406
_cell_angle_gamma   31.07678250
_symmetry_Int_Tables_number   1
_chemical_formula_structural   Cu2NiC9
_chemical_formula_sum   'Cu2 Ni1 C9'
_cell_volume   175.79638916
_cell_formula_units_Z   1
loop_
 _symmetry_equiv_pos_site_id
 _symmetry_equiv_pos_as_xyz
  1  'x, y, z'
loop_
 _atom_site_type_symbol
 _atom_site_label
 _atom_site_symmetry_multiplicity
 _atom_site_fract_x
 _atom_site_fract_y
 _atom_site_fract_z
 _atom_site_occupancy
  C  C0  1  0.50000000  0.50000000  0.50000000  1
  Ni  Ni1  1  0.00000000  0.00000000  0.00000000  1
  Cu  Cu2  1  0.73516600  0.73516600  0.73516600  1
  Cu  Cu3  1  0.26483400  0.26483400  0.26483400  1
  C  C4  1  0.79282800  0.79282800  0.79282800  1
  C  C5  1  0.39650700  0.99851700  0.74307800  1
  C  C6  1  0.20717200  0.20717200  0.20717200  1
  C  C7  1  0.99851700  0.74307800  0.39650800  1
  C  C8  1  0.00148300  0.25692200  0.60349300  1
  C  C9  1  0.74307800  0.39650800  0.99851700  1
  C  C10  1  0.25692200  0.60349200  0.00148300  1
  C  C11  1  0.60349200  0.00148300  0.25692200  1
