# generated using pymatgen
data_Cu3NiC
_symmetry_space_group_name_H-M   'P 1'
_cell_length_a   4.52957245
_cell_length_b   4.52957245
_cell_length_c   4.52957264
_cell_angle_alpha   80.01503014
_cell_angle_beta   80.01503014
_cell_angle_gamma   80.01502564
_symmetry_Int_Tables_number   1
_chemical_formula_structural   Cu3NiC
_chemical_formula_sum   'Cu3 Ni1 C1'
_cell_volume   89.14985941
_cell_formula_units_Z   1
loop_
 _symmetry_equiv_pos_site_id
 _symmetry_equiv_pos_as_xyz
  1  'x, y, z'
loop_
 _atom_site_type_symbol
 _atom_site_label
 _atom_site_symmetry_multiplicity
 _atom_site_fract_x
 _atom_site_fract_y
 _atom_site_fract_z
 _atom_site_occupancy
  C  C0  1  0.98146300  0.98146300  0.98146300  1
  Ni  Ni1  1  0.48913600  0.48913600  0.48913600  1
  Cu  Cu2  1  0.41275200  0.82886100  0.41275200  1
  Cu  Cu3  1  0.41275200  0.41275200  0.82886100  1
  Cu  Cu4  1  0.82886100  0.41275200  0.41275200  1
