# generated using pymatgen
data_Cu2NiC13
_symmetry_space_group_name_H-M   'P 1'
_cell_length_a   8.23794000
_cell_length_b   9.47810152
_cell_length_c   18.27272883
_cell_angle_alpha   91.90595908
_cell_angle_beta   95.17931576
_cell_angle_gamma   96.09550328
_symmetry_Int_Tables_number   1
_chemical_formula_structural   Cu2NiC13
_chemical_formula_sum   'Cu8 Ni4 C52'
_cell_volume   1411.55355478
_cell_formula_units_Z   4
loop_
 _symmetry_equiv_pos_site_id
 _symmetry_equiv_pos_as_xyz
  1  'x, y, z'
loop_
 _atom_site_type_symbol
 _atom_site_label
 _atom_site_symmetry_multiplicity
 _atom_site_fract_x
 _atom_site_fract_y
 _atom_site_fract_z
 _atom_site_occupancy
  C  C0  1  0.31279100  0.77097500  0.40979000  1
  C  C1  1  0.21297100  0.36742100  0.92937400  1
  C  C2  1  0.68720900  0.22902500  0.59021000  1
  C  C3  1  0.78702900  0.63257900  0.07062600  1
  C  C4  1  0.40136300  0.84652200  0.11204300  1
  C  C5  1  0.85456500  0.55569000  0.36709000  1
  C  C6  1  0.59863700  0.15347800  0.88795700  1
  C  C7  1  0.14543500  0.44431000  0.63291000  1
  Ni  Ni8  1  0.69557700  0.83477900  0.72316500  1
  Ni  Ni9  1  0.03025000  0.97990600  0.76058200  1
  Ni  Ni10  1  0.30442300  0.16522100  0.27683500  1
  Ni  Ni11  1  0.96975000  0.02009400  0.23941800  1
  Cu  Cu12  1  0.88465400  0.17513500  0.14012300  1
  Cu  Cu13  1  0.84414700  0.08647500  0.35240300  1
  Cu  Cu14  1  0.15585300  0.91352500  0.64759700  1
  Cu  Cu15  1  0.69725700  0.63803800  0.80875400  1
  Cu  Cu16  1  0.72347300  0.73434800  0.59802000  1
  Cu  Cu17  1  0.27652700  0.26565200  0.40198000  1
  Cu  Cu18  1  0.11534600  0.82486500  0.85987700  1
  Cu  Cu19  1  0.30274300  0.36196200  0.19124600  1
  C  C20  1  0.96270000  0.51767400  0.07791100  1
  C  C21  1  0.45650500  0.11576000  0.79954900  1
  C  C22  1  0.87153300  0.74968100  0.15505400  1
  C  C23  1  0.84009500  0.71775500  0.30978500  1
  C  C24  1  0.78049800  0.66003100  0.44679700  1
  C  C25  1  0.22839600  0.93462000  0.15300600  1
  C  C26  1  0.03729300  0.53480600  0.70632200  1
  C  C27  1  0.64449200  0.46318000  0.33307100  1
  C  C28  1  0.48684000  0.10851200  0.58620200  1
  C  C29  1  0.32960400  0.66454700  0.14546700  1
  C  C30  1  0.33970300  0.48921300  0.87011100  1
  C  C31  1  0.23872300  0.86994200  0.49120600  1
  C  C32  1  0.35230800  0.65897500  0.32690500  1
  C  C33  1  0.15990500  0.28224500  0.69021500  1
  C  C34  1  0.51316000  0.89148800  0.41379800  1
  C  C35  1  0.50989600  0.97672800  0.92158300  1
  C  C36  1  0.20297100  0.89451900  0.34525500  1
  C  C37  1  0.64769200  0.34102500  0.67309500  1
  C  C38  1  0.67039600  0.33545300  0.85453300  1
  C  C39  1  0.11420900  0.22835500  0.98913400  1
  C  C40  1  0.41048100  0.24168200  0.93292900  1
  C  C41  1  0.88579100  0.77164500  0.01086600  1
  C  C42  1  0.60401300  0.36325100  0.52590100  1
  C  C43  1  0.72186200  0.19954900  0.98030000  1
  C  C44  1  0.90435400  0.41088600  0.43237700  1
  C  C45  1  0.12846700  0.25031900  0.84494600  1
  C  C46  1  0.76127700  0.13005800  0.50879400  1
  C  C47  1  0.03730000  0.48232600  0.92208900  1
  C  C48  1  0.08917400  0.64978400  0.40647600  1
  C  C49  1  0.09564600  0.58911400  0.56762300  1
  C  C50  1  0.58951900  0.75831800  0.06707100  1
  C  C51  1  0.27813800  0.80045100  0.01970000  1
  C  C52  1  0.54349500  0.88424000  0.20045100  1
  C  C53  1  0.49010400  0.02327200  0.07841700  1
  C  C54  1  0.21950200  0.33996900  0.55320300  1
  C  C55  1  0.39598700  0.63674900  0.47409900  1
  C  C56  1  0.32393900  0.46058000  0.01620200  1
  C  C57  1  0.77160400  0.06538000  0.84699400  1
  C  C58  1  0.66029700  0.51078700  0.12988900  1
  C  C59  1  0.35550800  0.53682000  0.66692900  1
  C  C60  1  0.67606100  0.53942000  0.98379800  1
  C  C61  1  0.96270700  0.46519400  0.29367800  1
  C  C62  1  0.79702900  0.10548100  0.65474500  1
  C  C63  1  0.91082600  0.35021600  0.59352400  1
