# generated using pymatgen
data_Cu2NiC4
_symmetry_space_group_name_H-M   'P 1'
_cell_length_a   3.92475875
_cell_length_b   3.92475875
_cell_length_c   25.30956600
_cell_angle_alpha   90.00000000
_cell_angle_beta   90.00000000
_cell_angle_gamma   120.00001268
_symmetry_Int_Tables_number   1
_chemical_formula_structural   Cu2NiC4
_chemical_formula_sum   'Cu4 Ni2 C8'
_cell_volume   337.63013894
_cell_formula_units_Z   2
loop_
 _symmetry_equiv_pos_site_id
 _symmetry_equiv_pos_as_xyz
  1  'x, y, z'
loop_
 _atom_site_type_symbol
 _atom_site_label
 _atom_site_symmetry_multiplicity
 _atom_site_fract_x
 _atom_site_fract_y
 _atom_site_fract_z
 _atom_site_occupancy
  Ni  Ni0  1  0.00000000  0.00000000  0.91188900  1
  Ni  Ni1  1  0.00000000  0.00000000  0.41188900  1
  Cu  Cu2  1  0.66666700  0.33333300  0.59735500  1
  Cu  Cu3  1  0.33333300  0.66666700  0.09735500  1
  Cu  Cu4  1  0.33333300  0.66666700  0.75556200  1
  Cu  Cu5  1  0.66666700  0.33333300  0.25556200  1
  C  C6  1  0.33333300  0.66666700  0.93172300  1
  C  C7  1  0.66666700  0.33333300  0.43172300  1
  C  C8  1  0.66666700  0.33333300  0.69435800  1
  C  C9  1  0.00000000  0.00000000  0.80514000  1
  C  C10  1  0.00000000  0.00000000  0.05447300  1
  C  C11  1  0.33333300  0.66666700  0.19435800  1
  C  C12  1  0.00000000  0.00000000  0.30514000  1
  C  C13  1  0.00000000  0.00000000  0.55447300  1
