# generated using pymatgen
data_Cu5NiC2
_symmetry_space_group_name_H-M   'P 1'
_cell_length_a   7.12891100
_cell_length_b   10.70511300
_cell_length_c   11.25697400
_cell_angle_alpha   90.00000000
_cell_angle_beta   90.00000000
_cell_angle_gamma   90.00000000
_symmetry_Int_Tables_number   1
_chemical_formula_structural   Cu5NiC2
_chemical_formula_sum   'Cu40 Ni8 C16'
_cell_volume   859.08495187
_cell_formula_units_Z   8
loop_
 _symmetry_equiv_pos_site_id
 _symmetry_equiv_pos_as_xyz
  1  'x, y, z'
loop_
 _atom_site_type_symbol
 _atom_site_label
 _atom_site_symmetry_multiplicity
 _atom_site_fract_x
 _atom_site_fract_y
 _atom_site_fract_z
 _atom_site_occupancy
  C  C0  1  0.01544000  0.49003700  0.17207600  1
  C  C1  1  0.01544000  0.99003700  0.32792400  1
  C  C2  1  0.51544000  0.00996300  0.17207600  1
  C  C3  1  0.51544000  0.50996300  0.32792400  1
  C  C4  1  0.48456000  0.99003700  0.82792400  1
  C  C5  1  0.48456000  0.49003700  0.67207600  1
  C  C6  1  0.98456000  0.50996300  0.82792400  1
  C  C7  1  0.98456000  0.00996300  0.67207600  1
  C  C8  1  0.40349200  0.63188000  0.01632800  1
  C  C9  1  0.09650800  0.13188000  0.98367200  1
  C  C10  1  0.40349200  0.13188000  0.48367200  1
  C  C11  1  0.59650800  0.36812000  0.98367200  1
  C  C12  1  0.90349200  0.36812000  0.48367200  1
  C  C13  1  0.90349200  0.86812000  0.01632800  1
  C  C14  1  0.09650800  0.63188000  0.51632800  1
  C  C15  1  0.59650800  0.86812000  0.51632800  1
  Ni  Ni16  1  0.26345900  0.25642200  0.73953500  1
  Ni  Ni17  1  0.73654100  0.24357800  0.23953500  1
  Ni  Ni18  1  0.23654100  0.25642200  0.23953500  1
  Ni  Ni19  1  0.76345900  0.24357800  0.73953500  1
  Ni  Ni20  1  0.73654100  0.74357800  0.26046500  1
  Ni  Ni21  1  0.76345900  0.74357800  0.76046500  1
  Ni  Ni22  1  0.23654100  0.75642200  0.26046500  1
  Ni  Ni23  1  0.26345900  0.75642200  0.76046500  1
  Cu  Cu24  1  0.01886400  0.47419900  0.60924800  1
  Cu  Cu25  1  0.35559400  0.27516100  0.64051500  1
  Cu  Cu26  1  0.51886400  0.52580100  0.89075200  1
  Cu  Cu27  1  0.64440600  0.22483900  0.14051500  1
  Cu  Cu28  1  0.72556000  0.64970900  0.69436300  1
  Cu  Cu29  1  0.15647300  0.57836200  0.99780000  1
  Cu  Cu30  1  0.22556000  0.85029100  0.69436300  1
  Cu  Cu31  1  0.98113600  0.02580100  0.10924800  1
  Cu  Cu32  1  0.72556000  0.14970900  0.80563700  1
  Cu  Cu33  1  0.35559400  0.77516100  0.85948500  1
  Cu  Cu34  1  0.78129600  0.85744000  0.22929700  1
  Cu  Cu35  1  0.85559400  0.72483900  0.85948500  1
  Cu  Cu36  1  0.34352700  0.57836200  0.49780000  1
  Cu  Cu37  1  0.22556000  0.35029100  0.80563700  1
  Cu  Cu38  1  0.85559400  0.22483900  0.64051500  1
  Cu  Cu39  1  0.14440600  0.27516100  0.14051500  1
  Cu  Cu40  1  0.64440600  0.72483900  0.35948500  1
  Cu  Cu41  1  0.77444000  0.14970900  0.30563700  1
  Cu  Cu42  1  0.01886400  0.97419900  0.89075200  1
  Cu  Cu43  1  0.78129600  0.35744000  0.27070300  1
  Cu  Cu44  1  0.28129600  0.14256000  0.27070300  1
  Cu  Cu45  1  0.84352700  0.42163800  0.00220000  1
  Cu  Cu46  1  0.21870400  0.64256000  0.72929700  1
  Cu  Cu47  1  0.71870400  0.35744000  0.77070300  1
  Cu  Cu48  1  0.65647300  0.92163800  0.99780000  1
  Cu  Cu49  1  0.27444000  0.35029100  0.30563700  1
  Cu  Cu50  1  0.77444000  0.64970900  0.19436300  1
  Cu  Cu51  1  0.48113600  0.47419900  0.10924800  1
  Cu  Cu52  1  0.27444000  0.85029100  0.19436300  1
  Cu  Cu53  1  0.65647300  0.42163800  0.50220000  1
  Cu  Cu54  1  0.21870400  0.14256000  0.77070300  1
  Cu  Cu55  1  0.15647300  0.07836200  0.50220000  1
  Cu  Cu56  1  0.98113600  0.52580100  0.39075200  1
  Cu  Cu57  1  0.34352700  0.07836200  0.00220000  1
  Cu  Cu58  1  0.28129600  0.64256000  0.22929700  1
  Cu  Cu59  1  0.84352700  0.92163800  0.49780000  1
  Cu  Cu60  1  0.71870400  0.85744000  0.72929700  1
  Cu  Cu61  1  0.48113600  0.97419900  0.39075200  1
  Cu  Cu62  1  0.51886400  0.02580100  0.60924800  1
  Cu  Cu63  1  0.14440600  0.77516100  0.35948500  1
