# generated using pymatgen
data_Cu2Ni4C21
_symmetry_space_group_name_H-M   'P 1'
_cell_length_a   12.06449500
_cell_length_b   8.38590100
_cell_length_c   17.06171156
_cell_angle_alpha   65.90744032
_cell_angle_beta   90.00000000
_cell_angle_gamma   90.00000000
_symmetry_Int_Tables_number   1
_chemical_formula_structural   Cu2Ni4C21
_chemical_formula_sum   'Cu8 Ni16 C84'
_cell_volume   1575.79090492
_cell_formula_units_Z   4
loop_
 _symmetry_equiv_pos_site_id
 _symmetry_equiv_pos_as_xyz
  1  'x, y, z'
loop_
 _atom_site_type_symbol
 _atom_site_label
 _atom_site_symmetry_multiplicity
 _atom_site_fract_x
 _atom_site_fract_y
 _atom_site_fract_z
 _atom_site_occupancy
  C  C0  1  0.20586900  0.23904300  0.04791700  1
  C  C1  1  0.70586900  0.76095700  0.45208300  1
  C  C2  1  0.29413100  0.23904300  0.54791700  1
  C  C3  1  0.79413100  0.76095700  0.95208300  1
  C  C4  1  0.70266600  0.03052700  0.65550100  1
  C  C5  1  0.71877300  0.30969900  0.07015600  1
  C  C6  1  0.78587300  0.17866900  0.51626700  1
  C  C7  1  0.60651200  0.48962900  0.34512000  1
  C  C8  1  0.21877300  0.69030100  0.42984400  1
  C  C9  1  0.02215700  0.46066600  0.88289600  1
  C  C10  1  0.47784300  0.46066600  0.38289600  1
  C  C11  1  0.49245300  0.73959100  0.26818200  1
  C  C12  1  0.45509000  0.36094200  0.79997600  1
  C  C13  1  0.32905400  0.07224300  0.85441100  1
  C  C14  1  0.96227700  0.19369700  0.88088400  1
  C  C15  1  0.05120100  0.65028500  0.50893100  1
  C  C16  1  0.67274400  0.06509100  0.20363500  1
  C  C17  1  0.92565700  0.30685100  0.76973100  1
  C  C18  1  0.89348800  0.48962900  0.84512000  1
  C  C19  1  0.97528800  0.26180300  0.60447900  1
  C  C20  1  0.47528800  0.73819700  0.89552100  1
  C  C21  1  0.28587300  0.82133100  0.98373300  1
  C  C22  1  0.52009900  0.12171300  0.04835200  1
  C  C23  1  0.46227700  0.80630300  0.61911600  1
  C  C24  1  0.03772300  0.80630300  0.11911600  1
  C  C25  1  0.52471200  0.26180300  0.10447900  1
  C  C26  1  0.47990100  0.87828700  0.95164800  1
  C  C27  1  0.54491000  0.63905800  0.20002400  1
  C  C28  1  0.50754700  0.26040900  0.73181800  1
  C  C29  1  0.42565700  0.69314900  0.73026900  1
  C  C30  1  0.09622800  0.60403600  0.73705200  1
  C  C31  1  0.82725600  0.06509100  0.70363500  1
  C  C32  1  0.99245300  0.26040900  0.23181800  1
  C  C33  1  0.95509000  0.63905800  0.70002400  1
  C  C34  1  0.82905400  0.92775700  0.64558900  1
  C  C35  1  0.71412700  0.17866900  0.01626700  1
  C  C36  1  0.59622800  0.39596400  0.76294800  1
  C  C37  1  0.56886700  0.71169000  0.69873900  1
  C  C38  1  0.32725600  0.93490900  0.79636500  1
  C  C39  1  0.17274400  0.93490900  0.29636500  1
  C  C40  1  0.97784300  0.53933400  0.11710400  1
  C  C41  1  0.02009900  0.87828700  0.45164800  1
  C  C42  1  0.06886700  0.28831000  0.80126100  1
  C  C43  1  0.78122700  0.30969900  0.57015600  1
  C  C44  1  0.67094600  0.92775700  0.14558900  1
  C  C45  1  0.21412700  0.82133100  0.48373300  1
  C  C46  1  0.00754700  0.73959100  0.76818200  1
  C  C47  1  0.93113300  0.71169000  0.19873900  1
  C  C48  1  0.28122700  0.69030100  0.92984400  1
  C  C49  1  0.07434300  0.69314900  0.23026900  1
  C  C50  1  0.39348800  0.51037100  0.65488000  1
  C  C51  1  0.94879900  0.34971500  0.49106900  1
  C  C52  1  0.57434300  0.30685100  0.26973100  1
  C  C53  1  0.53772300  0.19369700  0.38088400  1
  C  C54  1  0.97990100  0.12171300  0.54835200  1
  C  C55  1  0.79733400  0.03052700  0.15550100  1
  C  C56  1  0.44879900  0.65028500  0.00893100  1
  C  C57  1  0.40377200  0.60403600  0.23705200  1
  C  C58  1  0.02471200  0.73819700  0.39552100  1
  C  C59  1  0.17094600  0.07224300  0.35441100  1
  C  C60  1  0.52215700  0.53933400  0.61710400  1
  C  C61  1  0.43113300  0.28831000  0.30126100  1
  C  C62  1  0.20266600  0.96947300  0.84449900  1
  C  C63  1  0.90377200  0.39596400  0.26294800  1
  C  C64  1  0.10651200  0.51037100  0.15488000  1
  C  C65  1  0.29733400  0.96947300  0.34449900  1
  C  C66  1  0.04491000  0.36094200  0.29997600  1
  C  C67  1  0.55120100  0.34971500  0.99106900  1
  C  C68  1  0.06061100  0.76465000  0.44797900  1
  C  C69  1  0.20712400  0.95554700  0.35092200  1
  C  C70  1  0.51115300  0.37523300  0.74694600  1
  C  C71  1  0.56061100  0.23535000  0.05202100  1
  C  C72  1  0.93938900  0.23535000  0.55202100  1
  C  C73  1  0.48371900  0.69821200  0.67995300  1
  C  C74  1  0.29287600  0.95554700  0.85092200  1
  C  C75  1  0.98371900  0.30178800  0.82004700  1
  C  C76  1  0.79287600  0.04445300  0.64907800  1
  C  C77  1  0.98884700  0.37523300  0.24694600  1
  C  C78  1  0.01115300  0.62476700  0.75305400  1
  C  C79  1  0.01628100  0.69821200  0.17995300  1
  C  C80  1  0.48884700  0.62476700  0.25305400  1
  C  C81  1  0.70712400  0.04445300  0.14907800  1
  C  C82  1  0.43938900  0.76465000  0.94797900  1
  C  C83  1  0.51628100  0.30178800  0.32004700  1
  Ni  Ni84  1  0.20575200  0.92868900  0.59312900  1
  Ni  Ni85  1  0.26648400  0.44839600  0.88888300  1
  Ni  Ni86  1  0.78082200  0.60200800  0.35672600  1
  Ni  Ni87  1  0.71917800  0.60200800  0.85672600  1
  Ni  Ni88  1  0.76648400  0.55160400  0.61111700  1
  Ni  Ni89  1  0.28082200  0.39799200  0.14327400  1
  Ni  Ni90  1  0.73351600  0.55160400  0.11111700  1
  Ni  Ni91  1  0.98866700  0.22682600  0.05845400  1
  Ni  Ni92  1  0.79424800  0.07131100  0.40687100  1
  Ni  Ni93  1  0.23351600  0.44839600  0.38888300  1
  Ni  Ni94  1  0.21917800  0.39799200  0.64327400  1
  Ni  Ni95  1  0.01133300  0.77317400  0.94154600  1
  Ni  Ni96  1  0.29424800  0.92868900  0.09312900  1
  Ni  Ni97  1  0.48866700  0.77317400  0.44154600  1
  Ni  Ni98  1  0.51133300  0.22682600  0.55845400  1
  Ni  Ni99  1  0.70575200  0.07131100  0.90687100  1
  Cu  Cu100  1  0.68135300  0.19905200  0.06815900  1
  Cu  Cu101  1  0.52477300  0.46945300  0.33048300  1
  Cu  Cu102  1  0.97522700  0.46945300  0.83048300  1
  Cu  Cu103  1  0.81864700  0.19905200  0.56815900  1
  Cu  Cu104  1  0.18135300  0.80094800  0.43184100  1
  Cu  Cu105  1  0.31864700  0.80094800  0.93184100  1
  Cu  Cu106  1  0.47522700  0.53054700  0.66951700  1
  Cu  Cu107  1  0.02477300  0.53054700  0.16951700  1
