# generated using pymatgen
data_CuNiC
_symmetry_space_group_name_H-M   'P 1'
_cell_length_a   7.30770820
_cell_length_b   7.30770820
_cell_length_c   18.41846100
_cell_angle_alpha   90.00000000
_cell_angle_beta   90.00000000
_cell_angle_gamma   120.00000179
_symmetry_Int_Tables_number   1
_chemical_formula_structural   CuNiC
_chemical_formula_sum   'Cu12 Ni12 C12'
_cell_volume   851.81710624
_cell_formula_units_Z   12
loop_
 _symmetry_equiv_pos_site_id
 _symmetry_equiv_pos_as_xyz
  1  'x, y, z'
loop_
 _atom_site_type_symbol
 _atom_site_label
 _atom_site_symmetry_multiplicity
 _atom_site_fract_x
 _atom_site_fract_y
 _atom_site_fract_z
 _atom_site_occupancy
  C  C0  1  0.66666700  0.33333300  0.44546000  1
  C  C1  1  0.33333300  0.66666700  0.55454000  1
  C  C2  1  0.66666700  0.33333300  0.05454000  1
  C  C3  1  0.33333300  0.66666700  0.94546000  1
  C  C4  1  0.00000000  0.00000000  0.50000000  1
  C  C5  1  0.00000000  0.00000000  0.00000000  1
  C  C6  1  0.65169400  0.82584700  0.25000000  1
  C  C7  1  0.82584700  0.17415300  0.75000000  1
  C  C8  1  0.17415300  0.82584700  0.25000000  1
  C  C9  1  0.82584700  0.65169400  0.75000000  1
  C  C10  1  0.17415300  0.34830600  0.25000000  1
  C  C11  1  0.34830600  0.17415300  0.75000000  1
  Ni  Ni12  1  0.83025800  0.66051600  0.64194500  1
  Ni  Ni13  1  0.33948400  0.16974200  0.85805500  1
  Ni  Ni14  1  0.83025800  0.16974200  0.64194500  1
  Ni  Ni15  1  0.16974200  0.83025800  0.14194500  1
  Ni  Ni16  1  0.16974200  0.33948400  0.35805500  1
  Ni  Ni17  1  0.66051600  0.83025800  0.35805500  1
  Ni  Ni18  1  0.16974200  0.33948400  0.14194500  1
  Ni  Ni19  1  0.16974200  0.83025800  0.35805500  1
  Ni  Ni20  1  0.83025800  0.16974200  0.85805500  1
  Ni  Ni21  1  0.33948400  0.16974200  0.64194500  1
  Ni  Ni22  1  0.83025800  0.66051600  0.85805500  1
  Ni  Ni23  1  0.66051600  0.83025800  0.14194500  1
  Cu  Cu24  1  0.83653000  0.67306100  0.57835900  1
  Cu  Cu25  1  0.16347000  0.32693900  0.07835900  1
  Cu  Cu26  1  0.32693900  0.16347000  0.57835900  1
  Cu  Cu27  1  0.83653000  0.16347000  0.92164100  1
  Cu  Cu28  1  0.67306100  0.83653000  0.42164100  1
  Cu  Cu29  1  0.83653000  0.16347000  0.57835900  1
  Cu  Cu30  1  0.32693900  0.16347000  0.92164100  1
  Cu  Cu31  1  0.16347000  0.83653000  0.42164100  1
  Cu  Cu32  1  0.67306100  0.83653000  0.07835900  1
  Cu  Cu33  1  0.16347000  0.32693900  0.42164100  1
  Cu  Cu34  1  0.16347000  0.83653000  0.07835900  1
  Cu  Cu35  1  0.83653000  0.67306100  0.92164100  1
