# generated using pymatgen
data_Cu14Ni3C7
_symmetry_space_group_name_H-M   'P 1'
_cell_length_a   14.32841355
_cell_length_b   14.32841355
_cell_length_c   9.13561600
_cell_angle_alpha   90.00000000
_cell_angle_beta   90.00000000
_cell_angle_gamma   119.99999792
_symmetry_Int_Tables_number   1
_chemical_formula_structural   Cu14Ni3C7
_chemical_formula_sum   'Cu28 Ni6 C14'
_cell_volume   1624.29419684
_cell_formula_units_Z   2
loop_
 _symmetry_equiv_pos_site_id
 _symmetry_equiv_pos_as_xyz
  1  'x, y, z'
loop_
 _atom_site_type_symbol
 _atom_site_label
 _atom_site_symmetry_multiplicity
 _atom_site_fract_x
 _atom_site_fract_y
 _atom_site_fract_z
 _atom_site_occupancy
  C  C0  1  0.24352800  0.79227800  0.25000000  1
  C  C1  1  0.45124900  0.24352800  0.75000000  1
  C  C2  1  0.54875100  0.79227800  0.75000000  1
  C  C3  1  0.79227800  0.54875100  0.75000000  1
  C  C4  1  0.75647200  0.54875100  0.25000000  1
  C  C5  1  0.24352800  0.45124900  0.75000000  1
  C  C6  1  0.79227800  0.24352800  0.25000000  1
  C  C7  1  0.75647200  0.20772200  0.75000000  1
  C  C8  1  0.20772200  0.45124900  0.25000000  1
  C  C9  1  0.20772200  0.75647200  0.75000000  1
  C  C10  1  0.54875100  0.75647200  0.25000000  1
  C  C11  1  0.45124900  0.20772200  0.25000000  1
  C  C12  1  0.00000000  0.00000000  0.50000000  1
  C  C13  1  0.00000000  0.00000000  0.00000000  1
  Ni  Ni14  1  0.80766900  0.00000000  0.25000000  1
  Ni  Ni15  1  0.80766900  0.80766900  0.75000000  1
  Ni  Ni16  1  0.00000000  0.80766900  0.25000000  1
  Ni  Ni17  1  0.19233100  0.00000000  0.75000000  1
  Ni  Ni18  1  0.19233100  0.19233100  0.25000000  1
  Ni  Ni19  1  0.00000000  0.19233100  0.75000000  1
  Cu  Cu20  1  0.17194100  0.00000000  0.25000000  1
  Cu  Cu21  1  0.33333300  0.66666700  0.00000000  1
  Cu  Cu22  1  0.00000000  0.31813300  0.52607300  1
  Cu  Cu23  1  0.82805900  0.00000000  0.75000000  1
  Cu  Cu24  1  0.68186700  0.68186700  0.97392700  1
  Cu  Cu25  1  0.31813300  0.00000000  0.97392700  1
  Cu  Cu26  1  0.00000000  0.17194100  0.25000000  1
  Cu  Cu27  1  0.00000000  0.68186700  0.47392700  1
  Cu  Cu28  1  0.00000000  0.68186700  0.02607300  1
  Cu  Cu29  1  0.00000000  0.46762300  0.75000000  1
  Cu  Cu30  1  0.31813300  0.31813300  0.02607300  1
  Cu  Cu31  1  0.82805900  0.82805900  0.25000000  1
  Cu  Cu32  1  0.46762300  0.00000000  0.75000000  1
  Cu  Cu33  1  0.68186700  0.00000000  0.02607300  1
  Cu  Cu34  1  0.66666700  0.33333300  0.50000000  1
  Cu  Cu35  1  0.66666700  0.33333300  0.00000000  1
  Cu  Cu36  1  0.68186700  0.00000000  0.47392700  1
  Cu  Cu37  1  0.53237700  0.53237700  0.75000000  1
  Cu  Cu38  1  0.46762300  0.46762300  0.25000000  1
  Cu  Cu39  1  0.31813300  0.00000000  0.52607300  1
  Cu  Cu40  1  0.68186700  0.68186700  0.52607300  1
  Cu  Cu41  1  0.00000000  0.31813300  0.97392700  1
  Cu  Cu42  1  0.33333300  0.66666700  0.50000000  1
  Cu  Cu43  1  0.31813300  0.31813300  0.47392700  1
  Cu  Cu44  1  0.00000000  0.53237700  0.25000000  1
  Cu  Cu45  1  0.53237700  0.00000000  0.25000000  1
  Cu  Cu46  1  0.00000000  0.82805900  0.75000000  1
  Cu  Cu47  1  0.17194100  0.17194100  0.75000000  1
