# generated using pymatgen
data_CuNiC6
_symmetry_space_group_name_H-M   'P 1'
_cell_length_a   4.92648300
_cell_length_b   8.79472600
_cell_length_c   17.07390617
_cell_angle_alpha   83.94905737
_cell_angle_beta   90.00000000
_cell_angle_gamma   90.00000000
_symmetry_Int_Tables_number   1
_chemical_formula_structural   CuNiC6
_chemical_formula_sum   'Cu8 Ni8 C48'
_cell_volume   735.64075780
_cell_formula_units_Z   8
loop_
 _symmetry_equiv_pos_site_id
 _symmetry_equiv_pos_as_xyz
  1  'x, y, z'
loop_
 _atom_site_type_symbol
 _atom_site_label
 _atom_site_symmetry_multiplicity
 _atom_site_fract_x
 _atom_site_fract_y
 _atom_site_fract_z
 _atom_site_occupancy
  C  C0  1  0.71257200  0.42972300  0.34770200  1
  C  C1  1  0.78742800  0.42972300  0.84770200  1
  C  C2  1  0.29494300  0.66723000  0.44195900  1
  C  C3  1  0.50503500  0.93419100  0.17736300  1
  C  C4  1  0.79494300  0.33277000  0.05804100  1
  C  C5  1  0.00503500  0.06580900  0.32263700  1
  C  C6  1  0.99496500  0.93419100  0.67736300  1
  C  C7  1  0.49496500  0.06580900  0.82263700  1
  C  C8  1  0.70505700  0.33277000  0.55804100  1
  C  C9  1  0.28742800  0.57027700  0.65229800  1
  C  C10  1  0.21257200  0.57027700  0.15229800  1
  C  C11  1  0.20505700  0.66723000  0.94195900  1
  Ni  Ni12  1  0.21110100  0.31285700  0.44585300  1
  Ni  Ni13  1  0.78889900  0.68714300  0.55414700  1
  Ni  Ni14  1  0.51386900  0.23738500  0.22015100  1
  Ni  Ni15  1  0.48613100  0.76261500  0.77984900  1
  Ni  Ni16  1  0.98613100  0.23738500  0.72015100  1
  Ni  Ni17  1  0.28889900  0.31285700  0.94585300  1
  Ni  Ni18  1  0.01386900  0.76261500  0.27984900  1
  Ni  Ni19  1  0.71110100  0.68714300  0.05414700  1
  Cu  Cu20  1  0.79649000  0.91285300  0.93276500  1
  Cu  Cu21  1  0.70351000  0.91285300  0.43276500  1
  Cu  Cu22  1  0.44794000  0.92742700  0.59341700  1
  Cu  Cu23  1  0.55206000  0.07257300  0.40658300  1
  Cu  Cu24  1  0.05206000  0.92742700  0.09341700  1
  Cu  Cu25  1  0.94794000  0.07257300  0.90658300  1
  Cu  Cu26  1  0.20351000  0.08714700  0.06723500  1
  Cu  Cu27  1  0.29649000  0.08714700  0.56723500  1
  C  C28  1  0.90377100  0.35764000  0.45314300  1
  C  C29  1  0.26226200  0.74499200  0.71551400  1
  C  C30  1  0.25164900  0.18039100  0.89635600  1
  C  C31  1  0.24835100  0.18039100  0.39635600  1
  C  C32  1  0.64522700  0.61278300  0.79070800  1
  C  C33  1  0.14392100  0.46022400  0.90390900  1
  C  C34  1  0.85607900  0.53977600  0.09609100  1
  C  C35  1  0.09622900  0.64236000  0.54685700  1
  C  C36  1  0.35477300  0.38721700  0.20929200  1
  C  C37  1  0.76809900  0.02214400  0.91380400  1
  C  C38  1  0.33015500  0.27722200  0.52963200  1
  C  C39  1  0.67075300  0.90377400  0.75542800  1
  C  C40  1  0.40377100  0.64236000  0.04685700  1
  C  C41  1  0.26809900  0.97785600  0.58619600  1
  C  C42  1  0.23190100  0.97785600  0.08619600  1
  C  C43  1  0.15816100  0.80756600  0.35562800  1
  C  C44  1  0.35607900  0.46022400  0.40390900  1
  C  C45  1  0.65816100  0.19243400  0.14437200  1
  C  C46  1  0.59622900  0.35764000  0.95314300  1
  C  C47  1  0.75164900  0.81960900  0.60364400  1
  C  C48  1  0.85477300  0.61278300  0.29070800  1
  C  C49  1  0.82924700  0.90377400  0.25542800  1
  C  C50  1  0.32924700  0.09622600  0.24457200  1
  C  C51  1  0.66984500  0.72277800  0.47036800  1
  C  C52  1  0.84183900  0.19243400  0.64437200  1
  C  C53  1  0.64392100  0.53977600  0.59609100  1
  C  C54  1  0.73190100  0.02214400  0.41380400  1
  C  C55  1  0.16984500  0.27722200  0.02963200  1
  C  C56  1  0.23773800  0.74499200  0.21551400  1
  C  C57  1  0.17075300  0.09622600  0.74457200  1
  C  C58  1  0.34183900  0.80756600  0.85562800  1
  C  C59  1  0.83015500  0.72277800  0.97036800  1
  C  C60  1  0.14522700  0.38721700  0.70929200  1
  C  C61  1  0.73773800  0.25500800  0.28448600  1
  C  C62  1  0.76226200  0.25500800  0.78448600  1
  C  C63  1  0.74835100  0.81960900  0.10364400  1
