# generated using pymatgen
data_CuNi2C5
_symmetry_space_group_name_H-M   'P 1'
_cell_length_a   5.63563600
_cell_length_b   7.20385276
_cell_length_c   7.93487123
_cell_angle_alpha   106.00960333
_cell_angle_beta   89.89984082
_cell_angle_gamma   101.13217179
_symmetry_Int_Tables_number   1
_chemical_formula_structural   CuNi2C5
_chemical_formula_sum   'Cu4 Ni8 C20'
_cell_volume   303.36855725
_cell_formula_units_Z   4
loop_
 _symmetry_equiv_pos_site_id
 _symmetry_equiv_pos_as_xyz
  1  'x, y, z'
loop_
 _atom_site_type_symbol
 _atom_site_label
 _atom_site_symmetry_multiplicity
 _atom_site_fract_x
 _atom_site_fract_y
 _atom_site_fract_z
 _atom_site_occupancy
  Ni  Ni0  1  0.83499100  0.88800900  0.08262300  1
  Ni  Ni1  1  0.16500900  0.11199100  0.91737700  1
  Ni  Ni2  1  0.35971000  0.90016000  0.61368900  1
  Ni  Ni3  1  0.64029000  0.09984000  0.38631100  1
  Ni  Ni4  1  0.04965600  0.70286900  0.30124600  1
  Ni  Ni5  1  0.95034400  0.29713100  0.69875400  1
  Ni  Ni6  1  0.54195800  0.67500300  0.29598100  1
  Ni  Ni7  1  0.45804200  0.32499700  0.70401900  1
  Cu  Cu8  1  0.81097700  0.70917000  0.66850000  1
  Cu  Cu9  1  0.18902300  0.29083000  0.33150000  1
  Cu  Cu10  1  0.29327100  0.70399700  0.93509100  1
  Cu  Cu11  1  0.70672900  0.29600300  0.06490900  1
  C  C12  1  0.24403700  0.49801900  0.76994700  1
  C  C13  1  0.75596300  0.50198100  0.23005300  1
  C  C14  1  0.75534200  0.49867900  0.72363400  1
  C  C15  1  0.24465800  0.50132100  0.27636600  1
  C  C16  1  0.53377700  0.70955000  0.05318400  1
  C  C17  1  0.46622300  0.29045000  0.94681600  1
  C  C18  1  0.57211200  0.71869100  0.55539200  1
  C  C19  1  0.42788800  0.28130900  0.44460800  1
  C  C20  1  0.36105700  0.87767300  0.37001700  1
  C  C21  1  0.63894300  0.12232700  0.62998300  1
  C  C22  1  0.33231200  0.89105300  0.84708300  1
  C  C23  1  0.66768800  0.10894700  0.15291700  1
  C  C24  1  0.12840400  0.11004600  0.14645800  1
  C  C25  1  0.87159600  0.88995400  0.85354200  1
  C  C26  1  0.18161000  0.12320200  0.68603100  1
  C  C27  1  0.81839000  0.87679800  0.31396900  1
  C  C28  1  0.95524000  0.27393200  0.45477200  1
  C  C29  1  0.04476000  0.72606800  0.54522800  1
  C  C30  1  0.93449600  0.28238300  0.93468000  1
  C  C31  1  0.06550400  0.71761700  0.06532000  1
