# generated using pymatgen
data_CuNiC5
_symmetry_space_group_name_H-M   'P 1'
_cell_length_a   5.82383200
_cell_length_b   7.06388900
_cell_length_c   8.17251100
_cell_angle_alpha   90.00000000
_cell_angle_beta   90.00000000
_cell_angle_gamma   90.00000000
_symmetry_Int_Tables_number   1
_chemical_formula_structural   CuNiC5
_chemical_formula_sum   'Cu4 Ni4 C20'
_cell_volume   336.20813568
_cell_formula_units_Z   4
loop_
 _symmetry_equiv_pos_site_id
 _symmetry_equiv_pos_as_xyz
  1  'x, y, z'
loop_
 _atom_site_type_symbol
 _atom_site_label
 _atom_site_symmetry_multiplicity
 _atom_site_fract_x
 _atom_site_fract_y
 _atom_site_fract_z
 _atom_site_occupancy
  Ni  Ni0  1  0.00000000  0.50000000  0.50000000  1
  Ni  Ni1  1  0.00000000  0.00000000  0.00000000  1
  Ni  Ni2  1  0.50000000  0.00000000  0.00000000  1
  Ni  Ni3  1  0.50000000  0.50000000  0.50000000  1
  Cu  Cu4  1  0.75000000  0.72732600  0.75777100  1
  Cu  Cu5  1  0.75000000  0.22732600  0.74222900  1
  Cu  Cu6  1  0.25000000  0.77267400  0.25777100  1
  Cu  Cu7  1  0.25000000  0.27267400  0.24222900  1
  C  C8  1  0.25000000  0.06461000  0.64005700  1
  C  C9  1  0.25000000  0.56461000  0.85994300  1
  C  C10  1  0.75000000  0.93539000  0.35994300  1
  C  C11  1  0.75000000  0.43539000  0.14005700  1
  C  C12  1  0.95516600  0.17196200  0.81530000  1
  C  C13  1  0.95516600  0.67196200  0.68470000  1
  C  C14  1  0.45516600  0.32803800  0.31530000  1
  C  C15  1  0.75000000  0.09819400  0.10890800  1
  C  C16  1  0.04483400  0.32803800  0.31530000  1
  C  C17  1  0.25000000  0.90180600  0.89109200  1
  C  C18  1  0.75000000  0.33263300  0.59895400  1
  C  C19  1  0.25000000  0.16736700  0.09895400  1
  C  C20  1  0.54483400  0.17196200  0.81530000  1
  C  C21  1  0.04483400  0.82803800  0.18470000  1
  C  C22  1  0.25000000  0.66736700  0.40104600  1
  C  C23  1  0.75000000  0.59819400  0.39109200  1
  C  C24  1  0.54483400  0.67196200  0.68470000  1
  C  C25  1  0.75000000  0.83263300  0.90104600  1
  C  C26  1  0.25000000  0.40180600  0.60890800  1
  C  C27  1  0.45516600  0.82803800  0.18470000  1
