# generated using pymatgen
data_Cu(Ni3C10)2
_symmetry_space_group_name_H-M   'P 1'
_cell_length_a   9.58658300
_cell_length_b   13.44389900
_cell_length_c   13.47741100
_cell_angle_alpha   90.00000000
_cell_angle_beta   90.00000000
_cell_angle_gamma   90.00000000
_symmetry_Int_Tables_number   1
_chemical_formula_structural   Cu(Ni3C10)2
_chemical_formula_sum   'Cu4 Ni24 C80'
_cell_volume   1736.98292958
_cell_formula_units_Z   4
loop_
 _symmetry_equiv_pos_site_id
 _symmetry_equiv_pos_as_xyz
  1  'x, y, z'
loop_
 _atom_site_type_symbol
 _atom_site_label
 _atom_site_symmetry_multiplicity
 _atom_site_fract_x
 _atom_site_fract_y
 _atom_site_fract_z
 _atom_site_occupancy
  C  C0  1  0.46725300  0.20871400  0.00509500  1
  C  C1  1  0.97135100  0.98571500  0.26780200  1
  C  C2  1  0.02571100  0.75474700  0.00540200  1
  C  C3  1  0.03274700  0.70871400  0.50509500  1
  C  C4  1  0.53274700  0.70871400  0.99490500  1
  C  C5  1  0.45918200  0.48453200  0.28683000  1
  C  C6  1  0.52864900  0.48571500  0.76780200  1
  C  C7  1  0.96725300  0.20871400  0.49490500  1
  C  C8  1  0.04081800  0.98453200  0.78683000  1
  C  C9  1  0.95918200  0.48453200  0.21317000  1
  C  C10  1  0.02864900  0.48571500  0.73219800  1
  C  C11  1  0.54081800  0.98453200  0.71317000  1
  C  C12  1  0.47135100  0.98571500  0.23219800  1
  C  C13  1  0.97428900  0.25474700  0.99459800  1
  C  C14  1  0.47428900  0.25474700  0.50540200  1
  C  C15  1  0.52571100  0.75474700  0.49459800  1
  Ni  Ni16  1  0.25814100  0.61348100  0.12752500  1
  Ni  Ni17  1  0.00086000  0.73607200  0.25473100  1
  Ni  Ni18  1  0.26227300  0.61187500  0.87540900  1
  Ni  Ni19  1  0.26158000  0.86367300  0.62521500  1
  Ni  Ni20  1  0.24245100  0.86018300  0.37435400  1
  Ni  Ni21  1  0.76158000  0.86367300  0.87478500  1
  Ni  Ni22  1  0.25754900  0.36018300  0.87435400  1
  Ni  Ni23  1  0.48827700  0.23785100  0.25219100  1
  Ni  Ni24  1  0.99914000  0.23607200  0.74526900  1
  Ni  Ni25  1  0.49914000  0.23607200  0.75473100  1
  Ni  Ni26  1  0.73842000  0.36367300  0.37478500  1
  Ni  Ni27  1  0.23772700  0.11187500  0.37540900  1
  Ni  Ni28  1  0.74185900  0.11348100  0.87247500  1
  Ni  Ni29  1  0.98827700  0.23785100  0.24780900  1
  Ni  Ni30  1  0.76227300  0.61187500  0.62459100  1
  Ni  Ni31  1  0.01172300  0.73785100  0.75219100  1
  Ni  Ni32  1  0.74245100  0.86018300  0.12564600  1
  Ni  Ni33  1  0.24185900  0.11348100  0.62752500  1
  Ni  Ni34  1  0.50086000  0.73607200  0.24526900  1
  Ni  Ni35  1  0.75754900  0.36018300  0.62564600  1
  Ni  Ni36  1  0.75814100  0.61348100  0.37247500  1
  Ni  Ni37  1  0.73772700  0.11187500  0.12459100  1
  Ni  Ni38  1  0.23842000  0.36367300  0.12521500  1
  Ni  Ni39  1  0.51172300  0.73785100  0.74780900  1
  Cu  Cu40  1  0.70040800  0.99593700  0.48742600  1
  Cu  Cu41  1  0.79959200  0.49593700  0.98742600  1
  Cu  Cu42  1  0.20040800  0.99593700  0.01257400  1
  Cu  Cu43  1  0.29959200  0.49593700  0.51257400  1
  C  C44  1  0.77232700  0.64594900  0.49858600  1
  C  C45  1  0.39555000  0.15802900  0.33060700  1
  C  C46  1  0.27232700  0.64594900  0.00141400  1
  C  C47  1  0.92132000  0.65775600  0.67194900  1
  C  C48  1  0.85952600  0.03486400  0.45137900  1
  C  C49  1  0.20546000  0.90444700  0.92852700  1
  C  C50  1  0.72767300  0.14594900  0.99858600  1
  C  C51  1  0.88599600  0.58905100  0.04147000  1
  C  C52  1  0.76399900  0.82772900  0.00011800  1
  C  C53  1  0.73600100  0.32772900  0.50011800  1
  C  C54  1  0.92584100  0.63721100  0.32291100  1
  C  C55  1  0.26399900  0.82772900  0.49988200  1
  C  C56  1  0.11376100  0.95291700  0.10950300  1
  C  C57  1  0.57704100  0.31750000  0.33324800  1
  C  C58  1  0.88550300  0.18187600  0.83106200  1
  C  C59  1  0.29454000  0.40444700  0.42852700  1
  C  C60  1  0.07868000  0.15775600  0.32805100  1
  C  C61  1  0.64047400  0.53486400  0.95137900  1
  C  C62  1  0.11052100  0.31283100  0.81378300  1
  C  C63  1  0.23550000  0.98609700  0.34013900  1
  C  C64  1  0.10392300  0.81839600  0.67275200  1
  C  C65  1  0.39607700  0.31839600  0.17275200  1
  C  C66  1  0.07704100  0.31750000  0.16675200  1
  C  C67  1  0.38599600  0.58905100  0.45853000  1
  C  C68  1  0.77439100  0.98922100  0.83778000  1
  C  C69  1  0.60445000  0.65802900  0.66939300  1
  C  C70  1  0.61052100  0.31283100  0.68621700  1
  C  C71  1  0.38623900  0.45291700  0.60950300  1
  C  C72  1  0.14047400  0.53486400  0.54862100  1
  C  C73  1  0.42584100  0.63721100  0.17708900  1
  C  C74  1  0.79454000  0.40444700  0.07147300  1
  C  C75  1  0.76450000  0.48609700  0.65986100  1
  C  C76  1  0.88947900  0.81283100  0.18621700  1
  C  C77  1  0.11449700  0.68187600  0.16893800  1
  C  C78  1  0.61376100  0.95291700  0.39049700  1
  C  C79  1  0.61400400  0.08905100  0.54147000  1
  C  C80  1  0.73550000  0.98609700  0.15986100  1
  C  C81  1  0.89607700  0.31839600  0.32724800  1
  C  C82  1  0.10445000  0.65802900  0.83060700  1
  C  C83  1  0.57415900  0.13721100  0.82291100  1
  C  C84  1  0.22560900  0.48922100  0.16222000  1
  C  C85  1  0.72560900  0.48922100  0.33778000  1
  C  C86  1  0.70546000  0.90444700  0.57147300  1
  C  C87  1  0.61449700  0.68187600  0.33106200  1
  C  C88  1  0.89555000  0.15802900  0.16939300  1
  C  C89  1  0.07415900  0.13721100  0.67708900  1
  C  C90  1  0.57868000  0.15775600  0.17194900  1
  C  C91  1  0.07429200  0.81384600  0.34641100  1
  C  C92  1  0.88623900  0.45291700  0.89049700  1
  C  C93  1  0.11400400  0.08905100  0.95853000  1
  C  C94  1  0.42295900  0.81750000  0.66675200  1
  C  C95  1  0.38947900  0.81283100  0.31378300  1
  C  C96  1  0.38550300  0.18187600  0.66893800  1
  C  C97  1  0.57429200  0.81384600  0.15358900  1
  C  C98  1  0.35952600  0.03486400  0.04862100  1
  C  C99  1  0.60392300  0.81839600  0.82724800  1
  C  C100  1  0.42132000  0.65775600  0.82805100  1
  C  C101  1  0.42570800  0.31384600  0.84641100  1
  C  C102  1  0.23600100  0.32772900  0.99988200  1
  C  C103  1  0.92570800  0.31384600  0.65358900  1
  C  C104  1  0.27439100  0.98922100  0.66222000  1
  C  C105  1  0.26450000  0.48609700  0.84013900  1
  C  C106  1  0.22767300  0.14594900  0.50141400  1
  C  C107  1  0.92295900  0.81750000  0.83324800  1
