# generated using pymatgen
data_Cu4NiC
_symmetry_space_group_name_H-M   'P 1'
_cell_length_a   5.22723885
_cell_length_b   10.99123281
_cell_length_c   11.00401656
_cell_angle_alpha   96.98767002
_cell_angle_beta   90.13212534
_cell_angle_gamma   90.10996312
_symmetry_Int_Tables_number   1
_chemical_formula_structural   Cu4NiC
_chemical_formula_sum   'Cu32 Ni8 C8'
_cell_volume   627.52342238
_cell_formula_units_Z   8
loop_
 _symmetry_equiv_pos_site_id
 _symmetry_equiv_pos_as_xyz
  1  'x, y, z'
loop_
 _atom_site_type_symbol
 _atom_site_label
 _atom_site_symmetry_multiplicity
 _atom_site_fract_x
 _atom_site_fract_y
 _atom_site_fract_z
 _atom_site_occupancy
  C  C0  1  0.49985500  0.00001200  0.50004600  1
  C  C1  1  0.00060700  0.25034500  0.24988900  1
  C  C2  1  0.99942500  0.74962500  0.75011600  1
  C  C3  1  0.50017500  0.50002900  0.99997000  1
  C  C4  1  0.49983600  0.74972500  0.24989500  1
  C  C5  1  0.99989500  0.50002500  0.49993800  1
  C  C6  1  0.00001000  0.00002100  0.00013100  1
  C  C7  1  0.50012400  0.25025700  0.75004500  1
  Ni  Ni8  1  0.49922300  0.96183700  0.81787900  1
  Ni  Ni9  1  0.99908300  0.21217200  0.56773600  1
  Ni  Ni10  1  0.99949500  0.71173600  0.06789400  1
  Ni  Ni11  1  0.50145000  0.46144700  0.31753900  1
  Ni  Ni12  1  0.49847200  0.53848300  0.68231300  1
  Ni  Ni13  1  0.00039400  0.78791500  0.43223700  1
  Ni  Ni14  1  0.00102900  0.28827100  0.93215600  1
  Ni  Ni15  1  0.50082400  0.03814400  0.18222900  1
  Cu  Cu16  1  0.49566300  0.59095400  0.80955900  1
  Cu  Cu17  1  0.99983200  0.84036400  0.55949500  1
  Cu  Cu18  1  0.00206900  0.34093500  0.05934500  1
  Cu  Cu19  1  0.50108200  0.09075300  0.30943000  1
  Cu  Cu20  1  0.49876700  0.90906000  0.69072600  1
  Cu  Cu21  1  0.99898400  0.15968600  0.44048400  1
  Cu  Cu22  1  0.99915900  0.65912700  0.94069000  1
  Cu  Cu23  1  0.50440300  0.40901900  0.19028700  1
  Cu  Cu24  1  0.49933800  0.09763100  0.83736400  1
  Cu  Cu25  1  0.99730200  0.34802500  0.58762800  1
  Cu  Cu26  1  0.99953700  0.84751900  0.08765200  1
  Cu  Cu27  1  0.49931300  0.59724400  0.33726000  1
  Cu  Cu28  1  0.50032200  0.40268100  0.66262300  1
  Cu  Cu29  1  0.00250500  0.65205300  0.41232300  1
  Cu  Cu30  1  0.00059600  0.15248900  0.91248400  1
  Cu  Cu31  1  0.50111900  0.90235100  0.16256800  1
  Cu  Cu32  1  0.72820800  0.58454500  0.61857500  1
  Cu  Cu33  1  0.23223100  0.83329400  0.36872000  1
  Cu  Cu34  1  0.23337600  0.33316000  0.86846700  1
  Cu  Cu35  1  0.73338200  0.08312600  0.11870700  1
  Cu  Cu36  1  0.26225600  0.58182300  0.61902400  1
  Cu  Cu37  1  0.76605300  0.83195100  0.36883900  1
  Cu  Cu38  1  0.76748100  0.33299600  0.86877900  1
  Cu  Cu39  1  0.26744000  0.08279500  0.11866600  1
  Cu  Cu40  1  0.26670400  0.91699500  0.88151800  1
  Cu  Cu41  1  0.76672300  0.16702300  0.63124600  1
  Cu  Cu42  1  0.76780600  0.66653300  0.13161600  1
  Cu  Cu43  1  0.27164300  0.41536800  0.38121200  1
  Cu  Cu44  1  0.73260400  0.91721800  0.88147200  1
  Cu  Cu45  1  0.23281200  0.16789100  0.63121100  1
  Cu  Cu46  1  0.23370200  0.66723600  0.13117100  1
  Cu  Cu47  1  0.73769200  0.41811200  0.38084700  1
