# generated using pymatgen
data_CuNi9C16
_symmetry_space_group_name_H-M   'P 1'
_cell_length_a   13.91991900
_cell_length_b   7.03717000
_cell_length_c   12.05418933
_cell_angle_alpha   55.13655380
_cell_angle_beta   90.00000000
_cell_angle_gamma   90.00000000
_symmetry_Int_Tables_number   1
_chemical_formula_structural   CuNi9C16
_chemical_formula_sum   'Cu2 Ni18 C32'
_cell_volume   968.85815523
_cell_formula_units_Z   2
loop_
 _symmetry_equiv_pos_site_id
 _symmetry_equiv_pos_as_xyz
  1  'x, y, z'
loop_
 _atom_site_type_symbol
 _atom_site_label
 _atom_site_symmetry_multiplicity
 _atom_site_fract_x
 _atom_site_fract_y
 _atom_site_fract_z
 _atom_site_occupancy
  Ni  Ni0  1  0.37531600  0.50781000  0.99102100  1
  Ni  Ni1  1  0.50417100  0.50005900  0.25018700  1
  Ni  Ni2  1  0.62468400  0.50781000  0.49102100  1
  Ni  Ni3  1  0.37993800  0.48649400  0.50272700  1
  Ni  Ni4  1  0.73797700  0.49686200  0.75351200  1
  Ni  Ni5  1  0.49582900  0.50005900  0.75018700  1
  Ni  Ni6  1  0.62006200  0.48649400  0.00272700  1
  Ni  Ni7  1  0.98671300  0.48790000  0.26043400  1
  Ni  Ni8  1  0.74671300  0.49138000  0.25792100  1
  Ni  Ni9  1  0.62042300  0.01109800  0.00120600  1
  Ni  Ni10  1  0.86906100  0.49712300  0.49284200  1
  Ni  Ni11  1  0.01328700  0.48790000  0.76043400  1
  Ni  Ni12  1  0.25328700  0.49138000  0.75792100  1
  Ni  Ni13  1  0.86729600  0.02603700  0.48911200  1
  Ni  Ni14  1  0.13093900  0.49712300  0.99284200  1
  Ni  Ni15  1  0.26202300  0.49686200  0.25351200  1
  Ni  Ni16  1  0.13270400  0.02603700  0.98911200  1
  Ni  Ni17  1  0.37957700  0.01109800  0.50120600  1
  Cu  Cu18  1  0.87575100  0.87676300  0.87370400  1
  Cu  Cu19  1  0.12424900  0.87676300  0.37370400  1
  C  C20  1  0.37837500  0.24712100  0.25009500  1
  C  C21  1  0.50594800  0.24336100  0.50280800  1
  C  C22  1  0.37914100  0.73834000  0.25587700  1
  C  C23  1  0.62162500  0.24712100  0.75009500  1
  C  C24  1  0.74539300  0.25380300  0.99620700  1
  C  C25  1  0.50003800  0.74997400  0.49900400  1
  C  C26  1  0.49405200  0.24336100  0.00280800  1
  C  C27  1  0.62085900  0.73834000  0.75587700  1
  C  C28  1  0.62329300  0.25682000  0.24808100  1
  C  C29  1  0.87251800  0.25593200  0.24705200  1
  C  C30  1  0.99422600  0.24792000  0.50063200  1
  C  C31  1  0.73923500  0.74627100  0.00686800  1
  C  C32  1  0.49996200  0.74997400  0.99900400  1
  C  C33  1  0.74364700  0.24051000  0.50745000  1
  C  C34  1  0.87039200  0.74354300  0.25121200  1
  C  C35  1  0.62409900  0.76012400  0.24741200  1
  C  C36  1  0.87401900  0.27512700  0.74220000  1
  C  C37  1  0.12748200  0.25593200  0.74705200  1
  C  C38  1  0.25635300  0.24051000  0.00745000  1
  C  C39  1  0.98883000  0.74641600  0.50695800  1
  C  C40  1  0.00577400  0.24792000  0.00063200  1
  C  C41  1  0.74687600  0.74932400  0.49937400  1
  C  C42  1  0.87486500  0.73888700  0.74110500  1
  C  C43  1  0.12960800  0.74354300  0.75121200  1
  C  C44  1  0.12598100  0.27512700  0.24220000  1
  C  C45  1  0.25312400  0.74932400  0.99937400  1
  C  C46  1  0.25460700  0.25380300  0.49620700  1
  C  C47  1  0.01117000  0.74641600  0.00695800  1
  C  C48  1  0.12513500  0.73888700  0.24110500  1
  C  C49  1  0.37670700  0.25682000  0.74808100  1
  C  C50  1  0.26076500  0.74627100  0.50686800  1
  C  C51  1  0.37590100  0.76012400  0.74741200  1
