# generated using pymatgen
data_Cu7(NiC7)2
_symmetry_space_group_name_H-M   'P 1'
_cell_length_a   7.24935000
_cell_length_b   8.70099500
_cell_length_c   15.66861100
_cell_angle_alpha   90.00000000
_cell_angle_beta   90.00000000
_cell_angle_gamma   90.00000000
_symmetry_Int_Tables_number   1
_chemical_formula_structural   Cu7(NiC7)2
_chemical_formula_sum   'Cu28 Ni8 C56'
_cell_volume   988.32205214
_cell_formula_units_Z   4
loop_
 _symmetry_equiv_pos_site_id
 _symmetry_equiv_pos_as_xyz
  1  'x, y, z'
loop_
 _atom_site_type_symbol
 _atom_site_label
 _atom_site_symmetry_multiplicity
 _atom_site_fract_x
 _atom_site_fract_y
 _atom_site_fract_z
 _atom_site_occupancy
  C  C0  1  0.00000000  0.63449500  0.42044600  1
  C  C1  1  0.00000000  0.36550500  0.57955400  1
  C  C2  1  0.50000000  0.13449500  0.07955400  1
  C  C3  1  0.50000000  0.86550500  0.92044600  1
  C  C4  1  0.00000000  0.78804500  0.25543800  1
  C  C5  1  0.00000000  0.21195500  0.74456200  1
  C  C6  1  0.50000000  0.28804500  0.24456200  1
  C  C7  1  0.50000000  0.71195500  0.75543800  1
  C  C8  1  0.00000000  0.92386100  0.32297900  1
  C  C9  1  0.00000000  0.07613900  0.67702100  1
  C  C10  1  0.50000000  0.42386100  0.17702100  1
  C  C11  1  0.50000000  0.57613900  0.82297900  1
  C  C12  1  0.00000000  0.31960300  0.40319800  1
  C  C13  1  0.00000000  0.68039700  0.59680200  1
  C  C14  1  0.50000000  0.81960300  0.09680200  1
  C  C15  1  0.50000000  0.18039700  0.90319800  1
  C  C16  1  0.29525500  0.59846000  0.29089200  1
  C  C17  1  0.29525500  0.40154000  0.70910800  1
  C  C18  1  0.20474500  0.09846000  0.20910800  1
  C  C19  1  0.20474500  0.90154000  0.79089200  1
  C  C20  1  0.70474500  0.40154000  0.70910800  1
  C  C21  1  0.70474500  0.59846000  0.29089200  1
  C  C22  1  0.79525500  0.90154000  0.79089200  1
  C  C23  1  0.79525500  0.09846000  0.20910800  1
  C  C24  1  0.28149400  0.45034000  0.34886400  1
  C  C25  1  0.28149400  0.54966000  0.65113600  1
  C  C26  1  0.21850600  0.95034000  0.15113600  1
  C  C27  1  0.21850600  0.04966000  0.84886400  1
  C  C28  1  0.71850600  0.54966000  0.65113600  1
  C  C29  1  0.71850600  0.45034000  0.34886400  1
  C  C30  1  0.78149400  0.04966000  0.84886400  1
  C  C31  1  0.78149400  0.95034000  0.15113600  1
  C  C32  1  0.29482100  0.76697600  0.51357100  1
  C  C33  1  0.29482100  0.23302400  0.48642900  1
  C  C34  1  0.20517900  0.26697600  0.98642900  1
  C  C35  1  0.20517900  0.73302400  0.01357100  1
  C  C36  1  0.70517900  0.23302400  0.48642900  1
  C  C37  1  0.70517900  0.76697600  0.51357100  1
  C  C38  1  0.79482100  0.73302400  0.01357100  1
  C  C39  1  0.79482100  0.26697600  0.98642900  1
  C  C40  1  0.31868800  0.83283300  0.41931500  1
  C  C41  1  0.31868800  0.16716700  0.58068500  1
  C  C42  1  0.18131200  0.33283300  0.08068500  1
  C  C43  1  0.18131200  0.66716700  0.91931500  1
  C  C44  1  0.68131200  0.16716700  0.58068500  1
  C  C45  1  0.68131200  0.83283300  0.41931500  1
  C  C46  1  0.81868800  0.66716700  0.91931500  1
  C  C47  1  0.81868800  0.33283300  0.08068500  1
  C  C48  1  0.00000000  0.52068600  0.14384700  1
  C  C49  1  0.00000000  0.47931400  0.85615300  1
  C  C50  1  0.50000000  0.02068600  0.35615300  1
  C  C51  1  0.50000000  0.97931400  0.64384700  1
  C  C52  1  0.00000000  0.36686000  0.19941200  1
  C  C53  1  0.00000000  0.63314000  0.80058800  1
  C  C54  1  0.50000000  0.86686000  0.30058800  1
  C  C55  1  0.50000000  0.13314000  0.69941200  1
  Ni  Ni56  1  0.00000000  0.16645100  0.29448100  1
  Ni  Ni57  1  0.00000000  0.83354900  0.70551900  1
  Ni  Ni58  1  0.50000000  0.66645100  0.20551900  1
  Ni  Ni59  1  0.50000000  0.33354900  0.79448100  1
  Ni  Ni60  1  0.00000000  0.77114600  0.11896800  1
  Ni  Ni61  1  0.00000000  0.22885400  0.88103200  1
  Ni  Ni62  1  0.50000000  0.27114600  0.38103200  1
  Ni  Ni63  1  0.50000000  0.72885400  0.61896800  1
  Cu  Cu64  1  0.00000000  0.81026700  0.31743600  1
  Cu  Cu65  1  0.00000000  0.18973300  0.68256400  1
  Cu  Cu66  1  0.50000000  0.31026700  0.18256400  1
  Cu  Cu67  1  0.50000000  0.68973300  0.81743600  1
  Cu  Cu68  1  0.00000000  0.39944200  0.44790000  1
  Cu  Cu69  1  0.00000000  0.60055800  0.55210000  1
  Cu  Cu70  1  0.50000000  0.89944200  0.05210000  1
  Cu  Cu71  1  0.50000000  0.10055800  0.94790000  1
  Cu  Cu72  1  0.21202500  0.54206000  0.33061600  1
  Cu  Cu73  1  0.21202500  0.45794000  0.66938400  1
  Cu  Cu74  1  0.28797500  0.04206000  0.16938400  1
  Cu  Cu75  1  0.28797500  0.95794000  0.83061600  1
  Cu  Cu76  1  0.78797500  0.45794000  0.66938400  1
  Cu  Cu77  1  0.78797500  0.54206000  0.33061600  1
  Cu  Cu78  1  0.71202500  0.95794000  0.83061600  1
  Cu  Cu79  1  0.71202500  0.04206000  0.16938400  1
  Cu  Cu80  1  0.22824600  0.78613700  0.45973400  1
  Cu  Cu81  1  0.22824600  0.21386300  0.54026600  1
  Cu  Cu82  1  0.27175400  0.28613700  0.04026600  1
  Cu  Cu83  1  0.27175400  0.71386300  0.95973400  1
  Cu  Cu84  1  0.77175400  0.21386300  0.54026600  1
  Cu  Cu85  1  0.77175400  0.78613700  0.45973400  1
  Cu  Cu86  1  0.72824600  0.71386300  0.95973400  1
  Cu  Cu87  1  0.72824600  0.28613700  0.04026600  1
  Cu  Cu88  1  0.00000000  0.40704600  0.14047400  1
  Cu  Cu89  1  0.00000000  0.59295400  0.85952600  1
  Cu  Cu90  1  0.50000000  0.90704600  0.35952600  1
  Cu  Cu91  1  0.50000000  0.09295400  0.64047400  1
