# generated using pymatgen
data_Cu67Ni41
_symmetry_space_group_name_H-M   'P 1'
_cell_length_a   12.64750100
_cell_length_b   12.64750100
_cell_length_c   12.64750100
_cell_angle_alpha   90.00000000
_cell_angle_beta   90.00000000
_cell_angle_gamma   90.00000000
_symmetry_Int_Tables_number   1
_chemical_formula_structural   Cu67Ni41
_chemical_formula_sum   'Cu67 Ni41'
_cell_volume   2023.08517330
_cell_formula_units_Z   1
loop_
 _symmetry_equiv_pos_site_id
 _symmetry_equiv_pos_as_xyz
  1  'x, y, z'
loop_
 _atom_site_type_symbol
 _atom_site_label
 _atom_site_symmetry_multiplicity
 _atom_site_fract_x
 _atom_site_fract_y
 _atom_site_fract_z
 _atom_site_occupancy
  Ni  Ni0  1  0.66099900  0.33900100  0.16666300  1
  Ni  Ni1  1  0.66099900  0.83333700  0.33900100  1
  Ni  Ni2  1  0.16666300  0.66099900  0.66099900  1
  Ni  Ni3  1  0.33900100  0.83333700  0.66099900  1
  Ni  Ni4  1  0.00000000  0.82349300  0.00000000  1
  Ni  Ni5  1  0.83333700  0.66099900  0.66099900  1
  Ni  Ni6  1  0.16666300  0.33900100  0.33900100  1
  Ni  Ni7  1  0.66099900  0.16666300  0.33900100  1
  Ni  Ni8  1  0.83120500  0.16879500  0.16879500  1
  Ni  Ni9  1  0.83333700  0.66099900  0.33900100  1
  Ni  Ni10  1  0.00000000  0.00000000  0.17650700  1
  Ni  Ni11  1  0.66099900  0.66099900  0.16666300  1
  Ni  Ni12  1  0.33900100  0.66099900  0.83333700  1
  Ni  Ni13  1  0.16879500  0.16879500  0.83120500  1
  Ni  Ni14  1  0.66099900  0.33900100  0.83333700  1
  Ni  Ni15  1  0.00000000  0.50000000  0.00000000  1
  Ni  Ni16  1  0.66099900  0.16666300  0.66099900  1
  Ni  Ni17  1  0.16666300  0.66099900  0.33900100  1
  Ni  Ni18  1  0.83120500  0.16879500  0.83120500  1
  Ni  Ni19  1  0.16666300  0.33900100  0.66099900  1
  Ni  Ni20  1  0.16879500  0.16879500  0.16879500  1
  Ni  Ni21  1  0.66099900  0.66099900  0.83333700  1
  Ni  Ni22  1  0.66099900  0.83333700  0.66099900  1
  Ni  Ni23  1  0.83120500  0.83120500  0.16879500  1
  Ni  Ni24  1  0.17650700  0.00000000  0.00000000  1
  Ni  Ni25  1  0.33900100  0.16666300  0.66099900  1
  Ni  Ni26  1  0.83333700  0.33900100  0.66099900  1
  Ni  Ni27  1  0.00000000  0.00000000  0.50000000  1
  Ni  Ni28  1  0.16879500  0.83120500  0.16879500  1
  Ni  Ni29  1  0.33900100  0.66099900  0.16666300  1
  Ni  Ni30  1  0.00000000  0.17650700  0.00000000  1
  Ni  Ni31  1  0.16879500  0.83120500  0.83120500  1
  Ni  Ni32  1  0.82349300  0.00000000  0.00000000  1
  Ni  Ni33  1  0.33900100  0.33900100  0.83333700  1
  Ni  Ni34  1  0.33900100  0.33900100  0.16666300  1
  Ni  Ni35  1  0.33900100  0.16666300  0.33900100  1
  Ni  Ni36  1  0.50000000  0.00000000  0.00000000  1
  Ni  Ni37  1  0.83333700  0.33900100  0.33900100  1
  Ni  Ni38  1  0.33900100  0.83333700  0.33900100  1
  Ni  Ni39  1  0.00000000  0.00000000  0.82349300  1
  Ni  Ni40  1  0.83120500  0.83120500  0.83120500  1
  Cu  Cu41  1  0.50000000  0.33876200  0.33876200  1
  Cu  Cu42  1  0.83346300  0.16653700  0.50000000  1
  Cu  Cu43  1  0.33876200  0.50000000  0.66123800  1
  Cu  Cu44  1  0.66842300  0.00000000  0.50000000  1
  Cu  Cu45  1  0.66254100  0.00000000  0.82900100  1
  Cu  Cu46  1  0.82900100  0.00000000  0.66254100  1
  Cu  Cu47  1  0.50000000  0.00000000  0.33157700  1
  Cu  Cu48  1  0.33745900  0.82900100  0.00000000  1
  Cu  Cu49  1  0.00000000  0.66842300  0.50000000  1
  Cu  Cu50  1  0.33157700  0.00000000  0.50000000  1
  Cu  Cu51  1  0.66254100  0.00000000  0.17099900  1
  Cu  Cu52  1  0.50000000  0.83346300  0.16653700  1
  Cu  Cu53  1  0.66842300  0.50000000  0.00000000  1
  Cu  Cu54  1  0.17099900  0.66254100  0.00000000  1
  Cu  Cu55  1  0.83346300  0.50000000  0.16653700  1
  Cu  Cu56  1  0.17301800  0.50000000  0.50000000  1
  Cu  Cu57  1  0.17099900  0.33745900  0.00000000  1
  Cu  Cu58  1  0.50000000  0.50000000  0.17301800  1
  Cu  Cu59  1  0.50000000  0.83346300  0.83346300  1
  Cu  Cu60  1  0.50000000  0.00000000  0.66842300  1
  Cu  Cu61  1  0.33876200  0.33876200  0.50000000  1
  Cu  Cu62  1  0.50000000  0.16653700  0.16653700  1
  Cu  Cu63  1  0.50000000  0.66123800  0.33876200  1
  Cu  Cu64  1  0.33745900  0.00000000  0.17099900  1
  Cu  Cu65  1  0.17099900  0.00000000  0.66254100  1
  Cu  Cu66  1  0.82900100  0.00000000  0.33745900  1
  Cu  Cu67  1  0.16653700  0.50000000  0.16653700  1
  Cu  Cu68  1  0.00000000  0.17099900  0.66254100  1
  Cu  Cu69  1  0.33745900  0.00000000  0.82900100  1
  Cu  Cu70  1  0.00000000  0.82900100  0.33745900  1
  Cu  Cu71  1  0.16653700  0.16653700  0.50000000  1
  Cu  Cu72  1  0.50000000  0.50000000  0.50000000  1
  Cu  Cu73  1  0.50000000  0.33157700  0.00000000  1
  Cu  Cu74  1  0.50000000  0.66123800  0.66123800  1
  Cu  Cu75  1  0.66123800  0.33876200  0.50000000  1
  Cu  Cu76  1  0.17099900  0.00000000  0.33745900  1
  Cu  Cu77  1  0.66123800  0.50000000  0.66123800  1
  Cu  Cu78  1  0.50000000  0.66842300  0.00000000  1
  Cu  Cu79  1  0.00000000  0.33745900  0.82900100  1
  Cu  Cu80  1  0.00000000  0.66254100  0.82900100  1
  Cu  Cu81  1  0.50000000  0.17301800  0.50000000  1
  Cu  Cu82  1  0.50000000  0.82698200  0.50000000  1
  Cu  Cu83  1  0.83346300  0.83346300  0.50000000  1
  Cu  Cu84  1  0.00000000  0.17099900  0.33745900  1
  Cu  Cu85  1  0.16653700  0.83346300  0.50000000  1
  Cu  Cu86  1  0.00000000  0.33745900  0.17099900  1
  Cu  Cu87  1  0.00000000  0.66254100  0.17099900  1
  Cu  Cu88  1  0.00000000  0.82900100  0.66254100  1
  Cu  Cu89  1  0.33876200  0.66123800  0.50000000  1
  Cu  Cu90  1  0.66254100  0.17099900  0.00000000  1
  Cu  Cu91  1  0.82900100  0.66254100  0.00000000  1
  Cu  Cu92  1  0.33157700  0.50000000  0.00000000  1
  Cu  Cu93  1  0.33745900  0.17099900  0.00000000  1
  Cu  Cu94  1  0.66254100  0.82900100  0.00000000  1
  Cu  Cu95  1  0.83346300  0.50000000  0.83346300  1
  Cu  Cu96  1  0.82698200  0.50000000  0.50000000  1
  Cu  Cu97  1  0.00000000  0.50000000  0.33157700  1
  Cu  Cu98  1  0.50000000  0.16653700  0.83346300  1
  Cu  Cu99  1  0.50000000  0.33876200  0.66123800  1
  Cu  Cu100  1  0.33876200  0.50000000  0.33876200  1
  Cu  Cu101  1  0.00000000  0.33157700  0.50000000  1
  Cu  Cu102  1  0.82900100  0.33745900  0.00000000  1
  Cu  Cu103  1  0.16653700  0.50000000  0.83346300  1
  Cu  Cu104  1  0.66123800  0.50000000  0.33876200  1
  Cu  Cu105  1  0.66123800  0.66123800  0.50000000  1
  Cu  Cu106  1  0.50000000  0.50000000  0.82698200  1
  Cu  Cu107  1  0.00000000  0.50000000  0.66842300  1
