# generated using pymatgen
data_Cu2NiC
_symmetry_space_group_name_H-M   'P 1'
_cell_length_a   9.95511000
_cell_length_b   7.18810700
_cell_length_c   7.99826911
_cell_angle_alpha   77.71354415
_cell_angle_beta   90.00000000
_cell_angle_gamma   90.00000000
_symmetry_Int_Tables_number   1
_chemical_formula_structural   Cu2NiC
_chemical_formula_sum   'Cu8 Ni4 C4'
_cell_volume   559.23430222
_cell_formula_units_Z   4
loop_
 _symmetry_equiv_pos_site_id
 _symmetry_equiv_pos_as_xyz
  1  'x, y, z'
loop_
 _atom_site_type_symbol
 _atom_site_label
 _atom_site_symmetry_multiplicity
 _atom_site_fract_x
 _atom_site_fract_y
 _atom_site_fract_z
 _atom_site_occupancy
  C  C0  1  0.57183600  0.78758600  0.34618100  1
  C  C1  1  0.92816400  0.28758600  0.34618100  1
  C  C2  1  0.42816400  0.21241400  0.65381900  1
  C  C3  1  0.07183600  0.71241400  0.65381900  1
  Ni  Ni4  1  0.83657200  0.14526900  0.89873800  1
  Ni  Ni5  1  0.16342800  0.85473100  0.10126200  1
  Ni  Ni6  1  0.66342800  0.64526900  0.89873800  1
  Ni  Ni7  1  0.33657200  0.35473100  0.10126200  1
  Cu  Cu8  1  0.25461700  0.54496600  0.30798900  1
  Cu  Cu9  1  0.75461700  0.95503400  0.69201100  1
  Cu  Cu10  1  0.43254700  0.69508300  0.81324500  1
  Cu  Cu11  1  0.93254700  0.80491700  0.18675500  1
  Cu  Cu12  1  0.24538300  0.04496600  0.30798900  1
  Cu  Cu13  1  0.74538300  0.45503400  0.69201100  1
  Cu  Cu14  1  0.06745300  0.19508300  0.81324500  1
  Cu  Cu15  1  0.56745300  0.30491700  0.18675500  1
