# generated using pymatgen
data_Cu8Ni20C11
_symmetry_space_group_name_H-M   'P 1'
_cell_length_a   9.13508900
_cell_length_b   6.58165300
_cell_length_c   11.44278060
_cell_angle_alpha   81.64694237
_cell_angle_beta   90.00000000
_cell_angle_gamma   90.00000000
_symmetry_Int_Tables_number   1
_chemical_formula_structural   Cu8Ni20C11
_chemical_formula_sum   'Cu16 Ni40 C22'
_cell_volume   680.68721323
_cell_formula_units_Z   2
loop_
 _symmetry_equiv_pos_site_id
 _symmetry_equiv_pos_as_xyz
  1  'x, y, z'
loop_
 _atom_site_type_symbol
 _atom_site_label
 _atom_site_symmetry_multiplicity
 _atom_site_fract_x
 _atom_site_fract_y
 _atom_site_fract_z
 _atom_site_occupancy
  C  C0  1  0.50000000  0.50000000  0.50000000  1
  C  C1  1  0.00000000  0.50000000  0.00000000  1
  Ni  Ni2  1  0.53650400  0.63502400  0.86384500  1
  Ni  Ni3  1  0.96349600  0.63502400  0.36384500  1
  Ni  Ni4  1  0.57560700  0.39013900  0.30754700  1
  Ni  Ni5  1  0.39079500  0.92663900  0.69790700  1
  Ni  Ni6  1  0.84425800  0.20486900  0.96448100  1
  Ni  Ni7  1  0.81635300  0.47571600  0.40594400  1
  Ni  Ni8  1  0.46349600  0.36497600  0.13615500  1
  Ni  Ni9  1  0.79465800  0.84824700  0.77647300  1
  Ni  Ni10  1  0.59653800  0.83633500  0.04672300  1
  Ni  Ni11  1  0.52303400  0.89200400  0.22394800  1
  Ni  Ni12  1  0.65574200  0.20486900  0.46448100  1
  Ni  Ni13  1  0.03650400  0.36497600  0.63615500  1
  Ni  Ni14  1  0.16489500  0.95662300  0.55551200  1
  Ni  Ni15  1  0.78879500  0.86864100  0.02993300  1
  Ni  Ni16  1  0.02303400  0.10799600  0.27605200  1
  Ni  Ni17  1  0.07560700  0.60986100  0.19245300  1
  Ni  Ni18  1  0.31635300  0.52428400  0.09405600  1
  Ni  Ni19  1  0.42439300  0.60986100  0.69245300  1
  Ni  Ni20  1  0.47696600  0.10799600  0.77605200  1
  Ni  Ni21  1  0.28879500  0.13135900  0.47006700  1
  Ni  Ni22  1  0.20534200  0.15175300  0.22352700  1
  Ni  Ni23  1  0.15574200  0.79513100  0.03551900  1
  Ni  Ni24  1  0.09653800  0.16366500  0.45327700  1
  Ni  Ni25  1  0.29465800  0.15175300  0.72352700  1
  Ni  Ni26  1  0.60920500  0.07336100  0.30209300  1
  Ni  Ni27  1  0.34425800  0.79513100  0.53551900  1
  Ni  Ni28  1  0.97696600  0.89200400  0.72394800  1
  Ni  Ni29  1  0.10920500  0.92663900  0.19790700  1
  Ni  Ni30  1  0.70534200  0.84824700  0.27647300  1
  Ni  Ni31  1  0.21120500  0.13135900  0.97006700  1
  Ni  Ni32  1  0.71120500  0.86864100  0.52993300  1
  Ni  Ni33  1  0.83510500  0.04337700  0.44448800  1
  Ni  Ni34  1  0.33510500  0.95662300  0.05551200  1
  Ni  Ni35  1  0.66489500  0.04337700  0.94448800  1
  Ni  Ni36  1  0.90346200  0.83633500  0.54672300  1
  Ni  Ni37  1  0.40346200  0.16366500  0.95327700  1
  Ni  Ni38  1  0.68364700  0.47571600  0.90594400  1
  Ni  Ni39  1  0.89079500  0.07336100  0.80209300  1
  Ni  Ni40  1  0.18364700  0.52428400  0.59405600  1
  Ni  Ni41  1  0.92439300  0.39013900  0.80754700  1
  Cu  Cu42  1  0.81634300  0.95180400  0.53146600  1
  Cu  Cu43  1  0.10719400  0.53992100  0.76141500  1
  Cu  Cu44  1  0.37301700  0.03254200  0.76152400  1
  Cu  Cu45  1  0.87301700  0.96745800  0.73847600  1
  Cu  Cu46  1  0.60719400  0.46007900  0.73858500  1
  Cu  Cu47  1  0.39280600  0.53992100  0.26141500  1
  Cu  Cu48  1  0.77803700  0.23824200  0.12513700  1
  Cu  Cu49  1  0.12698300  0.03254200  0.26152400  1
  Cu  Cu50  1  0.18365700  0.04819600  0.46853400  1
  Cu  Cu51  1  0.72196300  0.23824200  0.62513700  1
  Cu  Cu52  1  0.68365700  0.95180400  0.03146600  1
  Cu  Cu53  1  0.89280600  0.46007900  0.23858500  1
  Cu  Cu54  1  0.27803700  0.76175800  0.37486300  1
  Cu  Cu55  1  0.22196300  0.76175800  0.87486300  1
  Cu  Cu56  1  0.31634300  0.04819600  0.96853400  1
  Cu  Cu57  1  0.62698300  0.96745800  0.23847600  1
  C  C58  1  0.48984300  0.46342200  0.34226200  1
  C  C59  1  0.71569900  0.32540100  0.72478700  1
  C  C60  1  0.59602400  0.50965700  0.85151100  1
  C  C61  1  0.01015700  0.46342200  0.84226200  1
  C  C62  1  0.14329100  0.70256600  0.97223900  1
  C  C63  1  0.35670900  0.70256600  0.47223900  1
  C  C64  1  0.40397600  0.49034300  0.14848900  1
  C  C65  1  0.32227000  0.92138300  0.87403700  1
  C  C66  1  0.90397600  0.50965700  0.35151100  1
  C  C67  1  0.98984300  0.53657800  0.15773800  1
  C  C68  1  0.85670900  0.29743400  0.02776100  1
  C  C69  1  0.64329100  0.29743400  0.52776100  1
  C  C70  1  0.28430100  0.67459900  0.27521300  1
  C  C71  1  0.78430100  0.32540100  0.22478700  1
  C  C72  1  0.17773000  0.92138300  0.37403700  1
  C  C73  1  0.51015700  0.53657800  0.65773800  1
  C  C74  1  0.21569900  0.67459900  0.77521300  1
  C  C75  1  0.82227000  0.07861700  0.62596300  1
  C  C76  1  0.09602400  0.49034300  0.64848900  1
  C  C77  1  0.67773000  0.07861700  0.12596300  1
