# generated using pymatgen
data_CuNiC
_symmetry_space_group_name_H-M   'P 1'
_cell_length_a   8.54195100
_cell_length_b   8.57789400
_cell_length_c   12.35109100
_cell_angle_alpha   90.00000000
_cell_angle_beta   90.00000000
_cell_angle_gamma   90.00000000
_symmetry_Int_Tables_number   1
_chemical_formula_structural   CuNiC
_chemical_formula_sum   'Cu20 Ni20 C20'
_cell_volume   904.98852505
_cell_formula_units_Z   20
loop_
 _symmetry_equiv_pos_site_id
 _symmetry_equiv_pos_as_xyz
  1  'x, y, z'
loop_
 _atom_site_type_symbol
 _atom_site_label
 _atom_site_symmetry_multiplicity
 _atom_site_fract_x
 _atom_site_fract_y
 _atom_site_fract_z
 _atom_site_occupancy
  C  C0  1  0.34015100  0.00856000  0.42045200  1
  C  C1  1  0.06110100  0.69776400  0.13342100  1
  C  C2  1  0.25492200  0.71134500  0.67322300  1
  C  C3  1  0.65804600  0.90822400  0.59709400  1
  C  C4  1  0.95020000  0.59789100  0.85944600  1
  C  C5  1  0.65984900  0.50856000  0.07954800  1
  C  C6  1  0.45020000  0.90210900  0.14055400  1
  C  C7  1  0.04980000  0.09789100  0.64055400  1
  C  C8  1  0.43889900  0.30223600  0.63342100  1
  C  C9  1  0.93889900  0.19776400  0.36657900  1
  C  C10  1  0.75492200  0.78865500  0.32677700  1
  C  C11  1  0.15804600  0.59177600  0.40290600  1
  C  C12  1  0.74507800  0.21134500  0.82677700  1
  C  C13  1  0.15984900  0.99144000  0.92045200  1
  C  C14  1  0.24507800  0.28865500  0.17322300  1
  C  C15  1  0.34195400  0.40822400  0.90290600  1
  C  C16  1  0.84195400  0.09177600  0.09709400  1
  C  C17  1  0.84015100  0.49144000  0.57954800  1
  C  C18  1  0.56110100  0.80223600  0.86657900  1
  C  C19  1  0.54980000  0.40210900  0.35944600  1
  Ni  Ni20  1  0.47994300  0.11229400  0.95944500  1
  Ni  Ni21  1  0.11681900  0.39678200  0.71279100  1
  Ni  Ni22  1  0.61681900  0.10321800  0.28720900  1
  Ni  Ni23  1  0.31552400  0.69173000  0.99174300  1
  Ni  Ni24  1  0.02005700  0.88770600  0.45944500  1
  Ni  Ni25  1  0.56167200  0.20039300  0.17910400  1
  Ni  Ni26  1  0.09797300  0.97392400  0.24065100  1
  Ni  Ni27  1  0.38318100  0.60321800  0.21279100  1
  Ni  Ni28  1  0.68447600  0.19173000  0.50825700  1
  Ni  Ni29  1  0.81552400  0.80827000  0.00825700  1
  Ni  Ni30  1  0.97994300  0.38770600  0.04055500  1
  Ni  Ni31  1  0.40202700  0.02607600  0.74065100  1
  Ni  Ni32  1  0.43832800  0.70039300  0.32089600  1
  Ni  Ni33  1  0.90202700  0.47392400  0.25934900  1
  Ni  Ni34  1  0.93832800  0.79960700  0.67910400  1
  Ni  Ni35  1  0.88318100  0.89678200  0.78720900  1
  Ni  Ni36  1  0.59797300  0.52607600  0.75934900  1
  Ni  Ni37  1  0.18447600  0.30827000  0.49174300  1
  Ni  Ni38  1  0.06167200  0.29960700  0.82089600  1
  Ni  Ni39  1  0.52005700  0.61229400  0.54055500  1
  Cu  Cu40  1  0.64623800  0.10524300  0.40691700  1
  Cu  Cu41  1  0.85376200  0.89475700  0.90691700  1
  Cu  Cu42  1  0.94300500  0.38937500  0.15795600  1
  Cu  Cu43  1  0.44300500  0.11062500  0.84204400  1
  Cu  Cu44  1  0.25563000  0.70145900  0.88050500  1
  Cu  Cu45  1  0.75563000  0.79854100  0.11949500  1
  Cu  Cu46  1  0.47486800  0.69242400  0.43868600  1
  Cu  Cu47  1  0.55699500  0.61062500  0.65795600  1
  Cu  Cu48  1  0.97486800  0.80757600  0.56131400  1
  Cu  Cu49  1  0.52513200  0.19242400  0.06131400  1
  Cu  Cu50  1  0.24437000  0.29854100  0.38050500  1
  Cu  Cu51  1  0.14461100  0.99671700  0.12736900  1
  Cu  Cu52  1  0.02513200  0.30757600  0.93868600  1
  Cu  Cu53  1  0.35376200  0.60524300  0.09308300  1
  Cu  Cu54  1  0.64461100  0.50328300  0.87263100  1
  Cu  Cu55  1  0.85538900  0.49671700  0.37263100  1
  Cu  Cu56  1  0.14623800  0.39475700  0.59308300  1
  Cu  Cu57  1  0.74437000  0.20145900  0.61949500  1
  Cu  Cu58  1  0.35538900  0.00328300  0.62736900  1
  Cu  Cu59  1  0.05699500  0.88937500  0.34204400  1
