# generated using pymatgen
data_Cu7NiC4
_symmetry_space_group_name_H-M   'P 1'
_cell_length_a   10.26685813
_cell_length_b   10.26685813
_cell_length_c   5.89394300
_cell_angle_alpha   90.00000000
_cell_angle_beta   90.00000000
_cell_angle_gamma   120.00000086
_symmetry_Int_Tables_number   1
_chemical_formula_structural   Cu7NiC4
_chemical_formula_sum   'Cu14 Ni2 C8'
_cell_volume   538.03642892
_cell_formula_units_Z   2
loop_
 _symmetry_equiv_pos_site_id
 _symmetry_equiv_pos_as_xyz
  1  'x, y, z'
loop_
 _atom_site_type_symbol
 _atom_site_label
 _atom_site_symmetry_multiplicity
 _atom_site_fract_x
 _atom_site_fract_y
 _atom_site_fract_z
 _atom_site_occupancy
  C  C0  1  0.22906600  0.87261500  0.75056800  1
  C  C1  1  0.35645000  0.22906600  0.25056800  1
  C  C2  1  0.77093400  0.12738500  0.25056800  1
  C  C3  1  0.64355000  0.77093400  0.75056800  1
  C  C4  1  0.12738500  0.35645000  0.75056800  1
  C  C5  1  0.87261500  0.64355000  0.25056800  1
  C  C6  1  0.00000000  0.00000000  0.72133900  1
  C  C7  1  0.00000000  0.00000000  0.22133900  1
  Ni  Ni8  1  0.33333300  0.66666700  0.33236000  1
  Ni  Ni9  1  0.66666700  0.33333300  0.83236000  1
  Cu  Cu10  1  0.83836300  0.09014100  0.73335300  1
  Cu  Cu11  1  0.33333300  0.66666700  0.95862400  1
  Cu  Cu12  1  0.16163700  0.90985900  0.23335300  1
  Cu  Cu13  1  0.41622000  0.52114400  0.48547200  1
  Cu  Cu14  1  0.89507700  0.41622000  0.98547200  1
  Cu  Cu15  1  0.25177800  0.16163700  0.73335300  1
  Cu  Cu16  1  0.10492300  0.58378000  0.48547200  1
  Cu  Cu17  1  0.52114400  0.10492300  0.98547200  1
  Cu  Cu18  1  0.66666700  0.33333300  0.45862400  1
  Cu  Cu19  1  0.47885600  0.89507700  0.48547200  1
  Cu  Cu20  1  0.90985900  0.74822200  0.73335300  1
  Cu  Cu21  1  0.09014100  0.25177800  0.23335300  1
  Cu  Cu22  1  0.74822200  0.83836300  0.23335300  1
  Cu  Cu23  1  0.58378000  0.47885600  0.98547200  1
