# generated using pymatgen
data_Cu7Ni3C41
_symmetry_space_group_name_H-M   'P 1'
_cell_length_a   14.65218214
_cell_length_b   14.65218214
_cell_length_c   6.43755500
_cell_angle_alpha   90.00000000
_cell_angle_beta   90.00000000
_cell_angle_gamma   120.00000065
_symmetry_Int_Tables_number   1
_chemical_formula_structural   Cu7Ni3C41
_chemical_formula_sum   'Cu14 Ni6 C82'
_cell_volume   1196.89540321
_cell_formula_units_Z   2
loop_
 _symmetry_equiv_pos_site_id
 _symmetry_equiv_pos_as_xyz
  1  'x, y, z'
loop_
 _atom_site_type_symbol
 _atom_site_label
 _atom_site_symmetry_multiplicity
 _atom_site_fract_x
 _atom_site_fract_y
 _atom_site_fract_z
 _atom_site_occupancy
  C  C0  1  0.66666700  0.33333300  0.64303300  1
  C  C1  1  0.00000000  0.00000000  0.50259400  1
  C  C2  1  0.33333300  0.66666700  0.14303300  1
  C  C3  1  0.00000000  0.00000000  0.00259400  1
  C  C4  1  0.75561300  0.67904700  0.99330000  1
  C  C5  1  0.14422500  0.68610600  0.41910300  1
  C  C6  1  0.32095300  0.07656600  0.99330000  1
  C  C7  1  0.58271900  0.93506700  0.64919900  1
  C  C8  1  0.68610600  0.54188100  0.91910300  1
  C  C9  1  0.32095300  0.24438700  0.99330000  1
  C  C10  1  0.93506700  0.35234800  0.14919900  1
  C  C11  1  0.36957600  0.12390800  0.45563600  1
  C  C12  1  0.24566800  0.87609200  0.95563600  1
  C  C13  1  0.41728100  0.06493300  0.14919900  1
  C  C14  1  0.26839100  0.13419600  0.31557500  1
  C  C15  1  0.73160900  0.86580400  0.81557500  1
  C  C16  1  0.50213700  0.75106900  0.72190000  1
  C  C17  1  0.35234800  0.41728100  0.64919900  1
  C  C18  1  0.75561300  0.07656600  0.99330000  1
  C  C19  1  0.86580400  0.13419600  0.31557500  1
  C  C20  1  0.93506700  0.58271900  0.14919900  1
  C  C21  1  0.86580400  0.73160900  0.31557500  1
  C  C22  1  0.06493300  0.41728100  0.64919900  1
  C  C23  1  0.36957600  0.24566800  0.45563600  1
  C  C24  1  0.12390800  0.75433200  0.95563600  1
  C  C25  1  0.13419600  0.86580400  0.81557500  1
  C  C26  1  0.87609200  0.63042400  0.45563600  1
  C  C27  1  0.45811900  0.31389400  0.91910300  1
  C  C28  1  0.75433200  0.12390800  0.45563600  1
  C  C29  1  0.14422500  0.45811900  0.41910300  1
  C  C30  1  0.07656600  0.32095300  0.49330000  1
  C  C31  1  0.67904700  0.75561300  0.49330000  1
  C  C32  1  0.64765200  0.06493300  0.14919900  1
  C  C33  1  0.54188100  0.68610600  0.41910300  1
  C  C34  1  0.31389400  0.85577500  0.41910300  1
  C  C35  1  0.24893100  0.49786300  0.72190000  1
  C  C36  1  0.35234800  0.93506700  0.64919900  1
  C  C37  1  0.75106900  0.50213700  0.22190000  1
  C  C38  1  0.58271900  0.64765200  0.64919900  1
  C  C39  1  0.07656600  0.75561300  0.49330000  1
  C  C40  1  0.24438700  0.92343400  0.49330000  1
  C  C41  1  0.67904700  0.92343400  0.49330000  1
  C  C42  1  0.54188100  0.85577500  0.41910300  1
  C  C43  1  0.31389400  0.45811900  0.41910300  1
  C  C44  1  0.24438700  0.32095300  0.49330000  1
  C  C45  1  0.41728100  0.35234800  0.14919900  1
  C  C46  1  0.24893100  0.75106900  0.72190000  1
  C  C47  1  0.92343400  0.67904700  0.99330000  1
  C  C48  1  0.85577500  0.31389400  0.91910300  1
  C  C49  1  0.49786300  0.24893100  0.22190000  1
  C  C50  1  0.12390800  0.36957600  0.95563600  1
  C  C51  1  0.45811900  0.14422500  0.91910300  1
  C  C52  1  0.68610600  0.14422500  0.91910300  1
  C  C53  1  0.13419600  0.26839100  0.81557500  1
  C  C54  1  0.63042400  0.75433200  0.95563600  1
  C  C55  1  0.24566800  0.36957600  0.95563600  1
  C  C56  1  0.92343400  0.24438700  0.99330000  1
  C  C57  1  0.75433200  0.63042400  0.45563600  1
  C  C58  1  0.87609200  0.24566800  0.45563600  1
  C  C59  1  0.63042400  0.87609200  0.95563600  1
  C  C60  1  0.85577500  0.54188100  0.91910300  1
  C  C61  1  0.06493300  0.64765200  0.64919900  1
  C  C62  1  0.64765200  0.58271900  0.14919900  1
  C  C63  1  0.75106900  0.24893100  0.22190000  1
  C  C64  1  0.35110500  0.17555200  0.36441800  1
  C  C65  1  0.28577100  0.88321700  0.54939600  1
  C  C66  1  0.17555200  0.82444800  0.86441800  1
  C  C67  1  0.28577100  0.40255400  0.54939600  1
  C  C68  1  0.82444800  0.64889500  0.36441800  1
  C  C69  1  0.71422900  0.11678300  0.04939600  1
  C  C70  1  0.88321700  0.59744600  0.04939600  1
  C  C71  1  0.71422900  0.59744600  0.04939600  1
  C  C72  1  0.59744600  0.71422900  0.54939600  1
  C  C73  1  0.40255400  0.11678300  0.04939600  1
  C  C74  1  0.17555200  0.35110500  0.86441800  1
  C  C75  1  0.11678300  0.40255400  0.54939600  1
  C  C76  1  0.59744600  0.88321700  0.54939600  1
  C  C77  1  0.82444800  0.17555200  0.36441800  1
  C  C78  1  0.11678300  0.71422900  0.54939600  1
  C  C79  1  0.40255400  0.28577100  0.04939600  1
  C  C80  1  0.88321700  0.28577100  0.04939600  1
  C  C81  1  0.64889500  0.82444800  0.86441800  1
  Ni  Ni82  1  0.58046600  0.79023300  0.67528100  1
  Ni  Ni83  1  0.41953400  0.20976700  0.17528100  1
  Ni  Ni84  1  0.79023300  0.20976700  0.17528100  1
  Ni  Ni85  1  0.20976700  0.41953400  0.67528100  1
  Ni  Ni86  1  0.79023300  0.58046600  0.17528100  1
  Ni  Ni87  1  0.20976700  0.79023300  0.67528100  1
  Cu  Cu88  1  0.07843900  0.15687700  0.25366600  1
  Cu  Cu89  1  0.33333300  0.66666700  0.51506800  1
  Cu  Cu90  1  0.92156100  0.07843900  0.75366600  1
  Cu  Cu91  1  0.92156100  0.84312300  0.75366600  1
  Cu  Cu92  1  0.84297900  0.42148900  0.53009000  1
  Cu  Cu93  1  0.15702100  0.57851100  0.03009000  1
  Cu  Cu94  1  0.42148900  0.57851100  0.03009000  1
  Cu  Cu95  1  0.15687700  0.07843900  0.75366600  1
  Cu  Cu96  1  0.57851100  0.42148900  0.53009000  1
  Cu  Cu97  1  0.42148900  0.84297900  0.03009000  1
  Cu  Cu98  1  0.66666700  0.33333300  0.01506800  1
  Cu  Cu99  1  0.07843900  0.92156100  0.25366600  1
  Cu  Cu100  1  0.84312300  0.92156100  0.25366600  1
  Cu  Cu101  1  0.57851100  0.15702100  0.53009000  1
