# generated using pymatgen
data_Cu(NiC2)2
_symmetry_space_group_name_H-M   'P 1'
_cell_length_a   8.50518169
_cell_length_b   8.50518169
_cell_length_c   9.87948100
_cell_angle_alpha   90.00000000
_cell_angle_beta   90.00000000
_cell_angle_gamma   149.35555404
_symmetry_Int_Tables_number   1
_chemical_formula_structural   Cu(NiC2)2
_chemical_formula_sum   'Cu2 Ni4 C8'
_cell_volume   364.27015746
_cell_formula_units_Z   2
loop_
 _symmetry_equiv_pos_site_id
 _symmetry_equiv_pos_as_xyz
  1  'x, y, z'
loop_
 _atom_site_type_symbol
 _atom_site_label
 _atom_site_symmetry_multiplicity
 _atom_site_fract_x
 _atom_site_fract_y
 _atom_site_fract_z
 _atom_site_occupancy
  C  C0  1  0.23664500  0.76335500  0.75000000  1
  C  C1  1  0.76335500  0.23664500  0.25000000  1
  C  C2  1  0.00000000  0.00000000  0.00000000  1
  C  C3  1  0.00000000  0.00000000  0.50000000  1
  Ni  Ni4  1  0.12126900  0.87873100  0.05398100  1
  Ni  Ni5  1  0.87873100  0.12126900  0.94601900  1
  Ni  Ni6  1  0.87873100  0.12126900  0.55398100  1
  Ni  Ni7  1  0.12126900  0.87873100  0.44601900  1
  Cu  Cu8  1  0.44811000  0.55189000  0.25000000  1
  Cu  Cu9  1  0.55189000  0.44811000  0.75000000  1
  C  C10  1  0.19007700  0.80992300  0.08510500  1
  C  C11  1  0.80992300  0.19007700  0.58510500  1
  C  C12  1  0.19007700  0.80992300  0.41489500  1
  C  C13  1  0.80992300  0.19007700  0.91489500  1
