# generated using pymatgen
data_CuNi8C5
_symmetry_space_group_name_H-M   'P 1'
_cell_length_a   8.85155028
_cell_length_b   8.85155028
_cell_length_c   11.00527378
_cell_angle_alpha   83.18494078
_cell_angle_beta   83.18494078
_cell_angle_gamma   52.34195839
_symmetry_Int_Tables_number   1
_chemical_formula_structural   CuNi8C5
_chemical_formula_sum   'Cu2 Ni16 C10'
_cell_volume   676.63520095
_cell_formula_units_Z   2
loop_
 _symmetry_equiv_pos_site_id
 _symmetry_equiv_pos_as_xyz
  1  'x, y, z'
loop_
 _atom_site_type_symbol
 _atom_site_label
 _atom_site_symmetry_multiplicity
 _atom_site_fract_x
 _atom_site_fract_y
 _atom_site_fract_z
 _atom_site_occupancy
  C  C0  1  0.31811900  0.07423900  0.31607900  1
  C  C1  1  0.92576100  0.68188100  0.18392100  1
  C  C2  1  0.61022600  0.38977400  0.25000000  1
  C  C3  1  0.07423900  0.31811900  0.81607900  1
  C  C4  1  0.68188100  0.92576100  0.68392100  1
  C  C5  1  0.38977400  0.61022600  0.75000000  1
  C  C6  1  0.30587400  0.37448600  0.52969800  1
  C  C7  1  0.69412600  0.62551400  0.47030200  1
  C  C8  1  0.37448600  0.30587400  0.02969800  1
  C  C9  1  0.62551400  0.69412600  0.97030200  1
  Ni  Ni10  1  0.72228800  0.41106000  0.95270100  1
  Ni  Ni11  1  0.71158200  0.85447800  0.41470700  1
  Ni  Ni12  1  0.10668800  0.60199500  0.64480800  1
  Ni  Ni13  1  0.55445500  0.74240100  0.16031400  1
  Ni  Ni14  1  0.89331200  0.39800500  0.35519200  1
  Ni  Ni15  1  0.58894000  0.27771200  0.54729900  1
  Ni  Ni16  1  0.44554500  0.25759900  0.83968600  1
  Ni  Ni17  1  0.41106000  0.72228800  0.45270100  1
  Ni  Ni18  1  0.39800500  0.89331200  0.85519200  1
  Ni  Ni19  1  0.27771200  0.58894000  0.04729900  1
  Ni  Ni20  1  0.25759900  0.44554500  0.33968600  1
  Ni  Ni21  1  0.14552200  0.28841800  0.08529300  1
  Ni  Ni22  1  0.60199500  0.10668800  0.14480800  1
  Ni  Ni23  1  0.74240100  0.55445500  0.66031400  1
  Ni  Ni24  1  0.28841800  0.14552200  0.58529300  1
  Ni  Ni25  1  0.85447800  0.71158200  0.91470700  1
  Cu  Cu26  1  0.00457700  0.99542300  0.25000000  1
  Cu  Cu27  1  0.99542300  0.00457700  0.75000000  1
