# generated using pymatgen
data_Cu4NiC6
_symmetry_space_group_name_H-M   'P 1'
_cell_length_a   5.77273159
_cell_length_b   5.77273159
_cell_length_c   10.84058700
_cell_angle_alpha   90.00000000
_cell_angle_beta   90.00000000
_cell_angle_gamma   119.16121864
_symmetry_Int_Tables_number   1
_chemical_formula_structural   Cu4NiC6
_chemical_formula_sum   'Cu8 Ni2 C12'
_cell_volume   315.46789220
_cell_formula_units_Z   2
loop_
 _symmetry_equiv_pos_site_id
 _symmetry_equiv_pos_as_xyz
  1  'x, y, z'
loop_
 _atom_site_type_symbol
 _atom_site_label
 _atom_site_symmetry_multiplicity
 _atom_site_fract_x
 _atom_site_fract_y
 _atom_site_fract_z
 _atom_site_occupancy
  C  C0  1  0.19090900  0.80909100  0.50000000  1
  C  C1  1  0.19090900  0.80909100  0.00000000  1
  C  C2  1  0.54546200  0.16899200  0.75000000  1
  C  C3  1  0.16899200  0.54546200  0.75000000  1
  C  C4  1  0.50000000  0.50000000  0.00000000  1
  C  C5  1  0.80909100  0.19090900  0.50000000  1
  C  C6  1  0.80909100  0.19090900  0.00000000  1
  C  C7  1  0.50000000  0.50000000  0.50000000  1
  C  C8  1  0.45453800  0.83100800  0.25000000  1
  C  C9  1  0.83100800  0.45453800  0.25000000  1
  C  C10  1  0.20758900  0.20758900  0.25000000  1
  C  C11  1  0.79241100  0.79241100  0.75000000  1
  Ni  Ni12  1  0.90664200  0.90664200  0.25000000  1
  Ni  Ni13  1  0.09335800  0.09335800  0.75000000  1
  Cu  Cu14  1  0.83459800  0.55925200  0.62712500  1
  Cu  Cu15  1  0.55925200  0.83459800  0.62712500  1
  Cu  Cu16  1  0.16540200  0.44074800  0.37287500  1
  Cu  Cu17  1  0.44074800  0.16540200  0.37287500  1
  Cu  Cu18  1  0.44074800  0.16540200  0.12712500  1
  Cu  Cu19  1  0.16540200  0.44074800  0.12712500  1
  Cu  Cu20  1  0.55925200  0.83459800  0.87287500  1
  Cu  Cu21  1  0.83459800  0.55925200  0.87287500  1
