# generated using pymatgen
data_Cu4Ni2C3
_symmetry_space_group_name_H-M   'P 1'
_cell_length_a   10.06299500
_cell_length_b   11.50996500
_cell_length_c   14.86817033
_cell_angle_alpha   88.57746427
_cell_angle_beta   90.00000000
_cell_angle_gamma   90.00000000
_symmetry_Int_Tables_number   1
_chemical_formula_structural   Cu4Ni2C3
_chemical_formula_sum   'Cu48 Ni24 C36'
_cell_volume   1721.57092194
_cell_formula_units_Z   12
loop_
 _symmetry_equiv_pos_site_id
 _symmetry_equiv_pos_as_xyz
  1  'x, y, z'
loop_
 _atom_site_type_symbol
 _atom_site_label
 _atom_site_symmetry_multiplicity
 _atom_site_fract_x
 _atom_site_fract_y
 _atom_site_fract_z
 _atom_site_occupancy
  C  C0  1  0.11323800  0.26000200  0.30879700  1
  C  C1  1  0.38676200  0.76000200  0.80879700  1
  C  C2  1  0.42214400  0.25596300  0.36519600  1
  C  C3  1  0.88676200  0.73999800  0.69120300  1
  C  C4  1  0.50000000  0.00000000  0.50000000  1
  C  C5  1  0.57785600  0.74403700  0.63480400  1
  C  C6  1  0.61323800  0.23999800  0.19120300  1
  C  C7  1  0.92214400  0.24403700  0.13480400  1
  C  C8  1  0.07785600  0.75596300  0.86519600  1
  C  C9  1  0.00000000  0.50000000  0.00000000  1
  C  C10  1  0.50000000  0.50000000  0.50000000  1
  C  C11  1  0.00000000  0.00000000  0.00000000  1
  C  C12  1  0.04039800  0.52868100  0.26995500  1
  C  C13  1  0.74638700  0.63466900  0.87286700  1
  C  C14  1  0.75361300  0.13466900  0.37286700  1
  C  C15  1  0.16299200  0.30862000  0.92495200  1
  C  C16  1  0.20242600  0.01711100  0.23491800  1
  C  C17  1  0.10737800  0.06373300  0.45912300  1
  C  C18  1  0.83700800  0.69138000  0.07504800  1
  C  C19  1  0.45960200  0.02868100  0.76995500  1
  C  C20  1  0.89262200  0.93626700  0.54087700  1
  C  C21  1  0.33700800  0.80862000  0.42495200  1
  C  C22  1  0.95960200  0.47131900  0.73004500  1
  C  C23  1  0.29757400  0.51711100  0.73491800  1
  C  C24  1  0.70489000  0.00010900  0.00974600  1
  C  C25  1  0.60737800  0.43626700  0.04087700  1
  C  C26  1  0.79757400  0.98288900  0.76508200  1
  C  C27  1  0.39262200  0.56373300  0.95912300  1
  C  C28  1  0.25361300  0.36533100  0.12713300  1
  C  C29  1  0.66299200  0.19138000  0.57504800  1
  C  C30  1  0.79511000  0.50010900  0.50974600  1
  C  C31  1  0.54039800  0.97131900  0.23004500  1
  C  C32  1  0.20489000  0.49989100  0.49025400  1
  C  C33  1  0.70242600  0.48288900  0.26508200  1
  C  C34  1  0.24638700  0.86533100  0.62713300  1
  C  C35  1  0.29511000  0.99989100  0.99025400  1
  Ni  Ni36  1  0.71510900  0.42075100  0.05058900  1
  Ni  Ni37  1  0.13022400  0.04842500  0.18342000  1
  Ni  Ni38  1  0.86977600  0.95157500  0.81658000  1
  Ni  Ni39  1  0.59913200  0.24306400  0.52877200  1
  Ni  Ni40  1  0.22529200  0.42908500  0.44338000  1
  Ni  Ni41  1  0.83294400  0.17102400  0.32908800  1
  Ni  Ni42  1  0.51662900  0.01987100  0.29139300  1
  Ni  Ni43  1  0.48337100  0.98012900  0.70860700  1
  Ni  Ni44  1  0.16705600  0.82897600  0.67091200  1
  Ni  Ni45  1  0.01662900  0.48012900  0.20860700  1
  Ni  Ni46  1  0.78489100  0.92075100  0.55058900  1
  Ni  Ni47  1  0.09913200  0.25693600  0.97122800  1
  Ni  Ni48  1  0.33294400  0.32897600  0.17091200  1
  Ni  Ni49  1  0.28489100  0.57924900  0.94941100  1
  Ni  Ni50  1  0.72529200  0.07091500  0.05662000  1
  Ni  Ni51  1  0.90086800  0.74306400  0.02877200  1
  Ni  Ni52  1  0.66705600  0.67102400  0.82908800  1
  Ni  Ni53  1  0.36977600  0.54842500  0.68342000  1
  Ni  Ni54  1  0.21510900  0.07924900  0.44941100  1
  Ni  Ni55  1  0.40086800  0.75693600  0.47122800  1
  Ni  Ni56  1  0.63022400  0.45157500  0.31658000  1
  Ni  Ni57  1  0.77470800  0.57091500  0.55662000  1
  Ni  Ni58  1  0.98337100  0.51987100  0.79139300  1
  Ni  Ni59  1  0.27470800  0.92908500  0.94338000  1
  Cu  Cu60  1  0.47422800  0.81566200  0.52501100  1
  Cu  Cu61  1  0.20472900  0.52169100  0.99683900  1
  Cu  Cu62  1  0.49950000  0.96412700  0.36366000  1
  Cu  Cu63  1  0.60440700  0.35123700  0.53202400  1
  Cu  Cu64  1  0.69858400  0.69468500  0.74679300  1
  Cu  Cu65  1  0.34773400  0.39750600  0.43660500  1
  Cu  Cu66  1  0.29527100  0.02169100  0.49683900  1
  Cu  Cu67  1  0.50050000  0.03587300  0.63634000  1
  Cu  Cu68  1  0.41880100  0.65011300  0.69582900  1
  Cu  Cu69  1  0.91880100  0.84988700  0.80417100  1
  Cu  Cu70  1  0.10440700  0.14876300  0.96797600  1
  Cu  Cu71  1  0.00899600  0.36896800  0.21865200  1
  Cu  Cu72  1  0.39543800  0.48342900  0.61975500  1
  Cu  Cu73  1  0.65226600  0.60249400  0.56339500  1
  Cu  Cu74  1  0.89543800  0.01657100  0.88024500  1
  Cu  Cu75  1  0.79527100  0.47830900  0.00316100  1
  Cu  Cu76  1  0.02577200  0.31566200  0.02501100  1
  Cu  Cu77  1  0.99950000  0.53587300  0.13634000  1
  Cu  Cu78  1  0.60456200  0.51657100  0.38024500  1
  Cu  Cu79  1  0.70472900  0.97830900  0.50316100  1
  Cu  Cu80  1  0.39559300  0.64876300  0.46797600  1
  Cu  Cu81  1  0.25410300  0.65649500  0.88856600  1
  Cu  Cu82  1  0.55443200  0.68523900  0.86338300  1
  Cu  Cu83  1  0.62892000  0.11295300  0.09824900  1
  Cu  Cu84  1  0.24589700  0.15649500  0.38856600  1
  Cu  Cu85  1  0.75410300  0.84350500  0.61143400  1
  Cu  Cu86  1  0.15226600  0.89750600  0.93660500  1
  Cu  Cu87  1  0.58119900  0.34988700  0.30417100  1
  Cu  Cu88  1  0.00050000  0.46412700  0.86366000  1
  Cu  Cu89  1  0.80141600  0.19468500  0.24679300  1
  Cu  Cu90  1  0.12892000  0.38704700  0.40175100  1
  Cu  Cu91  1  0.37108000  0.88704700  0.90175100  1
  Cu  Cu92  1  0.49100400  0.86896800  0.71865200  1
  Cu  Cu93  1  0.52577200  0.18433800  0.47498900  1
  Cu  Cu94  1  0.99100400  0.63103200  0.78134800  1
  Cu  Cu95  1  0.10456200  0.98342900  0.11975500  1
  Cu  Cu96  1  0.50899600  0.13103200  0.28134800  1
  Cu  Cu97  1  0.44556800  0.31476100  0.13661700  1
  Cu  Cu98  1  0.89559300  0.85123700  0.03202400  1
  Cu  Cu99  1  0.97422800  0.68433800  0.97498900  1
  Cu  Cu100  1  0.84773400  0.10249400  0.06339500  1
  Cu  Cu101  1  0.19858400  0.80531500  0.75320700  1
  Cu  Cu102  1  0.08119900  0.15011300  0.19582900  1
  Cu  Cu103  1  0.74589700  0.34350500  0.11143400  1
  Cu  Cu104  1  0.87108000  0.61295300  0.59824900  1
  Cu  Cu105  1  0.94556800  0.18523900  0.36338300  1
  Cu  Cu106  1  0.05443200  0.81476100  0.63661700  1
  Cu  Cu107  1  0.30141600  0.30531500  0.25320700  1
