# generated using pymatgen
data_Cu2NiC9
_symmetry_space_group_name_H-M   'P 1'
_cell_length_a   10.05556000
_cell_length_b   10.49166400
_cell_length_c   14.96714200
_cell_angle_alpha   90.00000000
_cell_angle_beta   90.00000000
_cell_angle_gamma   90.00000000
_symmetry_Int_Tables_number   1
_chemical_formula_structural   Cu2NiC9
_chemical_formula_sum   'Cu16 Ni8 C72'
_cell_volume   1579.02684834
_cell_formula_units_Z   8
loop_
 _symmetry_equiv_pos_site_id
 _symmetry_equiv_pos_as_xyz
  1  'x, y, z'
loop_
 _atom_site_type_symbol
 _atom_site_label
 _atom_site_symmetry_multiplicity
 _atom_site_fract_x
 _atom_site_fract_y
 _atom_site_fract_z
 _atom_site_occupancy
  C  C0  1  0.77736800  0.03497000  0.89633500  1
  C  C1  1  0.77736800  0.53497000  0.60366500  1
  C  C2  1  0.22263200  0.46503000  0.39633500  1
  C  C3  1  0.72263200  0.03497000  0.39633500  1
  C  C4  1  0.72263200  0.53497000  0.10366500  1
  C  C5  1  0.27736800  0.46503000  0.89633500  1
  C  C6  1  0.27736800  0.96503000  0.60366500  1
  C  C7  1  0.22263200  0.96503000  0.10366500  1
  Ni  Ni8  1  0.69351300  0.68149400  0.30562700  1
  Ni  Ni9  1  0.19351300  0.31850600  0.19437300  1
  Ni  Ni10  1  0.69351300  0.18149400  0.19437300  1
  Ni  Ni11  1  0.30648700  0.31850600  0.69437300  1
  Ni  Ni12  1  0.80648700  0.18149400  0.69437300  1
  Ni  Ni13  1  0.30648700  0.81850600  0.80562700  1
  Ni  Ni14  1  0.80648700  0.68149400  0.80562700  1
  Ni  Ni15  1  0.19351300  0.81850600  0.30562700  1
  Cu  Cu16  1  0.32894700  0.60262500  0.15335400  1
  Cu  Cu17  1  0.99810300  0.22077400  0.55816300  1
  Cu  Cu18  1  0.00189700  0.77922600  0.44183700  1
  Cu  Cu19  1  0.82894700  0.89737500  0.15335400  1
  Cu  Cu20  1  0.67105300  0.39737500  0.84664600  1
  Cu  Cu21  1  0.17105300  0.60262500  0.65335400  1
  Cu  Cu22  1  0.67105300  0.89737500  0.65335400  1
  Cu  Cu23  1  0.82894700  0.39737500  0.34664600  1
  Cu  Cu24  1  0.32894700  0.10262500  0.34664600  1
  Cu  Cu25  1  0.50189700  0.22077400  0.05816300  1
  Cu  Cu26  1  0.99810300  0.72077400  0.94183700  1
  Cu  Cu27  1  0.17105300  0.10262500  0.84664600  1
  Cu  Cu28  1  0.50189700  0.72077400  0.44183700  1
  Cu  Cu29  1  0.49810300  0.27922600  0.55816300  1
  Cu  Cu30  1  0.49810300  0.77922600  0.94183700  1
  Cu  Cu31  1  0.00189700  0.27922600  0.05816300  1
  C  C32  1  0.78631900  0.42291300  0.46042400  1
  C  C33  1  0.59299000  0.13427100  0.97588100  1
  C  C34  1  0.61367500  0.31641700  0.13160000  1
  C  C35  1  0.60546200  0.66762000  0.99571800  1
  C  C36  1  0.10546200  0.33238000  0.50428200  1
  C  C37  1  0.38632500  0.18358300  0.63160000  1
  C  C38  1  0.71368100  0.42291300  0.96042400  1
  C  C39  1  0.09850600  0.11491300  0.62416200  1
  C  C40  1  0.90149400  0.38508700  0.12416200  1
  C  C41  1  0.27420000  0.76184100  0.18338400  1
  C  C42  1  0.49555600  0.91237200  0.66536500  1
  C  C43  1  0.49555600  0.41237200  0.83463500  1
  C  C44  1  0.90701000  0.13427100  0.47588100  1
  C  C45  1  0.11367500  0.18358300  0.13160000  1
  C  C46  1  0.39453800  0.33238000  0.00428200  1
  C  C47  1  0.00444400  0.41237200  0.33463500  1
  C  C48  1  0.59299000  0.63427100  0.52411900  1
  C  C49  1  0.25555800  0.48718600  0.72656400  1
  C  C50  1  0.24444200  0.98718600  0.27343600  1
  C  C51  1  0.90701000  0.63427100  0.02411900  1
  C  C52  1  0.89453800  0.66762000  0.49571800  1
  C  C53  1  0.99555600  0.08762800  0.83463500  1
  C  C54  1  0.09299000  0.36572900  0.97588100  1
  C  C55  1  0.88632500  0.81641700  0.86840000  1
  C  C56  1  0.74444200  0.51281400  0.27343600  1
  C  C57  1  0.11367500  0.68358300  0.36840000  1
  C  C58  1  0.50444400  0.58762800  0.16536500  1
  C  C59  1  0.40701000  0.36572900  0.47588100  1
  C  C60  1  0.72580000  0.23815900  0.81661600  1
  C  C61  1  0.88632500  0.31641700  0.63160000  1
  C  C62  1  0.72580000  0.73815900  0.68338400  1
  C  C63  1  0.21368100  0.07708700  0.96042400  1
  C  C64  1  0.22580000  0.26184100  0.81661600  1
  C  C65  1  0.28631900  0.57708700  0.03957600  1
  C  C66  1  0.89453800  0.16762000  0.00428200  1
  C  C67  1  0.77420000  0.73815900  0.18338400  1
  C  C68  1  0.39453800  0.83238000  0.49571800  1
  C  C69  1  0.59850600  0.88508700  0.87583800  1
  C  C70  1  0.60546200  0.16762000  0.50428200  1
  C  C71  1  0.99555600  0.58762800  0.66536500  1
  C  C72  1  0.25555800  0.98718600  0.77343600  1
  C  C73  1  0.09850600  0.61491300  0.87583800  1
  C  C74  1  0.75555800  0.51281400  0.77343600  1
  C  C75  1  0.40701000  0.86572900  0.02411900  1
  C  C76  1  0.38632500  0.68358300  0.86840000  1
  C  C77  1  0.21368100  0.57708700  0.53957600  1
  C  C78  1  0.61367500  0.81641700  0.36840000  1
  C  C79  1  0.00444400  0.91237200  0.16536500  1
  C  C80  1  0.59850600  0.38508700  0.62416200  1
  C  C81  1  0.10546200  0.83238000  0.99571800  1
  C  C82  1  0.28631900  0.07708700  0.46042400  1
  C  C83  1  0.78631900  0.92291300  0.03957600  1
  C  C84  1  0.75555800  0.01281400  0.72656400  1
  C  C85  1  0.90149400  0.88508700  0.37583800  1
  C  C86  1  0.40149400  0.61491300  0.37583800  1
  C  C87  1  0.71368100  0.92291300  0.53957600  1
  C  C88  1  0.22580000  0.76184100  0.68338400  1
  C  C89  1  0.40149400  0.11491300  0.12416200  1
  C  C90  1  0.77420000  0.23815900  0.31661600  1
  C  C91  1  0.27420000  0.26184100  0.31661600  1
  C  C92  1  0.24444200  0.48718600  0.22656400  1
  C  C93  1  0.74444200  0.01281400  0.22656400  1
  C  C94  1  0.50444400  0.08762800  0.33463500  1
  C  C95  1  0.09299000  0.86572900  0.52411900  1
