# generated using pymatgen
data_Cu(NiC2)2
_symmetry_space_group_name_H-M   'P 1'
_cell_length_a   7.02618500
_cell_length_b   6.52136700
_cell_length_c   12.11741832
_cell_angle_alpha   84.75507302
_cell_angle_beta   90.00000000
_cell_angle_gamma   90.00000000
_symmetry_Int_Tables_number   1
_chemical_formula_structural   Cu(NiC2)2
_chemical_formula_sum   'Cu4 Ni8 C16'
_cell_volume   552.89940907
_cell_formula_units_Z   4
loop_
 _symmetry_equiv_pos_site_id
 _symmetry_equiv_pos_as_xyz
  1  'x, y, z'
loop_
 _atom_site_type_symbol
 _atom_site_label
 _atom_site_symmetry_multiplicity
 _atom_site_fract_x
 _atom_site_fract_y
 _atom_site_fract_z
 _atom_site_occupancy
  Ni  Ni0  1  0.16634900  0.57850100  0.85265000  1
  Ni  Ni1  1  0.64033400  0.93045400  0.14189100  1
  Ni  Ni2  1  0.14033400  0.06954600  0.35810900  1
  Ni  Ni3  1  0.33365100  0.57850100  0.35265000  1
  Ni  Ni4  1  0.66634900  0.42149900  0.64735000  1
  Ni  Ni5  1  0.35966600  0.06954600  0.85810900  1
  Ni  Ni6  1  0.83365100  0.42149900  0.14735000  1
  Ni  Ni7  1  0.85966600  0.93045400  0.64189100  1
  Cu  Cu8  1  0.12506300  0.35910300  0.58664100  1
  Cu  Cu9  1  0.87493700  0.64089700  0.41335900  1
  Cu  Cu10  1  0.62506300  0.64089700  0.91335900  1
  Cu  Cu11  1  0.37493700  0.35910300  0.08664100  1
  C  C12  1  0.62599400  0.14753900  0.40935300  1
  C  C13  1  0.87400600  0.14753900  0.90935300  1
  C  C14  1  0.12599400  0.85246100  0.09064700  1
  C  C15  1  0.37400600  0.85246100  0.59064700  1
  C  C16  1  0.49336900  0.24507500  0.25527800  1
  C  C17  1  0.11831600  0.71604000  0.53539400  1
  C  C18  1  0.38168400  0.71604000  0.03539400  1
  C  C19  1  0.61831600  0.28396000  0.96460600  1
  C  C20  1  0.90028800  0.80595300  0.95794900  1
  C  C21  1  0.09971200  0.19404700  0.04205100  1
  C  C22  1  0.40028800  0.19404700  0.54205100  1
  C  C23  1  0.00663100  0.24507500  0.75527800  1
  C  C24  1  0.50663100  0.75492500  0.74472200  1
  C  C25  1  0.99336900  0.75492500  0.24472200  1
  C  C26  1  0.88168400  0.28396000  0.46460600  1
  C  C27  1  0.59971200  0.80595300  0.45794900  1
