# generated using pymatgen
data_Cu3Ni5C22
_symmetry_space_group_name_H-M   'P 1'
_cell_length_a   8.75317349
_cell_length_b   8.75317349
_cell_length_c   10.52292373
_cell_angle_alpha   84.62132230
_cell_angle_beta   84.62132230
_cell_angle_gamma   61.11008989
_symmetry_Int_Tables_number   1
_chemical_formula_structural   Cu3Ni5C22
_chemical_formula_sum   'Cu6 Ni10 C44'
_cell_volume   701.71364476
_cell_formula_units_Z   2
loop_
 _symmetry_equiv_pos_site_id
 _symmetry_equiv_pos_as_xyz
  1  'x, y, z'
loop_
 _atom_site_type_symbol
 _atom_site_label
 _atom_site_symmetry_multiplicity
 _atom_site_fract_x
 _atom_site_fract_y
 _atom_site_fract_z
 _atom_site_occupancy
  C  C0  1  0.33941900  0.06467600  0.08164400  1
  C  C1  1  0.36202200  0.67681800  0.96140400  1
  C  C2  1  0.93532400  0.66058100  0.41835600  1
  C  C3  1  0.32318200  0.63797800  0.53859700  1
  C  C4  1  0.67681800  0.36202200  0.46140300  1
  C  C5  1  0.06467600  0.33941900  0.58164400  1
  C  C6  1  0.66058100  0.93532400  0.91835600  1
  C  C7  1  0.63797800  0.32318200  0.03859700  1
  Ni  Ni8  1  0.31422100  0.98624200  0.73580400  1
  Ni  Ni9  1  0.98624200  0.31422100  0.23580400  1
  Ni  Ni10  1  0.14344100  0.52964200  0.05309300  1
  Ni  Ni11  1  0.52964200  0.14344100  0.55309300  1
  Ni  Ni12  1  0.47035800  0.85655900  0.44690700  1
  Ni  Ni13  1  0.83040300  0.16959700  0.75000000  1
  Ni  Ni14  1  0.16959700  0.83040300  0.25000000  1
  Ni  Ni15  1  0.85655900  0.47035800  0.94690700  1
  Ni  Ni16  1  0.68577900  0.01375800  0.26419600  1
  Ni  Ni17  1  0.01375800  0.68577900  0.76419600  1
  Cu  Cu18  1  0.66587900  0.65007500  0.69828500  1
  Cu  Cu19  1  0.00000000  0.00000000  0.00000000  1
  Cu  Cu20  1  0.00000000  0.00000000  0.50000000  1
  Cu  Cu21  1  0.65007500  0.66587900  0.19828500  1
  Cu  Cu22  1  0.33412100  0.34992500  0.30171500  1
  Cu  Cu23  1  0.34992500  0.33412100  0.80171500  1
  C  C24  1  0.88612800  0.58999500  0.59898900  1
  C  C25  1  0.24310100  0.90016700  0.55075100  1
  C  C26  1  0.42803400  0.76782600  0.29884600  1
  C  C27  1  0.92004100  0.93416800  0.16549600  1
  C  C28  1  0.09983300  0.75689900  0.94924900  1
  C  C29  1  0.06583200  0.07995900  0.33450400  1
  C  C30  1  0.57141300  0.57954100  0.06865500  1
  C  C31  1  0.91644100  0.22781700  0.57549800  1
  C  C32  1  0.08355900  0.77218300  0.42450200  1
  C  C33  1  0.22323700  0.27934200  0.17084000  1
  C  C34  1  0.44562200  0.74953300  0.80186900  1
  C  C35  1  0.77676300  0.72065800  0.82916000  1
  C  C36  1  0.75689900  0.09983300  0.44924900  1
  C  C37  1  0.54615100  0.88837500  0.61246100  1
  C  C38  1  0.25046700  0.55437800  0.69813100  1
  C  C39  1  0.42858700  0.42045900  0.93134500  1
  C  C40  1  0.55437800  0.25046700  0.19813100  1
  C  C41  1  0.11162500  0.45384900  0.88753900  1
  C  C42  1  0.23217400  0.57196600  0.20115400  1
  C  C43  1  0.74953300  0.44562200  0.30186900  1
  C  C44  1  0.58999500  0.88612800  0.09898900  1
  C  C45  1  0.45384900  0.11162500  0.38753900  1
  C  C46  1  0.77218300  0.08355900  0.92450200  1
  C  C47  1  0.57954100  0.57141300  0.56865500  1
  C  C48  1  0.57196600  0.23217400  0.70115400  1
  C  C49  1  0.93416800  0.92004100  0.66549600  1
  C  C50  1  0.27934200  0.22323700  0.67084000  1
  C  C51  1  0.42045900  0.42858700  0.43134500  1
  C  C52  1  0.90016700  0.24310100  0.05075100  1
  C  C53  1  0.88837500  0.54615100  0.11246100  1
  C  C54  1  0.11387200  0.41000500  0.40101100  1
  C  C55  1  0.07995900  0.06583200  0.83450400  1
  C  C56  1  0.22781700  0.91644100  0.07549800  1
  C  C57  1  0.72065800  0.77676300  0.32916000  1
  C  C58  1  0.76782600  0.42803400  0.79884600  1
  C  C59  1  0.41000500  0.11387200  0.90101100  1
