# generated using pymatgen
data_CuNiC4
_symmetry_space_group_name_H-M   'P 1'
_cell_length_a   4.23943700
_cell_length_b   10.42051900
_cell_length_c   13.41209206
_cell_angle_alpha   88.58479848
_cell_angle_beta   90.00000000
_cell_angle_gamma   90.00000000
_symmetry_Int_Tables_number   1
_chemical_formula_structural   CuNiC4
_chemical_formula_sum   'Cu4 Ni4 C16'
_cell_volume   592.32705427
_cell_formula_units_Z   4
loop_
 _symmetry_equiv_pos_site_id
 _symmetry_equiv_pos_as_xyz
  1  'x, y, z'
loop_
 _atom_site_type_symbol
 _atom_site_label
 _atom_site_symmetry_multiplicity
 _atom_site_fract_x
 _atom_site_fract_y
 _atom_site_fract_z
 _atom_site_occupancy
  C  C0  1  0.25000000  0.80452100  0.38339700  1
  C  C1  1  0.75000000  0.64843700  0.62941500  1
  C  C2  1  0.75000000  0.60441800  0.17469800  1
  C  C3  1  0.25000000  0.92441600  0.90437200  1
  C  C4  1  0.25000000  0.39558200  0.82530200  1
  C  C5  1  0.75000000  0.19547900  0.61660300  1
  C  C6  1  0.75000000  0.07558400  0.09562800  1
  C  C7  1  0.25000000  0.35156300  0.37058500  1
  Ni  Ni8  1  0.25000000  0.83903600  0.14728300  1
  Ni  Ni9  1  0.75000000  0.58333100  0.39553400  1
  Ni  Ni10  1  0.75000000  0.16096400  0.85271700  1
  Ni  Ni11  1  0.25000000  0.41666900  0.60446600  1
  Cu  Cu12  1  0.25000000  0.34742700  0.09617500  1
  Cu  Cu13  1  0.25000000  0.92110300  0.64202900  1
  Cu  Cu14  1  0.75000000  0.65257300  0.90382500  1
  Cu  Cu15  1  0.75000000  0.07889700  0.35797100  1
  C  C16  1  0.75000000  0.47764500  0.33964700  1
  C  C17  1  0.25000000  0.30529000  0.55519300  1
  C  C18  1  0.25000000  0.52235500  0.66035300  1
  C  C19  1  0.75000000  0.26894800  0.79475700  1
  C  C20  1  0.75000000  0.69471000  0.44480700  1
  C  C21  1  0.25000000  0.73105200  0.20524300  1
  C  C22  1  0.25000000  0.94717400  0.09053300  1
  C  C23  1  0.75000000  0.05282600  0.90946700  1
