# generated using pymatgen
data_Cu4NiC3
_symmetry_space_group_name_H-M   'P 1'
_cell_length_a   9.29151800
_cell_length_b   6.59413200
_cell_length_c   19.17023824
_cell_angle_alpha   73.60604093
_cell_angle_beta   90.00000000
_cell_angle_gamma   90.00000000
_symmetry_Int_Tables_number   1
_chemical_formula_structural   Cu4NiC3
_chemical_formula_sum   'Cu32 Ni8 C24'
_cell_volume   1126.79799114
_cell_formula_units_Z   8
loop_
 _symmetry_equiv_pos_site_id
 _symmetry_equiv_pos_as_xyz
  1  'x, y, z'
loop_
 _atom_site_type_symbol
 _atom_site_label
 _atom_site_symmetry_multiplicity
 _atom_site_fract_x
 _atom_site_fract_y
 _atom_site_fract_z
 _atom_site_occupancy
  C  C0  1  0.11367300  0.50971300  0.73095900  1
  C  C1  1  0.38632700  0.50971300  0.23095900  1
  C  C2  1  0.88632700  0.49028700  0.26904100  1
  C  C3  1  0.61367300  0.49028700  0.76904100  1
  C  C4  1  0.24376900  0.06388800  0.32317900  1
  C  C5  1  0.75623100  0.93611200  0.67682100  1
  C  C6  1  0.45761000  0.19168800  0.68000000  1
  C  C7  1  0.95761000  0.80831200  0.82000000  1
  C  C8  1  0.25623100  0.06388800  0.82317900  1
  C  C9  1  0.54239000  0.80831200  0.32000000  1
  C  C10  1  0.04239000  0.19168800  0.18000000  1
  C  C11  1  0.74376900  0.93611200  0.17682100  1
  C  C12  1  0.29630700  0.54249900  0.89138600  1
  C  C13  1  0.08089700  0.77701600  0.11170400  1
  C  C14  1  0.39205000  0.09163600  0.13891700  1
  C  C15  1  0.10795000  0.09163600  0.63891700  1
  C  C16  1  0.41910300  0.77701600  0.61170400  1
  C  C17  1  0.60795000  0.90836400  0.86108300  1
  C  C18  1  0.58089700  0.22298400  0.38829600  1
  C  C19  1  0.89205000  0.90836400  0.36108300  1
  C  C20  1  0.91910300  0.22298400  0.88829600  1
  C  C21  1  0.79630700  0.45750100  0.60861400  1
  C  C22  1  0.70369300  0.45750100  0.10861400  1
  C  C23  1  0.20369300  0.54249900  0.39138600  1
  Ni  Ni24  1  0.67547600  0.09589000  0.04606800  1
  Ni  Ni25  1  0.82452400  0.09589000  0.54606800  1
  Ni  Ni26  1  0.32452400  0.90411000  0.95393200  1
  Ni  Ni27  1  0.10943200  0.25654500  0.04946400  1
  Ni  Ni28  1  0.17547600  0.90411000  0.45393200  1
  Ni  Ni29  1  0.60943200  0.74345500  0.45053600  1
  Ni  Ni30  1  0.39056800  0.25654500  0.54946400  1
  Ni  Ni31  1  0.89056800  0.74345500  0.95053600  1
  Cu  Cu32  1  0.01258400  0.62540400  0.35400700  1
  Cu  Cu33  1  0.26818800  0.17331800  0.20637300  1
  Cu  Cu34  1  0.80673400  0.23554300  0.17510800  1
  Cu  Cu35  1  0.23181200  0.17331800  0.70637300  1
  Cu  Cu36  1  0.02190000  0.10123200  0.82434000  1
  Cu  Cu37  1  0.22888800  0.80415600  0.64925200  1
  Cu  Cu38  1  0.97980600  0.90382400  0.70460700  1
  Cu  Cu39  1  0.51258400  0.37459600  0.14599300  1
  Cu  Cu40  1  0.73682500  0.63508700  0.16951500  1
  Cu  Cu41  1  0.05710400  0.50306600  0.17709300  1
  Cu  Cu42  1  0.72888800  0.19584400  0.85074800  1
  Cu  Cu43  1  0.02019400  0.09617600  0.29539300  1
  Cu  Cu44  1  0.76818800  0.82668200  0.29362700  1
  Cu  Cu45  1  0.19326600  0.76445700  0.82489200  1
  Cu  Cu46  1  0.27111200  0.80415600  0.14925200  1
  Cu  Cu47  1  0.69326600  0.23554300  0.67510800  1
  Cu  Cu48  1  0.97810000  0.89876800  0.17566000  1
  Cu  Cu49  1  0.23682500  0.36491300  0.33048500  1
  Cu  Cu50  1  0.52190000  0.89876800  0.67566000  1
  Cu  Cu51  1  0.44289600  0.50306600  0.67709300  1
  Cu  Cu52  1  0.30673400  0.76445700  0.32489200  1
  Cu  Cu53  1  0.55710400  0.49693400  0.32290700  1
  Cu  Cu54  1  0.73181200  0.82668200  0.79362700  1
  Cu  Cu55  1  0.26317500  0.36491300  0.83048500  1
  Cu  Cu56  1  0.47980600  0.09617600  0.79539300  1
  Cu  Cu57  1  0.77111200  0.19584400  0.35074800  1
  Cu  Cu58  1  0.98741600  0.37459600  0.64599300  1
  Cu  Cu59  1  0.94289600  0.49693400  0.82290700  1
  Cu  Cu60  1  0.47810000  0.10123200  0.32434000  1
  Cu  Cu61  1  0.52019400  0.90382400  0.20460700  1
  Cu  Cu62  1  0.48741600  0.62540400  0.85400700  1
  Cu  Cu63  1  0.76317500  0.63508700  0.66951500  1
