# generated using pymatgen
data_Cu2NiC4
_symmetry_space_group_name_H-M   'P 1'
_cell_length_a   6.17552206
_cell_length_b   6.17552206
_cell_length_c   30.46183700
_cell_angle_alpha   90.00000000
_cell_angle_beta   90.00000000
_cell_angle_gamma   120.00000062
_symmetry_Int_Tables_number   1
_chemical_formula_structural   Cu2NiC4
_chemical_formula_sum   'Cu24 Ni12 C48'
_cell_volume   1006.08360860
_cell_formula_units_Z   12
loop_
 _symmetry_equiv_pos_site_id
 _symmetry_equiv_pos_as_xyz
  1  'x, y, z'
loop_
 _atom_site_type_symbol
 _atom_site_label
 _atom_site_symmetry_multiplicity
 _atom_site_fract_x
 _atom_site_fract_y
 _atom_site_fract_z
 _atom_site_occupancy
  Ni  Ni0  1  0.33333300  0.66666700  0.95689400  1
  Ni  Ni1  1  0.66666700  0.33333300  0.98098900  1
  Ni  Ni2  1  0.66666700  0.33333300  0.78975300  1
  Ni  Ni3  1  0.00000000  0.00000000  0.81071500  1
  Ni  Ni4  1  0.00000000  0.00000000  0.62310000  1
  Ni  Ni5  1  0.00000000  0.00000000  0.49994800  1
  Ni  Ni6  1  0.66666700  0.33333300  0.66878100  1
  Ni  Ni7  1  0.33333300  0.66666700  0.45895100  1
  Ni  Ni8  1  0.66666700  0.33333300  0.29230300  1
  Ni  Ni9  1  0.33333300  0.66666700  0.33319700  1
  Ni  Ni10  1  0.00000000  0.00000000  0.12495200  1
  Ni  Ni11  1  0.66666700  0.33333300  0.16536500  1
  Cu  Cu12  1  0.00000000  0.00000000  0.00198600  1
  Cu  Cu13  1  0.82853200  0.17146800  0.89584200  1
  Cu  Cu14  1  0.34293600  0.17146800  0.89584200  1
  Cu  Cu15  1  0.33333300  0.66666700  0.83692100  1
  Cu  Cu16  1  0.82853200  0.65706400  0.89584200  1
  Cu  Cu17  1  0.16395600  0.83604400  0.72698600  1
  Cu  Cu18  1  0.67208900  0.83604400  0.72698600  1
  Cu  Cu19  1  0.16395600  0.32791100  0.72698600  1
  Cu  Cu20  1  0.50015300  0.49984700  0.56264200  1
  Cu  Cu21  1  0.99969400  0.49984700  0.56264200  1
  Cu  Cu22  1  0.33333300  0.66666700  0.64519800  1
  Cu  Cu23  1  0.50015300  0.00030600  0.56264200  1
  Cu  Cu24  1  0.83320600  0.16679400  0.39605100  1
  Cu  Cu25  1  0.66666700  0.33333300  0.47941300  1
  Cu  Cu26  1  0.33358700  0.16679400  0.39605100  1
  Cu  Cu27  1  0.83320600  0.66641300  0.39605100  1
  Cu  Cu28  1  0.16606300  0.83393700  0.22956100  1
  Cu  Cu29  1  0.00000000  0.00000000  0.31293000  1
  Cu  Cu30  1  0.66787300  0.83393700  0.22956100  1
  Cu  Cu31  1  0.16606300  0.33212700  0.22956100  1
  Cu  Cu32  1  0.49589900  0.50410100  0.06380800  1
  Cu  Cu33  1  0.00820200  0.50410100  0.06380800  1
  Cu  Cu34  1  0.33333300  0.66666700  0.14756100  1
  Cu  Cu35  1  0.49589900  0.99179800  0.06380800  1
  C  C36  1  0.51700700  0.03401400  0.92957700  1
  C  C37  1  0.96598600  0.48299300  0.92957700  1
  C  C38  1  0.66666700  0.33333300  0.86064200  1
  C  C39  1  0.51700700  0.48299300  0.92957700  1
  C  C40  1  0.16180400  0.83819600  0.86080600  1
  C  C41  1  0.84751300  0.69502600  0.75932600  1
  C  C42  1  0.00000000  0.00000000  0.93698500  1
  C  C43  1  0.67639300  0.83819600  0.86080600  1
  C  C44  1  0.30497400  0.15248700  0.75932600  1
  C  C45  1  0.00000000  0.00000000  0.69293400  1
  C  C46  1  0.16180400  0.32360700  0.86080600  1
  C  C47  1  0.84751300  0.15248700  0.75932600  1
  C  C48  1  0.47226500  0.52773500  0.69015000  1
  C  C49  1  0.19122700  0.38245500  0.60038500  1
  C  C50  1  0.33333300  0.66666700  0.77342200  1
  C  C51  1  0.61754500  0.80877300  0.60038500  1
  C  C52  1  0.05547100  0.52773500  0.69015000  1
  C  C53  1  0.33333300  0.66666700  0.52964300  1
  C  C54  1  0.47226500  0.94452900  0.69015000  1
  C  C55  1  0.19122700  0.80877300  0.60038500  1
  C  C56  1  0.80899500  0.19100500  0.52372200  1
  C  C57  1  0.52396800  0.04793600  0.43428900  1
  C  C58  1  0.66666700  0.33333300  0.59587800  1
  C  C59  1  0.95206400  0.47603200  0.43428900  1
  C  C60  1  0.38201100  0.19100500  0.52372200  1
  C  C61  1  0.66666700  0.33333300  0.36325600  1
  C  C62  1  0.80899500  0.61798900  0.52372200  1
  C  C63  1  0.52396800  0.47603200  0.43428900  1
  C  C64  1  0.85737400  0.71474800  0.26781200  1
  C  C65  1  0.14253700  0.85746300  0.35702000  1
  C  C66  1  0.00000000  0.00000000  0.42830700  1
  C  C67  1  0.71492600  0.85746300  0.35702000  1
  C  C68  1  0.28525200  0.14262600  0.26781200  1
  C  C69  1  0.00000000  0.00000000  0.19649600  1
  C  C70  1  0.14253700  0.28507400  0.35702000  1
  C  C71  1  0.85737400  0.14262600  0.26781200  1
  C  C72  1  0.19241700  0.38483400  0.10295900  1
  C  C73  1  0.47702300  0.52297700  0.19074600  1
  C  C74  1  0.33333300  0.66666700  0.26151300  1
  C  C75  1  0.04595300  0.52297700  0.19074600  1
  C  C76  1  0.33333300  0.66666700  0.02985600  1
  C  C77  1  0.61516600  0.80758300  0.10295900  1
  C  C78  1  0.47702300  0.95404700  0.19074600  1
  C  C79  1  0.19241700  0.80758300  0.10295900  1
  C  C80  1  0.83601000  0.16399000  0.02838200  1
  C  C81  1  0.32798100  0.16399000  0.02838200  1
  C  C82  1  0.66666700  0.33333300  0.09192000  1
  C  C83  1  0.83601000  0.67201900  0.02838200  1
