# generated using pymatgen
data_Cu7Ni5C8
_symmetry_space_group_name_H-M   'P 1'
_cell_length_a   3.98098000
_cell_length_b   18.46502900
_cell_length_c   19.69733100
_cell_angle_alpha   90.00000000
_cell_angle_beta   90.00000000
_cell_angle_gamma   90.00000000
_symmetry_Int_Tables_number   1
_chemical_formula_structural   Cu7Ni5C8
_chemical_formula_sum   'Cu28 Ni20 C32'
_cell_volume   1447.92935434
_cell_formula_units_Z   4
loop_
 _symmetry_equiv_pos_site_id
 _symmetry_equiv_pos_as_xyz
  1  'x, y, z'
loop_
 _atom_site_type_symbol
 _atom_site_label
 _atom_site_symmetry_multiplicity
 _atom_site_fract_x
 _atom_site_fract_y
 _atom_site_fract_z
 _atom_site_occupancy
  C  C0  1  0.75000000  0.21400500  0.19094600  1
  C  C1  1  0.25000000  0.99918700  0.39295300  1
  C  C2  1  0.75000000  0.02894200  0.81842800  1
  C  C3  1  0.75000000  0.47105800  0.31842800  1
  C  C4  1  0.75000000  0.00081300  0.60704700  1
  C  C5  1  0.75000000  0.28599500  0.69094600  1
  C  C6  1  0.25000000  0.30442400  0.04156100  1
  C  C7  1  0.25000000  0.78599500  0.80905400  1
  C  C8  1  0.75000000  0.49918700  0.10704700  1
  C  C9  1  0.25000000  0.97105800  0.18157200  1
  C  C10  1  0.75000000  0.37703900  0.51191400  1
  C  C11  1  0.75000000  0.12296100  0.01191400  1
  C  C12  1  0.25000000  0.71400500  0.30905400  1
  C  C13  1  0.25000000  0.50081300  0.89295300  1
  C  C14  1  0.25000000  0.87703900  0.98808600  1
  C  C15  1  0.75000000  0.69557600  0.95843900  1
  C  C16  1  0.25000000  0.19557600  0.54156100  1
  C  C17  1  0.25000000  0.52894200  0.68157200  1
  C  C18  1  0.25000000  0.62296100  0.48808600  1
  C  C19  1  0.75000000  0.80442400  0.45843900  1
  C  C20  1  0.25000000  0.33158500  0.37842400  1
  C  C21  1  0.75000000  0.66841500  0.62157600  1
  C  C22  1  0.75000000  0.88764700  0.30257000  1
  C  C23  1  0.25000000  0.38764700  0.19743000  1
  C  C24  1  0.75000000  0.61235300  0.80257000  1
  C  C25  1  0.25000000  0.11235300  0.69743000  1
  C  C26  1  0.75000000  0.83158500  0.12157600  1
  C  C27  1  0.25000000  0.16841500  0.87842400  1
  C  C28  1  0.25000000  0.65403800  0.13551000  1
  C  C29  1  0.75000000  0.15403800  0.36449000  1
  C  C30  1  0.75000000  0.34596200  0.86449000  1
  C  C31  1  0.25000000  0.84596200  0.63551000  1
  Ni  Ni32  1  0.25000000  0.54275500  0.22027600  1
  Ni  Ni33  1  0.25000000  0.27823900  0.81666600  1
  Ni  Ni34  1  0.75000000  0.61985800  0.37104900  1
  Ni  Ni35  1  0.75000000  0.72176100  0.18333400  1
  Ni  Ni36  1  0.25000000  0.03296800  0.93283400  1
  Ni  Ni37  1  0.25000000  0.38014200  0.62895100  1
  Ni  Ni38  1  0.25000000  0.11985800  0.12895100  1
  Ni  Ni39  1  0.75000000  0.77823900  0.68333400  1
  Ni  Ni40  1  0.75000000  0.88014200  0.87104900  1
  Ni  Ni41  1  0.25000000  0.58957900  0.02442600  1
  Ni  Ni42  1  0.75000000  0.41042100  0.97557400  1
  Ni  Ni43  1  0.75000000  0.45724500  0.77972400  1
  Ni  Ni44  1  0.75000000  0.08957900  0.47557400  1
  Ni  Ni45  1  0.25000000  0.22176100  0.31666600  1
  Ni  Ni46  1  0.25000000  0.91042100  0.52442600  1
  Ni  Ni47  1  0.75000000  0.96703200  0.06716600  1
  Ni  Ni48  1  0.75000000  0.04275500  0.27972400  1
  Ni  Ni49  1  0.25000000  0.95724500  0.72027600  1
  Ni  Ni50  1  0.25000000  0.46703200  0.43283400  1
  Ni  Ni51  1  0.75000000  0.53296800  0.56716600  1
  Cu  Cu52  1  0.75000000  0.25340000  0.57260300  1
  Cu  Cu53  1  0.75000000  0.70756900  0.82817600  1
  Cu  Cu54  1  0.25000000  0.19438600  0.97071500  1
  Cu  Cu55  1  0.75000000  0.40324700  0.20044000  1
  Cu  Cu56  1  0.25000000  0.90324700  0.29956000  1
  Cu  Cu57  1  0.75000000  0.09675300  0.70044000  1
  Cu  Cu58  1  0.75000000  0.15350700  0.88171800  1
  Cu  Cu59  1  0.25000000  0.59675300  0.79956000  1
  Cu  Cu60  1  0.75000000  0.34649300  0.38171800  1
  Cu  Cu61  1  0.25000000  0.29243100  0.17182400  1
  Cu  Cu62  1  0.25000000  0.39504400  0.29546300  1
  Cu  Cu63  1  0.75000000  0.80561400  0.02928500  1
  Cu  Cu64  1  0.25000000  0.07566600  0.60692600  1
  Cu  Cu65  1  0.25000000  0.42433400  0.10692600  1
  Cu  Cu66  1  0.25000000  0.74660000  0.42739700  1
  Cu  Cu67  1  0.25000000  0.75340000  0.92739700  1
  Cu  Cu68  1  0.25000000  0.10495600  0.79546300  1
  Cu  Cu69  1  0.75000000  0.24660000  0.07260300  1
  Cu  Cu70  1  0.25000000  0.65350700  0.61828200  1
  Cu  Cu71  1  0.75000000  0.69438600  0.52928500  1
  Cu  Cu72  1  0.75000000  0.57566600  0.89307400  1
  Cu  Cu73  1  0.75000000  0.60495600  0.70453700  1
  Cu  Cu74  1  0.25000000  0.20756900  0.67182400  1
  Cu  Cu75  1  0.75000000  0.89504400  0.20453700  1
  Cu  Cu76  1  0.25000000  0.84649300  0.11828200  1
  Cu  Cu77  1  0.75000000  0.79243100  0.32817600  1
  Cu  Cu78  1  0.75000000  0.92433400  0.39307400  1
  Cu  Cu79  1  0.25000000  0.30561400  0.47071500  1
