# generated using pymatgen
data_Cu3NiC5
_symmetry_space_group_name_H-M   'P 1'
_cell_length_a   13.43099357
_cell_length_b   13.43099357
_cell_length_c   15.19227874
_cell_angle_alpha   58.55107852
_cell_angle_beta   58.55107852
_cell_angle_gamma   40.90337103
_symmetry_Int_Tables_number   1
_chemical_formula_structural   Cu3NiC5
_chemical_formula_sum   'Cu18 Ni6 C30'
_cell_volume   1490.53211327
_cell_formula_units_Z   6
loop_
 _symmetry_equiv_pos_site_id
 _symmetry_equiv_pos_as_xyz
  1  'x, y, z'
loop_
 _atom_site_type_symbol
 _atom_site_label
 _atom_site_symmetry_multiplicity
 _atom_site_fract_x
 _atom_site_fract_y
 _atom_site_fract_z
 _atom_site_occupancy
  Ni  Ni0  1  0.65542100  0.34457900  0.75000000  1
  Ni  Ni1  1  0.60909500  0.05376500  0.27439000  1
  Ni  Ni2  1  0.05376500  0.60909500  0.77439000  1
  Ni  Ni3  1  0.34457900  0.65542100  0.25000000  1
  Ni  Ni4  1  0.39090500  0.94623500  0.72561000  1
  Ni  Ni5  1  0.94623500  0.39090500  0.22561000  1
  Cu  Cu6  1  0.33448400  0.33564300  0.49840200  1
  Cu  Cu7  1  0.79968100  0.20031900  0.25000000  1
  Cu  Cu8  1  0.45676200  0.88091200  0.25077300  1
  Cu  Cu9  1  0.16740500  0.17019900  0.99923800  1
  Cu  Cu10  1  0.83259500  0.82980100  0.00076200  1
  Cu  Cu11  1  0.88091200  0.45676200  0.75077300  1
  Cu  Cu12  1  0.54323800  0.11908800  0.74922700  1
  Cu  Cu13  1  0.66551600  0.66435700  0.50159800  1
  Cu  Cu14  1  0.82980100  0.83259500  0.50076200  1
  Cu  Cu15  1  0.00000000  0.00000000  0.50000000  1
  Cu  Cu16  1  0.20031900  0.79968100  0.75000000  1
  Cu  Cu17  1  0.17019900  0.16740500  0.49923800  1
  Cu  Cu18  1  0.11908800  0.54323800  0.24922700  1
  Cu  Cu19  1  0.50000000  0.50000000  0.50000000  1
  Cu  Cu20  1  0.33564300  0.33448400  0.99840200  1
  Cu  Cu21  1  0.50000000  0.50000000  0.00000000  1
  Cu  Cu22  1  0.66435700  0.66551600  0.00159800  1
  Cu  Cu23  1  0.00000000  0.00000000  0.00000000  1
  C  C24  1  0.12691600  0.41102600  0.44664000  1
  C  C25  1  0.87308400  0.58897400  0.55336000  1
  C  C26  1  0.06964900  0.79685000  0.94871200  1
  C  C27  1  0.58897400  0.87308400  0.05336000  1
  C  C28  1  0.45698800  0.74376900  0.44822700  1
  C  C29  1  0.25623100  0.54301200  0.05177300  1
  C  C30  1  0.20315000  0.93035100  0.55128800  1
  C  C31  1  0.54301200  0.25623100  0.55177300  1
  C  C32  1  0.74376900  0.45698800  0.94822700  1
  C  C33  1  0.41102600  0.12691600  0.94664000  1
  C  C34  1  0.79685000  0.06964900  0.44871200  1
  C  C35  1  0.93035100  0.20315000  0.05128800  1
  C  C36  1  0.61722800  0.85305100  0.75848200  1
  C  C37  1  0.00000000  0.50000000  0.00000000  1
  C  C38  1  0.65264100  0.49942000  0.25132500  1
  C  C39  1  0.10383800  0.12484400  0.74892500  1
  C  C40  1  0.89616200  0.87515600  0.25107500  1
  C  C41  1  0.32139600  0.80144300  0.06310000  1
  C  C42  1  0.67860400  0.19855700  0.93690000  1
  C  C43  1  0.80144300  0.32139600  0.56310000  1
  C  C44  1  0.85305100  0.61722800  0.25848200  1
  C  C45  1  0.49942000  0.65264100  0.75132500  1
  C  C46  1  0.34735900  0.50058000  0.74867500  1
  C  C47  1  0.38277200  0.14694900  0.24151800  1
  C  C48  1  0.50000000  0.00000000  0.50000000  1
  C  C49  1  0.19855700  0.67860400  0.43690000  1
  C  C50  1  0.12484400  0.10383800  0.24892500  1
  C  C51  1  0.50058000  0.34735900  0.24867500  1
  C  C52  1  0.14694900  0.38277200  0.74151800  1
  C  C53  1  0.87515600  0.89616200  0.75107500  1
