# generated using pymatgen
data_Cu9Ni3C
_symmetry_space_group_name_H-M   'P 1'
_cell_length_a   6.05625400
_cell_length_b   8.97432600
_cell_length_c   17.07494673
_cell_angle_alpha   65.20696007
_cell_angle_beta   90.00000000
_cell_angle_gamma   90.00000000
_symmetry_Int_Tables_number   1
_chemical_formula_structural   Cu9Ni3C
_chemical_formula_sum   'Cu36 Ni12 C4'
_cell_volume   842.49834648
_cell_formula_units_Z   4
loop_
 _symmetry_equiv_pos_site_id
 _symmetry_equiv_pos_as_xyz
  1  'x, y, z'
loop_
 _atom_site_type_symbol
 _atom_site_label
 _atom_site_symmetry_multiplicity
 _atom_site_fract_x
 _atom_site_fract_y
 _atom_site_fract_z
 _atom_site_occupancy
  C  C0  1  0.76797600  0.86084900  0.09987600  1
  C  C1  1  0.26797600  0.13915100  0.40012400  1
  C  C2  1  0.73202400  0.86084900  0.59987600  1
  C  C3  1  0.23202400  0.13915100  0.90012400  1
  Ni  Ni4  1  0.63557500  0.36000000  0.47709800  1
  Ni  Ni5  1  0.81308700  0.93103500  0.35077200  1
  Ni  Ni6  1  0.41030100  0.58362800  0.80218200  1
  Ni  Ni7  1  0.08969900  0.58362800  0.30218200  1
  Ni  Ni8  1  0.36442500  0.64000000  0.52290200  1
  Ni  Ni9  1  0.68691300  0.93103500  0.85077200  1
  Ni  Ni10  1  0.91030100  0.41637200  0.69781800  1
  Ni  Ni11  1  0.86442500  0.36000000  0.97709800  1
  Ni  Ni12  1  0.13557500  0.64000000  0.02290200  1
  Ni  Ni13  1  0.58969900  0.41637200  0.19781800  1
  Ni  Ni14  1  0.31308700  0.06896500  0.14922800  1
  Ni  Ni15  1  0.18691300  0.06896500  0.64922800  1
  Cu  Cu16  1  0.91311900  0.33186900  0.61693200  1
  Cu  Cu17  1  0.10657500  0.90500300  0.17072700  1
  Cu  Cu18  1  0.90945900  0.90919300  0.45754500  1
  Cu  Cu19  1  0.18286500  0.34341800  0.74518300  1
  Cu  Cu20  1  0.68286500  0.65658200  0.75481700  1
  Cu  Cu21  1  0.81713500  0.65658200  0.25481700  1
  Cu  Cu22  1  0.08706800  0.35888000  0.05330100  1
  Cu  Cu23  1  0.59054100  0.90919300  0.95754500  1
  Cu  Cu24  1  0.40945900  0.09080700  0.04245500  1
  Cu  Cu25  1  0.09054100  0.09080700  0.54245500  1
  Cu  Cu26  1  0.39342500  0.90500300  0.67072700  1
  Cu  Cu27  1  0.45105400  0.06328400  0.79610400  1
  Cu  Cu28  1  0.04894600  0.06328400  0.29610400  1
  Cu  Cu29  1  0.91293200  0.64112000  0.94669900  1
  Cu  Cu30  1  0.46705600  0.40327000  0.38041500  1
  Cu  Cu31  1  0.41293200  0.35888000  0.55330100  1
  Cu  Cu32  1  0.60657500  0.09499700  0.32927300  1
  Cu  Cu33  1  0.40146000  0.86457500  0.49126100  1
  Cu  Cu34  1  0.95105400  0.93671600  0.70389600  1
  Cu  Cu35  1  0.54894600  0.93671600  0.20389600  1
  Cu  Cu36  1  0.89342500  0.09499700  0.82927300  1
  Cu  Cu37  1  0.03294400  0.40327000  0.88041500  1
  Cu  Cu38  1  0.59854000  0.13542500  0.50873900  1
  Cu  Cu39  1  0.00100900  0.62971500  0.63130400  1
  Cu  Cu40  1  0.53294400  0.59673000  0.61958500  1
  Cu  Cu41  1  0.58688100  0.33186900  0.11693200  1
  Cu  Cu42  1  0.58706800  0.64112000  0.44669900  1
  Cu  Cu43  1  0.50100900  0.37028500  0.86869600  1
  Cu  Cu44  1  0.96705600  0.59673000  0.11958500  1
  Cu  Cu45  1  0.99899100  0.37028500  0.36869600  1
  Cu  Cu46  1  0.90146000  0.13542500  0.00873900  1
  Cu  Cu47  1  0.31713500  0.34341800  0.24518300  1
  Cu  Cu48  1  0.41311900  0.66813100  0.88306800  1
  Cu  Cu49  1  0.49899100  0.62971500  0.13130400  1
  Cu  Cu50  1  0.09854000  0.86457500  0.99126100  1
  Cu  Cu51  1  0.08688100  0.66813100  0.38306800  1
