# generated using pymatgen
data_Cu3NiC
_symmetry_space_group_name_H-M   'P 1'
_cell_length_a   7.17108544
_cell_length_b   7.17108544
_cell_length_c   7.50061900
_cell_angle_alpha   90.00000000
_cell_angle_beta   90.00000000
_cell_angle_gamma   119.99999482
_symmetry_Int_Tables_number   1
_chemical_formula_structural   Cu3NiC
_chemical_formula_sum   'Cu6 Ni2 C2'
_cell_volume   334.03929139
_cell_formula_units_Z   2
loop_
 _symmetry_equiv_pos_site_id
 _symmetry_equiv_pos_as_xyz
  1  'x, y, z'
loop_
 _atom_site_type_symbol
 _atom_site_label
 _atom_site_symmetry_multiplicity
 _atom_site_fract_x
 _atom_site_fract_y
 _atom_site_fract_z
 _atom_site_occupancy
  C  C0  1  0.66666700  0.33333300  0.50000000  1
  C  C1  1  0.33333300  0.66666700  0.50000000  1
  Ni  Ni2  1  0.00000000  0.00000000  0.34476400  1
  Ni  Ni3  1  0.00000000  0.00000000  0.65523600  1
  Cu  Cu4  1  0.00000000  0.66280400  0.24371400  1
  Cu  Cu5  1  0.33719600  0.33719600  0.24371400  1
  Cu  Cu6  1  0.00000000  0.33719600  0.75628600  1
  Cu  Cu7  1  0.33719600  0.00000000  0.75628600  1
  Cu  Cu8  1  0.66280400  0.00000000  0.24371400  1
  Cu  Cu9  1  0.66280400  0.66280400  0.75628600  1
