# generated using pymatgen
data_Cu3NiC6
_symmetry_space_group_name_H-M   'P 1'
_cell_length_a   7.60027800
_cell_length_b   8.51575400
_cell_length_c   14.45274300
_cell_angle_alpha   90.00000000
_cell_angle_beta   90.00000000
_cell_angle_gamma   90.00000000
_symmetry_Int_Tables_number   1
_chemical_formula_structural   Cu3NiC6
_chemical_formula_sum   'Cu24 Ni8 C48'
_cell_volume   935.41184563
_cell_formula_units_Z   8
loop_
 _symmetry_equiv_pos_site_id
 _symmetry_equiv_pos_as_xyz
  1  'x, y, z'
loop_
 _atom_site_type_symbol
 _atom_site_label
 _atom_site_symmetry_multiplicity
 _atom_site_fract_x
 _atom_site_fract_y
 _atom_site_fract_z
 _atom_site_occupancy
  C  C0  1  0.63605800  0.17823700  0.08322000  1
  C  C1  1  0.13605800  0.32176300  0.91678000  1
  C  C2  1  0.36394200  0.67823700  0.41678000  1
  C  C3  1  0.86394200  0.82176300  0.58322000  1
  C  C4  1  0.36394200  0.82176300  0.91678000  1
  C  C5  1  0.86394200  0.67823700  0.08322000  1
  C  C6  1  0.63605800  0.32176300  0.58322000  1
  C  C7  1  0.13605800  0.17823700  0.41678000  1
  Ni  Ni8  1  0.14596500  0.05361000  0.11370900  1
  Ni  Ni9  1  0.64596500  0.44639000  0.88629100  1
  Ni  Ni10  1  0.85403500  0.55361000  0.38629100  1
  Ni  Ni11  1  0.35403500  0.94639000  0.61370900  1
  Ni  Ni12  1  0.85403500  0.94639000  0.88629100  1
  Ni  Ni13  1  0.35403500  0.55361000  0.11370900  1
  Ni  Ni14  1  0.14596500  0.44639000  0.61370900  1
  Ni  Ni15  1  0.64596500  0.05361000  0.38629100  1
  Cu  Cu16  1  0.27886900  0.25307600  0.19398400  1
  Cu  Cu17  1  0.77886900  0.24692400  0.80601600  1
  Cu  Cu18  1  0.72113100  0.75307600  0.30601600  1
  Cu  Cu19  1  0.22113100  0.74692400  0.69398400  1
  Cu  Cu20  1  0.72113100  0.74692400  0.80601600  1
  Cu  Cu21  1  0.22113100  0.75307600  0.19398400  1
  Cu  Cu22  1  0.27886900  0.24692400  0.69398400  1
  Cu  Cu23  1  0.77886900  0.25307600  0.30601600  1
  Cu  Cu24  1  0.94621700  0.16740000  0.62186300  1
  Cu  Cu25  1  0.44621700  0.33260000  0.37813700  1
  Cu  Cu26  1  0.05378300  0.66740000  0.87813700  1
  Cu  Cu27  1  0.55378300  0.83260000  0.12186300  1
  Cu  Cu28  1  0.05378300  0.83260000  0.37813700  1
  Cu  Cu29  1  0.55378300  0.66740000  0.62186300  1
  Cu  Cu30  1  0.94621700  0.33260000  0.12186300  1
  Cu  Cu31  1  0.44621700  0.16740000  0.87813700  1
  Cu  Cu32  1  0.89602000  0.10064200  0.72118500  1
  Cu  Cu33  1  0.39602000  0.39935800  0.27881500  1
  Cu  Cu34  1  0.10398000  0.60064200  0.77881500  1
  Cu  Cu35  1  0.60398000  0.89935800  0.22118500  1
  Cu  Cu36  1  0.10398000  0.89935800  0.27881500  1
  Cu  Cu37  1  0.60398000  0.60064200  0.72118500  1
  Cu  Cu38  1  0.89602000  0.39935800  0.22118500  1
  Cu  Cu39  1  0.39602000  0.10064200  0.77881500  1
  C  C40  1  0.20256100  0.16237000  0.21548700  1
  C  C41  1  0.70256100  0.33763000  0.78451300  1
  C  C42  1  0.79743900  0.66237000  0.28451300  1
  C  C43  1  0.29743900  0.83763000  0.71548700  1
  C  C44  1  0.79743900  0.83763000  0.78451300  1
  C  C45  1  0.29743900  0.66237000  0.21548700  1
  C  C46  1  0.20256100  0.33763000  0.71548700  1
  C  C47  1  0.70256100  0.16237000  0.28451300  1
  C  C48  1  0.07341000  0.88021700  0.16016900  1
  C  C49  1  0.57341000  0.61978300  0.83983100  1
  C  C50  1  0.92659000  0.38021700  0.33983100  1
  C  C51  1  0.42659000  0.11978300  0.66016900  1
  C  C52  1  0.92659000  0.11978300  0.83983100  1
  C  C53  1  0.42659000  0.38021700  0.16016900  1
  C  C54  1  0.07341000  0.61978300  0.66016900  1
  C  C55  1  0.57341000  0.88021700  0.33983100  1
  C  C56  1  0.32929700  0.03832200  0.04670400  1
  C  C57  1  0.82929700  0.46167800  0.95329600  1
  C  C58  1  0.67070300  0.53832200  0.45329600  1
  C  C59  1  0.17070300  0.96167800  0.54670400  1
  C  C60  1  0.67070300  0.96167800  0.95329600  1
  C  C61  1  0.17070300  0.53832200  0.04670400  1
  C  C62  1  0.32929700  0.46167800  0.54670400  1
  C  C63  1  0.82929700  0.03832200  0.45329600  1
  C  C64  1  0.98931100  0.16221600  0.05713100  1
  C  C65  1  0.48931100  0.33778400  0.94286900  1
  C  C66  1  0.01068900  0.66221600  0.44286900  1
  C  C67  1  0.51068900  0.83778400  0.55713100  1
  C  C68  1  0.01068900  0.83778400  0.94286900  1
  C  C69  1  0.51068900  0.66221600  0.05713100  1
  C  C70  1  0.98931100  0.33778400  0.55713100  1
  C  C71  1  0.48931100  0.16221600  0.44286900  1
  C  C72  1  0.86210400  0.09700700  0.65453500  1
  C  C73  1  0.36210400  0.40299300  0.34546500  1
  C  C74  1  0.13789600  0.59700700  0.84546500  1
  C  C75  1  0.63789600  0.90299300  0.15453500  1
  C  C76  1  0.13789600  0.90299300  0.34546500  1
  C  C77  1  0.63789600  0.59700700  0.65453500  1
  C  C78  1  0.86210400  0.40299300  0.15453500  1
  C  C79  1  0.36210400  0.09700700  0.84546500  1
