# generated using pymatgen
data_Cu13NiC10
_symmetry_space_group_name_H-M   'P 1'
_cell_length_a   8.72642883
_cell_length_b   8.72642883
_cell_length_c   8.72642883
_cell_angle_alpha   60.00000000
_cell_angle_beta   60.00000000
_cell_angle_gamma   60.00000000
_symmetry_Int_Tables_number   1
_chemical_formula_structural   Cu13NiC10
_chemical_formula_sum   'Cu26 Ni2 C20'
_cell_volume   469.88832562
_cell_formula_units_Z   2
loop_
 _symmetry_equiv_pos_site_id
 _symmetry_equiv_pos_as_xyz
  1  'x, y, z'
loop_
 _atom_site_type_symbol
 _atom_site_label
 _atom_site_symmetry_multiplicity
 _atom_site_fract_x
 _atom_site_fract_y
 _atom_site_fract_z
 _atom_site_occupancy
  C  C0  1  0.00000000  0.50000000  0.50000000  1
  C  C1  1  0.50000000  0.00000000  0.50000000  1
  C  C2  1  0.50000000  0.50000000  0.00000000  1
  C  C3  1  0.00000000  0.00000000  0.50000000  1
  C  C4  1  0.50000000  0.00000000  0.00000000  1
  C  C5  1  0.00000000  0.50000000  0.00000000  1
  C  C6  1  0.25000000  0.75000000  0.75000000  1
  C  C7  1  0.42025300  0.42025300  0.42025300  1
  C  C8  1  0.75000000  0.25000000  0.75000000  1
  C  C9  1  0.92025300  0.92025300  0.23924000  1
  C  C10  1  0.25000000  0.25000000  0.75000000  1
  C  C11  1  0.23924000  0.92025300  0.92025300  1
  C  C12  1  0.75000000  0.25000000  0.25000000  1
  C  C13  1  0.25000000  0.75000000  0.25000000  1
  C  C14  1  0.73924000  0.42025300  0.42025300  1
  C  C15  1  0.75000000  0.75000000  0.25000000  1
  C  C16  1  0.42025300  0.73924000  0.42025300  1
  C  C17  1  0.42025300  0.42025300  0.73924000  1
  C  C18  1  0.92025300  0.23924000  0.92025300  1
  C  C19  1  0.92025300  0.92025300  0.92025300  1
  Ni  Ni20  1  0.25000000  0.25000000  0.25000000  1
  Ni  Ni21  1  0.75000000  0.75000000  0.75000000  1
  Cu  Cu22  1  0.79504800  0.24573800  0.56432700  1
  Cu  Cu23  1  0.24573800  0.39488700  0.56432700  1
  Cu  Cu24  1  0.39488700  0.79504800  0.56432700  1
  Cu  Cu25  1  0.50000000  0.50000000  0.50000000  1
  Cu  Cu26  1  0.29504800  0.06432700  0.74573800  1
  Cu  Cu27  1  0.06432700  0.29504800  0.89488700  1
  Cu  Cu28  1  0.56432700  0.79504800  0.24573800  1
  Cu  Cu29  1  0.00000000  0.00000000  0.00000000  1
  Cu  Cu30  1  0.79504800  0.56432700  0.39488700  1
  Cu  Cu31  1  0.79504800  0.39488700  0.24573800  1
  Cu  Cu32  1  0.74573800  0.89488700  0.29504800  1
  Cu  Cu33  1  0.74573800  0.29504800  0.06432700  1
  Cu  Cu34  1  0.24573800  0.79504800  0.39488700  1
  Cu  Cu35  1  0.89488700  0.29504800  0.74573800  1
  Cu  Cu36  1  0.24573800  0.56432700  0.79504800  1
  Cu  Cu37  1  0.29504800  0.89488700  0.06432700  1
  Cu  Cu38  1  0.39488700  0.56432700  0.24573800  1
  Cu  Cu39  1  0.39488700  0.24573800  0.79504800  1
  Cu  Cu40  1  0.06432700  0.74573800  0.29504800  1
  Cu  Cu41  1  0.29504800  0.74573800  0.89488700  1
  Cu  Cu42  1  0.74573800  0.06432700  0.89488700  1
  Cu  Cu43  1  0.56432700  0.39488700  0.79504800  1
  Cu  Cu44  1  0.89488700  0.06432700  0.29504800  1
  Cu  Cu45  1  0.56432700  0.24573800  0.39488700  1
  Cu  Cu46  1  0.06432700  0.89488700  0.74573800  1
  Cu  Cu47  1  0.89488700  0.74573800  0.06432700  1
