# generated using pymatgen
data_Cu(NiC2)2
_symmetry_space_group_name_H-M   'P 1'
_cell_length_a   19.21729334
_cell_length_b   19.21729334
_cell_length_c   19.21729366
_cell_angle_alpha   17.29442570
_cell_angle_beta   17.29442570
_cell_angle_gamma   17.29442593
_symmetry_Int_Tables_number   1
_chemical_formula_structural   Cu(NiC2)2
_chemical_formula_sum   'Cu8 Ni16 C32'
_cell_volume   547.30436697
_cell_formula_units_Z   8
loop_
 _symmetry_equiv_pos_site_id
 _symmetry_equiv_pos_as_xyz
  1  'x, y, z'
loop_
 _atom_site_type_symbol
 _atom_site_label
 _atom_site_symmetry_multiplicity
 _atom_site_fract_x
 _atom_site_fract_y
 _atom_site_fract_z
 _atom_site_occupancy
  Ni  Ni0  1  0.31127700  0.31127700  0.31127700  1
  Ni  Ni1  1  0.27439600  0.78473000  0.78473000  1
  Ni  Ni2  1  0.78473000  0.78473000  0.27439600  1
  Ni  Ni3  1  0.56209900  0.56209900  0.56209900  1
  Ni  Ni4  1  0.78473000  0.27439600  0.78473000  1
  Ni  Ni5  1  0.52760700  0.03292500  0.03292500  1
  Ni  Ni6  1  0.03292500  0.03292500  0.52760700  1
  Ni  Ni7  1  0.03292500  0.52760700  0.03292500  1
  Ni  Ni8  1  0.78071600  0.28117000  0.28117000  1
  Ni  Ni9  1  0.28117000  0.28117000  0.78071600  1
  Ni  Ni10  1  0.15589900  0.15589900  0.15589900  1
  Ni  Ni11  1  0.28117000  0.78071600  0.28117000  1
  Ni  Ni12  1  0.02736800  0.53342500  0.53342500  1
  Ni  Ni13  1  0.53342500  0.53342500  0.02736800  1
  Ni  Ni14  1  0.40611800  0.40611800  0.40611800  1
  Ni  Ni15  1  0.53342500  0.02736800  0.53342500  1
  Cu  Cu16  1  0.00084900  0.00084900  0.00084900  1
  Cu  Cu17  1  0.65702000  0.65702000  0.65702000  1
  Cu  Cu18  1  0.25052700  0.25052700  0.25052700  1
  Cu  Cu19  1  0.90649400  0.90649400  0.90649400  1
  Cu  Cu20  1  0.81284600  0.81284600  0.81284600  1
  Cu  Cu21  1  0.49984300  0.49984300  0.49984300  1
  Cu  Cu22  1  0.06162400  0.06162400  0.06162400  1
  Cu  Cu23  1  0.75021800  0.75021800  0.75021800  1
  C  C24  1  0.47205800  0.95533900  0.47205800  1
  C  C25  1  0.47205800  0.47205800  0.95533900  1
  C  C26  1  0.59513400  0.59513400  0.59513400  1
  C  C27  1  0.95533900  0.47205800  0.47205800  1
  C  C28  1  0.62366700  0.08320600  0.08320600  1
  C  C29  1  0.71757000  0.21425000  0.71757000  1
  C  C30  1  0.71757000  0.71757000  0.21425000  1
  C  C31  1  0.96593500  0.96593500  0.96593500  1
  C  C32  1  0.84859800  0.84859800  0.84859800  1
  C  C33  1  0.08320600  0.08320600  0.62366700  1
  C  C34  1  0.21425000  0.71757000  0.71757000  1
  C  C35  1  0.08320600  0.62366700  0.08320600  1
  C  C36  1  0.88503500  0.32437200  0.32437200  1
  C  C37  1  0.98627500  0.42989400  0.98627500  1
  C  C38  1  0.98627500  0.98627500  0.42989400  1
  C  C39  1  0.32437200  0.32437200  0.88503500  1
  C  C40  1  0.21524600  0.21524600  0.21524600  1
  C  C41  1  0.09709000  0.09709000  0.09709000  1
  C  C42  1  0.42989400  0.98627500  0.98627500  1
  C  C43  1  0.32437200  0.88503500  0.32437200  1
  C  C44  1  0.13405100  0.57545000  0.57545000  1
  C  C45  1  0.23911700  0.67376300  0.23911700  1
  C  C46  1  0.23911700  0.23911700  0.67376300  1
  C  C47  1  0.34384300  0.34384300  0.34384300  1
  C  C48  1  0.46512800  0.46512800  0.46512800  1
  C  C49  1  0.57545000  0.57545000  0.13405100  1
  C  C50  1  0.67376300  0.23911700  0.23911700  1
  C  C51  1  0.57545000  0.13405100  0.57545000  1
  C  C52  1  0.37273300  0.83445000  0.83445000  1
  C  C53  1  0.83445000  0.83445000  0.37273300  1
  C  C54  1  0.71589600  0.71589600  0.71589600  1
  C  C55  1  0.83445000  0.37273300  0.83445000  1
