# generated using pymatgen
data_CuNiC8
_symmetry_space_group_name_H-M   'P 1'
_cell_length_a   7.05910700
_cell_length_b   10.58472500
_cell_length_c   13.64137900
_cell_angle_alpha   90.00000000
_cell_angle_beta   90.00000000
_cell_angle_gamma   90.00000000
_symmetry_Int_Tables_number   1
_chemical_formula_structural   CuNiC8
_chemical_formula_sum   'Cu4 Ni4 C32'
_cell_volume   1019.26619158
_cell_formula_units_Z   4
loop_
 _symmetry_equiv_pos_site_id
 _symmetry_equiv_pos_as_xyz
  1  'x, y, z'
loop_
 _atom_site_type_symbol
 _atom_site_label
 _atom_site_symmetry_multiplicity
 _atom_site_fract_x
 _atom_site_fract_y
 _atom_site_fract_z
 _atom_site_occupancy
  C  C0  1  0.64529800  0.24974600  0.10437500  1
  C  C1  1  0.85470200  0.75025400  0.60437500  1
  C  C2  1  0.64622000  0.75018900  0.10275600  1
  C  C3  1  0.14529800  0.25025400  0.89562500  1
  C  C4  1  0.35378000  0.25018900  0.39724400  1
  C  C5  1  0.85378000  0.24981100  0.60275600  1
  C  C6  1  0.35470200  0.74974600  0.39562500  1
  C  C7  1  0.14622000  0.74981100  0.89724400  1
  C  C8  1  0.32889200  0.99827000  0.64204800  1
  C  C9  1  0.67110800  0.49827000  0.85795200  1
  C  C10  1  0.82889200  0.50173000  0.35795200  1
  C  C11  1  0.17110800  0.00173000  0.14204800  1
  Ni  Ni12  1  0.98879900  0.50268200  0.26083700  1
  Ni  Ni13  1  0.51120100  0.49731800  0.76083700  1
  Ni  Ni14  1  0.01120100  0.00268200  0.23916300  1
  Ni  Ni15  1  0.48879900  0.99731800  0.73916300  1
  C  C16  1  0.91046400  0.00062200  0.02773800  1
  C  C17  1  0.31649300  0.22479200  0.63654400  1
  C  C18  1  0.37650300  0.00116000  0.00348500  1
  C  C19  1  0.31767000  0.77159600  0.63540700  1
  C  C20  1  0.68233000  0.27159600  0.86459300  1
  C  C21  1  0.58953600  0.99937800  0.52773800  1
  C  C22  1  0.62349800  0.50116000  0.49651500  1
  C  C23  1  0.81649300  0.27520800  0.36345600  1
  C  C24  1  0.55141700  0.50206100  0.25508200  1
  C  C25  1  0.87650200  0.49884000  0.99651500  1
  C  C26  1  0.41046400  0.49937800  0.97226200  1
  C  C27  1  0.18233000  0.22840400  0.13540700  1
  C  C28  1  0.44858300  0.00206100  0.24491800  1
  C  C29  1  0.08953600  0.50062200  0.47226200  1
  C  C30  1  0.68350700  0.72479200  0.86345600  1
  C  C31  1  0.18350700  0.77520800  0.13654400  1
  C  C32  1  0.94858300  0.49793900  0.75508200  1
  C  C33  1  0.05141700  0.99793900  0.74491800  1
  C  C34  1  0.12349700  0.99884000  0.50348500  1
  C  C35  1  0.81767000  0.72840400  0.36459300  1
  Cu  Cu36  1  0.89502000  0.00396900  0.29989000  1
  Cu  Cu37  1  0.60498000  0.99603100  0.79989000  1
  Cu  Cu38  1  0.10498000  0.50396900  0.20011000  1
  Cu  Cu39  1  0.39502000  0.49603100  0.70011000  1
