# generated using pymatgen
data_Cu(Ni2C)2
_symmetry_space_group_name_H-M   'P 1'
_cell_length_a   12.48580000
_cell_length_b   5.28715500
_cell_length_c   6.76100181
_cell_angle_alpha   66.96766235
_cell_angle_beta   90.00000000
_cell_angle_gamma   90.00000000
_symmetry_Int_Tables_number   1
_chemical_formula_structural   Cu(Ni2C)2
_chemical_formula_sum   'Cu4 Ni16 C8'
_cell_volume   410.74418591
_cell_formula_units_Z   4
loop_
 _symmetry_equiv_pos_site_id
 _symmetry_equiv_pos_as_xyz
  1  'x, y, z'
loop_
 _atom_site_type_symbol
 _atom_site_label
 _atom_site_symmetry_multiplicity
 _atom_site_fract_x
 _atom_site_fract_y
 _atom_site_fract_z
 _atom_site_occupancy
  C  C0  1  0.55154800  0.63878900  0.69987800  1
  C  C1  1  0.44845200  0.36121100  0.30012200  1
  C  C2  1  0.94845200  0.63878900  0.19987800  1
  C  C3  1  0.05154800  0.36121100  0.80012200  1
  C  C4  1  0.14325400  0.07813800  0.36999600  1
  C  C5  1  0.35674600  0.07813800  0.86999600  1
  C  C6  1  0.85674600  0.92186200  0.63000400  1
  C  C7  1  0.64325400  0.92186200  0.13000400  1
  Ni  Ni8  1  0.43098000  0.00466900  0.66297700  1
  Ni  Ni9  1  0.34709700  0.76224800  0.09174100  1
  Ni  Ni10  1  0.06543200  0.30780800  0.46141900  1
  Ni  Ni11  1  0.77666800  0.80729200  0.20511400  1
  Ni  Ni12  1  0.22333200  0.19270800  0.79488600  1
  Ni  Ni13  1  0.72333200  0.80729200  0.70511400  1
  Ni  Ni14  1  0.15290300  0.76224800  0.59174100  1
  Ni  Ni15  1  0.06902000  0.00466900  0.16297700  1
  Ni  Ni16  1  0.56543200  0.69219200  0.03858100  1
  Ni  Ni17  1  0.84709700  0.23775200  0.40825900  1
  Ni  Ni18  1  0.56902000  0.99533100  0.33702300  1
  Ni  Ni19  1  0.93098000  0.99533100  0.83702300  1
  Ni  Ni20  1  0.93456800  0.69219200  0.53858100  1
  Ni  Ni21  1  0.27666800  0.19270800  0.29488600  1
  Ni  Ni22  1  0.65290300  0.23775200  0.90825900  1
  Ni  Ni23  1  0.43456800  0.30780800  0.96141900  1
  Cu  Cu24  1  0.40236900  0.54699900  0.53547700  1
  Cu  Cu25  1  0.09763100  0.54699900  0.03547700  1
  Cu  Cu26  1  0.90236900  0.45300100  0.96452300  1
  Cu  Cu27  1  0.59763100  0.45300100  0.46452300  1
