# generated using pymatgen
data_Cu2NiC2
_symmetry_space_group_name_H-M   'P 1'
_cell_length_a   7.08849051
_cell_length_b   7.08849051
_cell_length_c   27.54912700
_cell_angle_alpha   90.00000000
_cell_angle_beta   90.00000000
_cell_angle_gamma   120.00000473
_symmetry_Int_Tables_number   1
_chemical_formula_structural   Cu2NiC2
_chemical_formula_sum   'Cu36 Ni18 C36'
_cell_volume   1198.79790767
_cell_formula_units_Z   18
loop_
 _symmetry_equiv_pos_site_id
 _symmetry_equiv_pos_as_xyz
  1  'x, y, z'
loop_
 _atom_site_type_symbol
 _atom_site_label
 _atom_site_symmetry_multiplicity
 _atom_site_fract_x
 _atom_site_fract_y
 _atom_site_fract_z
 _atom_site_occupancy
  C  C0  1  0.98860900  0.97721900  0.25000000  1
  C  C1  1  0.02278100  0.01139100  0.58333300  1
  C  C2  1  0.01139100  0.02278100  0.75000000  1
  C  C3  1  0.98860900  0.01139100  0.91666700  1
  C  C4  1  0.34143600  0.65856400  0.91666700  1
  C  C5  1  0.65856400  0.31712900  0.75000000  1
  C  C6  1  0.65856400  0.34143600  0.41666700  1
  C  C7  1  0.66089500  0.33910500  0.91666700  1
  C  C8  1  0.68287100  0.34143600  0.08333300  1
  C  C9  1  0.32179000  0.66089500  0.08333300  1
  C  C10  1  0.31712900  0.65856400  0.58333300  1
  C  C11  1  0.66089500  0.32179000  0.25000000  1
  C  C12  1  0.67821000  0.33910500  0.58333300  1
  C  C13  1  0.33910500  0.67821000  0.75000000  1
  C  C14  1  0.33910500  0.66089500  0.41666700  1
  C  C15  1  0.97721900  0.98860900  0.08333300  1
  C  C16  1  0.01139100  0.98860900  0.41666700  1
  C  C17  1  0.34143600  0.68287100  0.25000000  1
  C  C18  1  0.32844400  0.24562000  0.00189200  1
  C  C19  1  0.42680500  0.42680500  0.66666700  1
  C  C20  1  0.75438000  0.08282400  0.33522500  1
  C  C21  1  0.67155600  0.75438000  0.50189200  1
  C  C22  1  0.24562000  0.91717600  0.83522500  1
  C  C23  1  0.91717600  0.24562000  0.49810800  1
  C  C24  1  0.08282400  0.32844400  0.16855900  1
  C  C25  1  0.57319500  0.00000000  0.00000000  1
  C  C26  1  0.00000000  0.42680500  0.83333300  1
  C  C27  1  0.08282400  0.75438000  0.99810800  1
  C  C28  1  0.00000000  0.57319500  0.33333300  1
  C  C29  1  0.75438000  0.67155600  0.83144100  1
  C  C30  1  0.67155600  0.91717600  0.66477500  1
  C  C31  1  0.42680500  0.00000000  0.50000000  1
  C  C32  1  0.91717600  0.67155600  0.66855900  1
  C  C33  1  0.24562000  0.32844400  0.33144100  1
  C  C34  1  0.57319500  0.57319500  0.16666700  1
  C  C35  1  0.32844400  0.08282400  0.16477500  1
  Ni  Ni36  1  0.43429300  0.76258500  0.50125400  1
  Ni  Ni37  1  0.67170800  0.43429300  0.66792000  1
  Ni  Ni38  1  0.90898400  0.00000000  0.50000000  1
  Ni  Ni39  1  0.09101600  0.00000000  0.00000000  1
  Ni  Ni40  1  0.00000000  0.90898400  0.83333300  1
  Ni  Ni41  1  0.56570700  0.23741500  0.00125400  1
  Ni  Ni42  1  0.32829200  0.56570700  0.16792000  1
  Ni  Ni43  1  0.23741500  0.67170800  0.83458700  1
  Ni  Ni44  1  0.43429300  0.67170800  0.66541300  1
  Ni  Ni45  1  0.90898400  0.90898400  0.66666700  1
  Ni  Ni46  1  0.67170800  0.23741500  0.49874600  1
  Ni  Ni47  1  0.09101600  0.09101600  0.16666700  1
  Ni  Ni48  1  0.56570700  0.32829200  0.16541300  1
  Ni  Ni49  1  0.00000000  0.09101600  0.33333300  1
  Ni  Ni50  1  0.32829200  0.76258500  0.99874600  1
  Ni  Ni51  1  0.76258500  0.32829200  0.33458700  1
  Ni  Ni52  1  0.76258500  0.43429300  0.83208000  1
  Ni  Ni53  1  0.23741500  0.56570700  0.33208000  1
  Cu  Cu54  1  0.03061900  0.36385500  0.55042700  1
  Cu  Cu55  1  0.03061900  0.66676400  0.61624000  1
  Cu  Cu56  1  0.00182400  0.31140800  0.78137800  1
  Cu  Cu57  1  0.69041700  0.68859200  0.21862200  1
  Cu  Cu58  1  0.96938100  0.63614500  0.05042700  1
  Cu  Cu59  1  0.36385500  0.03061900  0.78290600  1
  Cu  Cu60  1  0.68859200  0.69041700  0.11471100  1
  Cu  Cu61  1  0.00182400  0.69041700  0.38528900  1
  Cu  Cu62  1  0.64171400  0.96609100  0.38761800  1
  Cu  Cu63  1  0.30958300  0.99817600  0.44804400  1
  Cu  Cu64  1  0.35828600  0.32437800  0.27904800  1
  Cu  Cu65  1  0.63614500  0.66676400  0.88376000  1
  Cu  Cu66  1  0.03390900  0.35828600  0.44571500  1
  Cu  Cu67  1  0.96938100  0.33323600  0.11624000  1
  Cu  Cu68  1  0.99817600  0.68859200  0.28137800  1
  Cu  Cu69  1  0.31140800  0.00182400  0.55195600  1
  Cu  Cu70  1  0.68859200  0.99817600  0.05195600  1
  Cu  Cu71  1  0.30958300  0.31140800  0.71862200  1
  Cu  Cu72  1  0.03390900  0.67562200  0.72095200  1
  Cu  Cu73  1  0.33323600  0.36385500  0.94957300  1
  Cu  Cu74  1  0.66676400  0.03061900  0.71709400  1
  Cu  Cu75  1  0.63614500  0.96938100  0.28290600  1
  Cu  Cu76  1  0.69041700  0.00182400  0.94804400  1
  Cu  Cu77  1  0.99817600  0.30958300  0.88528900  1
  Cu  Cu78  1  0.67562200  0.64171400  0.55428500  1
  Cu  Cu79  1  0.35828600  0.03390900  0.88761800  1
  Cu  Cu80  1  0.36385500  0.33323600  0.38376000  1
  Cu  Cu81  1  0.64171400  0.67562200  0.77904800  1
  Cu  Cu82  1  0.31140800  0.30958300  0.61471100  1
  Cu  Cu83  1  0.33323600  0.96938100  0.21709400  1
  Cu  Cu84  1  0.96609100  0.32437800  0.22095200  1
  Cu  Cu85  1  0.96609100  0.64171400  0.94571500  1
  Cu  Cu86  1  0.67562200  0.03390900  0.61238200  1
  Cu  Cu87  1  0.32437800  0.35828600  0.05428500  1
  Cu  Cu88  1  0.32437800  0.96609100  0.11238200  1
  Cu  Cu89  1  0.66676400  0.63614500  0.44957300  1
