# generated using pymatgen
data_CuNi3C26
_symmetry_space_group_name_H-M   'P 1'
_cell_length_a   15.65419899
_cell_length_b   15.65419899
_cell_length_c   15.65419899
_cell_angle_alpha   109.47122063
_cell_angle_beta   109.47122063
_cell_angle_gamma   109.47122063
_symmetry_Int_Tables_number   1
_chemical_formula_structural   CuNi3C26
_chemical_formula_sum   'Cu4 Ni12 C104'
_cell_volume   2953.04904178
_cell_formula_units_Z   4
loop_
 _symmetry_equiv_pos_site_id
 _symmetry_equiv_pos_as_xyz
  1  'x, y, z'
loop_
 _atom_site_type_symbol
 _atom_site_label
 _atom_site_symmetry_multiplicity
 _atom_site_fract_x
 _atom_site_fract_y
 _atom_site_fract_z
 _atom_site_occupancy
  Ni  Ni0  1  0.44853300  0.25000000  0.69853300  1
  Ni  Ni1  1  0.75000000  0.30146700  0.55146700  1
  Ni  Ni2  1  0.75000000  0.80146700  0.05146700  1
  Ni  Ni3  1  0.25000000  0.69853300  0.44853300  1
  Ni  Ni4  1  0.94853300  0.25000000  0.19853300  1
  Ni  Ni5  1  0.55146700  0.75000000  0.30146700  1
  Ni  Ni6  1  0.25000000  0.19853300  0.94853300  1
  Ni  Ni7  1  0.19853300  0.94853300  0.25000000  1
  Ni  Ni8  1  0.05146700  0.75000000  0.80146700  1
  Ni  Ni9  1  0.30146700  0.55146700  0.75000000  1
  Ni  Ni10  1  0.69853300  0.44853300  0.25000000  1
  Ni  Ni11  1  0.80146700  0.05146700  0.75000000  1
  Cu  Cu12  1  0.50000000  0.00000000  0.50000000  1
  Cu  Cu13  1  0.00000000  0.50000000  0.50000000  1
  Cu  Cu14  1  0.00000000  0.00000000  0.00000000  1
  Cu  Cu15  1  0.50000000  0.50000000  0.00000000  1
  C  C16  1  0.89332000  0.86255900  0.40040600  1
  C  C17  1  0.50708600  0.90040600  0.03784700  1
  C  C18  1  0.99291400  0.03076100  0.39332000  1
  C  C19  1  0.96215300  0.49291400  0.09959400  1
  C  C20  1  0.10668000  0.13744100  0.59959400  1
  C  C21  1  0.53784700  0.63744100  0.53076100  1
  C  C22  1  0.00708600  0.96923900  0.60668000  1
  C  C23  1  0.49291400  0.09959400  0.96215300  1
  C  C24  1  0.63744100  0.53076100  0.53784700  1
  C  C25  1  0.59959400  0.10668000  0.13744100  1
  C  C26  1  0.13744100  0.59959400  0.10668000  1
  C  C27  1  0.09959400  0.96215300  0.49291400  1
  C  C28  1  0.39332000  0.99291400  0.03076100  1
  C  C29  1  0.53076100  0.53784700  0.63744100  1
  C  C30  1  0.46923900  0.46215300  0.36255900  1
  C  C31  1  0.03784700  0.50708600  0.90040600  1
  C  C32  1  0.03076100  0.39332000  0.99291400  1
  C  C33  1  0.60668000  0.00708600  0.96923900  1
  C  C34  1  0.36255900  0.46923900  0.46215300  1
  C  C35  1  0.46215300  0.36255900  0.46923900  1
  C  C36  1  0.40040600  0.89332000  0.86255900  1
  C  C37  1  0.86255900  0.40040600  0.89332000  1
  C  C38  1  0.90040600  0.03784700  0.50708600  1
  C  C39  1  0.96923900  0.60668000  0.00708600  1
  C  C40  1  0.49010300  0.22044400  0.93256700  1
  C  C41  1  0.28787700  0.72044400  0.23034000  1
  C  C42  1  0.76966000  0.71212300  0.27955600  1
  C  C43  1  0.55753700  0.56743300  0.78787700  1
  C  C44  1  0.77955600  0.06743300  0.50989700  1
  C  C45  1  0.78787700  0.55753700  0.56743300  1
  C  C46  1  0.44246300  0.43256700  0.21212300  1
  C  C47  1  0.26966000  0.99010300  0.05753700  1
  C  C48  1  0.22044400  0.93256700  0.49010300  1
  C  C49  1  0.05753700  0.26966000  0.99010300  1
  C  C50  1  0.21212300  0.44246300  0.43256700  1
  C  C51  1  0.73034000  0.00989700  0.94246300  1
  C  C52  1  0.71212300  0.27955600  0.76966000  1
  C  C53  1  0.56743300  0.78787700  0.55753700  1
  C  C54  1  0.23034000  0.28787700  0.72044400  1
  C  C55  1  0.06743300  0.50989700  0.77955600  1
  C  C56  1  0.27955600  0.76966000  0.71212300  1
  C  C57  1  0.99010300  0.05753700  0.26966000  1
  C  C58  1  0.43256700  0.21212300  0.44246300  1
  C  C59  1  0.00989700  0.94246300  0.73034000  1
  C  C60  1  0.94246300  0.73034000  0.00989700  1
  C  C61  1  0.93256700  0.49010300  0.22044400  1
  C  C62  1  0.72044400  0.23034000  0.28787700  1
  C  C63  1  0.50989700  0.77955600  0.06743300  1
  C  C64  1  0.31020400  0.31020400  0.31020400  1
  C  C65  1  0.43812600  0.63371600  0.61990400  1
  C  C66  1  0.86628400  0.30441000  0.98618800  1
  C  C67  1  0.88009600  0.51381200  0.81822300  1
  C  C68  1  0.68177700  0.19559000  0.06187400  1
  C  C69  1  0.69559000  0.01381200  0.13371600  1
  C  C70  1  0.06187400  0.68177700  0.19559000  1
  C  C71  1  0.93812600  0.31822300  0.80441000  1
  C  C72  1  0.11990400  0.48618800  0.18177700  1
  C  C73  1  0.98618800  0.86628400  0.30441000  1
  C  C74  1  0.68979600  0.68979600  0.68979600  1
  C  C75  1  0.81020400  0.50000000  0.00000000  1
  C  C76  1  0.50000000  0.00000000  0.18979600  1
  C  C77  1  0.63371600  0.61990400  0.43812600  1
  C  C78  1  0.81822300  0.88009600  0.51381200  1
  C  C79  1  0.19559000  0.06187400  0.68177700  1
  C  C80  1  0.51381200  0.81822300  0.88009600  1
  C  C81  1  0.18177700  0.11990400  0.48618800  1
  C  C82  1  0.30441000  0.98618800  0.86628400  1
  C  C83  1  0.18979600  0.50000000  0.00000000  1
  C  C84  1  0.01381200  0.13371600  0.69559000  1
  C  C85  1  0.48618800  0.18177700  0.11990400  1
  C  C86  1  0.00000000  0.18979600  0.50000000  1
  C  C87  1  0.36628400  0.38009600  0.56187400  1
  C  C88  1  0.13371600  0.69559000  0.01381200  1
  C  C89  1  0.00000000  0.81020400  0.50000000  1
  C  C90  1  0.38009600  0.56187400  0.36628400  1
  C  C91  1  0.31822300  0.80441000  0.93812600  1
  C  C92  1  0.80441000  0.93812600  0.31822300  1
  C  C93  1  0.61990400  0.43812600  0.63371600  1
  C  C94  1  0.50000000  0.00000000  0.81020400  1
  C  C95  1  0.56187400  0.36628400  0.38009600  1
  C  C96  1  0.49045100  0.29283900  0.92471100  1
  C  C97  1  0.79283900  0.30238700  0.36812800  1
  C  C98  1  0.69761300  0.63187200  0.20716100  1
  C  C99  1  0.06574100  0.19761300  0.99045100  1
  C  C100  1  0.30238700  0.36812800  0.79283900  1
  C  C101  1  0.20716100  0.69761300  0.63187200  1
  C  C102  1  0.99045100  0.06574100  0.19761300  1
  C  C103  1  0.36812800  0.79283900  0.30238700  1
  C  C104  1  0.29283900  0.92471100  0.49045100  1
  C  C105  1  0.50954900  0.70716100  0.07528900  1
  C  C106  1  0.00954900  0.93425900  0.80238700  1
  C  C107  1  0.56574100  0.57528900  0.86812800  1
  C  C108  1  0.63187200  0.20716100  0.69761300  1
  C  C109  1  0.80238700  0.00954900  0.93425900  1
  C  C110  1  0.92471100  0.49045100  0.29283900  1
  C  C111  1  0.57528900  0.86812800  0.56574100  1
  C  C112  1  0.70716100  0.07528900  0.50954900  1
  C  C113  1  0.93425900  0.80238700  0.00954900  1
  C  C114  1  0.19761300  0.99045100  0.06574100  1
  C  C115  1  0.13187200  0.43425900  0.42471100  1
  C  C116  1  0.43425900  0.42471100  0.13187200  1
  C  C117  1  0.07528900  0.50954900  0.70716100  1
  C  C118  1  0.42471100  0.13187200  0.43425900  1
  C  C119  1  0.86812800  0.56574100  0.57528900  1
