# generated using pymatgen
data_CuNiC6
_symmetry_space_group_name_H-M   'P 1'
_cell_length_a   5.90705700
_cell_length_b   5.92798200
_cell_length_c   14.22465300
_cell_angle_alpha   90.00000000
_cell_angle_beta   90.00000000
_cell_angle_gamma   90.00000000
_symmetry_Int_Tables_number   1
_chemical_formula_structural   CuNiC6
_chemical_formula_sum   'Cu4 Ni4 C24'
_cell_volume   498.10364379
_cell_formula_units_Z   4
loop_
 _symmetry_equiv_pos_site_id
 _symmetry_equiv_pos_as_xyz
  1  'x, y, z'
loop_
 _atom_site_type_symbol
 _atom_site_label
 _atom_site_symmetry_multiplicity
 _atom_site_fract_x
 _atom_site_fract_y
 _atom_site_fract_z
 _atom_site_occupancy
  Ni  Ni0  1  0.25000000  0.66786900  0.35361700  1
  Ni  Ni1  1  0.75000000  0.83213100  0.85361700  1
  Ni  Ni2  1  0.25000000  0.16786900  0.14638300  1
  Ni  Ni3  1  0.75000000  0.33213100  0.64638300  1
  Cu  Cu4  1  0.25000000  0.44002200  0.84949600  1
  Cu  Cu5  1  0.25000000  0.94002200  0.65050400  1
  Cu  Cu6  1  0.75000000  0.05997800  0.34949600  1
  Cu  Cu7  1  0.75000000  0.55997800  0.15050400  1
  C  C8  1  0.25000000  0.45314500  0.42200600  1
  C  C9  1  0.75000000  0.72671000  0.11536100  1
  C  C10  1  0.25000000  0.27329000  0.88463900  1
  C  C11  1  0.75000000  0.04685500  0.92200600  1
  C  C12  1  0.75000000  0.22671000  0.38463900  1
  C  C13  1  0.25000000  0.77329000  0.61536100  1
  C  C14  1  0.25000000  0.95314500  0.07799400  1
  C  C15  1  0.75000000  0.54685500  0.57799400  1
  C  C16  1  0.48266000  0.54052400  0.26928200  1
  C  C17  1  0.02311800  0.83189800  0.42350000  1
  C  C18  1  0.52311800  0.16810200  0.57650000  1
  C  C19  1  0.47688200  0.33189800  0.07650000  1
  C  C20  1  0.52311800  0.66810200  0.92350000  1
  C  C21  1  0.01734000  0.54052400  0.26928200  1
  C  C22  1  0.98266000  0.45947600  0.73071800  1
  C  C23  1  0.48266000  0.04052400  0.23071800  1
  C  C24  1  0.02311800  0.33189800  0.07650000  1
  C  C25  1  0.01734000  0.04052400  0.23071800  1
  C  C26  1  0.98266000  0.95947600  0.76928200  1
  C  C27  1  0.97688200  0.16810200  0.57650000  1
  C  C28  1  0.97688200  0.66810200  0.92350000  1
  C  C29  1  0.47688200  0.83189800  0.42350000  1
  C  C30  1  0.51734000  0.45947600  0.73071800  1
  C  C31  1  0.51734000  0.95947600  0.76928200  1
