# generated using pymatgen
data_CuNiC5
_symmetry_space_group_name_H-M   'P 1'
_cell_length_a   9.25373100
_cell_length_b   4.87457900
_cell_length_c   7.60903236
_cell_angle_alpha   57.37572370
_cell_angle_beta   90.00000000
_cell_angle_gamma   90.00000000
_symmetry_Int_Tables_number   1
_chemical_formula_structural   CuNiC5
_chemical_formula_sum   'Cu4 Ni4 C20'
_cell_volume   289.07534339
_cell_formula_units_Z   4
loop_
 _symmetry_equiv_pos_site_id
 _symmetry_equiv_pos_as_xyz
  1  'x, y, z'
loop_
 _atom_site_type_symbol
 _atom_site_label
 _atom_site_symmetry_multiplicity
 _atom_site_fract_x
 _atom_site_fract_y
 _atom_site_fract_z
 _atom_site_occupancy
  C  C0  1  0.35140100  0.34454800  0.68143200  1
  C  C1  1  0.85140100  0.65545200  0.81856800  1
  C  C2  1  0.14859900  0.34454800  0.18143200  1
  C  C3  1  0.64859900  0.65545200  0.31856800  1
  Ni  Ni4  1  0.00000000  0.50000000  0.50000000  1
  Ni  Ni5  1  0.50000000  0.00000000  0.50000000  1
  Ni  Ni6  1  0.00000000  0.00000000  0.00000000  1
  Ni  Ni7  1  0.50000000  0.50000000  0.00000000  1
  Cu  Cu8  1  0.17435800  0.85405600  0.68132100  1
  Cu  Cu9  1  0.67435800  0.14594400  0.81867900  1
  Cu  Cu10  1  0.32564200  0.85405600  0.18132100  1
  Cu  Cu11  1  0.82564200  0.14594400  0.31867900  1
  C  C12  1  0.11869200  0.17641400  0.48930000  1
  C  C13  1  0.59530200  0.23143600  0.61406800  1
  C  C14  1  0.15394100  0.55350100  0.66325600  1
  C  C15  1  0.33997900  0.90414100  0.70013900  1
  C  C16  1  0.83997900  0.09585900  0.79986100  1
  C  C17  1  0.65394100  0.44649900  0.83674400  1
  C  C18  1  0.09530200  0.76856400  0.88593200  1
  C  C19  1  0.38130800  0.17641400  0.98930000  1
  C  C20  1  0.61869200  0.82358600  0.01070000  1
  C  C21  1  0.90469800  0.23143600  0.11406800  1
  C  C22  1  0.34605900  0.55350100  0.16325600  1
  C  C23  1  0.16002100  0.90414100  0.20013900  1
  C  C24  1  0.66002100  0.09585900  0.29986100  1
  C  C25  1  0.84605900  0.44649900  0.33674400  1
  C  C26  1  0.40469800  0.76856400  0.38593200  1
  C  C27  1  0.88130800  0.82358600  0.51070000  1
