# generated using pymatgen
data_Cu2Ni2C5
_symmetry_space_group_name_H-M   'P 1'
_cell_length_a   10.29524500
_cell_length_b   11.22981600
_cell_length_c   12.47190724
_cell_angle_alpha   85.49528840
_cell_angle_beta   90.00000000
_cell_angle_gamma   90.00000000
_symmetry_Int_Tables_number   1
_chemical_formula_structural   Cu2Ni2C5
_chemical_formula_sum   'Cu24 Ni24 C60'
_cell_volume   1437.46915265
_cell_formula_units_Z   12
loop_
 _symmetry_equiv_pos_site_id
 _symmetry_equiv_pos_as_xyz
  1  'x, y, z'
loop_
 _atom_site_type_symbol
 _atom_site_label
 _atom_site_symmetry_multiplicity
 _atom_site_fract_x
 _atom_site_fract_y
 _atom_site_fract_z
 _atom_site_occupancy
  Ni  Ni0  1  0.34237200  0.82122900  0.51418600  1
  Ni  Ni1  1  0.13670800  0.11860000  0.90517600  1
  Ni  Ni2  1  0.17463200  0.85035700  0.31612900  1
  Ni  Ni3  1  0.82536800  0.14964300  0.68387100  1
  Ni  Ni4  1  0.28321900  0.61474200  0.35115500  1
  Ni  Ni5  1  0.36329200  0.11860000  0.40517600  1
  Ni  Ni6  1  0.33313100  0.60243300  0.08090900  1
  Ni  Ni7  1  0.20442900  0.36382100  0.32751200  1
  Ni  Ni8  1  0.79557100  0.63617900  0.67248800  1
  Ni  Ni9  1  0.78321900  0.38525800  0.14884500  1
  Ni  Ni10  1  0.83313100  0.39756700  0.41909100  1
  Ni  Ni11  1  0.65762800  0.17877100  0.48581400  1
  Ni  Ni12  1  0.84237200  0.17877100  0.98581400  1
  Ni  Ni13  1  0.67463200  0.14964300  0.18387100  1
  Ni  Ni14  1  0.29557100  0.36382100  0.82751200  1
  Ni  Ni15  1  0.32536800  0.85035700  0.81612900  1
  Ni  Ni16  1  0.63670800  0.88140000  0.59482400  1
  Ni  Ni17  1  0.15762800  0.82122900  0.01418600  1
  Ni  Ni18  1  0.71678100  0.38525800  0.64884500  1
  Ni  Ni19  1  0.66686900  0.39756700  0.91909100  1
  Ni  Ni20  1  0.86329200  0.88140000  0.09482400  1
  Ni  Ni21  1  0.21678100  0.61474200  0.85115500  1
  Ni  Ni22  1  0.16686900  0.60243300  0.58090900  1
  Ni  Ni23  1  0.70442900  0.63617900  0.17248800  1
  Cu  Cu24  1  0.92299200  0.60732700  0.96328700  1
  Cu  Cu25  1  0.46713700  0.58799300  0.70336000  1
  Cu  Cu26  1  0.96713700  0.41200700  0.79664000  1
  Cu  Cu27  1  0.53286300  0.41200700  0.29664000  1
  Cu  Cu28  1  0.42299200  0.39267300  0.53671300  1
  Cu  Cu29  1  0.50978200  0.87265400  0.04755800  1
  Cu  Cu30  1  0.99021800  0.87265400  0.54755800  1
  Cu  Cu31  1  0.33436200  0.03703200  0.14540700  1
  Cu  Cu32  1  0.00978200  0.12734600  0.45244200  1
  Cu  Cu33  1  0.38355300  0.29891800  0.10059300  1
  Cu  Cu34  1  0.83436200  0.96296800  0.35459300  1
  Cu  Cu35  1  0.49021800  0.12734600  0.95244200  1
  Cu  Cu36  1  0.16563800  0.03703200  0.64540700  1
  Cu  Cu37  1  0.66563800  0.96296800  0.85459300  1
  Cu  Cu38  1  0.03286300  0.58799300  0.20336000  1
  Cu  Cu39  1  0.61644700  0.70108200  0.89940700  1
  Cu  Cu40  1  0.53563500  0.87509400  0.30017700  1
  Cu  Cu41  1  0.07700800  0.39267300  0.03671300  1
  Cu  Cu42  1  0.96436500  0.87509400  0.80017700  1
  Cu  Cu43  1  0.11644700  0.29891800  0.60059300  1
  Cu  Cu44  1  0.88355300  0.70108200  0.39940700  1
  Cu  Cu45  1  0.03563500  0.12490600  0.19982300  1
  Cu  Cu46  1  0.57700800  0.60732700  0.46328700  1
  Cu  Cu47  1  0.46436500  0.12490600  0.69982300  1
  C  C48  1  0.02182400  0.22741700  0.08160100  1
  C  C49  1  0.39990000  0.56184500  0.48702600  1
  C  C50  1  0.55235200  0.57554800  0.82919600  1
  C  C51  1  0.94764800  0.57554800  0.32919600  1
  C  C52  1  0.51971500  0.27402300  0.01432900  1
  C  C53  1  0.89990000  0.43815500  0.01297400  1
  C  C54  1  0.92859000  0.56387200  0.81735700  1
  C  C55  1  0.05235200  0.42445200  0.67080400  1
  C  C56  1  0.06104600  0.19996700  0.31741700  1
  C  C57  1  0.24182400  0.38149500  0.53224400  1
  C  C58  1  0.57957200  0.65692000  0.60830900  1
  C  C59  1  0.93895400  0.80003300  0.68258300  1
  C  C60  1  0.98028500  0.27402300  0.51432900  1
  C  C61  1  0.75817600  0.61850500  0.46775600  1
  C  C62  1  0.17551300  0.67554500  0.21127400  1
  C  C63  1  0.07957200  0.34308000  0.89169100  1
  C  C64  1  0.15671600  0.01820800  0.17352900  1
  C  C65  1  0.74182400  0.61850500  0.96775600  1
  C  C66  1  0.61353000  0.04057200  0.71145200  1
  C  C67  1  0.25817600  0.38149500  0.03224400  1
  C  C68  1  0.42859000  0.43612800  0.68264300  1
  C  C69  1  0.81926800  0.86717800  0.48918000  1
  C  C70  1  0.88647000  0.04057200  0.21145200  1
  C  C71  1  0.32448700  0.67554500  0.71127400  1
  C  C72  1  0.38647000  0.95942800  0.28854800  1
  C  C73  1  0.84328400  0.98179200  0.82647100  1
  C  C74  1  0.97965900  0.03369100  0.59662000  1
  C  C75  1  0.47965900  0.96630900  0.90338000  1
  C  C76  1  0.43895400  0.19996700  0.81741700  1
  C  C77  1  0.42042800  0.34308000  0.39169100  1
  C  C78  1  0.16579400  0.88800600  0.58526300  1
  C  C79  1  0.66579400  0.11199400  0.91473700  1
  C  C80  1  0.34328400  0.01820800  0.67352900  1
  C  C81  1  0.97817600  0.77258300  0.91839900  1
  C  C82  1  0.47817600  0.22741700  0.58160100  1
  C  C83  1  0.65671600  0.98179200  0.32647100  1
  C  C84  1  0.92042800  0.65692000  0.10830900  1
  C  C85  1  0.10010000  0.56184500  0.98702600  1
  C  C86  1  0.11353000  0.95942800  0.78854800  1
  C  C87  1  0.02034100  0.96630900  0.40338000  1
  C  C88  1  0.48028500  0.72597700  0.98567100  1
  C  C89  1  0.64576900  0.81372500  0.79309700  1
  C  C90  1  0.57141000  0.56387200  0.31735700  1
  C  C91  1  0.60010000  0.43815500  0.51297400  1
  C  C92  1  0.44764800  0.42445200  0.17080400  1
  C  C93  1  0.82448700  0.32445500  0.78872600  1
  C  C94  1  0.52182400  0.77258300  0.41839900  1
  C  C95  1  0.31926800  0.13282200  0.01082000  1
  C  C96  1  0.35423100  0.18627500  0.20690300  1
  C  C97  1  0.01971500  0.72597700  0.48567100  1
  C  C98  1  0.83420600  0.11199400  0.41473700  1
  C  C99  1  0.52034100  0.03369100  0.09662000  1
  C  C100  1  0.67551300  0.32445500  0.28872600  1
  C  C101  1  0.14576900  0.18627500  0.70690300  1
  C  C102  1  0.33420600  0.88800600  0.08526300  1
  C  C103  1  0.85423100  0.81372500  0.29309700  1
  C  C104  1  0.18073200  0.13282200  0.51082000  1
  C  C105  1  0.07141000  0.43612800  0.18264300  1
  C  C106  1  0.68073200  0.86717800  0.98918000  1
  C  C107  1  0.56104600  0.80003300  0.18258300  1
