# generated using pymatgen
data_Cu2Ni34C67
_symmetry_space_group_name_H-M   'P 1'
_cell_length_a   24.38176566
_cell_length_b   24.38176583
_cell_length_c   24.38176614
_cell_angle_alpha   18.72083741
_cell_angle_beta   18.72083619
_cell_angle_gamma   18.72083653
_symmetry_Int_Tables_number   1
_chemical_formula_structural   Cu2Ni34C67
_chemical_formula_sum   'Cu2 Ni34 C67'
_cell_volume   1304.56837132
_cell_formula_units_Z   1
loop_
 _symmetry_equiv_pos_site_id
 _symmetry_equiv_pos_as_xyz
  1  'x, y, z'
loop_
 _atom_site_type_symbol
 _atom_site_label
 _atom_site_symmetry_multiplicity
 _atom_site_fract_x
 _atom_site_fract_y
 _atom_site_fract_z
 _atom_site_occupancy
  C  C0  1  0.06279511  0.06279511  0.06279511  1
  C  C1  1  0.93720489  0.93720489  0.93720489  1
  C  C2  1  0.50000000  0.50000000  0.50000000  1
  Ni  Ni3  1  0.19637488  0.44125176  0.61805688  1
  Ni  Ni4  1  0.87105612  0.02027146  0.56209886  1
  Ni  Ni5  1  0.12894388  0.97972854  0.43790114  1
  Ni  Ni6  1  0.11706314  0.11706314  0.11706314  1
  Ni  Ni7  1  0.57426948  0.74089685  0.33209001  1
  Ni  Ni8  1  0.38194312  0.80362512  0.55874824  1
  Ni  Ni9  1  0.21038693  0.79779067  0.04075854  1
  Ni  Ni10  1  0.79779067  0.04075854  0.21038693  1
  Ni  Ni11  1  0.33209001  0.57426948  0.74089685  1
  Ni  Ni12  1  0.97733500  0.65447074  0.51741725  1
  Ni  Ni13  1  0.65447074  0.51741725  0.97733500  1
  Ni  Ni14  1  0.48258275  0.02266500  0.34552926  1
  Ni  Ni15  1  0.34757957  0.34757957  0.34757957  1
  Ni  Ni16  1  0.42573052  0.25910315  0.66790999  1
  Ni  Ni17  1  0.55874824  0.38194312  0.80362512  1
  Ni  Ni18  1  0.20220933  0.95924146  0.78961307  1
  Ni  Ni19  1  0.78961307  0.20220933  0.95924146  1
  Ni  Ni20  1  0.51741725  0.97733500  0.65447074  1
  Ni  Ni21  1  0.02027146  0.56209886  0.87105612  1
  Ni  Ni22  1  0.25910315  0.66790999  0.42573052  1
  Ni  Ni23  1  0.80362512  0.55874824  0.38194312  1
  Ni  Ni24  1  0.95924146  0.78961307  0.20220933  1
  Ni  Ni25  1  0.61805688  0.19637488  0.44125176  1
  Ni  Ni26  1  0.97972854  0.43790114  0.12894388  1
  Ni  Ni27  1  0.44125176  0.61805688  0.19637488  1
  Ni  Ni28  1  0.56209886  0.87105612  0.02027146  1
  Ni  Ni29  1  0.43790114  0.12894388  0.97972854  1
  Ni  Ni30  1  0.34552926  0.48258275  0.02266500  1
  Ni  Ni31  1  0.65242043  0.65242043  0.65242043  1
  Ni  Ni32  1  0.88293686  0.88293686  0.88293686  1
  Ni  Ni33  1  0.02266500  0.34552926  0.48258275  1
  Ni  Ni34  1  0.04075854  0.21038693  0.79779067  1
  Ni  Ni35  1  0.74089685  0.33209001  0.57426948  1
  Ni  Ni36  1  0.66790999  0.42573052  0.25910315  1
  Cu  Cu37  1  0.77515755  0.77515755  0.77515755  1
  Cu  Cu38  1  0.22484245  0.22484245  0.22484245  1
  C  C39  1  0.33460254  0.75708145  0.50304469  1
  C  C40  1  0.57276689  0.26304161  0.16397409  1
  C  C41  1  0.12516618  0.43502366  0.53504298  1
  C  C42  1  0.26168954  0.86511416  0.17541526  1
  C  C43  1  0.95940720  0.37422654  0.06468961  1
  C  C44  1  0.07262257  0.50931713  0.22614562  1
  C  C45  1  0.86511416  0.17541526  0.26168954  1
  C  C46  1  0.23006369  0.34836552  0.92346462  1
  C  C47  1  0.66539746  0.24291855  0.49695531  1
  C  C48  1  0.63339874  0.80154710  0.36258142  1
  C  C49  1  0.00233912  0.83602024  0.26399154  1
  C  C50  1  0.34836552  0.92346462  0.23006369  1
  C  C51  1  0.73695839  0.83602591  0.42723311  1
  C  C52  1  0.83602591  0.42723311  0.73695839  1
  C  C53  1  0.22614562  0.07262257  0.50931713  1
  C  C54  1  0.38835088  0.99102092  0.31645361  1
  C  C55  1  0.93531039  0.04059280  0.62577346  1
  C  C56  1  0.36258142  0.63339874  0.80154710  1
  C  C57  1  0.26399154  0.00233912  0.83602024  1
  C  C58  1  0.63741858  0.36660126  0.19845290  1
  C  C59  1  0.87483382  0.56497634  0.46495702  1
  C  C60  1  0.73600846  0.99766088  0.16397976  1
  C  C61  1  0.49068287  0.77385438  0.92737743  1
  C  C62  1  0.70306235  0.70306235  0.70306235  1
  C  C63  1  0.19845290  0.63741858  0.36660126  1
  C  C64  1  0.92737743  0.49068287  0.77385438  1
  C  C65  1  0.76993631  0.65163448  0.07653538  1
  C  C66  1  0.77385438  0.92737743  0.49068287  1
  C  C67  1  0.16397409  0.57276689  0.26304161  1
  C  C68  1  0.73831046  0.13488584  0.82458474  1
  C  C69  1  0.00897908  0.68354639  0.61164912  1
  C  C70  1  0.75708145  0.50304469  0.33460254  1
  C  C71  1  0.80034922  0.80034922  0.80034922  1
  C  C72  1  0.06468961  0.95940720  0.37422654  1
  C  C73  1  0.31645361  0.38835088  0.99102092  1
  C  C74  1  0.99102092  0.31645361  0.38835088  1
  C  C75  1  0.83602024  0.26399154  0.00233912  1
  C  C76  1  0.68354639  0.61164912  0.00897908  1
  C  C77  1  0.80154710  0.36258142  0.63339874  1
  C  C78  1  0.37422654  0.06468961  0.95940720  1
  C  C79  1  0.56497634  0.46495702  0.87483382  1
  C  C80  1  0.17541526  0.26168954  0.86511416  1
  C  C81  1  0.53504298  0.12516618  0.43502366  1
  C  C82  1  0.92346462  0.23006369  0.34836552  1
  C  C83  1  0.62577346  0.93531039  0.04059280  1
  C  C84  1  0.07653538  0.76993631  0.65163448  1
  C  C85  1  0.61164912  0.00897908  0.68354639  1
  C  C86  1  0.50304469  0.33460254  0.75708145  1
  C  C87  1  0.65163448  0.07653538  0.76993631  1
  C  C88  1  0.29693765  0.29693765  0.29693765  1
  C  C89  1  0.36660126  0.19845290  0.63741858  1
  C  C90  1  0.19965078  0.19965078  0.19965078  1
  C  C91  1  0.42723311  0.73695839  0.83602591  1
  C  C92  1  0.13488584  0.82458474  0.73831046  1
  C  C93  1  0.16397976  0.73600846  0.99766088  1
  C  C94  1  0.26304161  0.16397409  0.57276689  1
  C  C95  1  0.99766088  0.16397976  0.73600846  1
  C  C96  1  0.43502366  0.53504298  0.12516618  1
  C  C97  1  0.50931713  0.22614562  0.07262257  1
  C  C98  1  0.49695531  0.66539746  0.24291855  1
  C  C99  1  0.24291855  0.49695531  0.66539746  1
  C  C100  1  0.82458474  0.73831046  0.13488584  1
  C  C101  1  0.46495702  0.87483382  0.56497634  1
  C  C102  1  0.04059280  0.62577346  0.93531039  1
