# generated using pymatgen
data_Cu7(Ni2C)4
_symmetry_space_group_name_H-M   'P 1'
_cell_length_a   4.40930500
_cell_length_b   13.99196186
_cell_length_c   13.99196171
_cell_angle_alpha   117.57479010
_cell_angle_beta   90.00000000
_cell_angle_gamma   90.00000000
_symmetry_Int_Tables_number   1
_chemical_formula_structural   Cu7(Ni2C)4
_chemical_formula_sum   'Cu14 Ni16 C8'
_cell_volume   765.17488335
_cell_formula_units_Z   2
loop_
 _symmetry_equiv_pos_site_id
 _symmetry_equiv_pos_as_xyz
  1  'x, y, z'
loop_
 _atom_site_type_symbol
 _atom_site_label
 _atom_site_symmetry_multiplicity
 _atom_site_fract_x
 _atom_site_fract_y
 _atom_site_fract_z
 _atom_site_occupancy
  C  C0  1  0.00000000  0.99717100  0.34736700  1
  C  C1  1  0.50000000  0.39636300  0.60363700  1
  C  C2  1  0.00000000  0.65263300  0.00282900  1
  C  C3  1  0.00000000  0.80949300  0.80949300  1
  C  C4  1  0.00000000  0.00282900  0.65263300  1
  C  C5  1  0.50000000  0.60363700  0.39636300  1
  C  C6  1  0.00000000  0.34736700  0.99717100  1
  C  C7  1  0.00000000  0.19050700  0.19050700  1
  Ni  Ni8  1  0.50000000  0.18101600  0.37018500  1
  Ni  Ni9  1  0.50000000  0.87763000  0.44153300  1
  Ni  Ni10  1  0.00000000  0.72097200  0.27902800  1
  Ni  Ni11  1  0.00000000  0.91522300  0.08477700  1
  Ni  Ni12  1  0.50000000  0.44153300  0.87763000  1
  Ni  Ni13  1  0.50000000  0.37018500  0.18101600  1
  Ni  Ni14  1  0.50000000  0.62981500  0.81898400  1
  Ni  Ni15  1  0.50000000  0.80908200  0.19091800  1
  Ni  Ni16  1  0.50000000  0.12237000  0.55846700  1
  Ni  Ni17  1  0.50000000  0.81898400  0.62981500  1
  Ni  Ni18  1  0.00000000  0.27902800  0.72097200  1
  Ni  Ni19  1  0.00000000  0.08477700  0.91522300  1
  Ni  Ni20  1  0.50000000  0.00000000  0.00000000  1
  Ni  Ni21  1  0.50000000  0.19091800  0.80908200  1
  Ni  Ni22  1  0.50000000  0.55846700  0.12237000  1
  Ni  Ni23  1  0.00000000  0.50000000  0.50000000  1
  Cu  Cu24  1  0.00000000  0.40347800  0.29639600  1
  Cu  Cu25  1  0.50000000  0.61706500  0.61706500  1
  Cu  Cu26  1  0.00000000  0.29639600  0.40347800  1
  Cu  Cu27  1  0.00000000  0.51006600  0.20100800  1
  Cu  Cu28  1  0.00000000  0.48993400  0.79899200  1
  Cu  Cu29  1  0.50000000  0.19371700  0.00115500  1
  Cu  Cu30  1  0.50000000  0.38293500  0.38293500  1
  Cu  Cu31  1  0.50000000  0.99884500  0.80628300  1
  Cu  Cu32  1  0.50000000  0.80628300  0.99884500  1
  Cu  Cu33  1  0.50000000  0.00115500  0.19371700  1
  Cu  Cu34  1  0.00000000  0.79899200  0.48993400  1
  Cu  Cu35  1  0.00000000  0.20100800  0.51006600  1
  Cu  Cu36  1  0.00000000  0.70360400  0.59652200  1
  Cu  Cu37  1  0.00000000  0.59652200  0.70360400  1
