# generated using pymatgen
data_Cu4NiC4
_symmetry_space_group_name_H-M   'P 1'
_cell_length_a   5.19300233
_cell_length_b   5.19300233
_cell_length_c   5.43570738
_cell_angle_alpha   77.67473124
_cell_angle_beta   77.67473124
_cell_angle_gamma   95.19661941
_symmetry_Int_Tables_number   1
_chemical_formula_structural   Cu4NiC4
_chemical_formula_sum   'Cu4 Ni1 C4'
_cell_volume   138.47632290
_cell_formula_units_Z   1
loop_
 _symmetry_equiv_pos_site_id
 _symmetry_equiv_pos_as_xyz
  1  'x, y, z'
loop_
 _atom_site_type_symbol
 _atom_site_label
 _atom_site_symmetry_multiplicity
 _atom_site_fract_x
 _atom_site_fract_y
 _atom_site_fract_z
 _atom_site_occupancy
  C  C0  1  0.47012400  0.90673600  0.55129600  1
  C  C1  1  0.61555600  0.03008000  0.03653400  1
  C  C2  1  0.90673600  0.47012400  0.55129600  1
  C  C3  1  0.03008000  0.61555600  0.03653400  1
  Ni  Ni4  1  0.01267700  0.01267700  0.46373200  1
  Cu  Cu5  1  0.85351600  0.15867800  0.31688200  1
  Cu  Cu6  1  0.82022600  0.82022600  0.70895100  1
  Cu  Cu7  1  0.17264600  0.17264600  0.55633700  1
  Cu  Cu8  1  0.15867800  0.85351600  0.31688200  1
