# generated using pymatgen
data_Cu2Ni6C7
_symmetry_space_group_name_H-M   'P 1'
_cell_length_a   7.25267200
_cell_length_b   8.87258500
_cell_length_c   9.52729698
_cell_angle_alpha   82.52489189
_cell_angle_beta   90.00000000
_cell_angle_gamma   90.00000000
_symmetry_Int_Tables_number   1
_chemical_formula_structural   Cu2Ni6C7
_chemical_formula_sum   'Cu8 Ni24 C28'
_cell_volume   607.87078747
_cell_formula_units_Z   4
loop_
 _symmetry_equiv_pos_site_id
 _symmetry_equiv_pos_as_xyz
  1  'x, y, z'
loop_
 _atom_site_type_symbol
 _atom_site_label
 _atom_site_symmetry_multiplicity
 _atom_site_fract_x
 _atom_site_fract_y
 _atom_site_fract_z
 _atom_site_occupancy
  C  C0  1  0.00000000  0.00000000  0.00000000  1
  C  C1  1  0.50000000  0.00000000  0.50000000  1
  C  C2  1  0.50000000  0.50000000  0.00000000  1
  C  C3  1  0.00000000  0.50000000  0.50000000  1
  Ni  Ni4  1  0.71075400  0.93329100  0.77435300  1
  Ni  Ni5  1  0.21075400  0.06670900  0.72564700  1
  Ni  Ni6  1  0.28924600  0.06670900  0.22564700  1
  Ni  Ni7  1  0.78924600  0.93329100  0.27435300  1
  Ni  Ni8  1  0.52616200  0.32792900  0.61014800  1
  Ni  Ni9  1  0.02616200  0.67207100  0.88985200  1
  Ni  Ni10  1  0.47383800  0.67207100  0.38985200  1
  Ni  Ni11  1  0.97383800  0.32792900  0.11014800  1
  Ni  Ni12  1  0.60934600  0.20890100  0.99014100  1
  Ni  Ni13  1  0.10934600  0.79109900  0.50985900  1
  Ni  Ni14  1  0.39065400  0.79109900  0.00985900  1
  Ni  Ni15  1  0.89065400  0.20890100  0.49014100  1
  Ni  Ni16  1  0.39440600  0.23375000  0.95434200  1
  Ni  Ni17  1  0.89440600  0.76625000  0.54565800  1
  Ni  Ni18  1  0.60559400  0.76625000  0.04565800  1
  Ni  Ni19  1  0.10559400  0.23375000  0.45434200  1
  Ni  Ni20  1  0.90170900  0.30173900  0.73695900  1
  Ni  Ni21  1  0.40170900  0.69826100  0.76304100  1
  Ni  Ni22  1  0.09829100  0.69826100  0.26304100  1
  Ni  Ni23  1  0.59829100  0.30173900  0.23695900  1
  Ni  Ni24  1  0.85261300  0.46686400  0.77878300  1
  Ni  Ni25  1  0.35261300  0.53313600  0.72121700  1
  Ni  Ni26  1  0.14738700  0.53313600  0.22121700  1
  Ni  Ni27  1  0.64738700  0.46686400  0.27878300  1
  Cu  Cu28  1  0.77697900  0.03876200  0.72403700  1
  Cu  Cu29  1  0.27697900  0.96123800  0.77596300  1
  Cu  Cu30  1  0.22302100  0.96123800  0.27596300  1
  Cu  Cu31  1  0.72302100  0.03876200  0.22403700  1
  Cu  Cu32  1  0.38475200  0.32600800  0.56681500  1
  Cu  Cu33  1  0.88475200  0.67399200  0.93318500  1
  Cu  Cu34  1  0.61524800  0.67399200  0.43318500  1
  Cu  Cu35  1  0.11524800  0.32600800  0.06681500  1
  C  C36  1  0.89546700  0.10246100  0.79434700  1
  C  C37  1  0.39546700  0.89753900  0.70565300  1
  C  C38  1  0.10453300  0.89753900  0.20565300  1
  C  C39  1  0.60453300  0.10246100  0.29434700  1
  C  C40  1  0.72931100  0.08943500  0.59781200  1
  C  C41  1  0.22931100  0.91056500  0.90218800  1
  C  C42  1  0.27068900  0.91056500  0.40218800  1
  C  C43  1  0.77068900  0.08943500  0.09781200  1
  C  C44  1  0.28028600  0.43722800  0.58371500  1
  C  C45  1  0.78028600  0.56277200  0.91628500  1
  C  C46  1  0.71971400  0.56277200  0.41628500  1
  C  C47  1  0.21971400  0.43722800  0.08371500  1
  C  C48  1  0.33909900  0.21222400  0.50514600  1
  C  C49  1  0.83909900  0.78777600  0.99485400  1
  C  C50  1  0.66090100  0.78777600  0.49485400  1
  C  C51  1  0.16090100  0.21222400  0.00514600  1
  C  C52  1  0.52026300  0.27575300  0.93285700  1
  C  C53  1  0.02026300  0.72424700  0.56714300  1
  C  C54  1  0.47973700  0.72424700  0.06714300  1
  C  C55  1  0.97973700  0.27575300  0.43285700  1
  C  C56  1  0.89088400  0.41082500  0.69943600  1
  C  C57  1  0.39088400  0.58917500  0.80056400  1
  C  C58  1  0.10911600  0.58917500  0.30056400  1
  C  C59  1  0.60911600  0.41082500  0.19943600  1
