# generated using pymatgen
data_Cu8Ni3C38
_symmetry_space_group_name_H-M   'P 1'
_cell_length_a   9.67060336
_cell_length_b   9.67060336
_cell_length_c   13.64591800
_cell_angle_alpha   90.00000000
_cell_angle_beta   90.00000000
_cell_angle_gamma   119.99999565
_symmetry_Int_Tables_number   1
_chemical_formula_structural   Cu8Ni3C38
_chemical_formula_sum   'Cu16 Ni6 C76'
_cell_volume   1105.19917093
_cell_formula_units_Z   2
loop_
 _symmetry_equiv_pos_site_id
 _symmetry_equiv_pos_as_xyz
  1  'x, y, z'
loop_
 _atom_site_type_symbol
 _atom_site_label
 _atom_site_symmetry_multiplicity
 _atom_site_fract_x
 _atom_site_fract_y
 _atom_site_fract_z
 _atom_site_occupancy
  C  C0  1  0.89882600  0.23712100  0.06423100  1
  C  C1  1  0.33333300  0.66666700  0.11872000  1
  C  C2  1  0.23712100  0.33829400  0.93576900  1
  C  C3  1  0.33333300  0.66666700  0.61872000  1
  C  C4  1  0.10117400  0.33829400  0.43576900  1
  C  C5  1  0.23712100  0.89882600  0.43576900  1
  C  C6  1  0.33829400  0.10117400  0.06423100  1
  C  C7  1  0.33829400  0.23712100  0.56423100  1
  C  C8  1  0.66666700  0.33333300  0.38128000  1
  C  C9  1  0.89882600  0.66170600  0.56423100  1
  C  C10  1  0.66666700  0.33333300  0.88128000  1
  C  C11  1  0.66170600  0.76287900  0.43576900  1
  C  C12  1  0.00000000  0.00000000  0.50000000  1
  C  C13  1  0.76287900  0.10117400  0.56423100  1
  C  C14  1  0.10117400  0.76287900  0.93576900  1
  C  C15  1  0.76287900  0.66170600  0.06423100  1
  C  C16  1  0.00000000  0.00000000  0.00000000  1
  C  C17  1  0.66170600  0.89882600  0.93576900  1
  Ni  Ni18  1  0.56547900  0.00000000  0.75000000  1
  Ni  Ni19  1  0.43452100  0.43452100  0.75000000  1
  Ni  Ni20  1  0.56547900  0.56547900  0.25000000  1
  Ni  Ni21  1  0.00000000  0.43452100  0.25000000  1
  Ni  Ni22  1  0.43452100  0.00000000  0.25000000  1
  Ni  Ni23  1  0.00000000  0.56547900  0.75000000  1
  Cu  Cu24  1  0.31847300  0.09210200  0.84273300  1
  Cu  Cu25  1  0.90789800  0.22637100  0.84273300  1
  Cu  Cu26  1  0.31847300  0.22637100  0.34273300  1
  Cu  Cu27  1  0.22637100  0.90789800  0.65726700  1
  Cu  Cu28  1  0.90789800  0.68152700  0.34273300  1
  Cu  Cu29  1  0.33333300  0.66666700  0.87061700  1
  Cu  Cu30  1  0.66666700  0.33333300  0.12938300  1
  Cu  Cu31  1  0.68152700  0.90789800  0.15726700  1
  Cu  Cu32  1  0.33333300  0.66666700  0.37061700  1
  Cu  Cu33  1  0.77362900  0.09210200  0.34273300  1
  Cu  Cu34  1  0.68152700  0.77362900  0.65726700  1
  Cu  Cu35  1  0.09210200  0.31847300  0.65726700  1
  Cu  Cu36  1  0.66666700  0.33333300  0.62938300  1
  Cu  Cu37  1  0.22637100  0.31847300  0.15726700  1
  Cu  Cu38  1  0.09210200  0.77362900  0.15726700  1
  Cu  Cu39  1  0.77362900  0.68152700  0.84273300  1
  C  C40  1  0.74059600  0.66201700  0.34067400  1
  C  C41  1  0.62139500  0.10259000  0.33013700  1
  C  C42  1  0.92142200  0.25940400  0.34067400  1
  C  C43  1  0.33798300  0.07857800  0.34067400  1
  C  C44  1  0.22540700  0.99853300  0.56632200  1
  C  C45  1  0.00146700  0.77459300  0.06632200  1
  C  C46  1  0.32915000  0.81634500  0.33196100  1
  C  C47  1  0.00146700  0.22687400  0.56632200  1
  C  C48  1  0.20785800  0.20785800  0.25000000  1
  C  C49  1  0.66666700  0.33333300  0.51803000  1
  C  C50  1  0.22687400  0.00146700  0.93367800  1
  C  C51  1  0.48719600  0.67085000  0.33196100  1
  C  C52  1  0.00000000  0.79214200  0.25000000  1
  C  C53  1  0.99853300  0.77312600  0.43367800  1
  C  C54  1  0.89741000  0.51880500  0.33013700  1
  C  C55  1  0.10259000  0.62139500  0.16986300  1
  C  C56  1  0.67085000  0.48719600  0.16803900  1
  C  C57  1  0.07857800  0.74059600  0.65932600  1
  C  C58  1  0.51280400  0.18365500  0.16803900  1
  C  C59  1  0.81634500  0.48719600  0.66803900  1
  C  C60  1  0.51880500  0.89741000  0.16986300  1
  C  C61  1  0.48719600  0.81634500  0.83196100  1
  C  C62  1  0.22540700  0.22687400  0.06632200  1
  C  C63  1  0.77312600  0.77459300  0.56632200  1
  C  C64  1  0.74059600  0.07857800  0.84067400  1
  C  C65  1  0.25940400  0.33798300  0.65932600  1
  C  C66  1  0.48119500  0.37860500  0.33013700  1
  C  C67  1  0.37860500  0.48119500  0.16986300  1
  C  C68  1  0.66201700  0.74059600  0.15932600  1
  C  C69  1  0.33333300  0.66666700  0.48197000  1
  C  C70  1  0.77312600  0.99853300  0.06632200  1
  C  C71  1  0.51880500  0.62139500  0.66986300  1
  C  C72  1  0.18365500  0.67085000  0.83196100  1
  C  C73  1  0.51280400  0.32915000  0.66803900  1
  C  C74  1  0.25940400  0.92142200  0.15932600  1
  C  C75  1  0.99853300  0.22540700  0.93367800  1
  C  C76  1  0.77459300  0.00146700  0.43367800  1
  C  C77  1  0.22687400  0.22540700  0.43367800  1
  C  C78  1  0.33333300  0.66666700  0.98197000  1
  C  C79  1  0.92142200  0.66201700  0.84067400  1
  C  C80  1  0.79214200  0.00000000  0.25000000  1
  C  C81  1  0.81634500  0.32915000  0.16803900  1
  C  C82  1  0.66201700  0.92142200  0.65932600  1
  C  C83  1  0.20785800  0.00000000  0.75000000  1
  C  C84  1  0.89741000  0.37860500  0.83013700  1
  C  C85  1  0.77459300  0.77312600  0.93367800  1
  C  C86  1  0.07857800  0.33798300  0.15932600  1
  C  C87  1  0.33798300  0.25940400  0.84067400  1
  C  C88  1  0.62139500  0.51880500  0.83013700  1
  C  C89  1  0.37860500  0.89741000  0.66986300  1
  C  C90  1  0.67085000  0.18365500  0.66803900  1
  C  C91  1  0.48119500  0.10259000  0.83013700  1
  C  C92  1  0.79214200  0.79214200  0.75000000  1
  C  C93  1  0.18365500  0.51280400  0.33196100  1
  C  C94  1  0.32915000  0.51280400  0.83196100  1
  C  C95  1  0.00000000  0.20785800  0.75000000  1
  C  C96  1  0.66666700  0.33333300  0.01803000  1
  C  C97  1  0.10259000  0.48119500  0.66986300  1
