# generated using pymatgen
data_Cu3NiC14
_symmetry_space_group_name_H-M   'P 1'
_cell_length_a   11.14043851
_cell_length_b   11.14043851
_cell_length_c   5.54003850
_cell_angle_alpha   79.67516634
_cell_angle_beta   79.67516634
_cell_angle_gamma   66.03477795
_symmetry_Int_Tables_number   1
_chemical_formula_structural   Cu3NiC14
_chemical_formula_sum   'Cu6 Ni2 C28'
_cell_volume   613.77607340
_cell_formula_units_Z   2
loop_
 _symmetry_equiv_pos_site_id
 _symmetry_equiv_pos_as_xyz
  1  'x, y, z'
loop_
 _atom_site_type_symbol
 _atom_site_label
 _atom_site_symmetry_multiplicity
 _atom_site_fract_x
 _atom_site_fract_y
 _atom_site_fract_z
 _atom_site_occupancy
  C  C0  1  0.43118800  0.19835900  0.48887400  1
  C  C1  1  0.80164100  0.56881200  0.01112600  1
  C  C2  1  0.56881200  0.80164100  0.51112600  1
  C  C3  1  0.19835900  0.43118800  0.98887400  1
  Ni  Ni4  1  0.13150400  0.86849600  0.75000000  1
  Ni  Ni5  1  0.86849600  0.13150400  0.25000000  1
  Cu  Cu6  1  0.40284000  0.59716000  0.75000000  1
  Cu  Cu7  1  0.59716000  0.40284000  0.25000000  1
  Cu  Cu8  1  0.25368800  0.04195500  0.12683000  1
  Cu  Cu9  1  0.95804500  0.74631200  0.37317000  1
  Cu  Cu10  1  0.74631200  0.95804500  0.87317000  1
  Cu  Cu11  1  0.04195500  0.25368800  0.62683000  1
  C  C12  1  0.11468000  0.02058900  0.36792500  1
  C  C13  1  0.97941100  0.88532000  0.13207500  1
  C  C14  1  0.88532000  0.97941100  0.63207500  1
  C  C15  1  0.02058900  0.11468000  0.86792500  1
  C  C16  1  0.54500400  0.59304200  0.86365400  1
  C  C17  1  0.40695800  0.45499600  0.63634600  1
  C  C18  1  0.45499600  0.40695800  0.13634600  1
  C  C19  1  0.59304200  0.54500400  0.36365400  1
  C  C20  1  0.22593600  0.18962400  0.91684000  1
  C  C21  1  0.81037600  0.77406400  0.58316000  1
  C  C22  1  0.77406400  0.81037600  0.08316000  1
  C  C23  1  0.18962400  0.22593600  0.41684000  1
  C  C24  1  0.40173700  0.99942000  0.24916300  1
  C  C25  1  0.00058000  0.59826300  0.25083700  1
  C  C26  1  0.59826300  0.00058000  0.75083700  1
  C  C27  1  0.99942000  0.40173700  0.74916300  1
  C  C28  1  0.33850000  0.75123300  0.53687700  1
  C  C29  1  0.24876700  0.66150000  0.96312300  1
  C  C30  1  0.66150000  0.24876700  0.46312300  1
  C  C31  1  0.75123300  0.33850000  0.03687700  1
  C  C32  1  0.71693600  0.08097800  0.07545100  1
  C  C33  1  0.91902200  0.28306400  0.42454900  1
  C  C34  1  0.28306400  0.91902200  0.92454900  1
  C  C35  1  0.08097800  0.71693600  0.57545100  1
