# generated using pymatgen
data_CuNi7C20
_symmetry_space_group_name_H-M   'P 1'
_cell_length_a   22.10833217
_cell_length_b   22.10833235
_cell_length_c   22.10833154
_cell_angle_alpha   29.88911339
_cell_angle_beta   29.88911255
_cell_angle_gamma   29.88911233
_symmetry_Int_Tables_number   1
_chemical_formula_structural   CuNi7C20
_chemical_formula_sum   'Cu2 Ni14 C40'
_cell_volume   2376.54134824
_cell_formula_units_Z   2
loop_
 _symmetry_equiv_pos_site_id
 _symmetry_equiv_pos_as_xyz
  1  'x, y, z'
loop_
 _atom_site_type_symbol
 _atom_site_label
 _atom_site_symmetry_multiplicity
 _atom_site_fract_x
 _atom_site_fract_y
 _atom_site_fract_z
 _atom_site_occupancy
  C  C0  1  0.13047740  0.84427499  0.38523415  1
  C  C1  1  0.15572501  0.61476585  0.86952260  1
  C  C2  1  0.84427499  0.38523415  0.13047740  1
  C  C3  1  0.55269331  0.55269331  0.55269331  1
  C  C4  1  0.05269331  0.05269331  0.05269331  1
  C  C5  1  0.44730669  0.44730669  0.44730669  1
  C  C6  1  0.86952260  0.15572501  0.61476585  1
  C  C7  1  0.34427499  0.63047740  0.88523415  1
  C  C8  1  0.63047740  0.88523415  0.34427499  1
  C  C9  1  0.18759390  0.53137222  0.72924330  1
  C  C10  1  0.72924330  0.18759390  0.53137222  1
  C  C11  1  0.88523415  0.34427499  0.63047740  1
  C  C12  1  0.22924330  0.03137222  0.68759390  1
  C  C13  1  0.68759390  0.22924330  0.03137222  1
  C  C14  1  0.81240610  0.46862778  0.27075670  1
  C  C15  1  0.94730669  0.94730669  0.94730669  1
  C  C16  1  0.36952260  0.11476585  0.65572501  1
  C  C17  1  0.65572501  0.36952260  0.11476585  1
  C  C18  1  0.53137222  0.72924330  0.18759390  1
  C  C19  1  0.61476585  0.86952260  0.15572501  1
  C  C20  1  0.96862778  0.31240610  0.77075670  1
  C  C21  1  0.27075670  0.81240610  0.46862778  1
  C  C22  1  0.46862778  0.27075670  0.81240610  1
  C  C23  1  0.11476585  0.65572501  0.36952260  1
  C  C24  1  0.03137222  0.68759390  0.22924330  1
  C  C25  1  0.38523415  0.13047740  0.84427499  1
  C  C26  1  0.77075670  0.96862778  0.31240610  1
  C  C27  1  0.31240610  0.77075670  0.96862778  1
  Ni  Ni28  1  0.66472787  0.66472787  0.66472787  1
  Ni  Ni29  1  0.95931179  0.54068821  0.25000000  1
  Ni  Ni30  1  0.45931179  0.75000000  0.04068821  1
  Ni  Ni31  1  0.22169077  0.22169077  0.22169077  1
  Ni  Ni32  1  0.72169077  0.72169077  0.72169077  1
  Ni  Ni33  1  0.54068821  0.25000000  0.95931179  1
  Ni  Ni34  1  0.16472787  0.16472787  0.16472787  1
  Ni  Ni35  1  0.83527213  0.83527213  0.83527213  1
  Ni  Ni36  1  0.27830923  0.27830923  0.27830923  1
  Ni  Ni37  1  0.33527213  0.33527213  0.33527213  1
  Ni  Ni38  1  0.25000000  0.95931179  0.54068821  1
  Ni  Ni39  1  0.77830923  0.77830923  0.77830923  1
  Ni  Ni40  1  0.75000000  0.04068821  0.45931179  1
  Ni  Ni41  1  0.04068821  0.45931179  0.75000000  1
  Cu  Cu42  1  0.00000000  0.00000000  0.00000000  1
  Cu  Cu43  1  0.50000000  0.50000000  0.50000000  1
  C  C44  1  0.05755195  0.82530720  0.18777881  1
  C  C45  1  0.68777881  0.32530720  0.55755195  1
  C  C46  1  0.44244805  0.31222119  0.67469280  1
  C  C47  1  0.82530720  0.18777881  0.05755195  1
  C  C48  1  0.67469280  0.44244805  0.31222119  1
  C  C49  1  0.32530720  0.55755195  0.68777881  1
  C  C50  1  0.18777881  0.05755195  0.82530720  1
  C  C51  1  0.55755195  0.68777881  0.32530720  1
  C  C52  1  0.31222119  0.67469280  0.44244805  1
  C  C53  1  0.94244805  0.17469280  0.81222119  1
  C  C54  1  0.81222119  0.94244805  0.17469280  1
  C  C55  1  0.17469280  0.81222119  0.94244805  1
