# generated using pymatgen
data_Cu4NiC3
_symmetry_space_group_name_H-M   'P 1'
_cell_length_a   6.39511400
_cell_length_b   7.92725435
_cell_length_c   9.01817556
_cell_angle_alpha   97.58167597
_cell_angle_beta   110.69815129
_cell_angle_gamma   113.57000295
_symmetry_Int_Tables_number   1
_chemical_formula_structural   Cu4NiC3
_chemical_formula_sum   'Cu16 Ni4 C12'
_cell_volume   371.55173767
_cell_formula_units_Z   4
loop_
 _symmetry_equiv_pos_site_id
 _symmetry_equiv_pos_as_xyz
  1  'x, y, z'
loop_
 _atom_site_type_symbol
 _atom_site_label
 _atom_site_symmetry_multiplicity
 _atom_site_fract_x
 _atom_site_fract_y
 _atom_site_fract_z
 _atom_site_occupancy
  C  C0  1  0.45945100  0.83052800  0.09398600  1
  C  C1  1  0.54054900  0.16947200  0.90601400  1
  C  C2  1  0.00000000  0.00000000  0.50000000  1
  C  C3  1  0.50000000  0.00000000  0.50000000  1
  C  C4  1  0.82041800  0.82698400  0.81272700  1
  C  C5  1  0.17958200  0.17301600  0.18727300  1
  C  C6  1  0.61319900  0.71852700  0.50432100  1
  C  C7  1  0.38680100  0.28147300  0.49567900  1
  C  C8  1  0.70892000  0.44041700  0.72639700  1
  C  C9  1  0.29108000  0.55958300  0.27360300  1
  C  C10  1  0.45951800  0.44057700  0.72755600  1
  C  C11  1  0.54048200  0.55942300  0.27244400  1
  Ni  Ni12  1  0.93394400  0.70444500  0.16264100  1
  Ni  Ni13  1  0.06605600  0.29555500  0.83735900  1
  Ni  Ni14  1  0.77039600  0.25339300  0.29234200  1
  Ni  Ni15  1  0.22960400  0.74660700  0.70765800  1
  Cu  Cu16  1  0.81972400  0.75270700  0.27772700  1
  Cu  Cu17  1  0.18027600  0.24729300  0.72227300  1
  Cu  Cu18  1  0.78957800  0.24760500  0.72152200  1
  Cu  Cu19  1  0.21042200  0.75239500  0.27847800  1
  Cu  Cu20  1  0.97129500  0.86410900  0.07676100  1
  Cu  Cu21  1  0.02870500  0.13589100  0.92323900  1
  Cu  Cu22  1  0.72816200  0.08453400  0.37231500  1
  Cu  Cu23  1  0.27183800  0.91546600  0.62768500  1
  Cu  Cu24  1  0.50203500  0.80271400  0.83242300  1
  Cu  Cu25  1  0.49796500  0.19728600  0.16757700  1
  Cu  Cu26  1  0.12877900  0.79642800  0.82888400  1
  Cu  Cu27  1  0.87122100  0.20357200  0.17111600  1
  Cu  Cu28  1  0.71494200  0.85514500  0.57357600  1
  Cu  Cu29  1  0.28505800  0.14485500  0.42642400  1
  Cu  Cu30  1  0.61527800  0.51611100  0.71461000  1
  Cu  Cu31  1  0.38472200  0.48388900  0.28539000  1
