# generated using pymatgen
data_Cu5Ni2C3
_symmetry_space_group_name_H-M   'P 1'
_cell_length_a   8.59213941
_cell_length_b   8.59213941
_cell_length_c   8.59213941
_cell_angle_alpha   109.47122063
_cell_angle_beta   109.47122063
_cell_angle_gamma   109.47122063
_symmetry_Int_Tables_number   1
_chemical_formula_structural   Cu5Ni2C3
_chemical_formula_sum   'Cu10 Ni4 C6'
_cell_volume   488.29474878
_cell_formula_units_Z   2
loop_
 _symmetry_equiv_pos_site_id
 _symmetry_equiv_pos_as_xyz
  1  'x, y, z'
loop_
 _atom_site_type_symbol
 _atom_site_label
 _atom_site_symmetry_multiplicity
 _atom_site_fract_x
 _atom_site_fract_y
 _atom_site_fract_z
 _atom_site_occupancy
  C  C0  1  0.34270900  0.00000000  0.34270900  1
  C  C1  1  0.00000000  0.34270900  0.34270900  1
  C  C2  1  0.00000000  0.65729100  0.65729100  1
  C  C3  1  0.34270900  0.34270900  0.00000000  1
  C  C4  1  0.65729100  0.65729100  0.00000000  1
  C  C5  1  0.65729100  0.00000000  0.65729100  1
  Ni  Ni6  1  0.67025800  0.00000000  0.00000000  1
  Ni  Ni7  1  0.00000000  0.67025800  0.00000000  1
  Ni  Ni8  1  0.00000000  0.00000000  0.67025800  1
  Ni  Ni9  1  0.32974200  0.32974200  0.32974200  1
  Cu  Cu10  1  0.00000000  0.00000000  0.32790800  1
  Cu  Cu11  1  0.25000000  0.75000000  0.50000000  1
  Cu  Cu12  1  0.00000000  0.32790800  0.00000000  1
  Cu  Cu13  1  0.75000000  0.50000000  0.25000000  1
  Cu  Cu14  1  0.75000000  0.25000000  0.50000000  1
  Cu  Cu15  1  0.25000000  0.50000000  0.75000000  1
  Cu  Cu16  1  0.32790800  0.00000000  0.00000000  1
  Cu  Cu17  1  0.67209200  0.67209200  0.67209200  1
  Cu  Cu18  1  0.50000000  0.25000000  0.75000000  1
  Cu  Cu19  1  0.50000000  0.75000000  0.25000000  1
