# generated using pymatgen
data_Cu7(Ni2C15)2
_symmetry_space_group_name_H-M   'P 1'
_cell_length_a   9.03733408
_cell_length_b   9.03733408
_cell_length_c   6.78230107
_cell_angle_alpha   82.00772628
_cell_angle_beta   82.00772628
_cell_angle_gamma   106.23163205
_symmetry_Int_Tables_number   1
_chemical_formula_structural   Cu7(Ni2C15)2
_chemical_formula_sum   'Cu7 Ni4 C30'
_cell_volume   517.38602032
_cell_formula_units_Z   1
loop_
 _symmetry_equiv_pos_site_id
 _symmetry_equiv_pos_as_xyz
  1  'x, y, z'
loop_
 _atom_site_type_symbol
 _atom_site_label
 _atom_site_symmetry_multiplicity
 _atom_site_fract_x
 _atom_site_fract_y
 _atom_site_fract_z
 _atom_site_occupancy
  Ni  Ni0  1  0.30206000  0.30206000  0.49538000  1
  Ni  Ni1  1  0.73552100  0.50643900  0.46688500  1
  Ni  Ni2  1  0.91814500  0.91814500  0.52070700  1
  Ni  Ni3  1  0.50643900  0.73552100  0.46688500  1
  Cu  Cu4  1  0.99933100  0.99933100  0.00031700  1
  Cu  Cu5  1  0.36250200  0.98312000  0.17442400  1
  Cu  Cu6  1  0.03038900  0.63788600  0.81461900  1
  Cu  Cu7  1  0.38232900  0.62280300  0.99040900  1
  Cu  Cu8  1  0.98312000  0.36250200  0.17442400  1
  Cu  Cu9  1  0.63788600  0.03038900  0.81461900  1
  Cu  Cu10  1  0.62280300  0.38232900  0.99040900  1
  C  C11  1  0.30463200  0.30463200  0.98865600  1
  C  C12  1  0.11649600  0.71581700  0.26674300  1
  C  C13  1  0.71581700  0.11649600  0.26674300  1
  C  C14  1  0.28425100  0.89899300  0.72702100  1
  C  C15  1  0.70037600  0.70037600  0.99112900  1
  C  C16  1  0.89899300  0.28425100  0.72702100  1
  C  C17  1  0.98933200  0.39786500  0.85375000  1
  C  C18  1  0.19032100  0.19032100  0.89592100  1
  C  C19  1  0.66161500  0.04533000  0.49227800  1
  C  C20  1  0.39856700  0.22053600  0.12046500  1
  C  C21  1  0.02378600  0.60312400  0.13960200  1
  C  C22  1  0.43561300  0.43561300  0.83026100  1
  C  C23  1  0.27796500  0.71824400  0.77326700  1
  C  C24  1  0.22053600  0.39856700  0.12046500  1
  C  C25  1  0.89130600  0.11985100  0.19884100  1
  C  C26  1  0.60913000  0.78982400  0.86156000  1
  C  C27  1  0.33335300  0.96914000  0.50086600  1
  C  C28  1  0.72856300  0.29675900  0.21492500  1
  C  C29  1  0.78982400  0.60913000  0.86156000  1
  C  C30  1  0.56354000  0.56354000  0.13627900  1
  C  C31  1  0.80653800  0.80653800  0.10261600  1
  C  C32  1  0.04533000  0.66161500  0.49227800  1
  C  C33  1  0.39786500  0.98933200  0.85375000  1
  C  C34  1  0.29675900  0.72856300  0.21492500  1
  C  C35  1  0.60312400  0.02378600  0.13960200  1
  C  C36  1  0.88587500  0.10743500  0.79981400  1
  C  C37  1  0.96914000  0.33335300  0.50086600  1
  C  C38  1  0.11985100  0.89130600  0.19884100  1
  C  C39  1  0.71824400  0.27796500  0.77326700  1
  C  C40  1  0.10743500  0.88587500  0.79981400  1
