# generated using pymatgen
data_Cu(NiC)5
_symmetry_space_group_name_H-M   'P 1'
_cell_length_a   4.17619200
_cell_length_b   9.52227900
_cell_length_c   15.59520000
_cell_angle_alpha   90.00000000
_cell_angle_beta   90.00000000
_cell_angle_gamma   90.00000000
_symmetry_Int_Tables_number   1
_chemical_formula_structural   Cu(NiC)5
_chemical_formula_sum   'Cu2 Ni10 C10'
_cell_volume   620.17221900
_cell_formula_units_Z   2
loop_
 _symmetry_equiv_pos_site_id
 _symmetry_equiv_pos_as_xyz
  1  'x, y, z'
loop_
 _atom_site_type_symbol
 _atom_site_label
 _atom_site_symmetry_multiplicity
 _atom_site_fract_x
 _atom_site_fract_y
 _atom_site_fract_z
 _atom_site_occupancy
  C  C0  1  0.00000000  0.89365600  0.40533100  1
  C  C1  1  0.50000000  0.10634400  0.90533100  1
  C  C2  1  0.50000000  0.60544000  0.52318900  1
  C  C3  1  0.00000000  0.39456000  0.02318900  1
  C  C4  1  0.50000000  0.19284900  0.30369700  1
  C  C5  1  0.00000000  0.80715100  0.80369700  1
  C  C6  1  0.50000000  0.47800800  0.25404800  1
  C  C7  1  0.00000000  0.52199200  0.75404800  1
  C  C8  1  0.50000000  0.85410100  0.11063500  1
  C  C9  1  0.00000000  0.14589900  0.61063500  1
  Ni  Ni10  1  0.50000000  0.70588500  0.35920600  1
  Ni  Ni11  1  0.00000000  0.29411500  0.85920600  1
  Ni  Ni12  1  0.50000000  0.42681500  0.65904500  1
  Ni  Ni13  1  0.00000000  0.57318500  0.15904500  1
  Ni  Ni14  1  0.00000000  0.77373600  0.56783600  1
  Ni  Ni15  1  0.50000000  0.22626400  0.06783600  1
  Ni  Ni16  1  0.50000000  0.07061700  0.45955500  1
  Ni  Ni17  1  0.00000000  0.92938300  0.95955500  1
  Ni  Ni18  1  0.00000000  0.03336500  0.24947100  1
  Ni  Ni19  1  0.50000000  0.96663500  0.74947100  1
  Cu  Cu20  1  0.00000000  0.40852600  0.45690700  1
  Cu  Cu21  1  0.50000000  0.59147400  0.95690700  1
