# generated using pymatgen
data_Cu5Ni2C17
_symmetry_space_group_name_H-M   'P 1'
_cell_length_a   9.33757600
_cell_length_b   7.49835000
_cell_length_c   10.32680102
_cell_angle_alpha   68.02391451
_cell_angle_beta   90.00000000
_cell_angle_gamma   90.00000000
_symmetry_Int_Tables_number   1
_chemical_formula_structural   Cu5Ni2C17
_chemical_formula_sum   'Cu10 Ni4 C34'
_cell_volume   670.50916838
_cell_formula_units_Z   2
loop_
 _symmetry_equiv_pos_site_id
 _symmetry_equiv_pos_as_xyz
  1  'x, y, z'
loop_
 _atom_site_type_symbol
 _atom_site_label
 _atom_site_symmetry_multiplicity
 _atom_site_fract_x
 _atom_site_fract_y
 _atom_site_fract_z
 _atom_site_occupancy
  C  C0  1  0.79826600  0.97644500  0.77230900  1
  C  C1  1  0.20173400  0.97644500  0.27230900  1
  Ni  Ni2  1  0.36849000  0.91498200  0.87287100  1
  Ni  Ni3  1  0.13861500  0.35564800  0.48119300  1
  Ni  Ni4  1  0.63151000  0.91498200  0.37287100  1
  Ni  Ni5  1  0.86138500  0.35564800  0.98119300  1
  Cu  Cu6  1  0.58491500  0.10093600  0.03945300  1
  Cu  Cu7  1  0.41508500  0.10093600  0.53945300  1
  Cu  Cu8  1  0.86311300  0.60125900  0.38319800  1
  Cu  Cu9  1  0.87401800  0.26336100  0.31180200  1
  Cu  Cu10  1  0.12598200  0.26336100  0.81180200  1
  Cu  Cu11  1  0.29449800  0.55444800  0.13892700  1
  Cu  Cu12  1  0.13688700  0.60125900  0.88319800  1
  Cu  Cu13  1  0.45671500  0.50022300  0.49976400  1
  Cu  Cu14  1  0.70550200  0.55444800  0.63892700  1
  Cu  Cu15  1  0.54328500  0.50022300  0.99976400  1
  C  C16  1  0.45470900  0.47005000  0.14218600  1
  C  C17  1  0.50578900  0.31134300  0.96987300  1
  C  C18  1  0.22992900  0.45477300  0.27899500  1
  C  C19  1  0.25376400  0.13035400  0.51959100  1
  C  C20  1  0.70157300  0.50349300  0.02892600  1
  C  C21  1  0.93683600  0.27608500  0.17197300  1
  C  C22  1  0.47965100  0.67063000  0.88469800  1
  C  C23  1  0.21522800  0.47857400  0.02940600  1
  C  C24  1  0.98823500  0.21074100  0.42654300  1
  C  C25  1  0.19686700  0.80148400  0.81726800  1
  C  C26  1  0.77007100  0.45477300  0.77899500  1
  C  C27  1  0.53421700  0.98746000  0.95368900  1
  C  C28  1  0.29842700  0.50349300  0.52892600  1
  C  C29  1  0.73966100  0.14274400  0.35835200  1
  C  C30  1  0.70435800  0.77204800  0.57660800  1
  C  C31  1  0.02364700  0.59594000  0.41031000  1
  C  C32  1  0.53787200  0.02327400  0.19171200  1
  C  C33  1  0.06316400  0.27608500  0.67197300  1
  C  C34  1  0.80313300  0.80148400  0.31726800  1
  C  C35  1  0.74623600  0.13035400  0.01959100  1
  C  C36  1  0.01176500  0.21074100  0.92654300  1
  C  C37  1  0.54529100  0.47005000  0.64218600  1
  C  C38  1  0.82289700  0.48402400  0.28923400  1
  C  C39  1  0.46578300  0.98746000  0.45368900  1
  C  C40  1  0.52034900  0.67063000  0.38469800  1
  C  C41  1  0.29564200  0.77204800  0.07660800  1
  C  C42  1  0.26033900  0.14274400  0.85835200  1
  C  C43  1  0.46212800  0.02327400  0.69171200  1
  C  C44  1  0.97635300  0.59594000  0.91031000  1
  C  C45  1  0.49421100  0.31134300  0.46987300  1
  C  C46  1  0.17710300  0.48402400  0.78923400  1
  C  C47  1  0.78477200  0.47857400  0.52940600  1
