# generated using pymatgen
data_Cu5NiC25
_symmetry_space_group_name_H-M   'P 1'
_cell_length_a   10.56189800
_cell_length_b   8.26714700
_cell_length_c   25.88138234
_cell_angle_alpha   72.49219769
_cell_angle_beta   90.00000000
_cell_angle_gamma   90.00000000
_symmetry_Int_Tables_number   1
_chemical_formula_structural   Cu5NiC25
_chemical_formula_sum   'Cu20 Ni4 C100'
_cell_volume   2155.19190787
_cell_formula_units_Z   4
loop_
 _symmetry_equiv_pos_site_id
 _symmetry_equiv_pos_as_xyz
  1  'x, y, z'
loop_
 _atom_site_type_symbol
 _atom_site_label
 _atom_site_symmetry_multiplicity
 _atom_site_fract_x
 _atom_site_fract_y
 _atom_site_fract_z
 _atom_site_occupancy
  C  C0  1  0.00023300  0.20275400  0.93335900  1
  C  C1  1  0.43606300  0.99686000  0.30388900  1
  C  C2  1  0.74425000  0.21368900  0.80541400  1
  C  C3  1  0.56393700  0.00314000  0.69611100  1
  C  C4  1  0.35387800  0.09565400  0.04584300  1
  C  C5  1  0.74172100  0.69579700  0.31223200  1
  C  C6  1  0.50023300  0.79724600  0.56664100  1
  C  C7  1  0.93606300  0.00314000  0.19611100  1
  C  C8  1  0.59765800  0.70175900  0.15918100  1
  C  C9  1  0.24425000  0.78631100  0.69458600  1
  C  C10  1  0.09765800  0.29824100  0.34081900  1
  C  C11  1  0.75827900  0.69579700  0.81223200  1
  C  C12  1  0.14612200  0.09565400  0.54584300  1
  C  C13  1  0.25827900  0.30420300  0.68776800  1
  C  C14  1  0.99976700  0.79724600  0.06664100  1
  C  C15  1  0.90234200  0.70175900  0.65918100  1
  C  C16  1  0.06393700  0.99686000  0.80388900  1
  C  C17  1  0.64612200  0.90434600  0.95415700  1
  C  C18  1  0.24172100  0.30420300  0.18776800  1
  C  C19  1  0.49976700  0.20275400  0.43335900  1
  C  C20  1  0.25575000  0.78631100  0.19458600  1
  C  C21  1  0.75575000  0.21368900  0.30541400  1
  C  C22  1  0.40234200  0.29824100  0.84081900  1
  C  C23  1  0.85387800  0.90434600  0.45415700  1
  Ni  Ni24  1  0.74999400  0.47479500  0.05896500  1
  Ni  Ni25  1  0.25000600  0.52520500  0.94103500  1
  Ni  Ni26  1  0.75000600  0.47479500  0.55896500  1
  Ni  Ni27  1  0.24999400  0.52520500  0.44103500  1
  Cu  Cu28  1  0.24119300  0.91230800  0.44154000  1
  Cu  Cu29  1  0.59707500  0.51732600  0.68731500  1
  Cu  Cu30  1  0.90292500  0.51732600  0.18731500  1
  Cu  Cu31  1  0.06933000  0.30743200  0.06657500  1
  Cu  Cu32  1  0.09707500  0.48267400  0.81268500  1
  Cu  Cu33  1  0.93067000  0.69256800  0.93342500  1
  Cu  Cu34  1  0.91766200  0.16064600  0.67495200  1
  Cu  Cu35  1  0.56933000  0.69256800  0.43342500  1
  Cu  Cu36  1  0.25880700  0.91230800  0.94154000  1
  Cu  Cu37  1  0.74119300  0.08769200  0.05846000  1
  Cu  Cu38  1  0.40292500  0.48267400  0.31268500  1
  Cu  Cu39  1  0.09091800  0.57991200  0.56033500  1
  Cu  Cu40  1  0.58233800  0.16064600  0.17495200  1
  Cu  Cu41  1  0.59091800  0.42008800  0.93966500  1
  Cu  Cu42  1  0.41766200  0.83935400  0.82504800  1
  Cu  Cu43  1  0.75880700  0.08769200  0.55846000  1
  Cu  Cu44  1  0.90908200  0.42008800  0.43966500  1
  Cu  Cu45  1  0.40908200  0.57991200  0.06033500  1
  Cu  Cu46  1  0.43067000  0.30743200  0.56657500  1
  Cu  Cu47  1  0.08233800  0.83935400  0.32504800  1
  C  C48  1  0.69588200  0.93994800  0.61795600  1
  C  C49  1  0.90098300  0.52776900  0.90491800  1
  C  C50  1  0.62800000  0.88612500  0.38786600  1
  C  C51  1  0.52877100  0.31126700  0.71639200  1
  C  C52  1  0.13441300  0.69051800  0.60702200  1
  C  C53  1  0.57881300  0.60363700  0.04991500  1
  C  C54  1  0.02877100  0.68873300  0.78360800  1
  C  C55  1  0.14747000  0.34959300  0.00117800  1
  C  C56  1  0.51665400  0.32957500  0.19482700  1
  C  C57  1  0.62539700  0.63741000  0.91142200  1
  C  C58  1  0.17148100  0.76029300  0.39020300  1
  C  C59  1  0.21380700  0.45244000  0.76599300  1
  C  C60  1  0.37460300  0.36259000  0.08857800  1
  C  C61  1  0.87460300  0.63741000  0.41142200  1
  C  C62  1  0.59272200  0.99664200  0.05252000  1
  C  C63  1  0.31961500  0.46256200  0.37639300  1
  C  C64  1  0.85253000  0.65040700  0.99882200  1
  C  C65  1  0.81961500  0.53743800  0.12360700  1
  C  C66  1  0.09272200  0.00335800  0.44748000  1
  C  C67  1  0.30411800  0.06005200  0.38204400  1
  C  C68  1  0.19588200  0.06005200  0.88204400  1
  C  C69  1  0.81388100  0.04678700  0.72884300  1
  C  C70  1  0.66942500  0.04426700  0.50576500  1
  C  C71  1  0.67993900  0.33808800  0.00416700  1
  C  C72  1  0.71380700  0.54756000  0.73400700  1
  C  C73  1  0.60332300  0.28499400  0.56098700  1
  C  C74  1  0.68611900  0.04678700  0.22884300  1
  C  C75  1  0.82851900  0.23970700  0.60979700  1
  C  C76  1  0.47882000  0.67898800  0.67694500  1
  C  C77  1  0.97882000  0.32101200  0.82305500  1
  C  C78  1  0.47122900  0.68873300  0.28360800  1
  C  C79  1  0.82006100  0.33808800  0.50416700  1
  C  C80  1  0.02118000  0.67898800  0.17694500  1
  C  C81  1  0.32006100  0.66191200  0.99583300  1
  C  C82  1  0.07881300  0.39636300  0.45008500  1
  C  C83  1  0.40727800  0.00335800  0.94748000  1
  C  C84  1  0.45905100  0.01721500  0.17137200  1
  C  C85  1  0.37200000  0.11387500  0.61213400  1
  C  C86  1  0.36558700  0.69051800  0.10702200  1
  C  C87  1  0.35253000  0.34959300  0.50117800  1
  C  C88  1  0.64747000  0.65040700  0.49882200  1
  C  C89  1  0.31388100  0.95321300  0.77115700  1
  C  C90  1  0.68038500  0.53743800  0.62360700  1
  C  C91  1  0.10332300  0.71500600  0.93901300  1
  C  C92  1  0.04094900  0.01721500  0.67137200  1
  C  C93  1  0.80411800  0.93994800  0.11795600  1
  C  C94  1  0.09901700  0.47223100  0.09508200  1
  C  C95  1  0.97122900  0.31126700  0.21639200  1
  C  C96  1  0.63441300  0.30948200  0.89297800  1
  C  C97  1  0.87200000  0.88612500  0.88786600  1
  C  C98  1  0.52118000  0.32101200  0.32305500  1
  C  C99  1  0.78619300  0.54756000  0.23400700  1
  C  C100  1  0.92118700  0.60363700  0.54991500  1
  C  C101  1  0.18611900  0.95321300  0.27115700  1
  C  C102  1  0.12539700  0.36259000  0.58857800  1
  C  C103  1  0.95905100  0.98278500  0.32862800  1
  C  C104  1  0.89667700  0.28499400  0.06098700  1
  C  C105  1  0.67148100  0.23970700  0.10979700  1
  C  C106  1  0.28619300  0.45244000  0.26599300  1
  C  C107  1  0.40098300  0.47223100  0.59508200  1
  C  C108  1  0.86558700  0.30948200  0.39297800  1
  C  C109  1  0.42118700  0.39636300  0.95008500  1
  C  C110  1  0.48334600  0.67042500  0.80517300  1
  C  C111  1  0.12800000  0.11387500  0.11213400  1
  C  C112  1  0.98334600  0.32957500  0.69482700  1
  C  C113  1  0.83057500  0.04426700  0.00576500  1
  C  C114  1  0.01665400  0.67042500  0.30517300  1
  C  C115  1  0.39667700  0.71500600  0.43901300  1
  C  C116  1  0.16942500  0.95573300  0.99423500  1
  C  C117  1  0.18038500  0.46256200  0.87639300  1
  C  C118  1  0.59901700  0.52776900  0.40491800  1
  C  C119  1  0.90727800  0.99664200  0.55252000  1
  C  C120  1  0.32851900  0.76029300  0.89020300  1
  C  C121  1  0.17993900  0.66191200  0.49583300  1
  C  C122  1  0.33057500  0.95573300  0.49423500  1
  C  C123  1  0.54094900  0.98278500  0.82862800  1
