# generated using pymatgen
data_Cu2NiC9
_symmetry_space_group_name_H-M   'P 1'
_cell_length_a   6.91701115
_cell_length_b   6.91701115
_cell_length_c   8.55184037
_cell_angle_alpha   77.23533875
_cell_angle_beta   77.23533875
_cell_angle_gamma   103.75588978
_symmetry_Int_Tables_number   1
_chemical_formula_structural   Cu2NiC9
_chemical_formula_sum   'Cu4 Ni2 C18'
_cell_volume   371.10141874
_cell_formula_units_Z   2
loop_
 _symmetry_equiv_pos_site_id
 _symmetry_equiv_pos_as_xyz
  1  'x, y, z'
loop_
 _atom_site_type_symbol
 _atom_site_label
 _atom_site_symmetry_multiplicity
 _atom_site_fract_x
 _atom_site_fract_y
 _atom_site_fract_z
 _atom_site_occupancy
  C  C0  1  0.26857800  0.18459200  0.52602900  1
  C  C1  1  0.18459200  0.26857800  0.02602900  1
  C  C2  1  0.81540800  0.73142200  0.97397100  1
  C  C3  1  0.73142200  0.81540800  0.47397100  1
  Ni  Ni4  1  0.74154400  0.25845600  0.75000000  1
  Ni  Ni5  1  0.25845600  0.74154400  0.25000000  1
  Cu  Cu6  1  0.39524900  0.83240400  0.86275200  1
  Cu  Cu7  1  0.16759600  0.60475100  0.63724800  1
  Cu  Cu8  1  0.60475100  0.16759600  0.13724800  1
  Cu  Cu9  1  0.83240400  0.39524900  0.36275200  1
  C  C10  1  0.32444700  0.61946600  0.45627200  1
  C  C11  1  0.95694400  0.64309500  0.26524900  1
  C  C12  1  0.24161300  0.97650500  0.86742800  1
  C  C13  1  0.02349500  0.75838700  0.63257200  1
  C  C14  1  0.33367200  0.66632800  0.75000000  1
  C  C15  1  0.04305600  0.35690500  0.73475100  1
  C  C16  1  0.66632800  0.33367200  0.25000000  1
  C  C17  1  0.64309500  0.95694400  0.76524900  1
  C  C18  1  0.61946600  0.32444700  0.95627200  1
  C  C19  1  0.75838700  0.02349500  0.13257200  1
  C  C20  1  0.67555300  0.38053400  0.54372800  1
  C  C21  1  0.97650500  0.24161300  0.36742800  1
  C  C22  1  0.35690500  0.04305600  0.23475100  1
  C  C23  1  0.38053400  0.67555300  0.04372800  1
