# generated using pymatgen
data_Cu7(NiC2)2
_symmetry_space_group_name_H-M   'P 1'
_cell_length_a   13.23671100
_cell_length_b   15.00581700
_cell_length_c   15.41978612
_cell_angle_alpha   88.58169434
_cell_angle_beta   90.00000000
_cell_angle_gamma   90.00000000
_symmetry_Int_Tables_number   1
_chemical_formula_structural   Cu7(NiC2)2
_chemical_formula_sum   'Cu56 Ni16 C32'
_cell_volume   3061.85773926
_cell_formula_units_Z   8
loop_
 _symmetry_equiv_pos_site_id
 _symmetry_equiv_pos_as_xyz
  1  'x, y, z'
loop_
 _atom_site_type_symbol
 _atom_site_label
 _atom_site_symmetry_multiplicity
 _atom_site_fract_x
 _atom_site_fract_y
 _atom_site_fract_z
 _atom_site_occupancy
  C  C0  1  0.17114500  0.17363100  0.55643700  1
  C  C1  1  0.63912000  0.79727000  0.91466400  1
  C  C2  1  0.67114500  0.32636900  0.44356300  1
  C  C3  1  0.32885500  0.67363100  0.55643700  1
  C  C4  1  0.13912000  0.70273000  0.08533600  1
  C  C5  1  0.82885500  0.82636900  0.44356300  1
  C  C6  1  0.36088000  0.20273000  0.08533600  1
  C  C7  1  0.86088000  0.29727000  0.91466400  1
  C  C8  1  0.94927800  0.61462000  0.65145500  1
  C  C9  1  0.44927800  0.88538000  0.34854500  1
  C  C10  1  0.78210700  0.64278100  0.66759600  1
  C  C11  1  0.21789300  0.35721900  0.33240400  1
  C  C12  1  0.70929600  0.59973800  0.29226800  1
  C  C13  1  0.28210700  0.85721900  0.33240400  1
  C  C14  1  0.55072200  0.11462000  0.65145500  1
  C  C15  1  0.78086700  0.59042800  0.12368800  1
  C  C16  1  0.33292600  0.03613000  0.31145400  1
  C  C17  1  0.16707400  0.53613000  0.31145400  1
  C  C18  1  0.71913300  0.09042800  0.12368800  1
  C  C19  1  0.71789300  0.14278100  0.66759600  1
  C  C20  1  0.88856200  0.10920900  0.13222200  1
  C  C21  1  0.29070400  0.40026200  0.70773200  1
  C  C22  1  0.38856200  0.39079100  0.86777900  1
  C  C23  1  0.66707400  0.96387000  0.68854600  1
  C  C24  1  0.28086700  0.90957200  0.87631200  1
  C  C25  1  0.61143800  0.60920900  0.13222200  1
  C  C26  1  0.83292600  0.46387000  0.68854600  1
  C  C27  1  0.79070400  0.09973800  0.29226800  1
  C  C28  1  0.11143800  0.89079100  0.86777900  1
  C  C29  1  0.20929600  0.90026200  0.70773200  1
  C  C30  1  0.05072200  0.38538000  0.34854500  1
  C  C31  1  0.21913300  0.40957200  0.87631200  1
  Ni  Ni32  1  0.24477600  0.45737300  0.30798800  1
  Ni  Ni33  1  0.93666600  0.51047000  0.65276900  1
  Ni  Ni34  1  0.43666600  0.98953000  0.34723100  1
  Ni  Ni35  1  0.70397800  0.08185400  0.22540600  1
  Ni  Ni36  1  0.61161600  0.62486900  0.23288700  1
  Ni  Ni37  1  0.56333400  0.01047000  0.65276900  1
  Ni  Ni38  1  0.20397800  0.41814600  0.77459400  1
  Ni  Ni39  1  0.88838400  0.12486900  0.23288700  1
  Ni  Ni40  1  0.11161600  0.87513100  0.76711300  1
  Ni  Ni41  1  0.06333400  0.48953000  0.34723100  1
  Ni  Ni42  1  0.75522400  0.54262700  0.69201200  1
  Ni  Ni43  1  0.74477600  0.04262700  0.69201200  1
  Ni  Ni44  1  0.25522400  0.95737300  0.30798800  1
  Ni  Ni45  1  0.79602200  0.58185400  0.22540600  1
  Ni  Ni46  1  0.29602200  0.91814600  0.77459400  1
  Ni  Ni47  1  0.38838400  0.37513100  0.76711300  1
  Cu  Cu48  1  0.87457300  0.82379300  0.59810300  1
  Cu  Cu49  1  0.20232000  0.15909000  0.15117300  1
  Cu  Cu50  1  0.94022200  0.97925800  0.11142500  1
  Cu  Cu51  1  0.42533600  0.23962700  0.22594100  1
  Cu  Cu52  1  0.76217500  0.46439300  0.46557100  1
  Cu  Cu53  1  0.44022200  0.52074200  0.88857500  1
  Cu  Cu54  1  0.23782500  0.53560700  0.53442900  1
  Cu  Cu55  1  0.58545200  0.18578000  0.42760300  1
  Cu  Cu56  1  0.12542700  0.17620700  0.40189700  1
  Cu  Cu57  1  0.70513300  0.83026900  0.05611200  1
  Cu  Cu58  1  0.49922800  0.15350900  0.77465100  1
  Cu  Cu59  1  0.82408500  0.24630900  0.47935800  1
  Cu  Cu60  1  0.41454800  0.81422000  0.57239700  1
  Cu  Cu61  1  0.28186100  0.67009500  0.70723400  1
  Cu  Cu62  1  0.73782500  0.96439300  0.46557100  1
  Cu  Cu63  1  0.08545200  0.31422000  0.57239700  1
  Cu  Cu64  1  0.17591500  0.75369100  0.52064200  1
  Cu  Cu65  1  0.29486700  0.16973100  0.94388800  1
  Cu  Cu66  1  0.48110000  0.75340000  0.97913100  1
  Cu  Cu67  1  0.79768000  0.84091000  0.84882700  1
  Cu  Cu68  1  0.50077200  0.84649100  0.22534900  1
  Cu  Cu69  1  0.57466400  0.76037300  0.77405900  1
  Cu  Cu70  1  0.05977800  0.02074200  0.88857500  1
  Cu  Cu71  1  0.57815900  0.94823400  0.89651200  1
  Cu  Cu72  1  0.00077200  0.65350900  0.77465100  1
  Cu  Cu73  1  0.79486700  0.33026900  0.05611200  1
  Cu  Cu74  1  0.78186100  0.82990500  0.29276600  1
  Cu  Cu75  1  0.67591500  0.74630900  0.47935800  1
  Cu  Cu76  1  0.70210900  0.64434100  0.93241100  1
  Cu  Cu77  1  0.52089200  0.40802600  0.41079700  1
  Cu  Cu78  1  0.26217500  0.03560700  0.53442900  1
  Cu  Cu79  1  0.07815900  0.55176600  0.10348800  1
  Cu  Cu80  1  0.20210900  0.85565900  0.06758900  1
  Cu  Cu81  1  0.42184100  0.05176600  0.10348800  1
  Cu  Cu82  1  0.29789100  0.35565900  0.06758900  1
  Cu  Cu83  1  0.20513300  0.66973100  0.94388800  1
  Cu  Cu84  1  0.92184100  0.44823400  0.89651200  1
  Cu  Cu85  1  0.55977800  0.47925800  0.11142500  1
  Cu  Cu86  1  0.71813900  0.32990500  0.29276600  1
  Cu  Cu87  1  0.51890000  0.24660000  0.02086900  1
  Cu  Cu88  1  0.47910800  0.59197400  0.58920300  1
  Cu  Cu89  1  0.32408500  0.25369100  0.52064200  1
  Cu  Cu90  1  0.70232000  0.34091000  0.84882700  1
  Cu  Cu91  1  0.29768000  0.65909000  0.15117300  1
  Cu  Cu92  1  0.98110000  0.74660000  0.02086900  1
  Cu  Cu93  1  0.21813900  0.17009500  0.70723400  1
  Cu  Cu94  1  0.91454800  0.68578000  0.42760300  1
  Cu  Cu95  1  0.92533600  0.26037300  0.77405900  1
  Cu  Cu96  1  0.02089200  0.09197400  0.58920300  1
  Cu  Cu97  1  0.79789100  0.14434100  0.93241100  1
  Cu  Cu98  1  0.01890000  0.25340000  0.97913100  1
  Cu  Cu99  1  0.07466400  0.73962700  0.22594100  1
  Cu  Cu100  1  0.97910800  0.90802600  0.41079700  1
  Cu  Cu101  1  0.62542700  0.32379300  0.59810300  1
  Cu  Cu102  1  0.99922800  0.34649100  0.22534900  1
  Cu  Cu103  1  0.37457300  0.67620700  0.40189700  1
