# generated using pymatgen
data_Cu4NiC8
_symmetry_space_group_name_H-M   'P 1'
_cell_length_a   15.89886600
_cell_length_b   8.43866900
_cell_length_c   8.91091381
_cell_angle_alpha   87.89646076
_cell_angle_beta   90.00000000
_cell_angle_gamma   90.00000000
_symmetry_Int_Tables_number   1
_chemical_formula_structural   Cu4NiC8
_chemical_formula_sum   'Cu16 Ni4 C32'
_cell_volume   1194.72949938
_cell_formula_units_Z   4
loop_
 _symmetry_equiv_pos_site_id
 _symmetry_equiv_pos_as_xyz
  1  'x, y, z'
loop_
 _atom_site_type_symbol
 _atom_site_label
 _atom_site_symmetry_multiplicity
 _atom_site_fract_x
 _atom_site_fract_y
 _atom_site_fract_z
 _atom_site_occupancy
  Ni  Ni0  1  0.35153700  0.64835300  0.36633200  1
  Ni  Ni1  1  0.14846300  0.14835300  0.36633200  1
  Ni  Ni2  1  0.64846300  0.35164700  0.63366800  1
  Ni  Ni3  1  0.85153700  0.85164700  0.63366800  1
  Cu  Cu4  1  0.20207000  0.49585300  0.56962200  1
  Cu  Cu5  1  0.00835600  0.29555500  0.15571800  1
  Cu  Cu6  1  0.50835600  0.20444500  0.84428200  1
  Cu  Cu7  1  0.75633100  0.07049800  0.89246800  1
  Cu  Cu8  1  0.25633100  0.42950200  0.10753200  1
  Cu  Cu9  1  0.03024200  0.15391600  0.65473400  1
  Cu  Cu10  1  0.96975800  0.84608400  0.34526600  1
  Cu  Cu11  1  0.29793000  0.99585300  0.56962200  1
  Cu  Cu12  1  0.70207000  0.00414700  0.43037800  1
  Cu  Cu13  1  0.49164400  0.79555500  0.15571800  1
  Cu  Cu14  1  0.79793000  0.50414700  0.43037800  1
  Cu  Cu15  1  0.99164400  0.70444500  0.84428200  1
  Cu  Cu16  1  0.53024200  0.34608400  0.34526600  1
  Cu  Cu17  1  0.46975800  0.65391600  0.65473400  1
  Cu  Cu18  1  0.74366900  0.57049800  0.89246800  1
  Cu  Cu19  1  0.24366900  0.92950200  0.10753200  1
  C  C20  1  0.37583300  0.16908100  0.16118300  1
  C  C21  1  0.60886200  0.11665400  0.12839000  1
  C  C22  1  0.65366900  0.61953200  0.27281200  1
  C  C23  1  0.39113800  0.88334600  0.87161000  1
  C  C24  1  0.15366900  0.88046800  0.72718800  1
  C  C25  1  0.34633100  0.38046800  0.72718800  1
  C  C26  1  0.00000000  0.00000000  0.00000000  1
  C  C27  1  0.10886200  0.38334600  0.87161000  1
  C  C28  1  0.12416700  0.66908100  0.16118300  1
  C  C29  1  0.00000000  0.50000000  0.50000000  1
  C  C30  1  0.87583300  0.33091900  0.83881700  1
  C  C31  1  0.62416700  0.83091900  0.83881700  1
  C  C32  1  0.84633100  0.11953200  0.27281200  1
  C  C33  1  0.89113800  0.61665400  0.12839000  1
  C  C34  1  0.50000000  0.00000000  0.50000000  1
  C  C35  1  0.50000000  0.50000000  0.00000000  1
  C  C36  1  0.82879200  0.76904900  0.47398700  1
  C  C37  1  0.95332900  0.89566100  0.62482900  1
  C  C38  1  0.45332900  0.60433900  0.37517100  1
  C  C39  1  0.54667100  0.39566100  0.62482900  1
  C  C40  1  0.21052400  0.99344500  0.35296400  1
  C  C41  1  0.67120800  0.26904900  0.47398700  1
  C  C42  1  0.28947600  0.49344500  0.35296400  1
  C  C43  1  0.34410500  0.76331200  0.21282200  1
  C  C44  1  0.17120800  0.23095100  0.52601300  1
  C  C45  1  0.71052400  0.50655500  0.64703600  1
  C  C46  1  0.04667100  0.10433900  0.37517100  1
  C  C47  1  0.78947600  0.00655500  0.64703600  1
  C  C48  1  0.84410500  0.73668800  0.78717800  1
  C  C49  1  0.15589500  0.26331200  0.21282200  1
  C  C50  1  0.65589500  0.23668800  0.78717800  1
  C  C51  1  0.32879200  0.73095100  0.52601300  1
