# generated using pymatgen
data_Cu(Ni7C8)2
_symmetry_space_group_name_H-M   'P 1'
_cell_length_a   11.11881700
_cell_length_b   11.26508629
_cell_length_c   11.32049317
_cell_angle_alpha   118.50548151
_cell_angle_beta   108.53276086
_cell_angle_gamma   92.00914619
_symmetry_Int_Tables_number   1
_chemical_formula_structural   Cu(Ni7C8)2
_chemical_formula_sum   'Cu1 Ni14 C16'
_cell_volume   1151.37175421
_cell_formula_units_Z   1
loop_
 _symmetry_equiv_pos_site_id
 _symmetry_equiv_pos_as_xyz
  1  'x, y, z'
loop_
 _atom_site_type_symbol
 _atom_site_label
 _atom_site_symmetry_multiplicity
 _atom_site_fract_x
 _atom_site_fract_y
 _atom_site_fract_z
 _atom_site_occupancy
  Ni  Ni0  1  0.24784900  0.89670200  0.99441500  1
  Ni  Ni1  1  0.75215100  0.10329800  0.00558500  1
  Ni  Ni2  1  0.16766000  0.11639100  0.89909200  1
  Ni  Ni3  1  0.83234000  0.88360900  0.10090800  1
  Ni  Ni4  1  0.01287700  0.30163900  0.09147800  1
  Ni  Ni5  1  0.98712300  0.69836100  0.90852200  1
  Ni  Ni6  1  0.99371200  0.19032600  0.29547400  1
  Ni  Ni7  1  0.00628800  0.80967400  0.70452700  1
  Ni  Ni8  1  0.13545400  0.93674500  0.23425300  1
  Ni  Ni9  1  0.86454600  0.06325500  0.76574700  1
  Ni  Ni10  1  0.61816700  0.33761000  0.47008900  1
  Ni  Ni11  1  0.38183300  0.66239000  0.52991100  1
  Ni  Ni12  1  0.65459800  0.60295600  0.21550800  1
  Ni  Ni13  1  0.34540200  0.39704400  0.78449200  1
  Cu  Cu14  1  0.00000000  0.00000000  0.00000000  1
  C  C15  1  0.57381900  0.07956800  0.21715600  1
  C  C16  1  0.42618100  0.92043200  0.78284400  1
  C  C17  1  0.85677300  0.32422900  0.63353200  1
  C  C18  1  0.14322700  0.67577100  0.36646800  1
  C  C19  1  0.47986900  0.21604700  0.56659200  1
  C  C20  1  0.52013100  0.78395300  0.43340800  1
  C  C21  1  0.37378400  0.38559800  0.29658000  1
  C  C22  1  0.62621600  0.61440200  0.70342000  1
  C  C23  1  0.79181900  0.48796500  0.38792700  1
  C  C24  1  0.20818100  0.51203500  0.61207300  1
  C  C25  1  0.80267300  0.52653200  0.04881500  1
  C  C26  1  0.19732700  0.47346800  0.95118500  1
  C  C27  1  0.50693900  0.69000900  0.01994300  1
  C  C28  1  0.49306100  0.30999100  0.98005700  1
  C  C29  1  0.83300000  0.85677200  0.39859100  1
  C  C30  1  0.16700000  0.14322800  0.60140900  1
