# generated using pymatgen
data_Cu2Ni2C7
_symmetry_space_group_name_H-M   'P 1'
_cell_length_a   11.24573200
_cell_length_b   12.01666800
_cell_length_c   14.26442984
_cell_angle_alpha   58.49806435
_cell_angle_beta   90.00000000
_cell_angle_gamma   90.00000000
_symmetry_Int_Tables_number   1
_chemical_formula_structural   Cu2Ni2C7
_chemical_formula_sum   'Cu16 Ni16 C56'
_cell_volume   1643.55031695
_cell_formula_units_Z   8
loop_
 _symmetry_equiv_pos_site_id
 _symmetry_equiv_pos_as_xyz
  1  'x, y, z'
loop_
 _atom_site_type_symbol
 _atom_site_label
 _atom_site_symmetry_multiplicity
 _atom_site_fract_x
 _atom_site_fract_y
 _atom_site_fract_z
 _atom_site_occupancy
  C  C0  1  0.74844200  0.44524500  0.30924200  1
  C  C1  1  0.75155800  0.44524500  0.80924200  1
  C  C2  1  0.25155800  0.55475500  0.69075800  1
  C  C3  1  0.24844200  0.55475500  0.19075800  1
  Ni  Ni4  1  0.43453900  0.73357200  0.20752100  1
  Ni  Ni5  1  0.39159600  0.11523700  0.67260800  1
  Ni  Ni6  1  0.98734900  0.23941100  0.21415200  1
  Ni  Ni7  1  0.19360100  0.00989200  0.20409700  1
  Ni  Ni8  1  0.69360100  0.99010800  0.29590300  1
  Ni  Ni9  1  0.56546100  0.26642800  0.79247900  1
  Ni  Ni10  1  0.89159600  0.88476300  0.82739200  1
  Ni  Ni11  1  0.51265100  0.23941100  0.71415200  1
  Ni  Ni12  1  0.10840400  0.11523700  0.17260800  1
  Ni  Ni13  1  0.30639900  0.00989200  0.70409700  1
  Ni  Ni14  1  0.01265100  0.76058900  0.78584800  1
  Ni  Ni15  1  0.60840400  0.88476300  0.32739200  1
  Ni  Ni16  1  0.48734900  0.76058900  0.28584800  1
  Ni  Ni17  1  0.06546100  0.73357200  0.70752100  1
  Ni  Ni18  1  0.80639900  0.99010800  0.79590300  1
  Ni  Ni19  1  0.93453900  0.26642800  0.29247900  1
  Cu  Cu20  1  0.68605700  0.92524200  0.49245100  1
  Cu  Cu21  1  0.81394300  0.92524200  0.99245100  1
  Cu  Cu22  1  0.35182600  0.57741000  0.39135600  1
  Cu  Cu23  1  0.42640600  0.19500800  0.53209000  1
  Cu  Cu24  1  0.92640600  0.80499200  0.96791000  1
  Cu  Cu25  1  0.03966400  0.29707100  0.64776300  1
  Cu  Cu26  1  0.14817400  0.57741000  0.89135600  1
  Cu  Cu27  1  0.07359400  0.19500800  0.03209000  1
  Cu  Cu28  1  0.57359400  0.80499200  0.46791000  1
  Cu  Cu29  1  0.46033600  0.29707100  0.14776300  1
  Cu  Cu30  1  0.31394300  0.07475800  0.50754900  1
  Cu  Cu31  1  0.64817400  0.42259000  0.60864400  1
  Cu  Cu32  1  0.18605700  0.07475800  0.00754900  1
  Cu  Cu33  1  0.53966400  0.70292900  0.85223700  1
  Cu  Cu34  1  0.96033600  0.70292900  0.35223700  1
  Cu  Cu35  1  0.85182600  0.42259000  0.10864400  1
  C  C36  1  0.85771200  0.36543300  0.24489600  1
  C  C37  1  0.23500400  0.98394500  0.13254200  1
  C  C38  1  0.93412400  0.85853900  0.75562200  1
  C  C39  1  0.73500400  0.01605500  0.36745800  1
  C  C40  1  0.56587600  0.85853900  0.25562200  1
  C  C41  1  0.43412400  0.14146100  0.74437800  1
  C  C42  1  0.05244700  0.67890100  0.88850500  1
  C  C43  1  0.06587600  0.14146100  0.24437800  1
  C  C44  1  0.94755300  0.32109900  0.11149500  1
  C  C45  1  0.55244700  0.32109900  0.61149500  1
  C  C46  1  0.35771200  0.63456700  0.25510400  1
  C  C47  1  0.64228800  0.36543300  0.74489600  1
  C  C48  1  0.44755300  0.67890100  0.38850500  1
  C  C49  1  0.76499600  0.01605500  0.86745800  1
  C  C50  1  0.14228800  0.63456700  0.75510400  1
  C  C51  1  0.26499600  0.98394500  0.63254200  1
  C  C52  1  0.76219800  0.08213100  0.66163200  1
  C  C53  1  0.96655000  0.18036800  0.42694700  1
  C  C54  1  0.73780200  0.08213100  0.16163200  1
  C  C55  1  0.23780200  0.91786900  0.33836800  1
  C  C56  1  0.46655000  0.81963200  0.07305300  1
  C  C57  1  0.03345000  0.81963200  0.57305300  1
  C  C58  1  0.53345000  0.18036800  0.92694700  1
  C  C59  1  0.26219800  0.91786900  0.83836800  1
  C  C60  1  0.52620200  0.81444400  0.74134900  1
  C  C61  1  0.86330800  0.70508200  0.41821500  1
  C  C62  1  0.02620200  0.18555600  0.75865100  1
  C  C63  1  0.36330800  0.29491800  0.08178500  1
  C  C64  1  0.97379800  0.81444400  0.24134900  1
  C  C65  1  0.13669200  0.29491800  0.58178500  1
  C  C66  1  0.63669200  0.70508200  0.91821500  1
  C  C67  1  0.47379800  0.18555600  0.25865100  1
  C  C68  1  0.80540000  0.28692900  0.90113600  1
  C  C69  1  0.30540000  0.71307100  0.59886400  1
  C  C70  1  0.64442400  0.46544300  0.20868800  1
  C  C71  1  0.31095700  0.40141300  0.28721800  1
  C  C72  1  0.19460000  0.71307100  0.09886400  1
  C  C73  1  0.36071000  0.57542600  0.09645300  1
  C  C74  1  0.85557600  0.46544300  0.70868800  1
  C  C75  1  0.65134800  0.51538900  0.36086100  1
  C  C76  1  0.68904300  0.59858700  0.71278200  1
  C  C77  1  0.18904300  0.40141300  0.78721800  1
  C  C78  1  0.69460000  0.28692900  0.40113600  1
  C  C79  1  0.13929000  0.57542600  0.59645300  1
  C  C80  1  0.86071000  0.42457400  0.40354700  1
  C  C81  1  0.63929000  0.42457400  0.90354700  1
  C  C82  1  0.34865200  0.48461100  0.63913900  1
  C  C83  1  0.15134800  0.48461100  0.13913900  1
  C  C84  1  0.81095700  0.59858700  0.21278200  1
  C  C85  1  0.84865200  0.51538900  0.86086100  1
  C  C86  1  0.35557600  0.53455700  0.79131200  1
  C  C87  1  0.14442400  0.53455700  0.29131200  1
