# generated using pymatgen
data_CuNiC24
_symmetry_space_group_name_H-M   'P 1'
_cell_length_a   9.74186000
_cell_length_b   6.67695300
_cell_length_c   8.56176521
_cell_angle_alpha   79.69821514
_cell_angle_beta   90.00000000
_cell_angle_gamma   90.00000000
_symmetry_Int_Tables_number   1
_chemical_formula_structural   CuNiC24
_chemical_formula_sum   'Cu2 Ni2 C48'
_cell_volume   547.93042324
_cell_formula_units_Z   2
loop_
 _symmetry_equiv_pos_site_id
 _symmetry_equiv_pos_as_xyz
  1  'x, y, z'
loop_
 _atom_site_type_symbol
 _atom_site_label
 _atom_site_symmetry_multiplicity
 _atom_site_fract_x
 _atom_site_fract_y
 _atom_site_fract_z
 _atom_site_occupancy
  Ni  Ni0  1  0.00000000  0.00000000  0.00000000  1
  Ni  Ni1  1  0.50000000  0.00000000  0.50000000  1
  Cu  Cu2  1  0.00000000  0.50000000  0.50000000  1
  Cu  Cu3  1  0.50000000  0.50000000  0.00000000  1
  C  C4  1  0.77171800  0.24959000  0.96613800  1
  C  C5  1  0.27171800  0.75041000  0.53386200  1
  C  C6  1  0.22828200  0.75041000  0.03386200  1
  C  C7  1  0.72828200  0.24959000  0.46613800  1
  C  C8  1  0.88932900  0.36365000  0.85648600  1
  C  C9  1  0.38932900  0.63635000  0.64351400  1
  C  C10  1  0.11067100  0.63635000  0.14351400  1
  C  C11  1  0.61067100  0.36365000  0.35648600  1
  C  C12  1  0.22658900  0.25590300  0.97216100  1
  C  C13  1  0.72658900  0.74409700  0.52783900  1
  C  C14  1  0.77341100  0.74409700  0.02783900  1
  C  C15  1  0.27341100  0.25590300  0.47216100  1
  C  C16  1  0.16978600  0.25230900  0.79897800  1
  C  C17  1  0.66978600  0.74769100  0.70102200  1
  C  C18  1  0.83021400  0.74769100  0.20102200  1
  C  C19  1  0.33021400  0.25230900  0.29897800  1
  C  C20  1  0.94076000  0.03618400  0.68246600  1
  C  C21  1  0.44076000  0.96381600  0.81753400  1
  C  C22  1  0.05924000  0.96381600  0.31753400  1
  C  C23  1  0.55924000  0.03618400  0.18246600  1
  C  C24  1  0.97187000  0.80124800  0.74112100  1
  C  C25  1  0.47187000  0.19875200  0.75887900  1
  C  C26  1  0.02813000  0.19875200  0.25887900  1
  C  C27  1  0.52813000  0.80124800  0.24112100  1
  C  C28  1  0.87026400  0.24901400  0.94265200  1
  C  C29  1  0.37026400  0.75098600  0.55734800  1
  C  C30  1  0.12973600  0.75098600  0.05734800  1
  C  C31  1  0.62973600  0.24901400  0.44265200  1
  C  C32  1  0.16501900  0.18376900  0.91024300  1
  C  C33  1  0.66501900  0.81623100  0.58975700  1
  C  C34  1  0.83498100  0.81623100  0.08975700  1
  C  C35  1  0.33498100  0.18376900  0.41024300  1
  C  C36  1  0.96902500  0.93445200  0.77405200  1
  C  C37  1  0.46902500  0.06554800  0.72594800  1
  C  C38  1  0.03097500  0.06554800  0.22594800  1
  C  C39  1  0.53097500  0.93445200  0.27405200  1
  C  C40  1  0.94471800  0.55029400  0.69451200  1
  C  C41  1  0.44471800  0.44970600  0.80548800  1
  C  C42  1  0.05528200  0.44970600  0.30548800  1
  C  C43  1  0.55528200  0.55029400  0.19451200  1
  C  C44  1  0.90456500  0.25886900  0.53262800  1
  C  C45  1  0.40456500  0.74113100  0.96737200  1
  C  C46  1  0.09543500  0.74113100  0.46737200  1
  C  C47  1  0.59543500  0.25886900  0.03262800  1
  C  C48  1  0.15329700  0.36685700  0.59164300  1
  C  C49  1  0.65329700  0.63314300  0.90835700  1
  C  C50  1  0.84670300  0.63314300  0.40835700  1
  C  C51  1  0.34670300  0.36685700  0.09164300  1
