# generated using pymatgen
data_Cu6Ni3C20
_symmetry_space_group_name_H-M   'P 1'
_cell_length_a   7.40072241
_cell_length_b   7.40072241
_cell_length_c   7.40072241
_cell_angle_alpha   60.00000000
_cell_angle_beta   60.00000000
_cell_angle_gamma   60.00000000
_symmetry_Int_Tables_number   1
_chemical_formula_structural   Cu6Ni3C20
_chemical_formula_sum   'Cu6 Ni3 C20'
_cell_volume   286.62056387
_cell_formula_units_Z   1
loop_
 _symmetry_equiv_pos_site_id
 _symmetry_equiv_pos_as_xyz
  1  'x, y, z'
loop_
 _atom_site_type_symbol
 _atom_site_label
 _atom_site_symmetry_multiplicity
 _atom_site_fract_x
 _atom_site_fract_y
 _atom_site_fract_z
 _atom_site_occupancy
  Ni  Ni0  1  0.00000000  0.00000000  0.00000000  1
  Ni  Ni1  1  0.75000000  0.75000000  0.75000000  1
  Ni  Ni2  1  0.25000000  0.25000000  0.25000000  1
  C  C3  1  0.00000000  0.33821300  0.66178700  1
  C  C4  1  0.00000000  0.00000000  0.66178700  1
  C  C5  1  0.66178700  0.33821300  0.00000000  1
  C  C6  1  0.00000000  0.33821300  0.00000000  1
  C  C7  1  0.33821300  0.00000000  0.66178700  1
  C  C8  1  0.33821300  0.00000000  0.00000000  1
  C  C9  1  0.66178700  0.00000000  0.00000000  1
  C  C10  1  0.33821300  0.66178700  0.00000000  1
  C  C11  1  0.66178700  0.00000000  0.33821300  1
  C  C12  1  0.00000000  0.00000000  0.33821300  1
  C  C13  1  0.00000000  0.66178700  0.00000000  1
  C  C14  1  0.00000000  0.66178700  0.33821300  1
  C  C15  1  0.61750000  0.14749900  0.61750000  1
  C  C16  1  0.38250000  0.38250000  0.85250100  1
  C  C17  1  0.85250100  0.38250000  0.38250000  1
  C  C18  1  0.38250000  0.38250000  0.38250000  1
  C  C19  1  0.14749900  0.61750000  0.61750000  1
  C  C20  1  0.61750000  0.61750000  0.61750000  1
  C  C21  1  0.61750000  0.61750000  0.14749900  1
  C  C22  1  0.38250000  0.85250100  0.38250000  1
  Cu  Cu23  1  0.72624800  0.27375200  0.72624800  1
  Cu  Cu24  1  0.72624800  0.27375200  0.27375200  1
  Cu  Cu25  1  0.27375200  0.72624800  0.72624800  1
  Cu  Cu26  1  0.27375200  0.27375200  0.72624800  1
  Cu  Cu27  1  0.72624800  0.72624800  0.27375200  1
  Cu  Cu28  1  0.27375200  0.72624800  0.27375200  1
