# generated using pymatgen
data_CuNi9C20
_symmetry_space_group_name_H-M   'P 1'
_cell_length_a   8.80807997
_cell_length_b   8.80807997
_cell_length_c   8.56269000
_cell_angle_alpha   90.00000000
_cell_angle_beta   90.00000000
_cell_angle_gamma   119.99999975
_symmetry_Int_Tables_number   1
_chemical_formula_structural   CuNi9C20
_chemical_formula_sum   'Cu2 Ni18 C40'
_cell_volume   575.31189274
_cell_formula_units_Z   2
loop_
 _symmetry_equiv_pos_site_id
 _symmetry_equiv_pos_as_xyz
  1  'x, y, z'
loop_
 _atom_site_type_symbol
 _atom_site_label
 _atom_site_symmetry_multiplicity
 _atom_site_fract_x
 _atom_site_fract_y
 _atom_site_fract_z
 _atom_site_occupancy
  C  C0  1  0.00000000  0.00000000  0.00000000  1
  C  C1  1  0.00000000  0.00000000  0.50000000  1
  C  C2  1  0.66666700  0.33333300  0.25000000  1
  C  C3  1  0.33333300  0.66666700  0.75000000  1
  Ni  Ni4  1  0.36057700  0.01764500  0.57768900  1
  Ni  Ni5  1  0.01764500  0.65706800  0.07768900  1
  Ni  Ni6  1  0.33678900  0.00428100  0.25000000  1
  Ni  Ni7  1  0.65706800  0.63942300  0.92231100  1
  Ni  Ni8  1  0.63942300  0.98235500  0.42231100  1
  Ni  Ni9  1  0.63942300  0.98235500  0.07768900  1
  Ni  Ni10  1  0.36057700  0.01764500  0.92231100  1
  Ni  Ni11  1  0.98235500  0.34293200  0.92231100  1
  Ni  Ni12  1  0.34293200  0.36057700  0.07768900  1
  Ni  Ni13  1  0.65706800  0.63942300  0.57768900  1
  Ni  Ni14  1  0.66749200  0.66321100  0.25000000  1
  Ni  Ni15  1  0.01764500  0.65706800  0.42231100  1
  Ni  Ni16  1  0.66321100  0.99571900  0.75000000  1
  Ni  Ni17  1  0.99571900  0.33250800  0.25000000  1
  Ni  Ni18  1  0.34293200  0.36057700  0.42231100  1
  Ni  Ni19  1  0.98235500  0.34293200  0.57768900  1
  Ni  Ni20  1  0.33250800  0.33678900  0.75000000  1
  Ni  Ni21  1  0.00428100  0.66749200  0.75000000  1
  Cu  Cu22  1  0.33333300  0.66666700  0.25000000  1
  Cu  Cu23  1  0.66666700  0.33333300  0.75000000  1
  C  C24  1  0.88981900  0.67041200  0.25000000  1
  C  C25  1  0.19236000  0.89276800  0.41715000  1
  C  C26  1  0.40525200  0.52243700  0.59226100  1
  C  C27  1  0.59474800  0.47756300  0.40773900  1
  C  C28  1  0.67041200  0.78059300  0.75000000  1
  C  C29  1  0.70040800  0.80764000  0.41715000  1
  C  C30  1  0.47756300  0.88281400  0.90773900  1
  C  C31  1  0.89276800  0.70040800  0.91715000  1
  C  C32  1  0.89276800  0.70040800  0.58285000  1
  C  C33  1  0.44685700  0.84572500  0.25000000  1
  C  C34  1  0.88281400  0.40525200  0.40773900  1
  C  C35  1  0.11718600  0.59474800  0.90773900  1
  C  C36  1  0.21940700  0.88981900  0.75000000  1
  C  C37  1  0.10723200  0.29959200  0.41715000  1
  C  C38  1  0.29959200  0.19236000  0.91715000  1
  C  C39  1  0.11018100  0.32958800  0.75000000  1
  C  C40  1  0.10723200  0.29959200  0.08285000  1
  C  C41  1  0.11718600  0.59474800  0.59226100  1
  C  C42  1  0.88281400  0.40525200  0.09226100  1
  C  C43  1  0.19236000  0.89276800  0.08285000  1
  C  C44  1  0.55314300  0.15427500  0.75000000  1
  C  C45  1  0.84572500  0.39886800  0.75000000  1
  C  C46  1  0.15427500  0.60113200  0.25000000  1
  C  C47  1  0.39886800  0.55314300  0.25000000  1
  C  C48  1  0.70040800  0.80764000  0.08285000  1
  C  C49  1  0.40525200  0.52243700  0.90773900  1
  C  C50  1  0.80764000  0.10723200  0.91715000  1
  C  C51  1  0.60113200  0.44685700  0.75000000  1
  C  C52  1  0.52243700  0.11718600  0.40773900  1
  C  C53  1  0.47756300  0.88281400  0.59226100  1
  C  C54  1  0.78059300  0.11018100  0.25000000  1
  C  C55  1  0.59474800  0.47756300  0.09226100  1
  C  C56  1  0.32958800  0.21940700  0.25000000  1
  C  C57  1  0.52243700  0.11718600  0.09226100  1
  C  C58  1  0.80764000  0.10723200  0.58285000  1
  C  C59  1  0.29959200  0.19236000  0.58285000  1
