# generated using pymatgen
data_Cu8Ni8C9
_symmetry_space_group_name_H-M   'P 1'
_cell_length_a   11.95606600
_cell_length_b   10.20096800
_cell_length_c   14.65615470
_cell_angle_alpha   72.02948175
_cell_angle_beta   90.00000000
_cell_angle_gamma   90.00000000
_symmetry_Int_Tables_number   1
_chemical_formula_structural   Cu8Ni8C9
_chemical_formula_sum   'Cu16 Ni16 C18'
_cell_volume   1700.31192420
_cell_formula_units_Z   2
loop_
 _symmetry_equiv_pos_site_id
 _symmetry_equiv_pos_as_xyz
  1  'x, y, z'
loop_
 _atom_site_type_symbol
 _atom_site_label
 _atom_site_symmetry_multiplicity
 _atom_site_fract_x
 _atom_site_fract_y
 _atom_site_fract_z
 _atom_site_occupancy
  C  C0  1  0.77870200  0.24136500  0.69360800  1
  C  C1  1  0.27870200  0.75863500  0.80639200  1
  C  C2  1  0.72129800  0.24136500  0.19360800  1
  C  C3  1  0.22129800  0.75863500  0.30639200  1
  C  C4  1  0.50000000  0.00000000  0.50000000  1
  C  C5  1  0.00000000  0.00000000  0.00000000  1
  Ni  Ni6  1  0.91480200  0.62177600  0.58159700  1
  Ni  Ni7  1  0.17439100  0.13186400  0.47577000  1
  Ni  Ni8  1  0.36549200  0.38716000  0.49321000  1
  Ni  Ni9  1  0.32560900  0.13186400  0.97577000  1
  Ni  Ni10  1  0.85415800  0.62798400  0.18258700  1
  Ni  Ni11  1  0.67439100  0.86813600  0.02423000  1
  Ni  Ni12  1  0.14584200  0.37201600  0.81741300  1
  Ni  Ni13  1  0.35415800  0.37201600  0.31741300  1
  Ni  Ni14  1  0.82560900  0.86813600  0.52423000  1
  Ni  Ni15  1  0.08519800  0.37822400  0.41840300  1
  Ni  Ni16  1  0.63450800  0.61284000  0.50679000  1
  Ni  Ni17  1  0.13450800  0.38716000  0.99321000  1
  Ni  Ni18  1  0.86549200  0.61284000  0.00679000  1
  Ni  Ni19  1  0.41480200  0.37822400  0.91840300  1
  Ni  Ni20  1  0.58519800  0.62177600  0.08159700  1
  Ni  Ni21  1  0.64584200  0.62798400  0.68258700  1
  Cu  Cu22  1  0.18007900  0.46197400  0.27842200  1
  Cu  Cu23  1  0.68007900  0.53802600  0.22157800  1
  Cu  Cu24  1  0.31992100  0.46197400  0.77842200  1
  Cu  Cu25  1  0.30343700  0.48433900  0.99964900  1
  Cu  Cu26  1  0.81992100  0.53802600  0.72157800  1
  Cu  Cu27  1  0.30623300  0.17226600  0.57478100  1
  Cu  Cu28  1  0.29273900  0.15223700  0.35161900  1
  Cu  Cu29  1  0.69376700  0.82773400  0.42521900  1
  Cu  Cu30  1  0.80623300  0.82773400  0.92521900  1
  Cu  Cu31  1  0.79273900  0.84776300  0.14838100  1
  Cu  Cu32  1  0.20726100  0.15223700  0.85161900  1
  Cu  Cu33  1  0.19656300  0.48433900  0.49964900  1
  Cu  Cu34  1  0.69656300  0.51566100  0.00035100  1
  Cu  Cu35  1  0.19376700  0.17226600  0.07478100  1
  Cu  Cu36  1  0.80343700  0.51566100  0.50035100  1
  Cu  Cu37  1  0.70726100  0.84776300  0.64838100  1
  C  C38  1  0.53466700  0.15892900  0.16412100  1
  C  C39  1  0.38334100  0.78720700  0.55622400  1
  C  C40  1  0.03466700  0.84107100  0.33587900  1
  C  C41  1  0.11665900  0.78720700  0.05622400  1
  C  C42  1  0.42126400  0.73746100  0.26914700  1
  C  C43  1  0.96533300  0.15892900  0.66412100  1
  C  C44  1  0.88334100  0.21279300  0.94377600  1
  C  C45  1  0.61665900  0.21279300  0.44377600  1
  C  C46  1  0.07873600  0.73746100  0.76914700  1
  C  C47  1  0.92126400  0.26253900  0.23085300  1
  C  C48  1  0.46533300  0.84107100  0.83587900  1
  C  C49  1  0.57873600  0.26253900  0.73085300  1
