# generated using pymatgen
data_CuNiC4
_symmetry_space_group_name_H-M   'P 1'
_cell_length_a   9.98337477
_cell_length_b   9.98337477
_cell_length_c   9.98337477
_cell_angle_alpha   60.00000000
_cell_angle_beta   60.00000000
_cell_angle_gamma   60.00000000
_symmetry_Int_Tables_number   1
_chemical_formula_structural   CuNiC4
_chemical_formula_sum   'Cu4 Ni4 C16'
_cell_volume   703.58589767
_cell_formula_units_Z   4
loop_
 _symmetry_equiv_pos_site_id
 _symmetry_equiv_pos_as_xyz
  1  'x, y, z'
loop_
 _atom_site_type_symbol
 _atom_site_label
 _atom_site_symmetry_multiplicity
 _atom_site_fract_x
 _atom_site_fract_y
 _atom_site_fract_z
 _atom_site_occupancy
  C  C0  1  0.94062900  0.94062900  0.55937100  1
  C  C1  1  0.55937100  0.94062900  0.55937100  1
  C  C2  1  0.55937100  0.94062900  0.94062900  1
  C  C3  1  0.68958800  0.68958800  0.31041200  1
  C  C4  1  0.15445600  0.15445600  0.53663100  1
  C  C5  1  0.31041200  0.68958800  0.68958800  1
  C  C6  1  0.15445600  0.15445600  0.15445600  1
  C  C7  1  0.53663100  0.15445600  0.15445600  1
  C  C8  1  0.31041200  0.68958800  0.31041200  1
  C  C9  1  0.31041200  0.31041200  0.68958800  1
  C  C10  1  0.68958800  0.31041200  0.68958800  1
  C  C11  1  0.94062900  0.55937100  0.55937100  1
  C  C12  1  0.55937100  0.55937100  0.94062900  1
  C  C13  1  0.15445600  0.53663100  0.15445600  1
  C  C14  1  0.68958800  0.31041200  0.31041200  1
  C  C15  1  0.94062900  0.55937100  0.94062900  1
  Ni  Ni16  1  0.23616200  0.92127900  0.92127900  1
  Ni  Ni17  1  0.92127900  0.92127900  0.92127900  1
  Ni  Ni18  1  0.92127900  0.92127900  0.23616200  1
  Ni  Ni19  1  0.92127900  0.23616200  0.92127900  1
  Cu  Cu20  1  0.92056000  0.35981300  0.35981300  1
  Cu  Cu21  1  0.35981300  0.35981300  0.92056000  1
  Cu  Cu22  1  0.35981300  0.92056000  0.35981300  1
  Cu  Cu23  1  0.35981300  0.35981300  0.35981300  1
