# generated using pymatgen
data_CuNiC6
_symmetry_space_group_name_H-M   'P 1'
_cell_length_a   4.98793500
_cell_length_b   9.97274700
_cell_length_c   14.21488700
_cell_angle_alpha   90.00000000
_cell_angle_beta   90.00000000
_cell_angle_gamma   90.00000000
_symmetry_Int_Tables_number   1
_chemical_formula_structural   CuNiC6
_chemical_formula_sum   'Cu8 Ni8 C48'
_cell_volume   707.09700627
_cell_formula_units_Z   8
loop_
 _symmetry_equiv_pos_site_id
 _symmetry_equiv_pos_as_xyz
  1  'x, y, z'
loop_
 _atom_site_type_symbol
 _atom_site_label
 _atom_site_symmetry_multiplicity
 _atom_site_fract_x
 _atom_site_fract_y
 _atom_site_fract_z
 _atom_site_occupancy
  C  C0  1  0.00867300  0.00703900  0.04197300  1
  C  C1  1  0.97884600  0.77987100  0.21383300  1
  C  C2  1  0.50967000  0.49204400  0.92714000  1
  C  C3  1  0.49033000  0.50795600  0.42714000  1
  C  C4  1  0.97884600  0.72012900  0.71383300  1
  C  C5  1  0.00867300  0.49296100  0.54197300  1
  C  C6  1  0.50967000  0.00795600  0.42714000  1
  C  C7  1  0.49033000  0.99204400  0.92714000  1
  C  C8  1  0.47182600  0.76479200  0.33647200  1
  C  C9  1  0.02115400  0.27987100  0.21383300  1
  C  C10  1  0.02115400  0.22012900  0.71383300  1
  C  C11  1  0.47182600  0.73520800  0.83647200  1
  C  C12  1  0.52817400  0.26479200  0.33647200  1
  C  C13  1  0.52817400  0.23520800  0.83647200  1
  C  C14  1  0.99132700  0.99296100  0.54197300  1
  C  C15  1  0.99132700  0.50703900  0.04197300  1
  Ni  Ni16  1  0.98950600  0.76612000  0.42595400  1
  Ni  Ni17  1  0.01049400  0.26612000  0.42595400  1
  Ni  Ni18  1  0.04381700  0.01601100  0.31727000  1
  Ni  Ni19  1  0.95618300  0.98398900  0.81727000  1
  Ni  Ni20  1  0.04381700  0.48398900  0.81727000  1
  Ni  Ni21  1  0.01049400  0.23388000  0.92595400  1
  Ni  Ni22  1  0.98950600  0.73388000  0.92595400  1
  Ni  Ni23  1  0.95618300  0.51601100  0.31727000  1
  Cu  Cu24  1  0.52380900  0.48797700  0.69163600  1
  Cu  Cu25  1  0.50872200  0.26336800  0.05962700  1
  Cu  Cu26  1  0.47619100  0.51202300  0.19163600  1
  Cu  Cu27  1  0.52380900  0.01202300  0.19163600  1
  Cu  Cu28  1  0.47619100  0.98797700  0.69163600  1
  Cu  Cu29  1  0.49127800  0.76336800  0.05962700  1
  Cu  Cu30  1  0.49127800  0.73663200  0.55962700  1
  Cu  Cu31  1  0.50872200  0.23663200  0.55962700  1
  C  C32  1  0.29264000  0.48846500  0.28353000  1
  C  C33  1  0.27744900  0.31328800  0.50130700  1
  C  C34  1  0.70736000  0.98846500  0.28353000  1
  C  C35  1  0.11555600  0.33691400  0.84975600  1
  C  C36  1  0.87655100  0.40038400  0.38927600  1
  C  C37  1  0.62913800  0.90277600  0.10759600  1
  C  C38  1  0.70736000  0.51153500  0.78353000  1
  C  C39  1  0.20528800  0.50878600  0.70481900  1
  C  C40  1  0.37086200  0.40277600  0.10759600  1
  C  C41  1  0.12344900  0.59961600  0.88927600  1
  C  C42  1  0.88444400  0.83691400  0.84975600  1
  C  C43  1  0.27744900  0.18671200  0.00130700  1
  C  C44  1  0.72255100  0.81328800  0.50130700  1
  C  C45  1  0.60484800  0.33347300  0.65078500  1
  C  C46  1  0.72255100  0.68671200  0.00130700  1
  C  C47  1  0.79471200  0.49121400  0.20481900  1
  C  C48  1  0.60484800  0.16652700  0.15078500  1
  C  C49  1  0.12344900  0.90038400  0.38927600  1
  C  C50  1  0.11555600  0.16308600  0.34975600  1
  C  C51  1  0.39515200  0.83347300  0.65078500  1
  C  C52  1  0.39515200  0.66652700  0.15078500  1
  C  C53  1  0.79471200  0.00878600  0.70481900  1
  C  C54  1  0.62913800  0.59722400  0.60759600  1
  C  C55  1  0.23533500  0.81243100  0.99902600  1
  C  C56  1  0.88444400  0.66308600  0.34975600  1
  C  C57  1  0.29264000  0.01153500  0.78353000  1
  C  C58  1  0.37086200  0.09722400  0.60759600  1
  C  C59  1  0.23533500  0.68756900  0.49902600  1
  C  C60  1  0.20528800  0.99121400  0.20481900  1
  C  C61  1  0.76466500  0.31243100  0.99902600  1
  C  C62  1  0.76466500  0.18756900  0.49902600  1
  C  C63  1  0.87655100  0.09961600  0.88927600  1
