# generated using pymatgen
data_Cu2NiC
_symmetry_space_group_name_H-M   'P 1'
_cell_length_a   11.40364600
_cell_length_b   11.40364600
_cell_length_c   6.32930000
_cell_angle_alpha   90.00000000
_cell_angle_beta   90.00000000
_cell_angle_gamma   90.00000000
_symmetry_Int_Tables_number   1
_chemical_formula_structural   Cu2NiC
_chemical_formula_sum   'Cu16 Ni8 C8'
_cell_volume   823.08205925
_cell_formula_units_Z   8
loop_
 _symmetry_equiv_pos_site_id
 _symmetry_equiv_pos_as_xyz
  1  'x, y, z'
loop_
 _atom_site_type_symbol
 _atom_site_label
 _atom_site_symmetry_multiplicity
 _atom_site_fract_x
 _atom_site_fract_y
 _atom_site_fract_z
 _atom_site_occupancy
  Ni  Ni0  1  0.54085000  0.33135900  0.05710900  1
  Ni  Ni1  1  0.16864100  0.04085000  0.55710900  1
  Ni  Ni2  1  0.95915000  0.16864100  0.44289100  1
  Ni  Ni3  1  0.83135900  0.95915000  0.55710900  1
  Ni  Ni4  1  0.04085000  0.83135900  0.44289100  1
  Ni  Ni5  1  0.45915000  0.66864100  0.05710900  1
  Ni  Ni6  1  0.66864100  0.54085000  0.94289100  1
  Ni  Ni7  1  0.33135900  0.45915000  0.94289100  1
  C  C8  1  0.09242600  0.13087900  0.42482500  1
  C  C9  1  0.40757400  0.36912100  0.07517500  1
  C  C10  1  0.90757400  0.86912100  0.42482500  1
  C  C11  1  0.13087900  0.90757400  0.57517500  1
  C  C12  1  0.86912100  0.09242600  0.57517500  1
  C  C13  1  0.59242600  0.63087900  0.07517500  1
  C  C14  1  0.63087900  0.40757400  0.92482500  1
  C  C15  1  0.36912100  0.59242600  0.92482500  1
  Cu  Cu16  1  0.40372800  0.69402500  0.35668900  1
  Cu  Cu17  1  0.55053500  0.16880900  0.93238200  1
  Cu  Cu18  1  0.59627200  0.30597500  0.35668900  1
  Cu  Cu19  1  0.05053500  0.66880900  0.56761800  1
  Cu  Cu20  1  0.69402500  0.59627200  0.64331100  1
  Cu  Cu21  1  0.83119100  0.55053500  0.06761800  1
  Cu  Cu22  1  0.44946500  0.83119100  0.93238200  1
  Cu  Cu23  1  0.80597500  0.90372800  0.85668900  1
  Cu  Cu24  1  0.33119100  0.05053500  0.43238200  1
  Cu  Cu25  1  0.09627200  0.80597500  0.14331100  1
  Cu  Cu26  1  0.66880900  0.94946500  0.43238200  1
  Cu  Cu27  1  0.94946500  0.33119100  0.56761800  1
  Cu  Cu28  1  0.16880900  0.44946500  0.06761800  1
  Cu  Cu29  1  0.19402500  0.09627200  0.85668900  1
  Cu  Cu30  1  0.30597500  0.40372800  0.64331100  1
  Cu  Cu31  1  0.90372800  0.19402500  0.14331100  1
