# generated using pymatgen
data_Cu2Ni22C15
_symmetry_space_group_name_H-M   'P 1'
_cell_length_a   5.36648800
_cell_length_b   9.46772400
_cell_length_c   18.08793600
_cell_angle_alpha   90.00000000
_cell_angle_beta   90.00000000
_cell_angle_gamma   90.00000000
_symmetry_Int_Tables_number   1
_chemical_formula_structural   Cu2Ni22C15
_chemical_formula_sum   'Cu4 Ni44 C30'
_cell_volume   919.01958006
_cell_formula_units_Z   2
loop_
 _symmetry_equiv_pos_site_id
 _symmetry_equiv_pos_as_xyz
  1  'x, y, z'
loop_
 _atom_site_type_symbol
 _atom_site_label
 _atom_site_symmetry_multiplicity
 _atom_site_fract_x
 _atom_site_fract_y
 _atom_site_fract_z
 _atom_site_occupancy
  C  C0  1  0.00000000  0.50000000  0.58836200  1
  C  C1  1  0.50000000  0.50000000  0.67809100  1
  C  C2  1  0.50000000  0.00000000  0.74133100  1
  C  C3  1  0.00000000  0.50000000  0.24133100  1
  C  C4  1  0.50000000  0.50000000  0.32190900  1
  C  C5  1  0.50000000  0.00000000  0.25866900  1
  C  C6  1  0.00000000  0.50000000  0.75866900  1
  C  C7  1  0.00000000  0.50000000  0.41163800  1
  C  C8  1  0.00000000  0.00000000  0.00000000  1
  C  C9  1  0.50000000  0.00000000  0.91163800  1
  C  C10  1  0.00000000  0.00000000  0.17809100  1
  C  C11  1  0.50000000  0.00000000  0.08836200  1
  C  C12  1  0.00000000  0.00000000  0.82190900  1
  C  C13  1  0.50000000  0.50000000  0.50000000  1
  C  C14  1  0.32591500  0.78517300  0.58434800  1
  C  C15  1  0.67108400  0.29400100  0.82924400  1
  C  C16  1  0.67408500  0.21482700  0.58434800  1
  C  C17  1  0.67408500  0.21482700  0.41565200  1
  C  C18  1  0.82891600  0.79400100  0.67075600  1
  C  C19  1  0.82591500  0.71482700  0.91565200  1
  C  C20  1  0.17108400  0.20599900  0.32924400  1
  C  C21  1  0.17108400  0.20599900  0.67075600  1
  C  C22  1  0.32891600  0.70599900  0.17075600  1
  C  C23  1  0.32591500  0.78517300  0.41565200  1
  C  C24  1  0.67108400  0.29400100  0.17075600  1
  C  C25  1  0.32891600  0.70599900  0.82924400  1
  C  C26  1  0.82891600  0.79400100  0.32924400  1
  C  C27  1  0.17408500  0.28517300  0.08434800  1
  C  C28  1  0.82591500  0.71482700  0.08434800  1
  C  C29  1  0.17408500  0.28517300  0.91565200  1
  Ni  Ni30  1  0.06857100  0.84432400  0.62088700  1
  Ni  Ni31  1  0.65052600  0.15600600  0.50000000  1
  Ni  Ni32  1  0.18462300  0.12035000  0.74762500  1
  Ni  Ni33  1  0.16693300  0.11243200  0.08565200  1
  Ni  Ni34  1  0.81537700  0.87965000  0.74762500  1
  Ni  Ni35  1  0.68462300  0.37965000  0.75237500  1
  Ni  Ni36  1  0.66693300  0.38756800  0.41434800  1
  Ni  Ni37  1  0.17007500  0.37974000  0.67423000  1
  Ni  Ni38  1  0.33306700  0.61243200  0.58565200  1
  Ni  Ni39  1  0.94019200  0.34929600  0.86686600  1
  Ni  Ni40  1  0.82992500  0.62026000  0.32577000  1
  Ni  Ni41  1  0.82992500  0.62026000  0.67423000  1
  Ni  Ni42  1  0.67007500  0.12026000  0.17423000  1
  Ni  Ni43  1  0.32992500  0.87974000  0.82577000  1
  Ni  Ni44  1  0.56857100  0.65567600  0.87911300  1
  Ni  Ni45  1  0.43142900  0.34432400  0.12088700  1
  Ni  Ni46  1  0.83306700  0.88756800  0.08565200  1
  Ni  Ni47  1  0.33306700  0.61243200  0.41434800  1
  Ni  Ni48  1  0.17007500  0.37974000  0.32577000  1
  Ni  Ni49  1  0.68462300  0.37965000  0.24762500  1
  Ni  Ni50  1  0.66693300  0.38756800  0.58565200  1
  Ni  Ni51  1  0.83306700  0.88756800  0.91434800  1
  Ni  Ni52  1  0.81537700  0.87965000  0.25237500  1
  Ni  Ni53  1  0.18462300  0.12035000  0.25237500  1
  Ni  Ni54  1  0.93142900  0.15567600  0.62088700  1
  Ni  Ni55  1  0.44019200  0.15070400  0.36686600  1
  Ni  Ni56  1  0.05980800  0.65070400  0.13313400  1
  Ni  Ni57  1  0.44019200  0.15070400  0.63313400  1
  Ni  Ni58  1  0.94019200  0.34929600  0.13313400  1
  Ni  Ni59  1  0.67007500  0.12026000  0.82577000  1
  Ni  Ni60  1  0.15052600  0.34399400  0.00000000  1
  Ni  Ni61  1  0.31537700  0.62035000  0.24762500  1
  Ni  Ni62  1  0.93142900  0.15567600  0.37911300  1
  Ni  Ni63  1  0.32992500  0.87974000  0.17423000  1
  Ni  Ni64  1  0.55980800  0.84929600  0.36686600  1
  Ni  Ni65  1  0.06857100  0.84432400  0.37911300  1
  Ni  Ni66  1  0.84947400  0.65600600  0.00000000  1
  Ni  Ni67  1  0.55980800  0.84929600  0.63313400  1
  Ni  Ni68  1  0.56857100  0.65567600  0.12088700  1
  Ni  Ni69  1  0.43142900  0.34432400  0.87911300  1
  Ni  Ni70  1  0.34947400  0.84399400  0.50000000  1
  Ni  Ni71  1  0.05980800  0.65070400  0.86686600  1
  Ni  Ni72  1  0.16693300  0.11243200  0.91434800  1
  Ni  Ni73  1  0.31537700  0.62035000  0.75237500  1
  Cu  Cu74  1  0.83529100  0.60290600  0.50000000  1
  Cu  Cu75  1  0.33529100  0.89709400  0.00000000  1
  Cu  Cu76  1  0.66470900  0.10290600  0.00000000  1
  Cu  Cu77  1  0.16470900  0.39709400  0.50000000  1
