# generated using pymatgen
data_Cu2NiC2
_symmetry_space_group_name_H-M   'P 1'
_cell_length_a   11.83525600
_cell_length_b   12.66152600
_cell_length_c   14.41256300
_cell_angle_alpha   77.96109588
_cell_angle_beta   90.00000000
_cell_angle_gamma   90.00000000
_symmetry_Int_Tables_number   1
_chemical_formula_structural   Cu2NiC2
_chemical_formula_sum   'Cu32 Ni16 C32'
_cell_volume   2112.25591498
_cell_formula_units_Z   16
loop_
 _symmetry_equiv_pos_site_id
 _symmetry_equiv_pos_as_xyz
  1  'x, y, z'
loop_
 _atom_site_type_symbol
 _atom_site_label
 _atom_site_symmetry_multiplicity
 _atom_site_fract_x
 _atom_site_fract_y
 _atom_site_fract_z
 _atom_site_occupancy
  C  C0  1  0.64731400  0.03329600  0.26461200  1
  C  C1  1  0.19711400  0.55398300  0.23236000  1
  C  C2  1  0.80288600  0.44601700  0.76764000  1
  C  C3  1  0.69711400  0.44601700  0.26764000  1
  C  C4  1  0.14731400  0.96670400  0.23538800  1
  C  C5  1  0.85268600  0.03329600  0.76461200  1
  C  C6  1  0.30288600  0.55398300  0.73236000  1
  C  C7  1  0.35268600  0.96670400  0.73538800  1
  C  C8  1  0.46936300  0.73808500  0.07045800  1
  C  C9  1  0.53063700  0.26191500  0.92954200  1
  C  C10  1  0.01879400  0.77115300  0.94862200  1
  C  C11  1  0.85673100  0.87009900  0.48308000  1
  C  C12  1  0.87337000  0.71524500  0.43322800  1
  C  C13  1  0.84236900  0.63988900  0.03193500  1
  C  C14  1  0.35673100  0.12990100  0.01692000  1
  C  C15  1  0.96936300  0.26191500  0.42954200  1
  C  C16  1  0.14395900  0.20334000  0.91945900  1
  C  C17  1  0.85604100  0.79666000  0.08054100  1
  C  C18  1  0.35604100  0.20334000  0.41945900  1
  C  C19  1  0.98120600  0.22884700  0.05137800  1
  C  C20  1  0.37337000  0.28475500  0.06677200  1
  C  C21  1  0.03063700  0.73808500  0.57045800  1
  C  C22  1  0.65763100  0.63988900  0.53193500  1
  C  C23  1  0.15763100  0.36011100  0.96806500  1
  C  C24  1  0.64395900  0.79666000  0.58054100  1
  C  C25  1  0.62663000  0.71524500  0.93322900  1
  C  C26  1  0.64326900  0.87009900  0.98308000  1
  C  C27  1  0.14326900  0.12990100  0.51692000  1
  C  C28  1  0.34236900  0.36011100  0.46806500  1
  C  C29  1  0.51879400  0.22884700  0.55137800  1
  C  C30  1  0.48120600  0.77115300  0.44862200  1
  C  C31  1  0.12663000  0.28475500  0.56677100  1
  Ni  Ni32  1  0.94977900  0.66190600  0.96354400  1
  Ni  Ni33  1  0.03986000  0.15334800  0.44374600  1
  Ni  Ni34  1  0.02012000  0.32808500  0.50150500  1
  Ni  Ni35  1  0.46368100  0.16054400  0.48258200  1
  Ni  Ni36  1  0.46014000  0.15334800  0.94374600  1
  Ni  Ni37  1  0.55022100  0.66190600  0.46354400  1
  Ni  Ni38  1  0.52012000  0.67191500  0.99849500  1
  Ni  Ni39  1  0.05022100  0.33809400  0.03645600  1
  Ni  Ni40  1  0.44977900  0.33809400  0.53645600  1
  Ni  Ni41  1  0.47988000  0.32808500  0.00150500  1
  Ni  Ni42  1  0.97988000  0.67191500  0.49849500  1
  Ni  Ni43  1  0.53986000  0.84665200  0.05625400  1
  Ni  Ni44  1  0.53631900  0.83945600  0.51741800  1
  Ni  Ni45  1  0.96368100  0.83945600  0.01741800  1
  Ni  Ni46  1  0.03631900  0.16054400  0.98258200  1
  Ni  Ni47  1  0.96014000  0.84665200  0.55625400  1
  Cu  Cu48  1  0.19731800  0.14243700  0.18835800  1
  Cu  Cu49  1  0.03734800  0.03381800  0.77722300  1
  Cu  Cu50  1  0.77402500  0.12098800  0.86325000  1
  Cu  Cu51  1  0.68604500  0.62359000  0.20043600  1
  Cu  Cu52  1  0.83399400  0.37720900  0.19688200  1
  Cu  Cu53  1  0.81395500  0.62359000  0.70043600  1
  Cu  Cu54  1  0.23771000  0.56826300  0.08034100  1
  Cu  Cu55  1  0.16600600  0.62279100  0.80311800  1
  Cu  Cu56  1  0.53278500  0.37272400  0.25034900  1
  Cu  Cu57  1  0.80551100  0.09359900  0.61537700  1
  Cu  Cu58  1  0.30551100  0.90640100  0.88462300  1
  Cu  Cu59  1  0.46721500  0.62727600  0.74965100  1
  Cu  Cu60  1  0.19448900  0.90640100  0.38462300  1
  Cu  Cu61  1  0.30268200  0.14243700  0.68835800  1
  Cu  Cu62  1  0.72597500  0.12098800  0.36325000  1
  Cu  Cu63  1  0.46265200  0.03381800  0.27722300  1
  Cu  Cu64  1  0.73771000  0.43173700  0.41965900  1
  Cu  Cu65  1  0.66600600  0.37720900  0.69688200  1
  Cu  Cu66  1  0.76229000  0.43173700  0.91965900  1
  Cu  Cu67  1  0.69448900  0.09359900  0.11537700  1
  Cu  Cu68  1  0.22597500  0.87901200  0.13675000  1
  Cu  Cu69  1  0.26229000  0.56826300  0.58034100  1
  Cu  Cu70  1  0.53734800  0.96618200  0.72277700  1
  Cu  Cu71  1  0.96265200  0.96618200  0.22277700  1
  Cu  Cu72  1  0.33399400  0.62279100  0.30311800  1
  Cu  Cu73  1  0.31395500  0.37641000  0.79956400  1
  Cu  Cu74  1  0.96721500  0.37272400  0.75034900  1
  Cu  Cu75  1  0.69731800  0.85756300  0.31164200  1
  Cu  Cu76  1  0.18604500  0.37641000  0.29956400  1
  Cu  Cu77  1  0.80268200  0.85756300  0.81164200  1
  Cu  Cu78  1  0.03278500  0.62727600  0.24965100  1
  Cu  Cu79  1  0.27402500  0.87901200  0.63675000  1
