# generated using pymatgen
data_CuNiC
_symmetry_space_group_name_H-M   'P 1'
_cell_length_a   7.16803400
_cell_length_b   9.20928000
_cell_length_c   30.88857500
_cell_angle_alpha   90.00000000
_cell_angle_beta   90.00000000
_cell_angle_gamma   90.00000000
_symmetry_Int_Tables_number   1
_chemical_formula_structural   CuNiC
_chemical_formula_sum   'Cu32 Ni32 C32'
_cell_volume   2039.02996157
_cell_formula_units_Z   32
loop_
 _symmetry_equiv_pos_site_id
 _symmetry_equiv_pos_as_xyz
  1  'x, y, z'
loop_
 _atom_site_type_symbol
 _atom_site_label
 _atom_site_symmetry_multiplicity
 _atom_site_fract_x
 _atom_site_fract_y
 _atom_site_fract_z
 _atom_site_occupancy
  C  C0  1  0.78055300  0.91340600  0.28273000  1
  C  C1  1  0.78055300  0.41340600  0.71727000  1
  C  C2  1  0.77615500  0.08259800  0.53068600  1
  C  C3  1  0.71944700  0.41340600  0.21727000  1
  C  C4  1  0.77615500  0.58259800  0.46931400  1
  C  C5  1  0.27615500  0.41740200  0.03068600  1
  C  C6  1  0.21944700  0.08659400  0.71727000  1
  C  C7  1  0.72384500  0.58259800  0.96931400  1
  C  C8  1  0.28055300  0.58659400  0.78273000  1
  C  C9  1  0.22384500  0.91740200  0.46931400  1
  C  C10  1  0.71944700  0.91340600  0.78273000  1
  C  C11  1  0.72384500  0.08259800  0.03068600  1
  C  C12  1  0.22384500  0.41740200  0.53068600  1
  C  C13  1  0.27615500  0.91740200  0.96931400  1
  C  C14  1  0.28055300  0.08659400  0.21727000  1
  C  C15  1  0.21944700  0.58659400  0.28273000  1
  C  C16  1  0.00000000  0.25000000  0.36848900  1
  C  C17  1  0.49786600  0.08220300  0.62371500  1
  C  C18  1  0.50213400  0.41779700  0.62371500  1
  C  C19  1  0.00000000  0.25000000  0.87895100  1
  C  C20  1  0.99786600  0.91779700  0.87628500  1
  C  C21  1  0.50213400  0.91779700  0.37628500  1
  C  C22  1  0.00213400  0.58220300  0.87628500  1
  C  C23  1  0.50000000  0.75000000  0.13151100  1
  C  C24  1  0.50000000  0.25000000  0.86848900  1
  C  C25  1  0.50000000  0.75000000  0.62104900  1
  C  C26  1  0.00000000  0.75000000  0.12104900  1
  C  C27  1  0.00213400  0.08220300  0.12371500  1
  C  C28  1  0.49786600  0.58220300  0.37628500  1
  C  C29  1  0.50000000  0.25000000  0.37895100  1
  C  C30  1  0.99786600  0.41779700  0.12371500  1
  C  C31  1  0.00000000  0.75000000  0.63151100  1
  Ni  Ni32  1  0.71481200  0.58816000  0.33559600  1
  Ni  Ni33  1  0.21873800  0.08679000  0.08294100  1
  Ni  Ni34  1  0.78518800  0.58816000  0.83559600  1
  Ni  Ni35  1  0.00000000  0.75000000  0.56691600  1
  Ni  Ni36  1  0.21481200  0.91184000  0.83559600  1
  Ni  Ni37  1  0.00000000  0.75000000  0.18582400  1
  Ni  Ni38  1  0.50000000  0.75000000  0.19627100  1
  Ni  Ni39  1  0.21873800  0.58679000  0.91705900  1
  Ni  Ni40  1  0.50000000  0.75000000  0.55614700  1
  Ni  Ni41  1  0.00000000  0.25000000  0.94385300  1
  Ni  Ni42  1  0.28126200  0.58679000  0.41705900  1
  Ni  Ni43  1  0.00000000  0.25000000  0.30372900  1
  Ni  Ni44  1  0.50000000  0.25000000  0.31417600  1
  Ni  Ni45  1  0.00000000  0.75000000  0.69627100  1
  Ni  Ni46  1  0.78518800  0.08816000  0.16440400  1
  Ni  Ni47  1  0.28518800  0.41184000  0.66440400  1
  Ni  Ni48  1  0.50000000  0.25000000  0.80372900  1
  Ni  Ni49  1  0.71873800  0.91321000  0.41705900  1
  Ni  Ni50  1  0.71481200  0.08816000  0.66440400  1
  Ni  Ni51  1  0.21481200  0.41184000  0.16440400  1
  Ni  Ni52  1  0.50000000  0.75000000  0.68582400  1
  Ni  Ni53  1  0.71873800  0.41321000  0.58294100  1
  Ni  Ni54  1  0.28518800  0.91184000  0.33559600  1
  Ni  Ni55  1  0.78126200  0.41321000  0.08294100  1
  Ni  Ni56  1  0.78126200  0.91321000  0.91705900  1
  Ni  Ni57  1  0.50000000  0.75000000  0.06691600  1
  Ni  Ni58  1  0.50000000  0.25000000  0.93308400  1
  Ni  Ni59  1  0.28126200  0.08679000  0.58294100  1
  Ni  Ni60  1  0.50000000  0.25000000  0.44385300  1
  Ni  Ni61  1  0.00000000  0.25000000  0.81417600  1
  Ni  Ni62  1  0.00000000  0.75000000  0.05614700  1
  Ni  Ni63  1  0.00000000  0.25000000  0.43308400  1
  Cu  Cu64  1  0.33967900  0.59555200  0.94256200  1
  Cu  Cu65  1  0.50000000  0.75000000  0.23446100  1
  Cu  Cu66  1  0.33967900  0.09555200  0.05743800  1
  Cu  Cu67  1  0.66235000  0.09802400  0.18937700  1
  Cu  Cu68  1  0.33765000  0.90197600  0.81062300  1
  Cu  Cu69  1  0.00000000  0.75000000  0.22396200  1
  Cu  Cu70  1  0.66032100  0.90444800  0.94256200  1
  Cu  Cu71  1  0.00000000  0.75000000  0.73446100  1
  Cu  Cu72  1  0.50000000  0.75000000  0.72396200  1
  Cu  Cu73  1  0.50000000  0.25000000  0.27603800  1
  Cu  Cu74  1  0.83967900  0.40444800  0.55743800  1
  Cu  Cu75  1  0.00000000  0.25000000  0.98202400  1
  Cu  Cu76  1  0.16235000  0.40197600  0.68937700  1
  Cu  Cu77  1  0.00000000  0.25000000  0.26553900  1
  Cu  Cu78  1  0.33765000  0.40197600  0.18937700  1
  Cu  Cu79  1  0.50000000  0.25000000  0.76553900  1
  Cu  Cu80  1  0.00000000  0.75000000  0.52873100  1
  Cu  Cu81  1  0.50000000  0.75000000  0.51797600  1
  Cu  Cu82  1  0.50000000  0.75000000  0.02873100  1
  Cu  Cu83  1  0.00000000  0.25000000  0.77603800  1
  Cu  Cu84  1  0.50000000  0.25000000  0.48202400  1
  Cu  Cu85  1  0.16032100  0.59555200  0.44256200  1
  Cu  Cu86  1  0.16032100  0.09555200  0.55743800  1
  Cu  Cu87  1  0.50000000  0.25000000  0.97126900  1
  Cu  Cu88  1  0.83765000  0.09802400  0.68937700  1
  Cu  Cu89  1  0.00000000  0.75000000  0.01797600  1
  Cu  Cu90  1  0.16235000  0.90197600  0.31062300  1
  Cu  Cu91  1  0.00000000  0.25000000  0.47126900  1
  Cu  Cu92  1  0.66235000  0.59802400  0.81062300  1
  Cu  Cu93  1  0.83967900  0.90444800  0.44256200  1
  Cu  Cu94  1  0.66032100  0.40444800  0.05743800  1
  Cu  Cu95  1  0.83765000  0.59802400  0.31062300  1
