# generated using pymatgen
data_Cu9Ni2C3
_symmetry_space_group_name_H-M   'P 1'
_cell_length_a   6.39860000
_cell_length_b   6.91609800
_cell_length_c   16.90180300
_cell_angle_alpha   90.00000000
_cell_angle_beta   90.00000000
_cell_angle_gamma   90.00000000
_symmetry_Int_Tables_number   1
_chemical_formula_structural   Cu9Ni2C3
_chemical_formula_sum   'Cu36 Ni8 C12'
_cell_volume   747.96131358
_cell_formula_units_Z   4
loop_
 _symmetry_equiv_pos_site_id
 _symmetry_equiv_pos_as_xyz
  1  'x, y, z'
loop_
 _atom_site_type_symbol
 _atom_site_label
 _atom_site_symmetry_multiplicity
 _atom_site_fract_x
 _atom_site_fract_y
 _atom_site_fract_z
 _atom_site_occupancy
  C  C0  1  0.31264000  0.65025500  0.91493600  1
  C  C1  1  0.68736000  0.15025500  0.58506400  1
  C  C2  1  0.12909100  0.89348400  0.73809300  1
  C  C3  1  0.18736000  0.34974500  0.41493600  1
  C  C4  1  0.87090900  0.39348400  0.76190700  1
  C  C5  1  0.62909100  0.60651600  0.26190700  1
  C  C6  1  0.37090900  0.10651600  0.23809300  1
  C  C7  1  0.81264000  0.84974500  0.08506400  1
  C  C8  1  0.03437600  0.35120500  0.09010900  1
  C  C9  1  0.46562400  0.64879500  0.59010900  1
  C  C10  1  0.53437600  0.14879500  0.90989100  1
  C  C11  1  0.96562400  0.85120500  0.40989100  1
  Ni  Ni12  1  0.85649400  0.10249600  0.24863700  1
  Ni  Ni13  1  0.14350600  0.60249600  0.25136300  1
  Ni  Ni14  1  0.96439600  0.58693700  0.56804600  1
  Ni  Ni15  1  0.03560400  0.08693700  0.93195400  1
  Ni  Ni16  1  0.46439600  0.91306300  0.43195400  1
  Ni  Ni17  1  0.64350600  0.89750400  0.74863700  1
  Ni  Ni18  1  0.35649400  0.39750400  0.75136300  1
  Ni  Ni19  1  0.53560400  0.41306300  0.06804600  1
  Cu  Cu20  1  0.78067200  0.70083700  0.59530800  1
  Cu  Cu21  1  0.01274700  0.55067900  0.17919600  1
  Cu  Cu22  1  0.01785600  0.14406400  0.18553400  1
  Cu  Cu23  1  0.22513100  0.23064700  0.73318700  1
  Cu  Cu24  1  0.02225200  0.09794500  0.02096000  1
  Cu  Cu25  1  0.47774800  0.90205500  0.52096000  1
  Cu  Cu26  1  0.45264200  0.11490900  0.40782900  1
  Cu  Cu27  1  0.98214400  0.64406400  0.31446600  1
  Cu  Cu28  1  0.51274700  0.94932100  0.82080400  1
  Cu  Cu29  1  0.51785600  0.35593600  0.81446600  1
  Cu  Cu30  1  0.35108300  0.31116300  0.10444800  1
  Cu  Cu31  1  0.71932800  0.29916300  0.09530800  1
  Cu  Cu32  1  0.97774800  0.59794500  0.47904000  1
  Cu  Cu33  1  0.77245100  0.06300300  0.72182100  1
  Cu  Cu34  1  0.14891700  0.68883700  0.60444800  1
  Cu  Cu35  1  0.27486900  0.76935300  0.23318700  1
  Cu  Cu36  1  0.85108300  0.18883700  0.89555200  1
  Cu  Cu37  1  0.72513100  0.26935300  0.26681300  1
  Cu  Cu38  1  0.45750800  0.48712400  0.51898400  1
  Cu  Cu39  1  0.72754900  0.93699700  0.22182100  1
  Cu  Cu40  1  0.77486900  0.73064700  0.76681300  1
  Cu  Cu41  1  0.48725300  0.44932100  0.67919600  1
  Cu  Cu42  1  0.04735800  0.88509100  0.90782900  1
  Cu  Cu43  1  0.22754900  0.56300300  0.77817900  1
  Cu  Cu44  1  0.27245100  0.43699700  0.27817900  1
  Cu  Cu45  1  0.98725300  0.05067900  0.32080400  1
  Cu  Cu46  1  0.28067200  0.79916300  0.40469200  1
  Cu  Cu47  1  0.52225200  0.40205500  0.97904000  1
  Cu  Cu48  1  0.64891700  0.81116300  0.39555200  1
  Cu  Cu49  1  0.04249200  0.51287600  0.01898400  1
  Cu  Cu50  1  0.95264200  0.38509100  0.59217100  1
  Cu  Cu51  1  0.48214400  0.85593600  0.68553400  1
  Cu  Cu52  1  0.54249200  0.98712400  0.98101600  1
  Cu  Cu53  1  0.21932800  0.20083700  0.90469200  1
  Cu  Cu54  1  0.95750800  0.01287600  0.48101600  1
  Cu  Cu55  1  0.54735800  0.61490900  0.09217100  1
