# generated using pymatgen
data_Cu2Ni4C
_symmetry_space_group_name_H-M   'P 1'
_cell_length_a   4.15741400
_cell_length_b   7.37571100
_cell_length_c   15.48259800
_cell_angle_alpha   90.00000000
_cell_angle_beta   90.00000000
_cell_angle_gamma   90.00000000
_symmetry_Int_Tables_number   1
_chemical_formula_structural   Cu2Ni4C
_chemical_formula_sum   'Cu8 Ni16 C4'
_cell_volume   474.75659174
_cell_formula_units_Z   4
loop_
 _symmetry_equiv_pos_site_id
 _symmetry_equiv_pos_as_xyz
  1  'x, y, z'
loop_
 _atom_site_type_symbol
 _atom_site_label
 _atom_site_symmetry_multiplicity
 _atom_site_fract_x
 _atom_site_fract_y
 _atom_site_fract_z
 _atom_site_occupancy
  C  C0  1  0.00000000  0.57663500  0.11847000  1
  C  C1  1  0.00000000  0.42336500  0.88153000  1
  C  C2  1  0.50000000  0.07663500  0.38153000  1
  C  C3  1  0.50000000  0.92336500  0.61847000  1
  Ni  Ni4  1  0.00000000  0.13791100  0.05199300  1
  Ni  Ni5  1  0.00000000  0.86208900  0.94800700  1
  Ni  Ni6  1  0.50000000  0.63791100  0.44800700  1
  Ni  Ni7  1  0.50000000  0.36208900  0.55199300  1
  Ni  Ni8  1  0.00000000  0.73049100  0.32138700  1
  Ni  Ni9  1  0.00000000  0.26950900  0.67861300  1
  Ni  Ni10  1  0.50000000  0.23049100  0.17861300  1
  Ni  Ni11  1  0.50000000  0.76950900  0.82138700  1
  Ni  Ni12  1  0.00000000  0.43074700  0.41788400  1
  Ni  Ni13  1  0.00000000  0.56925300  0.58211600  1
  Ni  Ni14  1  0.50000000  0.93074700  0.08211600  1
  Ni  Ni15  1  0.50000000  0.06925300  0.91788400  1
  Ni  Ni16  1  0.00000000  0.98662800  0.20610100  1
  Ni  Ni17  1  0.00000000  0.01337200  0.79389900  1
  Ni  Ni18  1  0.50000000  0.48662800  0.29389900  1
  Ni  Ni19  1  0.50000000  0.51337200  0.70610100  1
  Cu  Cu20  1  0.00000000  0.82763800  0.47611900  1
  Cu  Cu21  1  0.00000000  0.17236200  0.52388100  1
  Cu  Cu22  1  0.50000000  0.32763800  0.02388100  1
  Cu  Cu23  1  0.50000000  0.67236200  0.97611900  1
  Cu  Cu24  1  0.00000000  0.28830900  0.27286300  1
  Cu  Cu25  1  0.00000000  0.71169100  0.72713700  1
  Cu  Cu26  1  0.50000000  0.78830900  0.22713700  1
  Cu  Cu27  1  0.50000000  0.21169100  0.77286300  1
