# generated using pymatgen
data_CuNiC7
_symmetry_space_group_name_H-M   'P 1'
_cell_length_a   7.70310600
_cell_length_b   4.90241800
_cell_length_c   9.71694451
_cell_angle_alpha   89.78017865
_cell_angle_beta   90.00000000
_cell_angle_gamma   90.00000000
_symmetry_Int_Tables_number   1
_chemical_formula_structural   CuNiC7
_chemical_formula_sum   'Cu4 Ni4 C28'
_cell_volume   366.94649082
_cell_formula_units_Z   4
loop_
 _symmetry_equiv_pos_site_id
 _symmetry_equiv_pos_as_xyz
  1  'x, y, z'
loop_
 _atom_site_type_symbol
 _atom_site_label
 _atom_site_symmetry_multiplicity
 _atom_site_fract_x
 _atom_site_fract_y
 _atom_site_fract_z
 _atom_site_occupancy
  C  C0  1  0.89698300  0.00927000  0.33709400  1
  C  C1  1  0.10301700  0.99073000  0.66290600  1
  C  C2  1  0.60301700  0.00927000  0.83709400  1
  C  C3  1  0.39698300  0.99073000  0.16290600  1
  C  C4  1  0.26444600  0.46752000  0.91566900  1
  C  C5  1  0.23555400  0.46752000  0.41566900  1
  C  C6  1  0.76444600  0.53248000  0.58433100  1
  C  C7  1  0.73555400  0.53248000  0.08433100  1
  Ni  Ni8  1  0.09076300  0.56749000  0.15961500  1
  Ni  Ni9  1  0.90923700  0.43251000  0.84038500  1
  Ni  Ni10  1  0.59076300  0.43251000  0.34038500  1
  Ni  Ni11  1  0.40923700  0.56749000  0.65961500  1
  Cu  Cu12  1  0.95711700  0.80682700  0.92364600  1
  Cu  Cu13  1  0.45711700  0.19317300  0.57635400  1
  Cu  Cu14  1  0.04288300  0.19317300  0.07635400  1
  Cu  Cu15  1  0.54288300  0.80682700  0.42364600  1
  C  C16  1  0.08770800  0.26069400  0.16433500  1
  C  C17  1  0.10083800  0.23830600  0.46278300  1
  C  C18  1  0.70001300  0.33117900  0.45663000  1
  C  C19  1  0.08574200  0.31535700  0.85433400  1
  C  C20  1  0.41229200  0.26069400  0.66433500  1
  C  C21  1  0.66570100  0.32691800  0.21025800  1
  C  C22  1  0.39916200  0.23830600  0.96278300  1
  C  C23  1  0.58574200  0.68464300  0.64566600  1
  C  C24  1  0.91229200  0.73930600  0.83566500  1
  C  C25  1  0.60083800  0.76169400  0.03721700  1
  C  C26  1  0.91425800  0.68464300  0.14566600  1
  C  C27  1  0.16570100  0.67308200  0.28974200  1
  C  C28  1  0.89916200  0.76169400  0.53721700  1
  C  C29  1  0.41425800  0.31535700  0.35433400  1
  C  C30  1  0.20001300  0.66882100  0.04337000  1
  C  C31  1  0.58770800  0.73930600  0.33566500  1
  C  C32  1  0.29998700  0.66882100  0.54337000  1
  C  C33  1  0.79998700  0.33117900  0.95663000  1
  C  C34  1  0.83429900  0.32691800  0.71025800  1
  C  C35  1  0.33429900  0.67308200  0.78974200  1
