# generated using pymatgen
data_Cu2Ni2C
_symmetry_space_group_name_H-M   'P 1'
_cell_length_a   4.26170000
_cell_length_b   10.14121500
_cell_length_c   10.94422200
_cell_angle_alpha   90.00000000
_cell_angle_beta   90.00000000
_cell_angle_gamma   90.00000000
_symmetry_Int_Tables_number   1
_chemical_formula_structural   Cu2Ni2C
_chemical_formula_sum   'Cu8 Ni8 C4'
_cell_volume   472.99631650
_cell_formula_units_Z   4
loop_
 _symmetry_equiv_pos_site_id
 _symmetry_equiv_pos_as_xyz
  1  'x, y, z'
loop_
 _atom_site_type_symbol
 _atom_site_label
 _atom_site_symmetry_multiplicity
 _atom_site_fract_x
 _atom_site_fract_y
 _atom_site_fract_z
 _atom_site_occupancy
  C  C0  1  0.25000000  0.24778300  0.17476800  1
  C  C1  1  0.75000000  0.75221700  0.82523200  1
  C  C2  1  0.25000000  0.74778300  0.32523200  1
  C  C3  1  0.75000000  0.25221700  0.67476800  1
  Ni  Ni4  1  0.25000000  0.60068000  0.04735900  1
  Ni  Ni5  1  0.75000000  0.39932000  0.95264100  1
  Ni  Ni6  1  0.25000000  0.10068000  0.45264100  1
  Ni  Ni7  1  0.75000000  0.89932000  0.54735900  1
  Ni  Ni8  1  0.25000000  0.54163400  0.61866100  1
  Ni  Ni9  1  0.75000000  0.45836600  0.38133900  1
  Ni  Ni10  1  0.25000000  0.04163400  0.88133900  1
  Ni  Ni11  1  0.75000000  0.95836600  0.11866100  1
  Cu  Cu12  1  0.25000000  0.97601200  0.65598500  1
  Cu  Cu13  1  0.75000000  0.02398800  0.34401500  1
  Cu  Cu14  1  0.25000000  0.47601200  0.84401500  1
  Cu  Cu15  1  0.75000000  0.52398800  0.15598500  1
  Cu  Cu16  1  0.25000000  0.35476700  0.45866100  1
  Cu  Cu17  1  0.75000000  0.64523300  0.54133900  1
  Cu  Cu18  1  0.25000000  0.85476700  0.04133900  1
  Cu  Cu19  1  0.75000000  0.14523300  0.95866100  1
