# generated using pymatgen
data_CuNiC
_symmetry_space_group_name_H-M   'P 1'
_cell_length_a   4.52069900
_cell_length_b   7.22506600
_cell_length_c   7.90113000
_cell_angle_alpha   90.00000000
_cell_angle_beta   90.00000000
_cell_angle_gamma   90.00000000
_symmetry_Int_Tables_number   1
_chemical_formula_structural   CuNiC
_chemical_formula_sum   'Cu4 Ni4 C4'
_cell_volume   258.06946272
_cell_formula_units_Z   4
loop_
 _symmetry_equiv_pos_site_id
 _symmetry_equiv_pos_as_xyz
  1  'x, y, z'
loop_
 _atom_site_type_symbol
 _atom_site_label
 _atom_site_symmetry_multiplicity
 _atom_site_fract_x
 _atom_site_fract_y
 _atom_site_fract_z
 _atom_site_occupancy
  C  C0  1  0.25000000  0.52817400  0.81756600  1
  C  C1  1  0.25000000  0.02817400  0.68243400  1
  C  C2  1  0.75000000  0.97182600  0.31756600  1
  C  C3  1  0.75000000  0.47182600  0.18243400  1
  Ni  Ni4  1  0.25000000  0.14629500  0.06713700  1
  Ni  Ni5  1  0.75000000  0.35370500  0.56713700  1
  Ni  Ni6  1  0.25000000  0.64629500  0.43286300  1
  Ni  Ni7  1  0.75000000  0.85370500  0.93286300  1
  Cu  Cu8  1  0.25000000  0.78533300  0.11075700  1
  Cu  Cu9  1  0.25000000  0.28533300  0.38924300  1
  Cu  Cu10  1  0.75000000  0.71466700  0.61075700  1
  Cu  Cu11  1  0.75000000  0.21466700  0.88924300  1
