# generated using pymatgen
data_Cu3NiC5
_symmetry_space_group_name_H-M   'P 1'
_cell_length_a   9.91342558
_cell_length_b   9.91342558
_cell_length_c   12.09023532
_cell_angle_alpha   58.38346489
_cell_angle_beta   58.38346489
_cell_angle_gamma   20.39836283
_symmetry_Int_Tables_number   1
_chemical_formula_structural   Cu3NiC5
_chemical_formula_sum   'Cu6 Ni2 C10'
_cell_volume   350.49718782
_cell_formula_units_Z   2
loop_
 _symmetry_equiv_pos_site_id
 _symmetry_equiv_pos_as_xyz
  1  'x, y, z'
loop_
 _atom_site_type_symbol
 _atom_site_label
 _atom_site_symmetry_multiplicity
 _atom_site_fract_x
 _atom_site_fract_y
 _atom_site_fract_z
 _atom_site_occupancy
  Ni  Ni0  1  0.26132800  0.26132800  0.82573600  1
  Ni  Ni1  1  0.73867200  0.73867200  0.17426400  1
  Cu  Cu2  1  0.50000000  0.50000000  0.00000000  1
  Cu  Cu3  1  0.50000000  0.50000000  0.50000000  1
  Cu  Cu4  1  0.16443600  0.16443600  0.61188200  1
  Cu  Cu5  1  0.83556400  0.83556400  0.38811800  1
  Cu  Cu6  1  0.98351400  0.98351400  0.77258300  1
  Cu  Cu7  1  0.01648600  0.01648600  0.22741700  1
  C  C8  1  0.07594900  0.07594900  0.84877600  1
  C  C9  1  0.92405100  0.92405100  0.15122400  1
  C  C10  1  0.41028400  0.41028400  0.91733400  1
  C  C11  1  0.58971600  0.58971600  0.08266600  1
  C  C12  1  0.57591700  0.57591700  0.60745100  1
  C  C13  1  0.42408300  0.42408300  0.39254900  1
  C  C14  1  0.74434600  0.74434600  0.61778300  1
  C  C15  1  0.25565400  0.25565400  0.38221700  1
  C  C16  1  0.92000900  0.92000900  0.65190700  1
  C  C17  1  0.07999100  0.07999100  0.34809300  1
