# generated using pymatgen
data_Cu2Ni2C3
_symmetry_space_group_name_H-M   'P 1'
_cell_length_a   9.62263500
_cell_length_b   11.16262600
_cell_length_c   11.83186437
_cell_angle_alpha   71.06597907
_cell_angle_beta   90.00000000
_cell_angle_gamma   90.00000000
_symmetry_Int_Tables_number   1
_chemical_formula_structural   Cu2Ni2C3
_chemical_formula_sum   'Cu16 Ni16 C24'
_cell_volume   1202.14129406
_cell_formula_units_Z   8
loop_
 _symmetry_equiv_pos_site_id
 _symmetry_equiv_pos_as_xyz
  1  'x, y, z'
loop_
 _atom_site_type_symbol
 _atom_site_label
 _atom_site_symmetry_multiplicity
 _atom_site_fract_x
 _atom_site_fract_y
 _atom_site_fract_z
 _atom_site_occupancy
  C  C0  1  0.67256200  0.42354300  0.49355300  1
  C  C1  1  0.17256200  0.57645700  0.00644700  1
  C  C2  1  0.32743800  0.57645700  0.50644700  1
  C  C3  1  0.82743800  0.42354300  0.99355300  1
  C  C4  1  0.55419700  0.42277300  0.77746400  1
  C  C5  1  0.05419700  0.57722700  0.72253600  1
  C  C6  1  0.44580300  0.57722700  0.22253600  1
  C  C7  1  0.94580300  0.42277300  0.27746400  1
  C  C8  1  0.48236200  0.30732300  0.07642800  1
  C  C9  1  0.98236200  0.69267700  0.42357200  1
  C  C10  1  0.51763800  0.69267700  0.92357200  1
  C  C11  1  0.01763800  0.30732300  0.57642800  1
  C  C12  1  0.40045900  0.22119100  0.61517600  1
  C  C13  1  0.90045900  0.77880900  0.88482400  1
  C  C14  1  0.59954100  0.77880900  0.38482400  1
  C  C15  1  0.09954100  0.22119100  0.11517600  1
  C  C16  1  0.38584400  0.11381000  0.37056300  1
  C  C17  1  0.88584400  0.88619000  0.12943700  1
  C  C18  1  0.61415600  0.88619000  0.62943700  1
  C  C19  1  0.11415600  0.11381000  0.87056300  1
  C  C20  1  0.69227500  0.03899100  0.86749700  1
  C  C21  1  0.19227500  0.96100900  0.63250300  1
  C  C22  1  0.30772500  0.96100900  0.13250300  1
  C  C23  1  0.80772500  0.03899100  0.36749700  1
  Ni  Ni24  1  0.46972500  0.13812100  0.87417600  1
  Ni  Ni25  1  0.96972500  0.86187900  0.62582400  1
  Ni  Ni26  1  0.53027500  0.86187900  0.12582400  1
  Ni  Ni27  1  0.03027500  0.13812100  0.37417600  1
  Ni  Ni28  1  0.72968500  0.14297200  0.62689500  1
  Ni  Ni29  1  0.22968500  0.85702800  0.87310500  1
  Ni  Ni30  1  0.27031500  0.85702800  0.37310500  1
  Ni  Ni31  1  0.77031500  0.14297200  0.12689500  1
  Ni  Ni32  1  0.62221100  0.31950400  0.31479900  1
  Ni  Ni33  1  0.12221100  0.68049600  0.18520100  1
  Ni  Ni34  1  0.37778900  0.68049600  0.68520100  1
  Ni  Ni35  1  0.87778900  0.31950400  0.81479900  1
  Ni  Ni36  1  0.25943300  0.37851400  0.39695600  1
  Ni  Ni37  1  0.75943300  0.62148600  0.10304400  1
  Ni  Ni38  1  0.74056700  0.62148600  0.60304400  1
  Ni  Ni39  1  0.24056700  0.37851400  0.89695600  1
  Cu  Cu40  1  0.38534800  0.05317100  0.56129200  1
  Cu  Cu41  1  0.88534800  0.94682900  0.93870800  1
  Cu  Cu42  1  0.61465200  0.94682900  0.43870800  1
  Cu  Cu43  1  0.11465200  0.05317100  0.06129200  1
  Cu  Cu44  1  0.35116700  0.16813200  0.18589500  1
  Cu  Cu45  1  0.85116700  0.83186800  0.31410500  1
  Cu  Cu46  1  0.64883300  0.83186800  0.81410500  1
  Cu  Cu47  1  0.14883300  0.16813200  0.68589500  1
  Cu  Cu48  1  0.48853900  0.39898500  0.61629700  1
  Cu  Cu49  1  0.98853900  0.60101500  0.88370300  1
  Cu  Cu50  1  0.51146100  0.60101500  0.38370300  1
  Cu  Cu51  1  0.01146100  0.39898500  0.11629700  1
  Cu  Cu52  1  0.60501300  0.44001000  0.94430100  1
  Cu  Cu53  1  0.10501300  0.55999000  0.55569900  1
  Cu  Cu54  1  0.39498700  0.55999000  0.05569900  1
  Cu  Cu55  1  0.89498700  0.44001000  0.44430100  1
