# generated using pymatgen
data_CuNiC10
_symmetry_space_group_name_H-M   'P 1'
_cell_length_a   10.17014618
_cell_length_b   10.17014618
_cell_length_c   6.09067000
_cell_angle_alpha   90.00000000
_cell_angle_beta   90.00000000
_cell_angle_gamma   120.00000115
_symmetry_Int_Tables_number   1
_chemical_formula_structural   CuNiC10
_chemical_formula_sum   'Cu2 Ni2 C20'
_cell_volume   545.56950415
_cell_formula_units_Z   2
loop_
 _symmetry_equiv_pos_site_id
 _symmetry_equiv_pos_as_xyz
  1  'x, y, z'
loop_
 _atom_site_type_symbol
 _atom_site_label
 _atom_site_symmetry_multiplicity
 _atom_site_fract_x
 _atom_site_fract_y
 _atom_site_fract_z
 _atom_site_occupancy
  C  C0  1  0.22307200  0.35823700  0.75846900  1
  C  C1  1  0.86483500  0.22307200  0.25846900  1
  C  C2  1  0.35823700  0.13516500  0.25846900  1
  C  C3  1  0.64176300  0.86483500  0.75846900  1
  C  C4  1  0.13516500  0.77692800  0.75846900  1
  C  C5  1  0.77692800  0.64176300  0.25846900  1
  Ni  Ni6  1  0.00000000  0.00000000  0.71487900  1
  Ni  Ni7  1  0.00000000  0.00000000  0.21487900  1
  Cu  Cu8  1  0.33333300  0.66666700  0.33079400  1
  Cu  Cu9  1  0.66666700  0.33333300  0.83079400  1
  C  C10  1  0.33333300  0.66666700  0.93673900  1
  C  C11  1  0.66666700  0.33333300  0.43673900  1
  C  C12  1  0.90267000  0.15529200  0.72919600  1
  C  C13  1  0.74737800  0.90267000  0.22919600  1
  C  C14  1  0.15529200  0.25262200  0.22919600  1
  C  C15  1  0.84470800  0.74737800  0.72919600  1
  C  C16  1  0.25262200  0.09733000  0.72919600  1
  C  C17  1  0.09733000  0.84470800  0.22919600  1
  C  C18  1  0.42761100  0.91416700  0.50416500  1
  C  C19  1  0.51344400  0.42761100  0.00416500  1
  C  C20  1  0.91416700  0.48655600  0.00416500  1
  C  C21  1  0.08583300  0.51344400  0.50416500  1
  C  C22  1  0.48655600  0.57238900  0.50416500  1
  C  C23  1  0.57238900  0.08583300  0.00416500  1
