# generated using pymatgen
data_Cu7NiC5
_symmetry_space_group_name_H-M   'P 1'
_cell_length_a   8.04132500
_cell_length_b   6.13989700
_cell_length_c   8.24889454
_cell_angle_alpha   69.45716039
_cell_angle_beta   90.00000000
_cell_angle_gamma   90.00000000
_symmetry_Int_Tables_number   1
_chemical_formula_structural   Cu7NiC5
_chemical_formula_sum   'Cu14 Ni2 C10'
_cell_volume   381.37351732
_cell_formula_units_Z   2
loop_
 _symmetry_equiv_pos_site_id
 _symmetry_equiv_pos_as_xyz
  1  'x, y, z'
loop_
 _atom_site_type_symbol
 _atom_site_label
 _atom_site_symmetry_multiplicity
 _atom_site_fract_x
 _atom_site_fract_y
 _atom_site_fract_z
 _atom_site_occupancy
  C  C0  1  0.25000000  0.36771000  0.17364600  1
  C  C1  1  0.75000000  0.63229000  0.82635400  1
  C  C2  1  0.25000000  0.67669900  0.56927600  1
  C  C3  1  0.75000000  0.21055400  0.13529800  1
  C  C4  1  0.75000000  0.32330100  0.43072400  1
  C  C5  1  0.25000000  0.78944600  0.86470200  1
  C  C6  1  0.25000000  0.55613600  0.98156100  1
  C  C7  1  0.75000000  0.44386400  0.01843900  1
  C  C8  1  0.75000000  0.14521100  0.34018000  1
  C  C9  1  0.25000000  0.85478900  0.65982000  1
  Ni  Ni10  1  0.25000000  0.43312700  0.65098400  1
  Ni  Ni11  1  0.75000000  0.56687300  0.34901600  1
  Cu  Cu12  1  0.89313500  0.04348700  0.12172800  1
  Cu  Cu13  1  0.10736000  0.75723900  0.43595600  1
  Cu  Cu14  1  0.89411200  0.59642200  0.74288100  1
  Cu  Cu15  1  0.10588800  0.40357800  0.25711900  1
  Cu  Cu16  1  0.25000000  0.15014200  0.15704200  1
  Cu  Cu17  1  0.10686500  0.95651300  0.87827200  1
  Cu  Cu18  1  0.39313500  0.95651300  0.87827200  1
  Cu  Cu19  1  0.89264000  0.24276100  0.56404400  1
  Cu  Cu20  1  0.75000000  0.84985800  0.84295800  1
  Cu  Cu21  1  0.60686500  0.04348700  0.12172800  1
  Cu  Cu22  1  0.39264000  0.75723900  0.43595600  1
  Cu  Cu23  1  0.39411200  0.40357800  0.25711900  1
  Cu  Cu24  1  0.60736000  0.24276100  0.56404400  1
  Cu  Cu25  1  0.60588800  0.59642200  0.74288100  1
