# generated using pymatgen
data_Cu3NiC8
_symmetry_space_group_name_H-M   'P 1'
_cell_length_a   10.36779300
_cell_length_b   11.83910600
_cell_length_c   14.63894000
_cell_angle_alpha   90.00000000
_cell_angle_beta   90.00000000
_cell_angle_gamma   90.00000000
_symmetry_Int_Tables_number   1
_chemical_formula_structural   Cu3NiC8
_chemical_formula_sum   'Cu12 Ni4 C32'
_cell_volume   1796.86255046
_cell_formula_units_Z   4
loop_
 _symmetry_equiv_pos_site_id
 _symmetry_equiv_pos_as_xyz
  1  'x, y, z'
loop_
 _atom_site_type_symbol
 _atom_site_label
 _atom_site_symmetry_multiplicity
 _atom_site_fract_x
 _atom_site_fract_y
 _atom_site_fract_z
 _atom_site_occupancy
  C  C0  1  0.59966000  0.01221100  0.68098200  1
  C  C1  1  0.90034000  0.51221100  0.18098200  1
  C  C2  1  0.59966000  0.48778900  0.68098200  1
  C  C3  1  0.90034000  0.98778900  0.18098200  1
  C  C4  1  0.42600100  0.75000000  0.05389600  1
  C  C5  1  0.57399900  0.25000000  0.94610400  1
  C  C6  1  0.07399900  0.25000000  0.55389600  1
  C  C7  1  0.92600100  0.75000000  0.44610400  1
  C  C8  1  0.40034000  0.98778900  0.31901800  1
  C  C9  1  0.09966000  0.01221100  0.81901800  1
  C  C10  1  0.09966000  0.48778900  0.81901800  1
  C  C11  1  0.40034000  0.51221100  0.31901800  1
  C  C12  1  0.32485200  0.75000000  0.59903300  1
  C  C13  1  0.67514800  0.25000000  0.40096700  1
  C  C14  1  0.82485200  0.75000000  0.90096700  1
  C  C15  1  0.17514800  0.25000000  0.09903300  1
  C  C16  1  0.80106800  0.06340600  0.44365000  1
  C  C17  1  0.46019100  0.25000000  0.50019500  1
  C  C18  1  0.96019100  0.25000000  0.99980500  1
  C  C19  1  0.19893200  0.56340600  0.55635000  1
  C  C20  1  0.37496400  0.75000000  0.77557500  1
  C  C21  1  0.03980900  0.75000000  0.00019500  1
  C  C22  1  0.53980900  0.75000000  0.49980500  1
  C  C23  1  0.30106800  0.06340600  0.05635000  1
  C  C24  1  0.69893200  0.93659400  0.94365000  1
  C  C25  1  0.80106800  0.43659400  0.44365000  1
  C  C26  1  0.62503600  0.25000000  0.22442500  1
  C  C27  1  0.69893200  0.56340600  0.94365000  1
  C  C28  1  0.87496400  0.75000000  0.72442500  1
  C  C29  1  0.30106800  0.43659400  0.05635000  1
  C  C30  1  0.19893200  0.93659400  0.55635000  1
  C  C31  1  0.12503600  0.25000000  0.27557500  1
  Ni  Ni32  1  0.17669600  0.75000000  0.27203400  1
  Ni  Ni33  1  0.67669600  0.75000000  0.22796600  1
  Ni  Ni34  1  0.32330400  0.25000000  0.77203400  1
  Ni  Ni35  1  0.82330400  0.25000000  0.72796600  1
  Cu  Cu36  1  0.38060300  0.34310000  0.78644400  1
  Cu  Cu37  1  0.11939700  0.65690000  0.28644400  1
  Cu  Cu38  1  0.61939700  0.84310000  0.21355600  1
  Cu  Cu39  1  0.70659800  0.25000000  0.75525500  1
  Cu  Cu40  1  0.20659800  0.25000000  0.74474500  1
  Cu  Cu41  1  0.88060300  0.15690000  0.71355600  1
  Cu  Cu42  1  0.79340200  0.75000000  0.25525500  1
  Cu  Cu43  1  0.29340200  0.75000000  0.24474500  1
  Cu  Cu44  1  0.61939700  0.65690000  0.21355600  1
  Cu  Cu45  1  0.11939700  0.84310000  0.28644400  1
  Cu  Cu46  1  0.88060300  0.34310000  0.71355600  1
  Cu  Cu47  1  0.38060300  0.15690000  0.78644400  1
