# generated using pymatgen
data_Cu3NiC7
_symmetry_space_group_name_H-M   'P 1'
_cell_length_a   7.04864181
_cell_length_b   7.04864181
_cell_length_c   7.04864196
_cell_angle_alpha   91.43522372
_cell_angle_beta   91.43522372
_cell_angle_gamma   91.43523050
_symmetry_Int_Tables_number   1
_chemical_formula_structural   Cu3NiC7
_chemical_formula_sum   'Cu6 Ni2 C14'
_cell_volume   349.86494925
_cell_formula_units_Z   2
loop_
 _symmetry_equiv_pos_site_id
 _symmetry_equiv_pos_as_xyz
  1  'x, y, z'
loop_
 _atom_site_type_symbol
 _atom_site_label
 _atom_site_symmetry_multiplicity
 _atom_site_fract_x
 _atom_site_fract_y
 _atom_site_fract_z
 _atom_site_occupancy
  Ni  Ni0  1  0.25000000  0.25000000  0.25000000  1
  Ni  Ni1  1  0.75000000  0.75000000  0.75000000  1
  Cu  Cu2  1  0.40254800  0.75000000  0.09745200  1
  Cu  Cu3  1  0.25000000  0.90254800  0.59745200  1
  Cu  Cu4  1  0.75000000  0.09745200  0.40254800  1
  Cu  Cu5  1  0.59745200  0.25000000  0.90254800  1
  Cu  Cu6  1  0.09745200  0.40254800  0.75000000  1
  Cu  Cu7  1  0.90254800  0.59745200  0.25000000  1
  C  C8  1  0.00000000  0.00000000  0.00000000  1
  C  C9  1  0.50000000  0.50000000  0.50000000  1
  C  C10  1  0.44626100  0.57099800  0.79185600  1
  C  C11  1  0.57099800  0.79185600  0.44626100  1
  C  C12  1  0.42900200  0.20814400  0.55373900  1
  C  C13  1  0.29185600  0.07099800  0.94626100  1
  C  C14  1  0.20814400  0.55373900  0.42900200  1
  C  C15  1  0.55373900  0.42900200  0.20814400  1
  C  C16  1  0.07099800  0.94626100  0.29185600  1
  C  C17  1  0.94626100  0.29185600  0.07099800  1
  C  C18  1  0.70814400  0.92900200  0.05373900  1
  C  C19  1  0.79185600  0.44626100  0.57099800  1
  C  C20  1  0.92900200  0.05373900  0.70814400  1
  C  C21  1  0.05373900  0.70814400  0.92900200  1
