# generated using pymatgen
data_Cu9(Ni3C20)2
_symmetry_space_group_name_H-M   'P 1'
_cell_length_a   12.97229976
_cell_length_b   12.97229976
_cell_length_c   12.97229947
_cell_angle_alpha   109.48411642
_cell_angle_beta   109.48411642
_cell_angle_gamma   109.48411358
_symmetry_Int_Tables_number   1
_chemical_formula_structural   Cu9(Ni3C20)2
_chemical_formula_sum   'Cu18 Ni12 C80'
_cell_volume   1679.66051368
_cell_formula_units_Z   2
loop_
 _symmetry_equiv_pos_site_id
 _symmetry_equiv_pos_as_xyz
  1  'x, y, z'
loop_
 _atom_site_type_symbol
 _atom_site_label
 _atom_site_symmetry_multiplicity
 _atom_site_fract_x
 _atom_site_fract_y
 _atom_site_fract_z
 _atom_site_occupancy
  C  C0  1  0.45443800  0.40271300  0.94772700  1
  C  C1  1  0.94772700  0.45443800  0.40271300  1
  C  C2  1  0.90271300  0.95443800  0.44772700  1
  C  C3  1  0.95443800  0.44772700  0.90271300  1
  C  C4  1  0.44772700  0.90271300  0.95443800  1
  C  C5  1  0.00984400  0.00984400  0.00984400  1
  C  C6  1  0.40271300  0.94772700  0.45443800  1
  C  C7  1  0.50984400  0.50984400  0.50984400  1
  Ni  Ni8  1  0.33118200  0.39934900  0.64132600  1
  Ni  Ni9  1  0.06495000  0.27136500  0.50922900  1
  Ni  Ni10  1  0.83118200  0.14132600  0.89934900  1
  Ni  Ni11  1  0.39934900  0.64132600  0.33118200  1
  Ni  Ni12  1  0.00922900  0.77136500  0.56495000  1
  Ni  Ni13  1  0.50922900  0.06495000  0.27136500  1
  Ni  Ni14  1  0.64132600  0.33118200  0.39934900  1
  Ni  Ni15  1  0.56495000  0.00922900  0.77136500  1
  Ni  Ni16  1  0.77136500  0.56495000  0.00922900  1
  Ni  Ni17  1  0.27136500  0.50922900  0.06495000  1
  Ni  Ni18  1  0.14132600  0.89934900  0.83118200  1
  Ni  Ni19  1  0.89934900  0.83118200  0.14132600  1
  Cu  Cu20  1  0.58358300  0.32904400  0.69632300  1
  Cu  Cu21  1  0.82904400  0.08358300  0.19632300  1
  Cu  Cu22  1  0.50428800  0.75657700  0.20202700  1
  Cu  Cu23  1  0.65658200  0.70305900  0.91016800  1
  Cu  Cu24  1  0.20202700  0.50428800  0.75657700  1
  Cu  Cu25  1  0.91016800  0.65658200  0.70305900  1
  Cu  Cu26  1  0.25657700  0.00428800  0.70202700  1
  Cu  Cu27  1  0.15658200  0.41016800  0.20305900  1
  Cu  Cu28  1  0.70305900  0.91016800  0.65658200  1
  Cu  Cu29  1  0.08358300  0.19632300  0.82904400  1
  Cu  Cu30  1  0.32904400  0.69632300  0.58358300  1
  Cu  Cu31  1  0.75657700  0.20202700  0.50428800  1
  Cu  Cu32  1  0.70202700  0.25657700  0.00428800  1
  Cu  Cu33  1  0.19632300  0.82904400  0.08358300  1
  Cu  Cu34  1  0.69632300  0.58358300  0.32904400  1
  Cu  Cu35  1  0.41016800  0.20305900  0.15658200  1
  Cu  Cu36  1  0.00428800  0.70202700  0.25657700  1
  Cu  Cu37  1  0.20305900  0.15658200  0.41016800  1
  C  C38  1  0.42912400  0.59125300  0.07567900  1
  C  C39  1  0.10999600  0.09756200  0.24660600  1
  C  C40  1  0.60999600  0.74660600  0.59756200  1
  C  C41  1  0.13519100  0.66671400  0.04030400  1
  C  C42  1  0.12553400  0.46989100  0.84185100  1
  C  C43  1  0.74660600  0.59756200  0.60999600  1
  C  C44  1  0.78249800  0.31667900  0.16907400  1
  C  C45  1  0.29243700  0.95976600  0.82644500  1
  C  C46  1  0.79243700  0.32644500  0.45976600  1
  C  C47  1  0.34185100  0.96989100  0.62553400  1
  C  C48  1  0.07429400  0.86738800  0.07518100  1
  C  C49  1  0.57567900  0.09125300  0.92912400  1
  C  C50  1  0.46989100  0.84185100  0.12553400  1
  C  C51  1  0.09756200  0.24660600  0.10999600  1
  C  C52  1  0.54030400  0.16671400  0.63519100  1
  C  C53  1  0.47158500  0.09244100  0.13044200  1
  C  C54  1  0.63044200  0.59244100  0.97158500  1
  C  C55  1  0.93219100  0.24313400  0.33319800  1
  C  C56  1  0.57119800  0.78126200  0.93430900  1
  C  C57  1  0.82644500  0.29243700  0.95976600  1
  C  C58  1  0.43219100  0.83319800  0.74313400  1
  C  C59  1  0.32443700  0.48165900  0.32126900  1
  C  C60  1  0.66671400  0.04030400  0.13519100  1
  C  C61  1  0.93430900  0.57119800  0.78126200  1
  C  C62  1  0.63519100  0.54030400  0.16671400  1
  C  C63  1  0.57518100  0.36738800  0.57429400  1
  C  C64  1  0.09244100  0.13044200  0.47158500  1
  C  C65  1  0.04030400  0.13519100  0.66671400  1
  C  C66  1  0.95976600  0.82644500  0.29243700  1
  C  C67  1  0.07518100  0.07429400  0.86738800  1
  C  C68  1  0.81667900  0.28249800  0.66907400  1
  C  C69  1  0.74313400  0.43219100  0.83319800  1
  C  C70  1  0.32644500  0.45976600  0.79243700  1
  C  C71  1  0.43430900  0.28126200  0.07119800  1
  C  C72  1  0.83319800  0.74313400  0.43219100  1
  C  C73  1  0.97342400  0.24272400  0.85348600  1
  C  C74  1  0.47342400  0.35348600  0.74272400  1
  C  C75  1  0.24660600  0.10999600  0.09756200  1
  C  C76  1  0.28249800  0.66907400  0.81667900  1
  C  C77  1  0.78126200  0.93430900  0.57119800  1
  C  C78  1  0.16907400  0.78249800  0.31667900  1
  C  C79  1  0.57429400  0.57518100  0.36738800  1
  C  C80  1  0.07567900  0.42912400  0.59125300  1
  C  C81  1  0.16671400  0.63519100  0.54030400  1
  C  C82  1  0.74272400  0.47342400  0.35348600  1
  C  C83  1  0.85348600  0.97342400  0.24272400  1
  C  C84  1  0.96989100  0.62553400  0.34185100  1
  C  C85  1  0.59244100  0.97158500  0.63044200  1
  C  C86  1  0.84185100  0.12553400  0.46989100  1
  C  C87  1  0.24272400  0.85348600  0.97342400  1
  C  C88  1  0.36738800  0.57429400  0.57518100  1
  C  C89  1  0.48165900  0.32126900  0.32443700  1
  C  C90  1  0.13044200  0.47158500  0.09244100  1
  C  C91  1  0.31667900  0.16907400  0.78249800  1
  C  C92  1  0.92912400  0.57567900  0.09125300  1
  C  C93  1  0.07119800  0.43430900  0.28126200  1
  C  C94  1  0.45976600  0.79243700  0.32644500  1
  C  C95  1  0.62553400  0.34185100  0.96989100  1
  C  C96  1  0.59756200  0.60999600  0.74660600  1
  C  C97  1  0.86738800  0.07518100  0.07429400  1
  C  C98  1  0.97158500  0.63044200  0.59244100  1
  C  C99  1  0.35348600  0.74272400  0.47342400  1
  C  C100  1  0.09125300  0.92912400  0.57567900  1
  C  C101  1  0.82126900  0.98165900  0.82443700  1
  C  C102  1  0.33319800  0.93219100  0.24313400  1
  C  C103  1  0.32126900  0.32443700  0.48165900  1
  C  C104  1  0.28126200  0.07119800  0.43430900  1
  C  C105  1  0.82443700  0.82126900  0.98165900  1
  C  C106  1  0.24313400  0.33319800  0.93219100  1
  C  C107  1  0.66907400  0.81667900  0.28249800  1
  C  C108  1  0.59125300  0.07567900  0.42912400  1
  C  C109  1  0.98165900  0.82443700  0.82126900  1
