# generated using pymatgen
data_Cu2Ni2C9
_symmetry_space_group_name_H-M   'P 1'
_cell_length_a   9.70281111
_cell_length_b   9.70281111
_cell_length_c   9.70281111
_cell_angle_alpha   100.95713509
_cell_angle_beta   100.95713509
_cell_angle_gamma   128.30524669
_symmetry_Int_Tables_number   1
_chemical_formula_structural   Cu2Ni2C9
_chemical_formula_sum   'Cu8 Ni8 C36'
_cell_volume   645.10403621
_cell_formula_units_Z   4
loop_
 _symmetry_equiv_pos_site_id
 _symmetry_equiv_pos_as_xyz
  1  'x, y, z'
loop_
 _atom_site_type_symbol
 _atom_site_label
 _atom_site_symmetry_multiplicity
 _atom_site_fract_x
 _atom_site_fract_y
 _atom_site_fract_z
 _atom_site_occupancy
  C  C0  1  0.00425300  0.00425300  0.00000000  1
  C  C1  1  0.25425300  0.75425300  0.50000000  1
  C  C2  1  0.75425300  0.25425300  0.50000000  1
  C  C3  1  0.50425300  0.50425300  0.00000000  1
  Ni  Ni4  1  0.84768100  0.02390500  0.66415200  1
  Ni  Ni5  1  0.43352900  0.59768100  0.32377600  1
  Ni  Ni6  1  0.27390500  0.10975300  0.67622400  1
  Ni  Ni7  1  0.35975300  0.18352900  0.33584800  1
  Ni  Ni8  1  0.77390500  0.09768100  0.16415200  1
  Ni  Ni9  1  0.93352900  0.60975300  0.83584800  1
  Ni  Ni10  1  0.34768100  0.68352900  0.82377600  1
  Ni  Ni11  1  0.85975300  0.52390500  0.17622400  1
  Cu  Cu12  1  0.90095800  0.89897000  0.33657700  1
  Cu  Cu13  1  0.81438100  0.65095800  0.50198800  1
  Cu  Cu14  1  0.14897000  0.31239300  0.49801200  1
  Cu  Cu15  1  0.56239300  0.56438100  0.66342300  1
  Cu  Cu16  1  0.64897000  0.15095800  0.83657700  1
  Cu  Cu17  1  0.31438100  0.81239300  0.16342300  1
  Cu  Cu18  1  0.40095800  0.06438100  0.00198800  1
  Cu  Cu19  1  0.06239300  0.39897000  0.99801200  1
  C  C20  1  0.85934500  0.51345400  0.35288800  1
  C  C21  1  0.75645700  0.60934500  0.84589200  1
  C  C22  1  0.76345400  0.91056500  0.15410800  1
  C  C23  1  0.16056500  0.50645700  0.64711200  1
  C  C24  1  0.26345400  0.10934500  0.85288800  1
  C  C25  1  0.25645700  0.41056500  0.14711200  1
  C  C26  1  0.35934500  0.00645700  0.34589200  1
  C  C27  1  0.66056500  0.01345400  0.65410800  1
  C  C28  1  0.15004100  0.81929100  0.98901500  1
  C  C29  1  0.41102500  0.90004100  0.83075000  1
  C  C30  1  0.06929100  0.58027600  0.16925000  1
  C  C31  1  0.83027600  0.16102500  0.01098500  1
  C  C32  1  0.56929100  0.40004100  0.48901500  1
  C  C33  1  0.91102500  0.08027600  0.51098500  1
  C  C34  1  0.65004100  0.66102500  0.33075000  1
  C  C35  1  0.33027600  0.31929100  0.66925000  1
  C  C36  1  0.56342500  0.04393700  0.16434500  1
  C  C37  1  0.64908100  0.31342500  0.01948900  1
  C  C38  1  0.29393700  0.62959200  0.98051100  1
  C  C39  1  0.87959200  0.39908100  0.83565500  1
  C  C40  1  0.79393700  0.81342500  0.66434500  1
  C  C41  1  0.14908100  0.12959200  0.33565600  1
  C  C42  1  0.06342500  0.89908100  0.51948900  1
  C  C43  1  0.37959200  0.54393700  0.48051100  1
  C  C44  1  0.86736500  0.70401200  0.16797300  1
  C  C45  1  0.94939200  0.61736500  0.66335300  1
  C  C46  1  0.95401200  0.28603900  0.33664700  1
  C  C47  1  0.53603900  0.69939200  0.83202700  1
  C  C48  1  0.45401200  0.11736500  0.66797300  1
  C  C49  1  0.44939200  0.78603900  0.33202700  1
  C  C50  1  0.36736500  0.19939200  0.16335300  1
  C  C51  1  0.03603900  0.20401200  0.83664700  1
