# generated using pymatgen
data_Cu5NiC7
_symmetry_space_group_name_H-M   'P 1'
_cell_length_a   9.55875700
_cell_length_b   11.88163100
_cell_length_c   17.66468600
_cell_angle_alpha   90.00000000
_cell_angle_beta   90.00000000
_cell_angle_gamma   90.00000000
_symmetry_Int_Tables_number   1
_chemical_formula_structural   Cu5NiC7
_chemical_formula_sum   'Cu40 Ni8 C56'
_cell_volume   2006.24239688
_cell_formula_units_Z   8
loop_
 _symmetry_equiv_pos_site_id
 _symmetry_equiv_pos_as_xyz
  1  'x, y, z'
loop_
 _atom_site_type_symbol
 _atom_site_label
 _atom_site_symmetry_multiplicity
 _atom_site_fract_x
 _atom_site_fract_y
 _atom_site_fract_z
 _atom_site_occupancy
  Ni  Ni0  1  0.51253700  0.18837400  0.59990200  1
  Ni  Ni1  1  0.98746300  0.68837400  0.59990200  1
  Ni  Ni2  1  0.01253700  0.31162600  0.40009800  1
  Ni  Ni3  1  0.98746300  0.81162600  0.09990200  1
  Ni  Ni4  1  0.48746300  0.68837400  0.90009800  1
  Ni  Ni5  1  0.51253700  0.31162600  0.09990200  1
  Ni  Ni6  1  0.48746300  0.81162600  0.40009800  1
  Ni  Ni7  1  0.01253700  0.18837400  0.90009800  1
  Cu  Cu8  1  0.70367900  0.07780900  0.41884800  1
  Cu  Cu9  1  0.70849100  0.88594800  0.57643800  1
  Cu  Cu10  1  0.01406700  0.88700900  0.42703800  1
  Cu  Cu11  1  0.98028400  0.41784100  0.77019500  1
  Cu  Cu12  1  0.51406700  0.61299100  0.57296200  1
  Cu  Cu13  1  0.29150900  0.11405200  0.42356200  1
  Cu  Cu14  1  0.98028400  0.08215900  0.27019500  1
  Cu  Cu15  1  0.98593300  0.11299100  0.57296200  1
  Cu  Cu16  1  0.29150900  0.38594800  0.92356200  1
  Cu  Cu17  1  0.70367900  0.42219100  0.91884800  1
  Cu  Cu18  1  0.48028400  0.41784100  0.72980500  1
  Cu  Cu19  1  0.48593300  0.11299100  0.92703800  1
  Cu  Cu20  1  0.01406700  0.61299100  0.92703800  1
  Cu  Cu21  1  0.24278600  0.84836400  0.25702500  1
  Cu  Cu22  1  0.79632100  0.57780900  0.41884800  1
  Cu  Cu23  1  0.25721400  0.15163600  0.75702500  1
  Cu  Cu24  1  0.29632100  0.92219100  0.58115200  1
  Cu  Cu25  1  0.74278600  0.65163600  0.74297500  1
  Cu  Cu26  1  0.48593300  0.38700900  0.42703800  1
  Cu  Cu27  1  0.48028400  0.08215900  0.22980500  1
  Cu  Cu28  1  0.20367900  0.07780900  0.08115200  1
  Cu  Cu29  1  0.51971600  0.91784100  0.77019500  1
  Cu  Cu30  1  0.24278600  0.65163600  0.75702500  1
  Cu  Cu31  1  0.01971600  0.91784100  0.72980500  1
  Cu  Cu32  1  0.01971600  0.58215900  0.22980500  1
  Cu  Cu33  1  0.79150900  0.38594800  0.57643800  1
  Cu  Cu34  1  0.75721400  0.15163600  0.74297500  1
  Cu  Cu35  1  0.79632100  0.92219100  0.91884800  1
  Cu  Cu36  1  0.70849100  0.61405200  0.07643800  1
  Cu  Cu37  1  0.20849100  0.88594800  0.92356200  1
  Cu  Cu38  1  0.51971600  0.58215900  0.27019500  1
  Cu  Cu39  1  0.20849100  0.61405200  0.42356200  1
  Cu  Cu40  1  0.25721400  0.34836400  0.25702500  1
  Cu  Cu41  1  0.51406700  0.88700900  0.07296200  1
  Cu  Cu42  1  0.74278600  0.84836400  0.24297500  1
  Cu  Cu43  1  0.29632100  0.57780900  0.08115200  1
  Cu  Cu44  1  0.75721400  0.34836400  0.24297500  1
  Cu  Cu45  1  0.20367900  0.42219100  0.58115200  1
  Cu  Cu46  1  0.79150900  0.11405200  0.07643800  1
  Cu  Cu47  1  0.98593300  0.38700900  0.07296200  1
  C  C48  1  0.59216600  0.89911900  0.45809800  1
  C  C49  1  0.85499900  0.01573100  0.66870500  1
  C  C50  1  0.64500100  0.51573100  0.66870500  1
  C  C51  1  0.09216600  0.89911900  0.04190200  1
  C  C52  1  0.14500100  0.98426900  0.33129500  1
  C  C53  1  0.85228200  0.99154500  0.50118700  1
  C  C54  1  0.03470600  0.37980000  0.31021300  1
  C  C55  1  0.40783400  0.10088100  0.54190200  1
  C  C56  1  0.67223200  0.03191500  0.82983900  1
  C  C57  1  0.46529400  0.62020000  0.81021300  1
  C  C58  1  0.32776800  0.53191500  0.67016100  1
  C  C59  1  0.40783400  0.39911900  0.04190200  1
  C  C60  1  0.96529400  0.87980000  0.18978700  1
  C  C61  1  0.06846100  0.67773000  0.11595700  1
  C  C62  1  0.14771800  0.00845500  0.49881300  1
  C  C63  1  0.43153900  0.32227000  0.61595700  1
  C  C64  1  0.93153900  0.17773000  0.38404300  1
  C  C65  1  0.35228200  0.50845500  0.49881300  1
  C  C66  1  0.82776800  0.96808500  0.32983900  1
  C  C67  1  0.64500100  0.98426900  0.16870500  1
  C  C68  1  0.14500100  0.51573100  0.83129500  1
  C  C69  1  0.46529400  0.87980000  0.31021300  1
  C  C70  1  0.67926000  0.28516900  0.05668200  1
  C  C71  1  0.35499900  0.48426900  0.33129500  1
  C  C72  1  0.85228200  0.50845500  0.00118700  1
  C  C73  1  0.32776800  0.96808500  0.17016100  1
  C  C74  1  0.35499900  0.01573100  0.83129500  1
  C  C75  1  0.90783400  0.10088100  0.95809800  1
  C  C76  1  0.17926000  0.28516900  0.44331800  1
  C  C77  1  0.93153900  0.32227000  0.88404300  1
  C  C78  1  0.67223200  0.46808500  0.32983900  1
  C  C79  1  0.56846100  0.82227000  0.88404300  1
  C  C80  1  0.03470600  0.12020000  0.81021300  1
  C  C81  1  0.82074000  0.71483100  0.55668200  1
  C  C82  1  0.85499900  0.48426900  0.16870500  1
  C  C83  1  0.43153900  0.17773000  0.11595700  1
  C  C84  1  0.17223200  0.46808500  0.17016100  1
  C  C85  1  0.59216600  0.60088100  0.95809800  1
  C  C86  1  0.64771800  0.00845500  0.00118700  1
  C  C87  1  0.17926000  0.21483100  0.94331800  1
  C  C88  1  0.56846100  0.67773000  0.38404300  1
  C  C89  1  0.14771800  0.49154500  0.99881300  1
  C  C90  1  0.82776800  0.53191500  0.82983900  1
  C  C91  1  0.53470600  0.12020000  0.68978700  1
  C  C92  1  0.90783400  0.39911900  0.45809800  1
  C  C93  1  0.32074000  0.78516900  0.44331800  1
  C  C94  1  0.64771800  0.49154500  0.50118700  1
  C  C95  1  0.67926000  0.21483100  0.55668200  1
  C  C96  1  0.35228200  0.99154500  0.99881300  1
  C  C97  1  0.17223200  0.03191500  0.67016100  1
  C  C98  1  0.09216600  0.60088100  0.54190200  1
  C  C99  1  0.06846100  0.82227000  0.61595700  1
  C  C100  1  0.82074000  0.78516900  0.05668200  1
  C  C101  1  0.53470600  0.37980000  0.18978700  1
  C  C102  1  0.32074000  0.71483100  0.94331800  1
  C  C103  1  0.96529400  0.62020000  0.68978700  1
