# generated using pymatgen
data_CuNiC4
_symmetry_space_group_name_H-M   'P 1'
_cell_length_a   3.92603000
_cell_length_b   3.92603000
_cell_length_c   27.93683500
_cell_angle_alpha   90.00000000
_cell_angle_beta   90.00000000
_cell_angle_gamma   90.00000000
_symmetry_Int_Tables_number   1
_chemical_formula_structural   CuNiC4
_chemical_formula_sum   'Cu4 Ni4 C16'
_cell_volume   430.61031661
_cell_formula_units_Z   4
loop_
 _symmetry_equiv_pos_site_id
 _symmetry_equiv_pos_as_xyz
  1  'x, y, z'
loop_
 _atom_site_type_symbol
 _atom_site_label
 _atom_site_symmetry_multiplicity
 _atom_site_fract_x
 _atom_site_fract_y
 _atom_site_fract_z
 _atom_site_occupancy
  C  C0  1  0.00000000  0.50000000  0.71112500  1
  C  C1  1  0.50000000  0.00000000  0.28887500  1
  C  C2  1  0.50000000  0.00000000  0.95566200  1
  C  C3  1  0.00000000  0.50000000  0.04433800  1
  Ni  Ni4  1  0.50000000  0.00000000  0.79282800  1
  Ni  Ni5  1  0.00000000  0.50000000  0.38059500  1
  Ni  Ni6  1  0.00000000  0.50000000  0.20717200  1
  Ni  Ni7  1  0.50000000  0.00000000  0.61940500  1
  Cu  Cu8  1  0.50000000  0.00000000  0.44410400  1
  Cu  Cu9  1  0.00000000  0.50000000  0.55589600  1
  Cu  Cu10  1  0.50000000  0.00000000  0.10386700  1
  Cu  Cu11  1  0.00000000  0.50000000  0.89613300  1
  C  C12  1  0.50000000  0.00000000  0.72143700  1
  C  C13  1  0.00000000  0.50000000  0.27856300  1
  C  C14  1  0.00000000  0.00000000  0.77524700  1
  C  C15  1  0.50000000  0.50000000  0.34711000  1
  C  C16  1  0.00000000  0.00000000  0.34711000  1
  C  C17  1  0.50000000  0.50000000  0.22475300  1
  C  C18  1  0.00000000  0.00000000  0.65289000  1
  C  C19  1  0.00000000  0.00000000  0.22475300  1
  C  C20  1  0.50000000  0.50000000  0.00000000  1
  C  C21  1  0.50000000  0.50000000  0.77524700  1
  C  C22  1  0.50000000  0.50000000  0.65289000  1
  C  C23  1  0.00000000  0.00000000  0.00000000  1
