# generated using pymatgen
data_CuNiC3
_symmetry_space_group_name_H-M   'P 1'
_cell_length_a   5.97786825
_cell_length_b   5.97786825
_cell_length_c   12.74500667
_cell_angle_alpha   89.29676796
_cell_angle_beta   89.29676796
_cell_angle_gamma   118.34307869
_symmetry_Int_Tables_number   1
_chemical_formula_structural   CuNiC3
_chemical_formula_sum   'Cu6 Ni6 C18'
_cell_volume   400.72862904
_cell_formula_units_Z   6
loop_
 _symmetry_equiv_pos_site_id
 _symmetry_equiv_pos_as_xyz
  1  'x, y, z'
loop_
 _atom_site_type_symbol
 _atom_site_label
 _atom_site_symmetry_multiplicity
 _atom_site_fract_x
 _atom_site_fract_y
 _atom_site_fract_z
 _atom_site_occupancy
  Ni  Ni0  1  0.94752600  0.94752600  0.25658600  1
  Ni  Ni1  1  0.82078700  0.17921300  0.50000000  1
  Ni  Ni2  1  0.17921300  0.82078700  0.50000000  1
  Ni  Ni3  1  0.16606000  0.83394000  0.00000000  1
  Ni  Ni4  1  0.83394000  0.16606000  0.00000000  1
  Ni  Ni5  1  0.05247400  0.05247400  0.74341400  1
  Cu  Cu6  1  0.81289200  0.44710300  0.31800900  1
  Cu  Cu7  1  0.18710800  0.55289700  0.68199100  1
  Cu  Cu8  1  0.44710300  0.81289200  0.31800900  1
  Cu  Cu9  1  0.59495600  0.59495600  0.08111800  1
  Cu  Cu10  1  0.55289700  0.18710800  0.68199100  1
  Cu  Cu11  1  0.40504400  0.40504400  0.91888200  1
  C  C12  1  0.48887900  0.81382200  0.81249800  1
  C  C13  1  0.81382200  0.48887900  0.81249800  1
  C  C14  1  0.51112100  0.18617800  0.18750200  1
  C  C15  1  0.39176600  0.39176600  0.41135200  1
  C  C16  1  0.60823400  0.60823400  0.58864800  1
  C  C17  1  0.18617800  0.51112100  0.18750200  1
  C  C18  1  0.45528400  0.13737100  0.34314200  1
  C  C19  1  0.74871900  0.74871900  0.89125100  1
  C  C20  1  0.50322600  0.14741400  0.85096500  1
  C  C21  1  0.25128100  0.25128100  0.10874900  1
  C  C22  1  0.13737100  0.45528400  0.34314200  1
  C  C23  1  0.54471600  0.86262900  0.65685800  1
  C  C24  1  0.85258600  0.49677400  0.14903500  1
  C  C25  1  0.14741400  0.50322600  0.85096500  1
  C  C26  1  0.71937200  0.71937200  0.43311200  1
  C  C27  1  0.28062800  0.28062800  0.56688800  1
  C  C28  1  0.49677400  0.85258600  0.14903500  1
  C  C29  1  0.86262900  0.54471600  0.65685800  1
