# generated using pymatgen
data_Cu14Ni8C5
_symmetry_space_group_name_H-M   'P 1'
_cell_length_a   7.40416300
_cell_length_b   13.91088800
_cell_length_c   15.69825830
_cell_angle_alpha   75.70754912
_cell_angle_beta   90.00000000
_cell_angle_gamma   90.00000000
_symmetry_Int_Tables_number   1
_chemical_formula_structural   Cu14Ni8C5
_chemical_formula_sum   'Cu28 Ni16 C10'
_cell_volume   1566.85102107
_cell_formula_units_Z   2
loop_
 _symmetry_equiv_pos_site_id
 _symmetry_equiv_pos_as_xyz
  1  'x, y, z'
loop_
 _atom_site_type_symbol
 _atom_site_label
 _atom_site_symmetry_multiplicity
 _atom_site_fract_x
 _atom_site_fract_y
 _atom_site_fract_z
 _atom_site_occupancy
  C  C0  1  0.00000000  0.00000000  0.00000000  1
  C  C1  1  0.50000000  0.00000000  0.50000000  1
  C  C2  1  0.30844500  0.55359800  0.90203200  1
  C  C3  1  0.80844500  0.44640200  0.59796800  1
  C  C4  1  0.69155500  0.44640200  0.09796800  1
  C  C5  1  0.19155500  0.55359800  0.40203200  1
  Ni  Ni6  1  0.61605000  0.15361400  0.78510500  1
  Ni  Ni7  1  0.38395000  0.84638600  0.21489500  1
  Ni  Ni8  1  0.49315300  0.25892600  0.86517800  1
  Ni  Ni9  1  0.25325200  0.29123200  0.26922300  1
  Ni  Ni10  1  0.24674800  0.29123200  0.76922300  1
  Ni  Ni11  1  0.50684700  0.74107400  0.13482200  1
  Ni  Ni12  1  0.75325200  0.70876800  0.23077700  1
  Ni  Ni13  1  0.86808900  0.81658100  0.81008600  1
  Ni  Ni14  1  0.74674800  0.70876800  0.73077700  1
  Ni  Ni15  1  0.63191100  0.81658100  0.31008600  1
  Ni  Ni16  1  0.36808900  0.18341900  0.68991400  1
  Ni  Ni17  1  0.99315300  0.74107400  0.63482200  1
  Ni  Ni18  1  0.13191100  0.18341900  0.18991400  1
  Ni  Ni19  1  0.11605000  0.84638600  0.71489500  1
  Ni  Ni20  1  0.00684700  0.25892600  0.36517800  1
  Ni  Ni21  1  0.88395000  0.15361400  0.28510500  1
  Cu  Cu22  1  0.88932500  0.45308100  0.74131700  1
  Cu  Cu23  1  0.34010800  0.53195400  0.06040400  1
  Cu  Cu24  1  0.77643300  0.62048200  0.06806500  1
  Cu  Cu25  1  0.27643300  0.37951800  0.43193500  1
  Cu  Cu26  1  0.37926700  0.97573400  0.35732200  1
  Cu  Cu27  1  0.22356700  0.37951800  0.93193500  1
  Cu  Cu28  1  0.11432600  0.83011800  0.07900400  1
  Cu  Cu29  1  0.97198000  0.29069200  0.62190400  1
  Cu  Cu30  1  0.71249100  0.92661500  0.96999500  1
  Cu  Cu31  1  0.38567400  0.83011800  0.57900400  1
  Cu  Cu32  1  0.84010800  0.46804600  0.43959600  1
  Cu  Cu33  1  0.88567400  0.16988200  0.92099600  1
  Cu  Cu34  1  0.28750900  0.07338500  0.03000500  1
  Cu  Cu35  1  0.72356700  0.62048200  0.56806500  1
  Cu  Cu36  1  0.12073300  0.97573400  0.85732200  1
  Cu  Cu37  1  0.61432600  0.16988200  0.42099600  1
  Cu  Cu38  1  0.62073300  0.02426600  0.64267800  1
  Cu  Cu39  1  0.87926700  0.02426600  0.14267800  1
  Cu  Cu40  1  0.78750900  0.92661500  0.46999500  1
  Cu  Cu41  1  0.02802000  0.70930800  0.37809600  1
  Cu  Cu42  1  0.61067500  0.45308100  0.24131700  1
  Cu  Cu43  1  0.21249100  0.07338500  0.53000500  1
  Cu  Cu44  1  0.47198000  0.70930800  0.87809600  1
  Cu  Cu45  1  0.11067500  0.54691900  0.25868300  1
  Cu  Cu46  1  0.15989200  0.53195400  0.56040400  1
  Cu  Cu47  1  0.38932500  0.54691900  0.75868300  1
  Cu  Cu48  1  0.52802000  0.29069200  0.12190400  1
  Cu  Cu49  1  0.65989200  0.46804600  0.93959600  1
  C  C50  1  0.90290200  0.39822700  0.11106800  1
  C  C51  1  0.40290200  0.60177300  0.38893200  1
  C  C52  1  0.09709800  0.60177300  0.88893200  1
  C  C53  1  0.59709800  0.39822700  0.61106800  1
