# generated using pymatgen
data_Cu3NiC2
_symmetry_space_group_name_H-M   'P 1'
_cell_length_a   10.31308400
_cell_length_b   10.31308400
_cell_length_c   8.04286500
_cell_angle_alpha   90.00000000
_cell_angle_beta   90.00000000
_cell_angle_gamma   90.00000000
_symmetry_Int_Tables_number   1
_chemical_formula_structural   Cu3NiC2
_chemical_formula_sum   'Cu24 Ni8 C16'
_cell_volume   855.43672134
_cell_formula_units_Z   8
loop_
 _symmetry_equiv_pos_site_id
 _symmetry_equiv_pos_as_xyz
  1  'x, y, z'
loop_
 _atom_site_type_symbol
 _atom_site_label
 _atom_site_symmetry_multiplicity
 _atom_site_fract_x
 _atom_site_fract_y
 _atom_site_fract_z
 _atom_site_occupancy
  C  C0  1  0.50000000  0.50000000  0.50000000  1
  C  C1  1  0.00000000  0.00000000  0.00000000  1
  C  C2  1  0.50000000  0.50000000  0.00000000  1
  C  C3  1  0.00000000  0.00000000  0.50000000  1
  C  C4  1  0.75000000  0.25000000  0.25000000  1
  C  C5  1  0.25000000  0.75000000  0.25000000  1
  C  C6  1  0.25000000  0.25000000  0.75000000  1
  C  C7  1  0.75000000  0.75000000  0.75000000  1
  C  C8  1  0.65662900  0.86689700  0.20969500  1
  C  C9  1  0.13310300  0.65662900  0.79030500  1
  C  C10  1  0.84337100  0.63310300  0.29030500  1
  C  C11  1  0.36689700  0.84337100  0.70969500  1
  C  C12  1  0.86689700  0.34337100  0.79030500  1
  C  C13  1  0.63310300  0.15662900  0.70969500  1
  C  C14  1  0.34337100  0.13310300  0.20969500  1
  C  C15  1  0.15662900  0.36689700  0.29030500  1
  Ni  Ni16  1  0.25378600  0.72154200  0.59851500  1
  Ni  Ni17  1  0.24621400  0.77845800  0.90148500  1
  Ni  Ni18  1  0.27845800  0.25378600  0.40148500  1
  Ni  Ni19  1  0.77845800  0.75378600  0.09851500  1
  Ni  Ni20  1  0.75378600  0.22154200  0.90148500  1
  Ni  Ni21  1  0.22154200  0.24621400  0.09851500  1
  Ni  Ni22  1  0.74621400  0.27845800  0.59851500  1
  Ni  Ni23  1  0.72154200  0.74621400  0.40148500  1
  Cu  Cu24  1  0.51379500  0.73899600  0.14673100  1
  Cu  Cu25  1  0.99454000  0.18456000  0.76327000  1
  Cu  Cu26  1  0.98620500  0.76100400  0.35326900  1
  Cu  Cu27  1  0.18456000  0.00546000  0.23673000  1
  Cu  Cu28  1  0.76100400  0.01379500  0.64673100  1
  Cu  Cu29  1  0.48620500  0.26100400  0.14673100  1
  Cu  Cu30  1  0.31544000  0.49454000  0.26327000  1
  Cu  Cu31  1  0.50546000  0.31544000  0.73673000  1
  Cu  Cu32  1  0.06162500  0.64002700  0.02624300  1
  Cu  Cu33  1  0.00546000  0.81544000  0.76327000  1
  Cu  Cu34  1  0.93837500  0.35997300  0.02624300  1
  Cu  Cu35  1  0.64002700  0.93837500  0.97375700  1
  Cu  Cu36  1  0.56162500  0.14002700  0.47375700  1
  Cu  Cu37  1  0.14002700  0.43837500  0.52624300  1
  Cu  Cu38  1  0.85997300  0.56162500  0.52624300  1
  Cu  Cu39  1  0.23899600  0.98620500  0.64673100  1
  Cu  Cu40  1  0.43837500  0.85997300  0.47375700  1
  Cu  Cu41  1  0.35997300  0.06162500  0.97375700  1
  Cu  Cu42  1  0.68456000  0.50546000  0.26327000  1
  Cu  Cu43  1  0.26100400  0.51379500  0.85326900  1
  Cu  Cu44  1  0.73899600  0.48620500  0.85326900  1
  Cu  Cu45  1  0.01379500  0.23899600  0.35326900  1
  Cu  Cu46  1  0.81544000  0.99454000  0.23673000  1
  Cu  Cu47  1  0.49454000  0.68456000  0.73673000  1
