# generated using pymatgen
data_Cu4Ni2C
_symmetry_space_group_name_H-M   'P 1'
_cell_length_a   6.53195600
_cell_length_b   7.66581400
_cell_length_c   13.46607900
_cell_angle_alpha   90.00000000
_cell_angle_beta   90.00000000
_cell_angle_gamma   90.00000000
_symmetry_Int_Tables_number   1
_chemical_formula_structural   Cu4Ni2C
_chemical_formula_sum   'Cu32 Ni16 C8'
_cell_volume   674.28373857
_cell_formula_units_Z   8
loop_
 _symmetry_equiv_pos_site_id
 _symmetry_equiv_pos_as_xyz
  1  'x, y, z'
loop_
 _atom_site_type_symbol
 _atom_site_label
 _atom_site_symmetry_multiplicity
 _atom_site_fract_x
 _atom_site_fract_y
 _atom_site_fract_z
 _atom_site_occupancy
  C  C0  1  0.97237700  0.75000000  0.81812400  1
  C  C1  1  0.02762300  0.25000000  0.18187600  1
  C  C2  1  0.52762300  0.25000000  0.31812400  1
  C  C3  1  0.47237700  0.75000000  0.68187600  1
  C  C4  1  0.09659700  0.25000000  0.54201600  1
  C  C5  1  0.40340300  0.75000000  0.04201600  1
  C  C6  1  0.90340200  0.75000000  0.45798400  1
  C  C7  1  0.59659800  0.25000000  0.95798400  1
  Ni  Ni8  1  0.41925700  0.25000000  0.10541600  1
  Ni  Ni9  1  0.14578200  0.64868700  0.14385100  1
  Ni  Ni10  1  0.64578200  0.85131300  0.35614900  1
  Ni  Ni11  1  0.85421800  0.35131300  0.85614900  1
  Ni  Ni12  1  0.85421800  0.14868700  0.85614900  1
  Ni  Ni13  1  0.14578200  0.85131300  0.14385100  1
  Ni  Ni14  1  0.73164900  0.75000000  0.98134800  1
  Ni  Ni15  1  0.64578200  0.64868700  0.35614900  1
  Ni  Ni16  1  0.76835100  0.25000000  0.48134800  1
  Ni  Ni17  1  0.58074300  0.75000000  0.89458400  1
  Ni  Ni18  1  0.26835100  0.25000000  0.01865200  1
  Ni  Ni19  1  0.23164900  0.75000000  0.51865200  1
  Ni  Ni20  1  0.91925700  0.25000000  0.39458400  1
  Ni  Ni21  1  0.35421800  0.35131300  0.64385100  1
  Ni  Ni22  1  0.08074300  0.75000000  0.60541600  1
  Ni  Ni23  1  0.35421800  0.14868700  0.64385100  1
  Cu  Cu24  1  0.10716000  0.25000000  0.42971800  1
  Cu  Cu25  1  0.70086700  0.40240600  0.91578800  1
  Cu  Cu26  1  0.91797400  0.75000000  0.97087900  1
  Cu  Cu27  1  0.29913300  0.90240600  0.08421200  1
  Cu  Cu28  1  0.96956400  0.44880200  0.81204800  1
  Cu  Cu29  1  0.53043600  0.94880200  0.31204800  1
  Cu  Cu30  1  0.60716000  0.25000000  0.07028200  1
  Cu  Cu31  1  0.13456200  0.75000000  0.69289300  1
  Cu  Cu32  1  0.63456200  0.75000000  0.80710700  1
  Cu  Cu33  1  0.62699000  0.75000000  0.06501200  1
  Cu  Cu34  1  0.89284000  0.75000000  0.57028200  1
  Cu  Cu35  1  0.46956400  0.05119800  0.68795200  1
  Cu  Cu36  1  0.79913300  0.90240600  0.41578800  1
  Cu  Cu37  1  0.12699000  0.75000000  0.43498800  1
  Cu  Cu38  1  0.08202600  0.25000000  0.02912100  1
  Cu  Cu39  1  0.39284000  0.75000000  0.92971800  1
  Cu  Cu40  1  0.70086700  0.09759400  0.91578800  1
  Cu  Cu41  1  0.03043600  0.94880200  0.18795200  1
  Cu  Cu42  1  0.20086700  0.09759400  0.58421200  1
  Cu  Cu43  1  0.36543800  0.25000000  0.19289300  1
  Cu  Cu44  1  0.03043600  0.55119800  0.18795200  1
  Cu  Cu45  1  0.37301000  0.25000000  0.93498800  1
  Cu  Cu46  1  0.87301000  0.25000000  0.56501200  1
  Cu  Cu47  1  0.29913300  0.59759400  0.08421200  1
  Cu  Cu48  1  0.46956400  0.44880200  0.68795200  1
  Cu  Cu49  1  0.41797400  0.75000000  0.52912100  1
  Cu  Cu50  1  0.53043600  0.55119800  0.31204800  1
  Cu  Cu51  1  0.58202600  0.25000000  0.47087900  1
  Cu  Cu52  1  0.86543800  0.25000000  0.30710700  1
  Cu  Cu53  1  0.20086700  0.40240600  0.58421200  1
  Cu  Cu54  1  0.79913300  0.59759400  0.41578800  1
  Cu  Cu55  1  0.96956400  0.05119800  0.81204800  1
