# generated using pymatgen
data_Cu2NiC
_symmetry_space_group_name_H-M   'P 1'
_cell_length_a   14.19437100
_cell_length_b   5.21061400
_cell_length_c   7.54315608
_cell_angle_alpha   70.95075923
_cell_angle_beta   90.00000000
_cell_angle_gamma   90.00000000
_symmetry_Int_Tables_number   1
_chemical_formula_structural   Cu2NiC
_chemical_formula_sum   'Cu16 Ni8 C8'
_cell_volume   527.35068912
_cell_formula_units_Z   8
loop_
 _symmetry_equiv_pos_site_id
 _symmetry_equiv_pos_as_xyz
  1  'x, y, z'
loop_
 _atom_site_type_symbol
 _atom_site_label
 _atom_site_symmetry_multiplicity
 _atom_site_fract_x
 _atom_site_fract_y
 _atom_site_fract_z
 _atom_site_occupancy
  C  C0  1  0.61321900  0.92412200  0.68901800  1
  C  C1  1  0.92276100  0.31274800  0.80723300  1
  C  C2  1  0.38678100  0.07587800  0.31098200  1
  C  C3  1  0.88678100  0.92412200  0.18901800  1
  C  C4  1  0.42276100  0.68725200  0.69276700  1
  C  C5  1  0.07723900  0.68725200  0.19276700  1
  C  C6  1  0.57723900  0.31274800  0.30723300  1
  C  C7  1  0.11321900  0.07587800  0.81098200  1
  Ni  Ni8  1  0.37737600  0.83925900  0.49965900  1
  Ni  Ni9  1  0.87737600  0.16074100  0.00034100  1
  Ni  Ni10  1  0.97675400  0.74682900  0.25114400  1
  Ni  Ni11  1  0.12262400  0.83925900  0.99965900  1
  Ni  Ni12  1  0.62262400  0.16074100  0.50034100  1
  Ni  Ni13  1  0.02324600  0.25317100  0.74885600  1
  Ni  Ni14  1  0.52324600  0.74682900  0.75114400  1
  Ni  Ni15  1  0.47675400  0.25317100  0.24885600  1
  Cu  Cu16  1  0.41761100  0.37602700  0.72061500  1
  Cu  Cu17  1  0.08238900  0.37602700  0.22061500  1
  Cu  Cu18  1  0.30157600  0.27148100  0.29485000  1
  Cu  Cu19  1  0.80157600  0.72851900  0.20515000  1
  Cu  Cu20  1  0.14727300  0.69627100  0.34973800  1
  Cu  Cu21  1  0.19842400  0.27148100  0.79485000  1
  Cu  Cu22  1  0.58238900  0.62397300  0.27938500  1
  Cu  Cu23  1  0.63891100  0.03891600  0.84940700  1
  Cu  Cu24  1  0.36108900  0.96108400  0.15059300  1
  Cu  Cu25  1  0.64727300  0.30372900  0.15026200  1
  Cu  Cu26  1  0.69842400  0.72851900  0.70515000  1
  Cu  Cu27  1  0.86108900  0.03891600  0.34940700  1
  Cu  Cu28  1  0.13891100  0.96108400  0.65059300  1
  Cu  Cu29  1  0.35272700  0.69627100  0.84973800  1
  Cu  Cu30  1  0.85272700  0.30372900  0.65026200  1
  Cu  Cu31  1  0.91761100  0.62397300  0.77938500  1
