# generated using pymatgen
data_Cu5NiC19
_symmetry_space_group_name_H-M   'P 1'
_cell_length_a   6.48690122
_cell_length_b   9.50995502
_cell_length_c   10.76093729
_cell_angle_alpha   64.45628926
_cell_angle_beta   89.11190287
_cell_angle_gamma   70.23980957
_symmetry_Int_Tables_number   1
_chemical_formula_structural   Cu5NiC19
_chemical_formula_sum   'Cu10 Ni2 C38'
_cell_volume   557.01391730
_cell_formula_units_Z   2
loop_
 _symmetry_equiv_pos_site_id
 _symmetry_equiv_pos_as_xyz
  1  'x, y, z'
loop_
 _atom_site_type_symbol
 _atom_site_label
 _atom_site_symmetry_multiplicity
 _atom_site_fract_x
 _atom_site_fract_y
 _atom_site_fract_z
 _atom_site_occupancy
  Ni  Ni0  1  0.74989500  0.23613000  0.06068300  1
  Ni  Ni1  1  0.25010500  0.76387000  0.93931700  1
  Cu  Cu2  1  0.87283700  0.13944600  0.37294400  1
  Cu  Cu3  1  0.75351200  0.44679100  0.48349900  1
  Cu  Cu4  1  0.09298800  0.36283600  0.14277400  1
  Cu  Cu5  1  0.26387400  0.26007000  0.46063100  1
  Cu  Cu6  1  0.25143700  0.05448700  0.02425300  1
  Cu  Cu7  1  0.24648800  0.55320900  0.51650100  1
  Cu  Cu8  1  0.73612600  0.73993000  0.53936900  1
  Cu  Cu9  1  0.90701200  0.63716400  0.85722600  1
  Cu  Cu10  1  0.12716300  0.86055400  0.62705600  1
  Cu  Cu11  1  0.74856300  0.94551300  0.97574700  1
  C  C12  1  0.90883200  0.84302800  0.29855500  1
  C  C13  1  0.54971000  0.91299700  0.72478900  1
  C  C14  1  0.45029000  0.08700300  0.27521100  1
  C  C15  1  0.72590000  0.61291000  0.14920400  1
  C  C16  1  0.78038400  0.11042300  0.64637400  1
  C  C17  1  0.38338700  0.21540200  0.72814700  1
  C  C18  1  0.61661300  0.78459800  0.27185300  1
  C  C19  1  0.49580200  0.40823000  0.25089600  1
  C  C20  1  0.21961600  0.88957700  0.35362600  1
  C  C21  1  0.50419800  0.59177000  0.74910400  1
  C  C22  1  0.33531800  0.71807500  0.23945200  1
  C  C23  1  0.09116800  0.15697200  0.70144500  1
  C  C24  1  0.66468200  0.28192500  0.76054800  1
  C  C25  1  0.95854400  0.34329200  0.78577500  1
  C  C26  1  0.04145600  0.65670800  0.21422500  1
  C  C27  1  0.27410000  0.38709000  0.85079600  1
  C  C28  1  0.48123900  0.23113600  0.86188300  1
  C  C29  1  0.07372600  0.84713700  0.17800900  1
  C  C30  1  0.47222900  0.24167800  0.27903500  1
  C  C31  1  0.02011500  0.85061000  0.42674100  1
  C  C32  1  0.35791300  0.04061700  0.75440100  1
  C  C33  1  0.12264200  0.34247000  0.66676400  1
  C  C34  1  0.64208700  0.95938300  0.24559900  1
  C  C35  1  0.87735800  0.65753000  0.33323600  1
  C  C36  1  0.52777100  0.75832200  0.72096500  1
  C  C37  1  0.22032000  0.07017800  0.28719200  1
  C  C38  1  0.93259700  0.64523000  0.08584900  1
  C  C39  1  0.77968000  0.92982200  0.71280800  1
  C  C40  1  0.51876100  0.76886400  0.13811700  1
  C  C41  1  0.56384100  0.26578100  0.62589400  1
  C  C42  1  0.71256400  0.43659800  0.20707200  1
  C  C43  1  0.28743600  0.56340200  0.79292800  1
  C  C44  1  0.30539800  0.54097900  0.27555800  1
  C  C45  1  0.92627400  0.15286300  0.82199100  1
  C  C46  1  0.69460200  0.45902100  0.72444200  1
  C  C47  1  0.06740300  0.35477000  0.91415100  1
  C  C48  1  0.43615900  0.73421900  0.37410600  1
  C  C49  1  0.97988500  0.14939000  0.57325900  1
