# generated using pymatgen
data_Cu7(NiC2)2
_symmetry_space_group_name_H-M   'P 1'
_cell_length_a   7.97808438
_cell_length_b   7.97808438
_cell_length_c   6.92091165
_cell_angle_alpha   66.83059940
_cell_angle_beta   66.83059940
_cell_angle_gamma   28.56964495
_symmetry_Int_Tables_number   1
_chemical_formula_structural   Cu7(NiC2)2
_chemical_formula_sum   'Cu7 Ni2 C4'
_cell_volume   192.52153802
_cell_formula_units_Z   1
loop_
 _symmetry_equiv_pos_site_id
 _symmetry_equiv_pos_as_xyz
  1  'x, y, z'
loop_
 _atom_site_type_symbol
 _atom_site_label
 _atom_site_symmetry_multiplicity
 _atom_site_fract_x
 _atom_site_fract_y
 _atom_site_fract_z
 _atom_site_occupancy
  C  C0  1  0.30666200  0.30666200  0.16318300  1
  C  C1  1  0.69333800  0.69333800  0.83681700  1
  C  C2  1  0.96504700  0.96504700  0.80029900  1
  C  C3  1  0.03495300  0.03495300  0.19970100  1
  Ni  Ni4  1  0.68005600  0.68005600  0.43434000  1
  Ni  Ni5  1  0.31994400  0.31994400  0.56566000  1
  Cu  Cu6  1  0.45325200  0.45325200  0.83993600  1
  Cu  Cu7  1  0.54674800  0.54674800  0.16006400  1
  Cu  Cu8  1  0.91786600  0.91786600  0.15437700  1
  Cu  Cu9  1  0.00000000  0.00000000  0.50000000  1
  Cu  Cu10  1  0.82367900  0.82367900  0.93305600  1
  Cu  Cu11  1  0.08213400  0.08213400  0.84562300  1
  Cu  Cu12  1  0.17632100  0.17632100  0.06694400  1
