# generated using pymatgen
data_Cu8Ni8C13
_symmetry_space_group_name_H-M   'P 1'
_cell_length_a   7.80796700
_cell_length_b   7.00678100
_cell_length_c   10.62306238
_cell_angle_alpha   73.36199170
_cell_angle_beta   90.00000000
_cell_angle_gamma   90.00000000
_symmetry_Int_Tables_number   1
_chemical_formula_structural   Cu8Ni8C13
_chemical_formula_sum   'Cu16 Ni16 C26'
_cell_volume   556.84198564
_cell_formula_units_Z   2
loop_
 _symmetry_equiv_pos_site_id
 _symmetry_equiv_pos_as_xyz
  1  'x, y, z'
loop_
 _atom_site_type_symbol
 _atom_site_label
 _atom_site_symmetry_multiplicity
 _atom_site_fract_x
 _atom_site_fract_y
 _atom_site_fract_z
 _atom_site_occupancy
  C  C0  1  0.00000000  0.00000000  0.00000000  1
  C  C1  1  0.50000000  0.00000000  0.50000000  1
  C  C2  1  0.65830400  0.32994000  0.71825400  1
  C  C3  1  0.23152200  0.45595500  0.48090900  1
  C  C4  1  0.03554500  0.56344400  0.68011800  1
  C  C5  1  0.34169600  0.67006000  0.28174600  1
  C  C6  1  0.53554500  0.43655600  0.81988200  1
  C  C7  1  0.84169600  0.32994000  0.21825400  1
  C  C8  1  0.21191700  0.11042500  0.58698400  1
  C  C9  1  0.73152200  0.54404500  0.01909100  1
  C  C10  1  0.28808300  0.11042500  0.08698400  1
  C  C11  1  0.15830400  0.67006000  0.78174600  1
  C  C12  1  0.26847800  0.45595500  0.98090900  1
  C  C13  1  0.46445500  0.56344400  0.18011800  1
  C  C14  1  0.88342200  0.81936800  0.84235400  1
  C  C15  1  0.61657800  0.81936800  0.34235400  1
  C  C16  1  0.96445500  0.43655600  0.31988200  1
  C  C17  1  0.11657800  0.18063200  0.15764600  1
  C  C18  1  0.76847800  0.54404500  0.51909100  1
  C  C19  1  0.38342200  0.18063200  0.65764600  1
  C  C20  1  0.71191700  0.88957500  0.91301600  1
  C  C21  1  0.78808300  0.88957500  0.41301600  1
  C  C22  1  0.42211700  0.38075000  0.36480200  1
  C  C23  1  0.92211700  0.61925000  0.13519800  1
  C  C24  1  0.07788300  0.38075000  0.86480200  1
  C  C25  1  0.57788300  0.61925000  0.63519800  1
  Ni  Ni26  1  0.11431200  0.85428700  0.39276100  1
  Ni  Ni27  1  0.82911700  0.64087800  0.02393500  1
  Ni  Ni28  1  0.33514500  0.16948600  0.56972800  1
  Ni  Ni29  1  0.16485500  0.16948600  0.06972800  1
  Ni  Ni30  1  0.83514500  0.83051400  0.93027200  1
  Ni  Ni31  1  0.41066400  0.55256300  0.26901700  1
  Ni  Ni32  1  0.08933600  0.55256300  0.76901700  1
  Ni  Ni33  1  0.17088300  0.35912200  0.97606500  1
  Ni  Ni34  1  0.38568800  0.85428700  0.89276100  1
  Ni  Ni35  1  0.61431200  0.14571300  0.10723900  1
  Ni  Ni36  1  0.32911700  0.35912200  0.47606500  1
  Ni  Ni37  1  0.88568800  0.14571300  0.60723900  1
  Ni  Ni38  1  0.66485500  0.83051400  0.43027200  1
  Ni  Ni39  1  0.58933600  0.44743700  0.73098300  1
  Ni  Ni40  1  0.67088300  0.64087800  0.52393500  1
  Ni  Ni41  1  0.91066400  0.44743700  0.23098300  1
  Cu  Cu42  1  0.77002000  0.11908300  0.14312900  1
  Cu  Cu43  1  0.22998000  0.88091700  0.85687100  1
  Cu  Cu44  1  0.98892200  0.00105000  0.63674400  1
  Cu  Cu45  1  0.01107800  0.99895000  0.36325600  1
  Cu  Cu46  1  0.02081200  0.75942500  0.14642500  1
  Cu  Cu47  1  0.97918800  0.24057500  0.85357500  1
  Cu  Cu48  1  0.43691000  0.68158400  0.95717100  1
  Cu  Cu49  1  0.93691000  0.31841600  0.54282900  1
  Cu  Cu50  1  0.27002000  0.88091700  0.35687100  1
  Cu  Cu51  1  0.56309000  0.31841600  0.04282900  1
  Cu  Cu52  1  0.72998000  0.11908300  0.64312900  1
  Cu  Cu53  1  0.48892200  0.99895000  0.86325600  1
  Cu  Cu54  1  0.51107800  0.00105000  0.13674400  1
  Cu  Cu55  1  0.47918800  0.75942500  0.64642500  1
  Cu  Cu56  1  0.06309000  0.68158400  0.45717100  1
  Cu  Cu57  1  0.52081200  0.24057500  0.35357500  1
