# generated using pymatgen
data_Cu12Ni4C3
_symmetry_space_group_name_H-M   'P 1'
_cell_length_a   7.96496400
_cell_length_b   7.23896500
_cell_length_c   9.15966263
_cell_angle_alpha   88.23318728
_cell_angle_beta   90.00000000
_cell_angle_gamma   90.00000000
_symmetry_Int_Tables_number   1
_chemical_formula_structural   Cu12Ni4C3
_chemical_formula_sum   'Cu24 Ni8 C6'
_cell_volume   527.87762412
_cell_formula_units_Z   2
loop_
 _symmetry_equiv_pos_site_id
 _symmetry_equiv_pos_as_xyz
  1  'x, y, z'
loop_
 _atom_site_type_symbol
 _atom_site_label
 _atom_site_symmetry_multiplicity
 _atom_site_fract_x
 _atom_site_fract_y
 _atom_site_fract_z
 _atom_site_occupancy
  C  C0  1  0.06364100  0.22305200  0.38206500  1
  C  C1  1  0.93635900  0.77694800  0.61793500  1
  C  C2  1  0.43635900  0.22305200  0.88206500  1
  C  C3  1  0.56364100  0.77694800  0.11793500  1
  C  C4  1  0.00000000  0.50000000  0.00000000  1
  C  C5  1  0.50000000  0.50000000  0.50000000  1
  Ni  Ni6  1  0.89487500  0.64567400  0.27724600  1
  Ni  Ni7  1  0.60512500  0.64567400  0.77724600  1
  Ni  Ni8  1  0.28707300  0.81724900  0.43564500  1
  Ni  Ni9  1  0.10512500  0.35432600  0.72275400  1
  Ni  Ni10  1  0.78707300  0.18275100  0.06435500  1
  Ni  Ni11  1  0.71292700  0.18275100  0.56435500  1
  Ni  Ni12  1  0.39487500  0.35432600  0.22275400  1
  Ni  Ni13  1  0.21292700  0.81724900  0.93564500  1
  Cu  Cu14  1  0.14737500  0.35304000  0.86288800  1
  Cu  Cu15  1  0.89315300  0.15198900  0.16084500  1
  Cu  Cu16  1  0.01700100  0.55233600  0.32095600  1
  Cu  Cu17  1  0.69503900  0.32240000  0.46961800  1
  Cu  Cu18  1  0.39315300  0.84801100  0.33915500  1
  Cu  Cu19  1  0.34255800  0.91254200  0.95232800  1
  Cu  Cu20  1  0.35262500  0.35304000  0.36288800  1
  Cu  Cu21  1  0.98299900  0.44766400  0.67904400  1
  Cu  Cu22  1  0.69439800  0.74198400  0.85634700  1
  Cu  Cu23  1  0.19503900  0.67760000  0.03038200  1
  Cu  Cu24  1  0.80560200  0.74198400  0.35634700  1
  Cu  Cu25  1  0.10684700  0.84801100  0.83915500  1
  Cu  Cu26  1  0.80496100  0.32240000  0.96961800  1
  Cu  Cu27  1  0.48299900  0.55233600  0.82095600  1
  Cu  Cu28  1  0.64737500  0.64696000  0.63711200  1
  Cu  Cu29  1  0.60684700  0.15198900  0.66084500  1
  Cu  Cu30  1  0.30496100  0.67760000  0.53038200  1
  Cu  Cu31  1  0.85262500  0.64696000  0.13711200  1
  Cu  Cu32  1  0.65744200  0.08745800  0.04767200  1
  Cu  Cu33  1  0.19439800  0.25801600  0.64365300  1
  Cu  Cu34  1  0.51700100  0.44766400  0.17904400  1
  Cu  Cu35  1  0.15744200  0.91254200  0.45232800  1
  Cu  Cu36  1  0.84255800  0.08745800  0.54767200  1
  Cu  Cu37  1  0.30560200  0.25801600  0.14365300  1
