# generated using pymatgen
data_Cu12Ni3C4
_symmetry_space_group_name_H-M   'P 1'
_cell_length_a   8.47281974
_cell_length_b   8.47281974
_cell_length_c   8.47282009
_cell_angle_alpha   107.50055583
_cell_angle_beta   107.50055583
_cell_angle_gamma   107.50055443
_symmetry_Int_Tables_number   1
_chemical_formula_structural   Cu12Ni3C4
_chemical_formula_sum   'Cu24 Ni6 C8'
_cell_volume   499.48026940
_cell_formula_units_Z   2
loop_
 _symmetry_equiv_pos_site_id
 _symmetry_equiv_pos_as_xyz
  1  'x, y, z'
loop_
 _atom_site_type_symbol
 _atom_site_label
 _atom_site_symmetry_multiplicity
 _atom_site_fract_x
 _atom_site_fract_y
 _atom_site_fract_z
 _atom_site_occupancy
  C  C0  1  0.61518300  0.76436300  0.14422700  1
  C  C1  1  0.14422700  0.61518300  0.76436300  1
  C  C2  1  0.76436300  0.14422700  0.61518300  1
  C  C3  1  0.38481700  0.23563700  0.85577300  1
  C  C4  1  0.85577300  0.38481700  0.23563700  1
  C  C5  1  0.23563700  0.85577300  0.38481700  1
  C  C6  1  0.00000000  0.00000000  0.00000000  1
  C  C7  1  0.50000000  0.50000000  0.50000000  1
  Ni  Ni8  1  0.90175200  0.76407800  0.55219800  1
  Ni  Ni9  1  0.55219800  0.90175200  0.76407800  1
  Ni  Ni10  1  0.76407800  0.55219800  0.90175200  1
  Ni  Ni11  1  0.09824800  0.23592200  0.44780200  1
  Ni  Ni12  1  0.44780200  0.09824800  0.23592200  1
  Ni  Ni13  1  0.23592200  0.44780200  0.09824800  1
  Cu  Cu14  1  0.75668100  0.58640500  0.51871700  1
  Cu  Cu15  1  0.51871700  0.75668100  0.58640500  1
  Cu  Cu16  1  0.58640500  0.51871700  0.75668100  1
  Cu  Cu17  1  0.24331900  0.41359500  0.48128300  1
  Cu  Cu18  1  0.48128300  0.24331900  0.41359500  1
  Cu  Cu19  1  0.41359500  0.48128300  0.24331900  1
  Cu  Cu20  1  0.82140800  0.86755000  0.47187100  1
  Cu  Cu21  1  0.47187100  0.82140800  0.86755000  1
  Cu  Cu22  1  0.86755000  0.47187100  0.82140800  1
  Cu  Cu23  1  0.17859200  0.13245000  0.52812900  1
  Cu  Cu24  1  0.52812900  0.17859200  0.13245000  1
  Cu  Cu25  1  0.13245000  0.52812900  0.17859200  1
  Cu  Cu26  1  0.02509200  0.71084200  0.47950200  1
  Cu  Cu27  1  0.47950200  0.02509200  0.71084200  1
  Cu  Cu28  1  0.71084200  0.47950200  0.02509200  1
  Cu  Cu29  1  0.97490800  0.28915800  0.52049800  1
  Cu  Cu30  1  0.52049800  0.97490800  0.28915800  1
  Cu  Cu31  1  0.28915800  0.52049800  0.97490800  1
  Cu  Cu32  1  0.01229500  0.87196600  0.75847300  1
  Cu  Cu33  1  0.75847300  0.01229500  0.87196600  1
  Cu  Cu34  1  0.87196600  0.75847300  0.01229500  1
  Cu  Cu35  1  0.98770500  0.12803400  0.24152700  1
  Cu  Cu36  1  0.24152700  0.98770500  0.12803400  1
  Cu  Cu37  1  0.12803400  0.24152700  0.98770500  1
