# generated using pymatgen
data_Cu24Ni5
_symmetry_space_group_name_H-M   'P 1'
_cell_length_a   8.47380396
_cell_length_b   8.47380396
_cell_length_c   8.47380396
_cell_angle_alpha   109.47122063
_cell_angle_beta   109.47122063
_cell_angle_gamma   109.47122063
_symmetry_Int_Tables_number   1
_chemical_formula_structural   Cu24Ni5
_chemical_formula_sum   'Cu24 Ni5'
_cell_volume   468.39618300
_cell_formula_units_Z   1
loop_
 _symmetry_equiv_pos_site_id
 _symmetry_equiv_pos_as_xyz
  1  'x, y, z'
loop_
 _atom_site_type_symbol
 _atom_site_label
 _atom_site_symmetry_multiplicity
 _atom_site_fract_x
 _atom_site_fract_y
 _atom_site_fract_z
 _atom_site_occupancy
  Ni  Ni0  1  0.00000000  0.00000000  0.00000000  1
  Ni  Ni1  1  0.62951100  0.00000000  0.00000000  1
  Ni  Ni2  1  0.00000000  0.62951100  0.00000000  1
  Ni  Ni3  1  0.00000000  0.00000000  0.62951100  1
  Ni  Ni4  1  0.37048900  0.37048900  0.37048900  1
  Cu  Cu5  1  0.39548700  0.67733700  0.00000000  1
  Cu  Cu6  1  0.71815100  0.32266300  0.32266300  1
  Cu  Cu7  1  0.39548700  0.00000000  0.67733700  1
  Cu  Cu8  1  0.67733700  0.39548700  0.00000000  1
  Cu  Cu9  1  0.00000000  0.39548700  0.67733700  1
  Cu  Cu10  1  0.32266300  0.71815100  0.32266300  1
  Cu  Cu11  1  0.32266300  0.32266300  0.71815100  1
  Cu  Cu12  1  0.00000000  0.67733700  0.39548700  1
  Cu  Cu13  1  0.67733700  0.00000000  0.39548700  1
  Cu  Cu14  1  0.60451300  0.60451300  0.28184900  1
  Cu  Cu15  1  0.28184900  0.60451300  0.60451300  1
  Cu  Cu16  1  0.60451300  0.28184900  0.60451300  1
  Cu  Cu17  1  0.37587000  0.19400300  0.00000000  1
  Cu  Cu18  1  0.18186700  0.80599700  0.80599700  1
  Cu  Cu19  1  0.37587000  0.00000000  0.19400300  1
  Cu  Cu20  1  0.19400300  0.37587000  0.00000000  1
  Cu  Cu21  1  0.00000000  0.37587000  0.19400300  1
  Cu  Cu22  1  0.80599700  0.18186700  0.80599700  1
  Cu  Cu23  1  0.80599700  0.80599700  0.18186700  1
  Cu  Cu24  1  0.00000000  0.19400300  0.37587000  1
  Cu  Cu25  1  0.19400300  0.00000000  0.37587000  1
  Cu  Cu26  1  0.62413000  0.62413000  0.81813300  1
  Cu  Cu27  1  0.81813300  0.62413000  0.62413000  1
  Cu  Cu28  1  0.62413000  0.81813300  0.62413000  1
