# generated using pymatgen
data_Cu12Ni11C31
_symmetry_space_group_name_H-M   'P 1'
_cell_length_a   7.53197439
_cell_length_b   13.30443880
_cell_length_c   13.30443880
_cell_angle_alpha   90.00000000
_cell_angle_beta   90.00000000
_cell_angle_gamma   90.00000000
_symmetry_Int_Tables_number   1
_chemical_formula_structural   Cu12Ni11C31
_chemical_formula_sum   'Cu24 Ni22 C62'
_cell_volume   1333.22041413
_cell_formula_units_Z   2
loop_
 _symmetry_equiv_pos_site_id
 _symmetry_equiv_pos_as_xyz
  1  'x, y, z'
loop_
 _atom_site_type_symbol
 _atom_site_label
 _atom_site_symmetry_multiplicity
 _atom_site_fract_x
 _atom_site_fract_y
 _atom_site_fract_z
 _atom_site_occupancy
  Ni  Ni0  1  0.50000000  0.12095112  0.37904888  1
  Ni  Ni1  1  0.15720445  0.59785827  0.09785827  1
  Ni  Ni2  1  0.84279555  0.40214173  0.90214173  1
  Ni  Ni3  1  0.34977593  0.07670957  0.57670957  1
  Ni  Ni4  1  0.65022407  0.42329043  0.07670957  1
  Ni  Ni5  1  0.50000000  0.87904888  0.62095112  1
  Ni  Ni6  1  0.84279555  0.90214173  0.59785827  1
  Ni  Ni7  1  0.34977593  0.57670957  0.92329043  1
  Ni  Ni8  1  0.50000000  0.00000000  0.00000000  1
  Ni  Ni9  1  0.65022407  0.57670957  0.92329043  1
  Ni  Ni10  1  0.15720445  0.09785827  0.40214173  1
  Ni  Ni11  1  0.65022407  0.07670957  0.57670957  1
  Ni  Ni12  1  0.84279555  0.59785827  0.09785827  1
  Ni  Ni13  1  0.50000000  0.50000000  0.50000000  1
  Ni  Ni14  1  0.65022407  0.92329043  0.42329043  1
  Ni  Ni15  1  0.84279555  0.09785827  0.40214173  1
  Ni  Ni16  1  0.15720445  0.90214173  0.59785827  1
  Ni  Ni17  1  0.34977593  0.42329043  0.07670957  1
  Ni  Ni18  1  0.15720445  0.40214173  0.90214173  1
  Ni  Ni19  1  0.50000000  0.62095112  0.12095112  1
  Ni  Ni20  1  0.34977593  0.92329043  0.42329043  1
  Ni  Ni21  1  0.50000000  0.37904888  0.87904888  1
  Cu  Cu22  1  0.25968385  0.00915990  0.19968478  1
  Cu  Cu23  1  0.25968385  0.69968478  0.50915990  1
  Cu  Cu24  1  0.50000000  0.72179640  0.77820360  1
  Cu  Cu25  1  0.74031615  0.80031522  0.00915990  1
  Cu  Cu26  1  0.74031615  0.00915990  0.19968478  1
  Cu  Cu27  1  0.74031615  0.19968478  0.99084010  1
  Cu  Cu28  1  0.25968385  0.50915990  0.30031522  1
  Cu  Cu29  1  0.25968385  0.30031522  0.49084010  1
  Cu  Cu30  1  0.74031615  0.99084010  0.80031522  1
  Cu  Cu31  1  0.00000000  0.75934089  0.74065911  1
  Cu  Cu32  1  0.00000000  0.25934089  0.75934089  1
  Cu  Cu33  1  0.00000000  0.24065911  0.25934089  1
  Cu  Cu34  1  0.74031615  0.49084010  0.69968478  1
  Cu  Cu35  1  0.50000000  0.77820360  0.27820360  1
  Cu  Cu36  1  0.25968385  0.19968478  0.99084010  1
  Cu  Cu37  1  0.50000000  0.22179640  0.72179640  1
  Cu  Cu38  1  0.25968385  0.49084010  0.69968478  1
  Cu  Cu39  1  0.74031615  0.69968478  0.50915990  1
  Cu  Cu40  1  0.00000000  0.74065911  0.24065911  1
  Cu  Cu41  1  0.74031615  0.30031522  0.49084010  1
  Cu  Cu42  1  0.50000000  0.27820360  0.22179640  1
  Cu  Cu43  1  0.74031615  0.50915990  0.30031522  1
  Cu  Cu44  1  0.25968385  0.99084010  0.80031522  1
  Cu  Cu45  1  0.25968385  0.80031522  0.00915990  1
  C  C46  1  0.00000000  0.91417871  0.41417871  1
  C  C47  1  0.00000000  0.58582129  0.91417871  1
  C  C48  1  0.00000000  0.41417871  0.08582129  1
  C  C49  1  0.00000000  0.00000000  0.00000000  1
  C  C50  1  0.00000000  0.08582129  0.58582129  1
  C  C51  1  0.00000000  0.50000000  0.50000000  1
  C  C52  1  0.00000000  0.12061803  0.10815872  1
  C  C53  1  0.50000000  0.62075057  0.62210640  1
  C  C54  1  0.71231967  0.81654939  0.68345061  1
  C  C55  1  0.50000000  0.18108352  0.51652891  1
  C  C56  1  0.74767157  0.00000000  0.00000000  1
  C  C57  1  0.50000000  0.31891648  0.01652891  1
  C  C58  1  0.28768033  0.81654939  0.68345061  1
  C  C59  1  0.00000000  0.97058340  0.68993652  1
  C  C60  1  0.00000000  0.68993652  0.02941660  1
  C  C61  1  0.00000000  0.60815872  0.62061803  1
  C  C62  1  0.18733214  0.00000000  0.50000000  1
  C  C63  1  0.80285708  0.34110089  0.15889911  1
  C  C64  1  0.18733214  0.50000000  0.00000000  1
  C  C65  1  0.00000000  0.37938197  0.60815872  1
  C  C66  1  0.50000000  0.37789360  0.62075057  1
  C  C67  1  0.19714292  0.65889911  0.84110089  1
  C  C68  1  0.00000000  0.18993652  0.47058340  1
  C  C69  1  0.00000000  0.62061803  0.39184128  1
  C  C70  1  0.50000000  0.81891648  0.48347109  1
  C  C71  1  0.50000000  0.98347109  0.31891648  1
  C  C72  1  0.50000000  0.87924943  0.12210640  1
  C  C73  1  0.50000000  0.48347109  0.18108352  1
  C  C74  1  0.80285708  0.15889911  0.65889911  1
  C  C75  1  0.19714292  0.84110089  0.34110089  1
  C  C76  1  0.28768033  0.18345061  0.31654939  1
  C  C77  1  0.71231967  0.68345061  0.18345061  1
  C  C78  1  0.71231967  0.18345061  0.31654939  1
  C  C79  1  0.28768033  0.31654939  0.81654939  1
  C  C80  1  0.00000000  0.31006348  0.97058340  1
  C  C81  1  0.71231967  0.31654939  0.81654939  1
  C  C82  1  0.50000000  0.12075057  0.87789360  1
  C  C83  1  0.50000000  0.68108352  0.98347109  1
  C  C84  1  0.19714292  0.15889911  0.65889911  1
  C  C85  1  0.74767157  0.50000000  0.50000000  1
  C  C86  1  0.00000000  0.39184128  0.37938197  1
  C  C87  1  0.25232843  0.00000000  0.00000000  1
  C  C88  1  0.00000000  0.52941660  0.18993652  1
  C  C89  1  0.50000000  0.01652891  0.68108352  1
  C  C90  1  0.00000000  0.87938197  0.89184128  1
  C  C91  1  0.50000000  0.12210640  0.12075057  1
  C  C92  1  0.80285708  0.84110089  0.34110089  1
  C  C93  1  0.81266786  0.50000000  0.00000000  1
  C  C94  1  0.00000000  0.02941660  0.31006348  1
  C  C95  1  0.50000000  0.37924943  0.37789360  1
  C  C96  1  0.25232843  0.50000000  0.50000000  1
  C  C97  1  0.19714292  0.34110089  0.15889911  1
  C  C98  1  0.50000000  0.87789360  0.87924943  1
  C  C99  1  0.80285708  0.65889911  0.84110089  1
  C  C100  1  0.00000000  0.81006348  0.52941660  1
  C  C101  1  0.50000000  0.51652891  0.81891648  1
  C  C102  1  0.00000000  0.89184128  0.12061803  1
  C  C103  1  0.50000000  0.62210640  0.37924943  1
  C  C104  1  0.00000000  0.10815872  0.87938197  1
  C  C105  1  0.28768033  0.68345061  0.18345061  1
  C  C106  1  0.00000000  0.47058340  0.81006348  1
  C  C107  1  0.81266786  0.00000000  0.50000000  1
