# generated using pymatgen
data_Cu2Ni3C4
_symmetry_space_group_name_H-M   'P 1'
_cell_length_a   10.33326583
_cell_length_b   10.33326583
_cell_length_c   12.84751275
_cell_angle_alpha   52.15402681
_cell_angle_beta   52.15402681
_cell_angle_gamma   57.83791175
_symmetry_Int_Tables_number   1
_chemical_formula_structural   Cu2Ni3C4
_chemical_formula_sum   'Cu8 Ni12 C16'
_cell_volume   828.25667018
_cell_formula_units_Z   4
loop_
 _symmetry_equiv_pos_site_id
 _symmetry_equiv_pos_as_xyz
  1  'x, y, z'
loop_
 _atom_site_type_symbol
 _atom_site_label
 _atom_site_symmetry_multiplicity
 _atom_site_fract_x
 _atom_site_fract_y
 _atom_site_fract_z
 _atom_site_occupancy
  C  C0  1  0.71745700  0.63614900  0.43704200  1
  C  C1  1  0.18833900  0.08276400  0.97499700  1
  C  C2  1  0.08276400  0.18833900  0.47499700  1
  C  C3  1  0.28254400  0.36385100  0.56295800  1
  C  C4  1  0.63614900  0.71745700  0.93704200  1
  C  C5  1  0.61328600  0.20287400  0.68455100  1
  C  C6  1  0.81232400  0.42199100  0.25468800  1
  C  C7  1  0.38671400  0.79712600  0.31544900  1
  C  C8  1  0.20287400  0.61328600  0.18455100  1
  C  C9  1  0.36385100  0.28254300  0.06295800  1
  C  C10  1  0.91723600  0.81166100  0.52500300  1
  C  C11  1  0.42199100  0.81232400  0.75468800  1
  C  C12  1  0.81166100  0.91723600  0.02500300  1
  C  C13  1  0.18767600  0.57800900  0.74531200  1
  C  C14  1  0.57800900  0.18767600  0.24531200  1
  C  C15  1  0.79712600  0.38671400  0.81544900  1
  Ni  Ni16  1  0.09721800  0.10350900  0.77530000  1
  Ni  Ni17  1  0.52079100  0.47920900  0.75000000  1
  Ni  Ni18  1  0.39006900  0.88742400  0.49154600  1
  Ni  Ni19  1  0.11257600  0.60993100  0.00845400  1
  Ni  Ni20  1  0.47920900  0.52079100  0.25000000  1
  Ni  Ni21  1  0.10350900  0.09721800  0.27530000  1
  Ni  Ni22  1  0.90278200  0.89649100  0.22470000  1
  Ni  Ni23  1  0.60993100  0.11257600  0.50845400  1
  Ni  Ni24  1  0.00000000  0.50000000  0.50000000  1
  Ni  Ni25  1  0.89649100  0.90278200  0.72470000  1
  Ni  Ni26  1  0.88742400  0.39006900  0.99154600  1
  Ni  Ni27  1  0.50000000  0.00000000  0.00000000  1
  Cu  Cu28  1  0.30215800  0.31524900  0.25565600  1
  Cu  Cu29  1  0.31524900  0.30215800  0.75565600  1
  Cu  Cu30  1  0.64560000  0.18553800  0.03713600  1
  Cu  Cu31  1  0.68475100  0.69784200  0.24434400  1
  Cu  Cu32  1  0.69784200  0.68475100  0.74434400  1
  Cu  Cu33  1  0.35440000  0.81446200  0.96286400  1
  Cu  Cu34  1  0.81446200  0.35440000  0.46286400  1
  Cu  Cu35  1  0.18553800  0.64560000  0.53713600  1
