# generated using pymatgen
data_Cu(NiC2)2
_symmetry_space_group_name_H-M   'P 1'
_cell_length_a   19.21543114
_cell_length_b   19.21543114
_cell_length_c   19.21543068
_cell_angle_alpha   17.20443146
_cell_angle_beta   17.20443146
_cell_angle_gamma   17.20443247
_symmetry_Int_Tables_number   1
_chemical_formula_structural   Cu(NiC2)2
_chemical_formula_sum   'Cu8 Ni16 C32'
_cell_volume   541.59519318
_cell_formula_units_Z   8
loop_
 _symmetry_equiv_pos_site_id
 _symmetry_equiv_pos_as_xyz
  1  'x, y, z'
loop_
 _atom_site_type_symbol
 _atom_site_label
 _atom_site_symmetry_multiplicity
 _atom_site_fract_x
 _atom_site_fract_y
 _atom_site_fract_z
 _atom_site_occupancy
  Ni  Ni0  1  0.13023100  0.62226300  0.62226300  1
  Ni  Ni1  1  0.62226300  0.13023100  0.62226300  1
  Ni  Ni2  1  0.87228200  0.87228200  0.38000600  1
  Ni  Ni3  1  0.38000600  0.87228200  0.87228200  1
  Ni  Ni4  1  0.62226300  0.62226300  0.13023100  1
  Ni  Ni5  1  0.87228200  0.38000600  0.87228200  1
  Ni  Ni6  1  0.12377300  0.12377300  0.62669700  1
  Ni  Ni7  1  0.62669700  0.12377300  0.12377300  1
  Ni  Ni8  1  0.09446100  0.09446100  0.09446100  1
  Ni  Ni9  1  0.12377300  0.62669700  0.12377300  1
  Ni  Ni10  1  0.25014700  0.25014700  0.25014700  1
  Ni  Ni11  1  0.34474900  0.34474900  0.34474900  1
  Ni  Ni12  1  0.37401100  0.87746300  0.37401100  1
  Ni  Ni13  1  0.87746300  0.37401100  0.37401100  1
  Ni  Ni14  1  0.37401100  0.37401100  0.87746300  1
  Ni  Ni15  1  0.84387400  0.84387400  0.84387400  1
  Cu  Cu16  1  0.15660000  0.15660000  0.15660000  1
  Cu  Cu17  1  0.49936000  0.49936000  0.49936000  1
  Cu  Cu18  1  0.40606900  0.40606900  0.40606900  1
  Cu  Cu19  1  0.74912400  0.74912400  0.74912400  1
  Cu  Cu20  1  0.65567000  0.65567000  0.65567000  1
  Cu  Cu21  1  0.99884700  0.99884700  0.99884700  1
  Cu  Cu22  1  0.90652100  0.90652100  0.90652100  1
  Cu  Cu23  1  0.59393800  0.59393800  0.59393800  1
  C  C24  1  0.32384500  0.78188900  0.32384500  1
  C  C25  1  0.44075200  0.44075200  0.44075200  1
  C  C26  1  0.78188900  0.32384500  0.32384500  1
  C  C27  1  0.32384500  0.32384500  0.78188900  1
  C  C28  1  0.57407800  0.03125700  0.57407800  1
  C  C29  1  0.93486200  0.93486200  0.44939100  1
  C  C30  1  0.44939100  0.93486200  0.93486200  1
  C  C31  1  0.03125700  0.57407800  0.57407800  1
  C  C32  1  0.69057800  0.69057800  0.69057800  1
  C  C33  1  0.81055400  0.81055400  0.81055400  1
  C  C34  1  0.57407800  0.57407800  0.03125700  1
  C  C35  1  0.93486200  0.44939100  0.93486200  1
  C  C36  1  0.82311400  0.28258200  0.82311400  1
  C  C37  1  0.18427100  0.18427100  0.70124600  1
  C  C38  1  0.70124600  0.18427100  0.18427100  1
  C  C39  1  0.28258200  0.82311400  0.82311400  1
  C  C40  1  0.06122100  0.06122100  0.06122100  1
  C  C41  1  0.94094000  0.94094000  0.94094000  1
  C  C42  1  0.82311400  0.82311400  0.28258200  1
  C  C43  1  0.18427100  0.70124600  0.18427100  1
  C  C44  1  0.08169000  0.52129800  0.08169000  1
  C  C45  1  0.41785500  0.41785500  0.98205800  1
  C  C46  1  0.19126800  0.19126800  0.19126800  1
  C  C47  1  0.52129800  0.08169000  0.08169000  1
  C  C48  1  0.98205800  0.41785500  0.41785500  1
  C  C49  1  0.31242100  0.31242100  0.31242100  1
  C  C50  1  0.08169000  0.08169000  0.52129800  1
  C  C51  1  0.41785500  0.98205800  0.41785500  1
  C  C52  1  0.68704300  0.68704300  0.19345400  1
  C  C53  1  0.19345400  0.68704300  0.68704300  1
  C  C54  1  0.55715900  0.55715900  0.55715900  1
  C  C55  1  0.68704300  0.19345400  0.68704300  1
