# generated using pymatgen
data_Cu2Ni4C19
_symmetry_space_group_name_H-M   'P 1'
_cell_length_a   5.78497900
_cell_length_b   16.10779700
_cell_length_c   16.16141500
_cell_angle_alpha   90.00000000
_cell_angle_beta   90.00000000
_cell_angle_gamma   90.00000000
_symmetry_Int_Tables_number   1
_chemical_formula_structural   Cu2Ni4C19
_chemical_formula_sum   'Cu8 Ni16 C76'
_cell_volume   1505.97345520
_cell_formula_units_Z   4
loop_
 _symmetry_equiv_pos_site_id
 _symmetry_equiv_pos_as_xyz
  1  'x, y, z'
loop_
 _atom_site_type_symbol
 _atom_site_label
 _atom_site_symmetry_multiplicity
 _atom_site_fract_x
 _atom_site_fract_y
 _atom_site_fract_z
 _atom_site_occupancy
  Ni  Ni0  1  0.82164600  0.25000000  0.16026700  1
  Ni  Ni1  1  0.16793000  0.07685100  0.49732200  1
  Ni  Ni2  1  0.83207000  0.07685100  0.99732200  1
  Ni  Ni3  1  0.16793000  0.42314900  0.49732200  1
  Ni  Ni4  1  0.69471800  0.75000000  0.00065200  1
  Ni  Ni5  1  0.69471800  0.25000000  0.49934800  1
  Ni  Ni6  1  0.83207000  0.42314900  0.99732200  1
  Ni  Ni7  1  0.30528200  0.75000000  0.50065200  1
  Ni  Ni8  1  0.82164600  0.75000000  0.33973300  1
  Ni  Ni9  1  0.83207000  0.57685100  0.50267800  1
  Ni  Ni10  1  0.30528200  0.25000000  0.99934800  1
  Ni  Ni11  1  0.16793000  0.57685100  0.00267800  1
  Ni  Ni12  1  0.17835400  0.75000000  0.83973300  1
  Ni  Ni13  1  0.83207000  0.92314900  0.50267800  1
  Ni  Ni14  1  0.16793000  0.92314900  0.00267800  1
  Ni  Ni15  1  0.17835400  0.25000000  0.66026700  1
  Cu  Cu16  1  0.35974400  0.41163800  0.82728000  1
  Cu  Cu17  1  0.64025600  0.91163800  0.17272000  1
  Cu  Cu18  1  0.35974400  0.58836200  0.67272000  1
  Cu  Cu19  1  0.35974400  0.91163800  0.67272000  1
  Cu  Cu20  1  0.64025600  0.58836200  0.17272000  1
  Cu  Cu21  1  0.35974400  0.08836200  0.82728000  1
  Cu  Cu22  1  0.64025600  0.08836200  0.32728000  1
  Cu  Cu23  1  0.64025600  0.41163800  0.32728000  1
  C  C24  1  0.24532400  0.75000000  0.13588300  1
  C  C25  1  0.75467600  0.25000000  0.86411700  1
  C  C26  1  0.24532400  0.25000000  0.36411700  1
  C  C27  1  0.33039600  0.60108300  0.36051900  1
  C  C28  1  0.66960400  0.89891700  0.86051900  1
  C  C29  1  0.33039600  0.10108300  0.13948100  1
  C  C30  1  0.66960400  0.39891700  0.63948100  1
  C  C31  1  0.75467600  0.75000000  0.63588300  1
  C  C32  1  0.66960400  0.60108300  0.86051900  1
  C  C33  1  0.66960400  0.10108300  0.63948100  1
  C  C34  1  0.33039600  0.39891700  0.13948100  1
  C  C35  1  0.33039600  0.89891700  0.36051900  1
  C  C36  1  0.17842600  0.16218900  0.78313100  1
  C  C37  1  0.45306700  0.85064700  0.91109300  1
  C  C38  1  0.56055600  0.66733900  0.60444000  1
  C  C39  1  0.79906400  0.55416800  0.08618800  1
  C  C40  1  0.56055600  0.83266100  0.60444000  1
  C  C41  1  0.20093600  0.44583200  0.91381200  1
  C  C42  1  0.79906400  0.94583200  0.08618800  1
  C  C43  1  0.65185300  0.12178700  0.74186100  1
  C  C44  1  0.34814700  0.37821300  0.24186100  1
  C  C45  1  0.17842600  0.66218900  0.71686900  1
  C  C46  1  0.31052100  0.00000000  0.75000000  1
  C  C47  1  0.45306700  0.64935300  0.91109300  1
  C  C48  1  0.92119500  0.13800500  0.60414500  1
  C  C49  1  0.82157400  0.16218900  0.28313100  1
  C  C50  1  0.07880500  0.86199500  0.39585500  1
  C  C51  1  0.45306700  0.35064700  0.58890700  1
  C  C52  1  0.65897100  0.49717300  0.87652900  1
  C  C53  1  0.92119500  0.86199500  0.89585500  1
  C  C54  1  0.92119500  0.36199500  0.60414500  1
  C  C55  1  0.65185300  0.87821300  0.75813900  1
  C  C56  1  0.43944400  0.33266100  0.39556000  1
  C  C57  1  0.65897100  0.99717300  0.62347100  1
  C  C58  1  0.43944400  0.16733900  0.39556000  1
  C  C59  1  0.34814700  0.87821300  0.25813900  1
  C  C60  1  0.65185300  0.37821300  0.74186100  1
  C  C61  1  0.45306700  0.14935300  0.58890700  1
  C  C62  1  0.20093600  0.94583200  0.58618800  1
  C  C63  1  0.79906400  0.05416800  0.41381200  1
  C  C64  1  0.17842600  0.83781100  0.71686900  1
  C  C65  1  0.31052100  0.50000000  0.75000000  1
  C  C66  1  0.20093600  0.55416800  0.58618800  1
  C  C67  1  0.68947900  0.50000000  0.25000000  1
  C  C68  1  0.54693300  0.85064700  0.41109300  1
  C  C69  1  0.34102900  0.99717300  0.12347100  1
  C  C70  1  0.43944400  0.66733900  0.10444000  1
  C  C71  1  0.65897100  0.50282700  0.62347100  1
  C  C72  1  0.92085400  0.25000000  0.94826600  1
  C  C73  1  0.92085400  0.75000000  0.55173400  1
  C  C74  1  0.82157400  0.66218900  0.21686900  1
  C  C75  1  0.54693300  0.35064700  0.08890700  1
  C  C76  1  0.56055600  0.33266100  0.89556000  1
  C  C77  1  0.07880500  0.13800500  0.10414500  1
  C  C78  1  0.20093600  0.05416800  0.91381200  1
  C  C79  1  0.56055600  0.16733900  0.89556000  1
  C  C80  1  0.07914600  0.25000000  0.44826600  1
  C  C81  1  0.34102900  0.00282700  0.37652900  1
  C  C82  1  0.79906400  0.44583200  0.41381200  1
  C  C83  1  0.82157400  0.83781100  0.21686900  1
  C  C84  1  0.07880500  0.63800500  0.39585500  1
  C  C85  1  0.34102900  0.49717300  0.37652900  1
  C  C86  1  0.07880500  0.36199500  0.10414500  1
  C  C87  1  0.34102900  0.50282700  0.12347100  1
  C  C88  1  0.92119500  0.63800500  0.89585500  1
  C  C89  1  0.54693300  0.64935300  0.41109300  1
  C  C90  1  0.68947900  0.00000000  0.25000000  1
  C  C91  1  0.43944400  0.83266100  0.10444000  1
  C  C92  1  0.34814700  0.12178700  0.24186100  1
  C  C93  1  0.65897100  0.00282700  0.87652900  1
  C  C94  1  0.65185300  0.62178700  0.75813900  1
  C  C95  1  0.07914600  0.75000000  0.05173400  1
  C  C96  1  0.34814700  0.62178700  0.25813900  1
  C  C97  1  0.54693300  0.14935300  0.08890700  1
  C  C98  1  0.82157400  0.33781100  0.28313100  1
  C  C99  1  0.17842600  0.33781100  0.78313100  1
