# generated using pymatgen
data_CuNiC6
_symmetry_space_group_name_H-M   'P 1'
_cell_length_a   6.43263600
_cell_length_b   7.40111600
_cell_length_c   7.49167300
_cell_angle_alpha   90.00000000
_cell_angle_beta   90.00000000
_cell_angle_gamma   90.00000000
_symmetry_Int_Tables_number   1
_chemical_formula_structural   CuNiC6
_chemical_formula_sum   'Cu4 Ni4 C24'
_cell_volume   356.66870164
_cell_formula_units_Z   4
loop_
 _symmetry_equiv_pos_site_id
 _symmetry_equiv_pos_as_xyz
  1  'x, y, z'
loop_
 _atom_site_type_symbol
 _atom_site_label
 _atom_site_symmetry_multiplicity
 _atom_site_fract_x
 _atom_site_fract_y
 _atom_site_fract_z
 _atom_site_occupancy
  Ni  Ni0  1  0.25000000  0.64957600  0.20654900  1
  Ni  Ni1  1  0.75000000  0.85042400  0.70654900  1
  Ni  Ni2  1  0.75000000  0.35042400  0.79345100  1
  Ni  Ni3  1  0.25000000  0.14957600  0.29345100  1
  Cu  Cu4  1  0.50000000  0.00000000  0.00000000  1
  Cu  Cu5  1  0.00000000  0.00000000  0.00000000  1
  Cu  Cu6  1  0.50000000  0.50000000  0.50000000  1
  Cu  Cu7  1  0.00000000  0.50000000  0.50000000  1
  C  C8  1  0.75000000  0.63017100  0.14155800  1
  C  C9  1  0.75000000  0.13017100  0.35844200  1
  C  C10  1  0.25000000  0.86982900  0.64155800  1
  C  C11  1  0.25000000  0.36982900  0.85844200  1
  C  C12  1  0.55580600  0.63137100  0.26456000  1
  C  C13  1  0.25000000  0.39906900  0.36015600  1
  C  C14  1  0.75000000  0.10093100  0.86015600  1
  C  C15  1  0.75000000  0.80374700  0.02593700  1
  C  C16  1  0.75000000  0.30374700  0.47406300  1
  C  C17  1  0.25000000  0.89906900  0.13984400  1
  C  C18  1  0.75000000  0.60093100  0.63984400  1
  C  C19  1  0.05580600  0.36862900  0.73544000  1
  C  C20  1  0.05580600  0.86862900  0.76456000  1
  C  C21  1  0.75000000  0.46057900  0.02504900  1
  C  C22  1  0.55580600  0.13137100  0.23544000  1
  C  C23  1  0.25000000  0.03942100  0.52504900  1
  C  C24  1  0.25000000  0.53942100  0.97495100  1
  C  C25  1  0.94419400  0.63137100  0.26456000  1
  C  C26  1  0.44419400  0.36862900  0.73544000  1
  C  C27  1  0.94419400  0.13137100  0.23544000  1
  C  C28  1  0.44419400  0.86862900  0.76456000  1
  C  C29  1  0.25000000  0.19625300  0.97406300  1
  C  C30  1  0.25000000  0.69625300  0.52593700  1
  C  C31  1  0.75000000  0.96057900  0.47495100  1
