# generated using pymatgen
data_Cu2Ni2C3
_symmetry_space_group_name_H-M   'P 1'
_cell_length_a   6.00099300
_cell_length_b   10.16118600
_cell_length_c   12.52233900
_cell_angle_alpha   90.00000000
_cell_angle_beta   90.00000000
_cell_angle_gamma   90.00000000
_symmetry_Int_Tables_number   1
_chemical_formula_structural   Cu2Ni2C3
_chemical_formula_sum   'Cu8 Ni8 C12'
_cell_volume   763.57724553
_cell_formula_units_Z   4
loop_
 _symmetry_equiv_pos_site_id
 _symmetry_equiv_pos_as_xyz
  1  'x, y, z'
loop_
 _atom_site_type_symbol
 _atom_site_label
 _atom_site_symmetry_multiplicity
 _atom_site_fract_x
 _atom_site_fract_y
 _atom_site_fract_z
 _atom_site_occupancy
  C  C0  1  0.25000000  0.07455700  0.07839700  1
  C  C1  1  0.75000000  0.92544300  0.92160300  1
  C  C2  1  0.75000000  0.57455700  0.42160300  1
  C  C3  1  0.25000000  0.42544300  0.57839700  1
  C  C4  1  0.25000000  0.36317200  0.29161100  1
  C  C5  1  0.75000000  0.63682800  0.70838900  1
  C  C6  1  0.75000000  0.86317200  0.20838900  1
  C  C7  1  0.25000000  0.13682800  0.79161100  1
  C  C8  1  0.25000000  0.78426900  0.55837800  1
  C  C9  1  0.75000000  0.21573100  0.44162200  1
  C  C10  1  0.75000000  0.28426900  0.94162200  1
  C  C11  1  0.25000000  0.71573100  0.05837800  1
  Ni  Ni12  1  0.25000000  0.08093900  0.37178300  1
  Ni  Ni13  1  0.75000000  0.91906100  0.62821700  1
  Ni  Ni14  1  0.75000000  0.58093900  0.12821700  1
  Ni  Ni15  1  0.25000000  0.41906100  0.87178300  1
  Ni  Ni16  1  0.25000000  0.80435200  0.81020900  1
  Ni  Ni17  1  0.75000000  0.19564800  0.18979100  1
  Ni  Ni18  1  0.75000000  0.30435200  0.68979100  1
  Ni  Ni19  1  0.25000000  0.69564800  0.31020900  1
  Cu  Cu20  1  0.99589700  0.38935800  0.42344400  1
  Cu  Cu21  1  0.49589700  0.61064200  0.57655600  1
  Cu  Cu22  1  0.00410300  0.88935800  0.07655600  1
  Cu  Cu23  1  0.50410300  0.11064200  0.92344400  1
  Cu  Cu24  1  0.00410300  0.61064200  0.57655600  1
  Cu  Cu25  1  0.50410300  0.38935800  0.42344400  1
  Cu  Cu26  1  0.99589700  0.11064200  0.92344400  1
  Cu  Cu27  1  0.49589700  0.88935800  0.07655600  1
