# generated using pymatgen
data_CuNi3C26
_symmetry_space_group_name_H-M   'P 1'
_cell_length_a   9.41064333
_cell_length_b   9.41064333
_cell_length_c   8.93088200
_cell_angle_alpha   90.00000000
_cell_angle_beta   90.00000000
_cell_angle_gamma   119.99999531
_symmetry_Int_Tables_number   1
_chemical_formula_structural   CuNi3C26
_chemical_formula_sum   'Cu2 Ni6 C52'
_cell_volume   684.95750900
_cell_formula_units_Z   2
loop_
 _symmetry_equiv_pos_site_id
 _symmetry_equiv_pos_as_xyz
  1  'x, y, z'
loop_
 _atom_site_type_symbol
 _atom_site_label
 _atom_site_symmetry_multiplicity
 _atom_site_fract_x
 _atom_site_fract_y
 _atom_site_fract_z
 _atom_site_occupancy
  C  C0  1  0.66666700  0.33333300  0.56051000  1
  C  C1  1  0.33333300  0.66666700  0.43949000  1
  C  C2  1  0.33333300  0.66666700  0.06051000  1
  C  C3  1  0.66666700  0.33333300  0.93949000  1
  C  C4  1  0.98863000  0.34869300  0.58863100  1
  C  C5  1  0.65130700  0.63993700  0.91136900  1
  C  C6  1  0.36006300  0.01137000  0.58863100  1
  C  C7  1  0.34869300  0.36006300  0.41136900  1
  C  C8  1  0.34869300  0.36006300  0.08863100  1
  C  C9  1  0.63993700  0.98863000  0.41136900  1
  C  C10  1  0.01137000  0.65130700  0.08863100  1
  C  C11  1  0.36006300  0.01137000  0.91136900  1
  C  C12  1  0.65130700  0.63993700  0.58863100  1
  C  C13  1  0.63993700  0.98863000  0.08863100  1
  C  C14  1  0.98863000  0.34869300  0.91136900  1
  C  C15  1  0.01137000  0.65130700  0.41136900  1
  Ni  Ni16  1  0.36259700  0.02611400  0.25000000  1
  Ni  Ni17  1  0.97388600  0.33648300  0.25000000  1
  Ni  Ni18  1  0.33648300  0.36259700  0.75000000  1
  Ni  Ni19  1  0.02611400  0.66351700  0.75000000  1
  Ni  Ni20  1  0.63740300  0.97388600  0.75000000  1
  Ni  Ni21  1  0.66351700  0.63740300  0.25000000  1
  Cu  Cu22  1  0.00000000  0.00000000  0.00000000  1
  Cu  Cu23  1  0.00000000  0.00000000  0.50000000  1
  C  C24  1  0.44763700  0.86718000  0.25000000  1
  C  C25  1  0.39344400  0.52275800  0.58693400  1
  C  C26  1  0.47724200  0.87068600  0.58693400  1
  C  C27  1  0.87068600  0.39344400  0.41306600  1
  C  C28  1  0.20495800  0.90077100  0.40883000  1
  C  C29  1  0.20495800  0.90077100  0.09117000  1
  C  C30  1  0.90077100  0.69581300  0.90883000  1
  C  C31  1  0.18774100  0.89415700  0.75000000  1
  C  C32  1  0.70641600  0.81225900  0.75000000  1
  C  C33  1  0.79504200  0.09922900  0.59117000  1
  C  C34  1  0.52275800  0.12931400  0.41306600  1
  C  C35  1  0.90077100  0.69581300  0.59117000  1
  C  C36  1  0.09922900  0.30418700  0.09117000  1
  C  C37  1  0.30418700  0.20495800  0.59117000  1
  C  C38  1  0.87068600  0.39344400  0.08693400  1
  C  C39  1  0.81225900  0.10584300  0.25000000  1
  C  C40  1  0.60655600  0.47724200  0.41306600  1
  C  C41  1  0.69581300  0.79504200  0.40883000  1
  C  C42  1  0.12931400  0.60655600  0.58693400  1
  C  C43  1  0.41954300  0.55236300  0.25000000  1
  C  C44  1  0.12931400  0.60655600  0.91306600  1
  C  C45  1  0.86718000  0.41954300  0.75000000  1
  C  C46  1  0.13282000  0.58045700  0.25000000  1
  C  C47  1  0.58045700  0.44763700  0.75000000  1
  C  C48  1  0.30418700  0.20495800  0.90883000  1
  C  C49  1  0.79504200  0.09922900  0.90883000  1
  C  C50  1  0.60655600  0.47724200  0.08693400  1
  C  C51  1  0.55236300  0.13282000  0.75000000  1
  C  C52  1  0.52275800  0.12931400  0.08693400  1
  C  C53  1  0.29358400  0.18774100  0.25000000  1
  C  C54  1  0.09922900  0.30418700  0.40883000  1
  C  C55  1  0.10584300  0.29358400  0.75000000  1
  C  C56  1  0.89415700  0.70641600  0.25000000  1
  C  C57  1  0.47724200  0.87068600  0.91306600  1
  C  C58  1  0.39344400  0.52275800  0.91306600  1
  C  C59  1  0.69581300  0.79504200  0.09117000  1
