# generated using pymatgen
data_Cu14Ni2C15
_symmetry_space_group_name_H-M   'P 1'
_cell_length_a   12.44811400
_cell_length_b   6.25149700
_cell_length_c   9.09783141
_cell_angle_alpha   76.01476953
_cell_angle_beta   90.00000000
_cell_angle_gamma   90.00000000
_symmetry_Int_Tables_number   1
_chemical_formula_structural   Cu14Ni2C15
_chemical_formula_sum   'Cu28 Ni4 C30'
_cell_volume   687.00118238
_cell_formula_units_Z   2
loop_
 _symmetry_equiv_pos_site_id
 _symmetry_equiv_pos_as_xyz
  1  'x, y, z'
loop_
 _atom_site_type_symbol
 _atom_site_label
 _atom_site_symmetry_multiplicity
 _atom_site_fract_x
 _atom_site_fract_y
 _atom_site_fract_z
 _atom_site_occupancy
  C  C0  1  0.15408900  0.65465300  0.63512600  1
  C  C1  1  0.84591100  0.34534700  0.36487400  1
  C  C2  1  0.34591100  0.65465300  0.13512600  1
  C  C3  1  0.65408900  0.34534700  0.86487400  1
  C  C4  1  0.00000000  0.00000000  0.00000000  1
  C  C5  1  0.50000000  0.00000000  0.50000000  1
  C  C6  1  0.09041600  0.67162100  0.22288600  1
  C  C7  1  0.80722700  0.99816500  0.14590800  1
  C  C8  1  0.60480800  0.92712700  0.77456400  1
  C  C9  1  0.62532100  0.09643600  0.24624500  1
  C  C10  1  0.12532100  0.90356400  0.25375500  1
  C  C11  1  0.59041600  0.32837900  0.27711400  1
  C  C12  1  0.56338200  0.65908500  0.39558300  1
  C  C13  1  0.06338200  0.34091500  0.10441700  1
  C  C14  1  0.40958400  0.67162100  0.72288600  1
  C  C15  1  0.30722700  0.00183500  0.35409200  1
  C  C16  1  0.43661800  0.34091500  0.60441700  1
  C  C17  1  0.93661800  0.65908500  0.89558300  1
  C  C18  1  0.64617300  0.66740000  0.52809800  1
  C  C19  1  0.10480800  0.07287300  0.72543600  1
  C  C20  1  0.85382700  0.66740000  0.02809800  1
  C  C21  1  0.37467900  0.90356400  0.75375500  1
  C  C22  1  0.39519200  0.07287300  0.22543600  1
  C  C23  1  0.89519200  0.92712700  0.27456400  1
  C  C24  1  0.69277300  0.99816500  0.64590800  1
  C  C25  1  0.90958400  0.32837900  0.77711400  1
  C  C26  1  0.87467900  0.09643600  0.74624500  1
  C  C27  1  0.19277300  0.00183500  0.85409200  1
  C  C28  1  0.14617300  0.33260000  0.97190200  1
  C  C29  1  0.35382700  0.33260000  0.47190200  1
  Ni  Ni30  1  0.36236200  0.27287300  0.91038800  1
  Ni  Ni31  1  0.86236200  0.72712700  0.58961200  1
  Ni  Ni32  1  0.63763800  0.72712700  0.08961200  1
  Ni  Ni33  1  0.13763800  0.27287300  0.41038800  1
  Cu  Cu34  1  0.93668000  0.61818000  0.71528300  1
  Cu  Cu35  1  0.32812800  0.05145200  0.89027800  1
  Cu  Cu36  1  0.11865600  0.96817600  0.82559300  1
  Cu  Cu37  1  0.57011200  0.69862700  0.49464500  1
  Cu  Cu38  1  0.08054900  0.24837100  0.55696000  1
  Cu  Cu39  1  0.17187200  0.05145200  0.39027800  1
  Cu  Cu40  1  0.76614800  0.58177100  0.59468200  1
  Cu  Cu41  1  0.88134400  0.03182400  0.17440700  1
  Cu  Cu42  1  0.88660200  0.17574300  0.82691800  1
  Cu  Cu43  1  0.43668000  0.38182000  0.78471700  1
  Cu  Cu44  1  0.06332000  0.38182000  0.28471700  1
  Cu  Cu45  1  0.26614800  0.41822900  0.90531800  1
  Cu  Cu46  1  0.82812800  0.94854800  0.60972200  1
  Cu  Cu47  1  0.23385200  0.41822900  0.40531800  1
  Cu  Cu48  1  0.91945100  0.75162900  0.44304000  1
  Cu  Cu49  1  0.61339800  0.17574300  0.32691800  1
  Cu  Cu50  1  0.73385200  0.58177100  0.09468200  1
  Cu  Cu51  1  0.38134400  0.96817600  0.32559300  1
  Cu  Cu52  1  0.38660200  0.82425700  0.67308200  1
  Cu  Cu53  1  0.61865600  0.03182400  0.67440700  1
  Cu  Cu54  1  0.42988800  0.30137300  0.50535500  1
  Cu  Cu55  1  0.11339800  0.82425700  0.17308200  1
  Cu  Cu56  1  0.58054900  0.75162900  0.94304000  1
  Cu  Cu57  1  0.41945100  0.24837100  0.05696000  1
  Cu  Cu58  1  0.92988800  0.69862700  0.99464500  1
  Cu  Cu59  1  0.07011200  0.30137300  0.00535500  1
  Cu  Cu60  1  0.67187200  0.94854800  0.10972200  1
  Cu  Cu61  1  0.56332000  0.61818000  0.21528300  1
