# generated using pymatgen
data_Cu3NiC
_symmetry_space_group_name_H-M   'P 1'
_cell_length_a   6.20255300
_cell_length_b   12.14786500
_cell_length_c   12.75695100
_cell_angle_alpha   90.00000000
_cell_angle_beta   90.00000000
_cell_angle_gamma   90.00000000
_symmetry_Int_Tables_number   1
_chemical_formula_structural   Cu3NiC
_chemical_formula_sum   'Cu24 Ni8 C8'
_cell_volume   961.20789276
_cell_formula_units_Z   8
loop_
 _symmetry_equiv_pos_site_id
 _symmetry_equiv_pos_as_xyz
  1  'x, y, z'
loop_
 _atom_site_type_symbol
 _atom_site_label
 _atom_site_symmetry_multiplicity
 _atom_site_fract_x
 _atom_site_fract_y
 _atom_site_fract_z
 _atom_site_occupancy
  C  C0  1  0.22207600  0.25000000  0.30307900  1
  C  C1  1  0.25000000  0.00000000  0.70049200  1
  C  C2  1  0.77792400  0.75000000  0.69692100  1
  C  C3  1  0.27792400  0.75000000  0.30307900  1
  C  C4  1  0.75000000  0.50000000  0.29950800  1
  C  C5  1  0.75000000  0.00000000  0.29950800  1
  C  C6  1  0.72207600  0.25000000  0.69692100  1
  C  C7  1  0.25000000  0.50000000  0.70049200  1
  Ni  Ni8  1  0.03844400  0.86394600  0.09810500  1
  Ni  Ni9  1  0.46155600  0.13605400  0.09810500  1
  Ni  Ni10  1  0.96155600  0.36394600  0.90189500  1
  Ni  Ni11  1  0.03844400  0.63605400  0.09810500  1
  Ni  Ni12  1  0.53844400  0.86394600  0.90189500  1
  Ni  Ni13  1  0.46155600  0.36394600  0.09810500  1
  Ni  Ni14  1  0.96155600  0.13605400  0.90189500  1
  Ni  Ni15  1  0.53844400  0.63605400  0.90189500  1
  Cu  Cu16  1  0.23058000  0.25000000  0.78598900  1
  Cu  Cu17  1  0.61431100  0.25000000  0.94457100  1
  Cu  Cu18  1  0.76942000  0.75000000  0.21401100  1
  Cu  Cu19  1  0.11431100  0.25000000  0.05542900  1
  Cu  Cu20  1  0.25000000  0.00000000  0.21937300  1
  Cu  Cu21  1  0.75000000  0.00000000  0.02785400  1
  Cu  Cu22  1  0.98513900  0.12428500  0.50266900  1
  Cu  Cu23  1  0.25000000  0.50000000  0.21937300  1
  Cu  Cu24  1  0.51486100  0.62428500  0.50266900  1
  Cu  Cu25  1  0.75000000  0.00000000  0.78062700  1
  Cu  Cu26  1  0.75000000  0.50000000  0.02785400  1
  Cu  Cu27  1  0.73058000  0.25000000  0.21401100  1
  Cu  Cu28  1  0.48513900  0.37571500  0.49733100  1
  Cu  Cu29  1  0.88568900  0.75000000  0.94457100  1
  Cu  Cu30  1  0.01486100  0.62428500  0.49733100  1
  Cu  Cu31  1  0.26942000  0.75000000  0.78598900  1
  Cu  Cu32  1  0.98513900  0.37571500  0.50266900  1
  Cu  Cu33  1  0.25000000  0.00000000  0.97214600  1
  Cu  Cu34  1  0.75000000  0.50000000  0.78062700  1
  Cu  Cu35  1  0.51486100  0.87571500  0.50266900  1
  Cu  Cu36  1  0.01486100  0.87571500  0.49733100  1
  Cu  Cu37  1  0.48513900  0.12428500  0.49733100  1
  Cu  Cu38  1  0.38568900  0.75000000  0.05542900  1
  Cu  Cu39  1  0.25000000  0.50000000  0.97214600  1
