# generated using pymatgen
data_Cu4(NiC)3
_symmetry_space_group_name_H-M   'P 1'
_cell_length_a   3.85873000
_cell_length_b   10.08251000
_cell_length_c   16.54898300
_cell_angle_alpha   90.00000000
_cell_angle_beta   90.00000000
_cell_angle_gamma   90.00000000
_symmetry_Int_Tables_number   1
_chemical_formula_structural   Cu4(NiC)3
_chemical_formula_sum   'Cu16 Ni12 C12'
_cell_volume   643.84950001
_cell_formula_units_Z   4
loop_
 _symmetry_equiv_pos_site_id
 _symmetry_equiv_pos_as_xyz
  1  'x, y, z'
loop_
 _atom_site_type_symbol
 _atom_site_label
 _atom_site_symmetry_multiplicity
 _atom_site_fract_x
 _atom_site_fract_y
 _atom_site_fract_z
 _atom_site_occupancy
  C  C0  1  0.25000000  0.02335400  0.26039600  1
  C  C1  1  0.75000000  0.97664600  0.73960400  1
  C  C2  1  0.75000000  0.52335400  0.23960400  1
  C  C3  1  0.25000000  0.47664600  0.76039600  1
  C  C4  1  0.25000000  0.88299900  0.45172000  1
  C  C5  1  0.75000000  0.11700100  0.54828000  1
  C  C6  1  0.75000000  0.38299900  0.04828000  1
  C  C7  1  0.25000000  0.61700100  0.95172000  1
  C  C8  1  0.25000000  0.58904600  0.56070800  1
  C  C9  1  0.75000000  0.41095400  0.43929200  1
  C  C10  1  0.75000000  0.08904600  0.93929200  1
  C  C11  1  0.25000000  0.91095400  0.06070800  1
  Ni  Ni12  1  0.25000000  0.18041000  0.04510800  1
  Ni  Ni13  1  0.75000000  0.81959000  0.95489200  1
  Ni  Ni14  1  0.75000000  0.68041000  0.45489200  1
  Ni  Ni15  1  0.25000000  0.31959000  0.54510800  1
  Ni  Ni16  1  0.25000000  0.53695300  0.11417800  1
  Ni  Ni17  1  0.75000000  0.46304700  0.88582200  1
  Ni  Ni18  1  0.75000000  0.03695300  0.38582200  1
  Ni  Ni19  1  0.25000000  0.96304700  0.61417800  1
  Ni  Ni20  1  0.25000000  0.38870900  0.32261400  1
  Ni  Ni21  1  0.75000000  0.61129100  0.67738600  1
  Ni  Ni22  1  0.75000000  0.88870900  0.17738600  1
  Ni  Ni23  1  0.25000000  0.11129100  0.82261400  1
  Cu  Cu24  1  0.25000000  0.31106500  0.17616400  1
  Cu  Cu25  1  0.75000000  0.68893500  0.82383600  1
  Cu  Cu26  1  0.75000000  0.81106500  0.32383600  1
  Cu  Cu27  1  0.25000000  0.18893500  0.67616400  1
  Cu  Cu28  1  0.25000000  0.73545500  0.20621700  1
  Cu  Cu29  1  0.75000000  0.26454500  0.79378300  1
  Cu  Cu30  1  0.75000000  0.23545500  0.29378300  1
  Cu  Cu31  1  0.25000000  0.76454500  0.70621700  1
  Cu  Cu32  1  0.25000000  0.61720900  0.37153100  1
  Cu  Cu33  1  0.75000000  0.38279100  0.62846900  1
  Cu  Cu34  1  0.75000000  0.11720900  0.12846900  1
  Cu  Cu35  1  0.25000000  0.88279100  0.87153100  1
  Cu  Cu36  1  0.25000000  0.18274100  0.41862600  1
  Cu  Cu37  1  0.75000000  0.81725900  0.58137400  1
  Cu  Cu38  1  0.75000000  0.68274100  0.08137400  1
  Cu  Cu39  1  0.25000000  0.31725900  0.91862600  1
