# generated using pymatgen
data_Cu(NiC2)2
_symmetry_space_group_name_H-M   'P 1'
_cell_length_a   5.78186168
_cell_length_b   5.78186168
_cell_length_c   28.37466000
_cell_angle_alpha   90.00000000
_cell_angle_beta   90.00000000
_cell_angle_gamma   119.99999630
_symmetry_Int_Tables_number   1
_chemical_formula_structural   Cu(NiC2)2
_chemical_formula_sum   'Cu12 Ni24 C48'
_cell_volume   821.47946061
_cell_formula_units_Z   12
loop_
 _symmetry_equiv_pos_site_id
 _symmetry_equiv_pos_as_xyz
  1  'x, y, z'
loop_
 _atom_site_type_symbol
 _atom_site_label
 _atom_site_symmetry_multiplicity
 _atom_site_fract_x
 _atom_site_fract_y
 _atom_site_fract_z
 _atom_site_occupancy
  Ni  Ni0  1  0.00000000  0.00000000  0.95585500  1
  Ni  Ni1  1  0.50349400  0.49650600  0.89584800  1
  Ni  Ni2  1  0.99301100  0.49650600  0.89584800  1
  Ni  Ni3  1  0.33333300  0.66666700  0.79084700  1
  Ni  Ni4  1  0.50349400  0.00698900  0.89584800  1
  Ni  Ni5  1  0.83508400  0.16491600  0.72911000  1
  Ni  Ni6  1  0.32983300  0.16491600  0.72911000  1
  Ni  Ni7  1  0.83508400  0.67016700  0.72911000  1
  Ni  Ni8  1  0.16689200  0.83310800  0.56250300  1
  Ni  Ni9  1  0.00000000  0.00000000  0.64542900  1
  Ni  Ni10  1  0.66621500  0.83310800  0.56250300  1
  Ni  Ni11  1  0.16689200  0.33378500  0.56250300  1
  Ni  Ni12  1  0.50003600  0.49996400  0.39565900  1
  Ni  Ni13  1  0.33333300  0.66666700  0.47906400  1
  Ni  Ni14  1  0.99992800  0.49996400  0.39565900  1
  Ni  Ni15  1  0.50003600  0.00007200  0.39565900  1
  Ni  Ni16  1  0.83328600  0.16671400  0.22876400  1
  Ni  Ni17  1  0.66666700  0.33333300  0.31221400  1
  Ni  Ni18  1  0.33342800  0.16671400  0.22876400  1
  Ni  Ni19  1  0.83328600  0.66657200  0.22876400  1
  Ni  Ni20  1  0.16873000  0.83127000  0.06285400  1
  Ni  Ni21  1  0.66254100  0.83127000  0.06285400  1
  Ni  Ni22  1  0.00000000  0.00000000  0.14564900  1
  Ni  Ni23  1  0.16873000  0.33745900  0.06285400  1
  Cu  Cu24  1  0.66666700  0.33333300  0.00175000  1
  Cu  Cu25  1  0.33333300  0.66666700  0.98066000  1
  Cu  Cu26  1  0.00000000  0.00000000  0.83450000  1
  Cu  Cu27  1  0.66666700  0.33333300  0.81291400  1
  Cu  Cu28  1  0.66666700  0.33333300  0.49982300  1
  Cu  Cu29  1  0.33333300  0.66666700  0.66679400  1
  Cu  Cu30  1  0.66666700  0.33333300  0.62602200  1
  Cu  Cu31  1  0.00000000  0.00000000  0.45839800  1
  Cu  Cu32  1  0.00000000  0.00000000  0.33293100  1
  Cu  Cu33  1  0.33333300  0.66666700  0.29141500  1
  Cu  Cu34  1  0.66666700  0.33333300  0.12326400  1
  Cu  Cu35  1  0.33333300  0.66666700  0.16724300  1
  C  C36  1  0.17226800  0.34453600  0.93285500  1
  C  C37  1  0.33333300  0.66666700  0.85681400  1
  C  C38  1  0.65546400  0.82773200  0.93285500  1
  C  C39  1  0.17226800  0.82773200  0.93285500  1
  C  C40  1  0.81979800  0.18020200  0.85993600  1
  C  C41  1  0.50091800  0.00183500  0.76615500  1
  C  C42  1  0.66666700  0.33333300  0.69728200  1
  C  C43  1  0.36040400  0.18020200  0.85993600  1
  C  C44  1  0.66666700  0.33333300  0.93179300  1
  C  C45  1  0.99816500  0.49908200  0.76615500  1
  C  C46  1  0.50091800  0.49908200  0.76615500  1
  C  C47  1  0.81979800  0.63959600  0.85993600  1
  C  C48  1  0.85201400  0.70402800  0.60195000  1
  C  C49  1  0.14638400  0.85361600  0.68927100  1
  C  C50  1  0.00000000  0.00000000  0.52842400  1
  C  C51  1  0.70723200  0.85361600  0.68927100  1
  C  C52  1  0.00000000  0.00000000  0.76387200  1
  C  C53  1  0.29597200  0.14798600  0.60195000  1
  C  C54  1  0.85201400  0.14798600  0.60195000  1
  C  C55  1  0.14638400  0.29276800  0.68927100  1
  C  C56  1  0.48072000  0.51928000  0.52341200  1
  C  C57  1  0.18596500  0.37193000  0.43518900  1
  C  C58  1  0.03856000  0.51928000  0.52341200  1
  C  C59  1  0.33333300  0.66666700  0.59712200  1
  C  C60  1  0.33333300  0.66666700  0.36140400  1
  C  C61  1  0.62807000  0.81403500  0.43518900  1
  C  C62  1  0.48072000  0.96144000  0.52341200  1
  C  C63  1  0.18596500  0.81403500  0.43518900  1
  C  C64  1  0.81407300  0.18592700  0.35657200  1
  C  C65  1  0.51943100  0.03886100  0.26823700  1
  C  C66  1  0.66666700  0.33333300  0.43025400  1
  C  C67  1  0.66666700  0.33333300  0.19396600  1
  C  C68  1  0.37185300  0.18592700  0.35657200  1
  C  C69  1  0.96113900  0.48056900  0.26823700  1
  C  C70  1  0.81407300  0.62814700  0.35657200  1
  C  C71  1  0.51943100  0.48056900  0.26823700  1
  C  C72  1  0.85513700  0.71027400  0.10124300  1
  C  C73  1  0.14710900  0.85289100  0.18993600  1
  C  C74  1  0.00000000  0.00000000  0.26351600  1
  C  C75  1  0.00000000  0.00000000  0.02092100  1
  C  C76  1  0.70578200  0.85289100  0.18993600  1
  C  C77  1  0.28972600  0.14486300  0.10124300  1
  C  C78  1  0.14710900  0.29421800  0.18993600  1
  C  C79  1  0.85513700  0.14486300  0.10124300  1
  C  C80  1  0.48710200  0.51289800  0.02764400  1
  C  C81  1  0.02579600  0.51289800  0.02764400  1
  C  C82  1  0.33333300  0.66666700  0.09844500  1
  C  C83  1  0.48710200  0.97420400  0.02764400  1
