# generated using pymatgen
data_CuNi5C4
_symmetry_space_group_name_H-M   'P 1'
_cell_length_a   4.04931300
_cell_length_b   10.85557100
_cell_length_c   20.06910800
_cell_angle_alpha   90.00000000
_cell_angle_beta   90.00000000
_cell_angle_gamma   90.00000000
_symmetry_Int_Tables_number   1
_chemical_formula_structural   CuNi5C4
_chemical_formula_sum   'Cu4 Ni20 C16'
_cell_volume   882.18991761
_cell_formula_units_Z   4
loop_
 _symmetry_equiv_pos_site_id
 _symmetry_equiv_pos_as_xyz
  1  'x, y, z'
loop_
 _atom_site_type_symbol
 _atom_site_label
 _atom_site_symmetry_multiplicity
 _atom_site_fract_x
 _atom_site_fract_y
 _atom_site_fract_z
 _atom_site_occupancy
  C  C0  1  0.75000000  0.09941800  0.33684600  1
  C  C1  1  0.25000000  0.02032900  0.89703800  1
  C  C2  1  0.25000000  0.64734800  0.99032300  1
  C  C3  1  0.75000000  0.35265200  0.00967700  1
  C  C4  1  0.25000000  0.14734800  0.50967700  1
  C  C5  1  0.75000000  0.47967100  0.39703800  1
  C  C6  1  0.75000000  0.85265200  0.49032300  1
  C  C7  1  0.25000000  0.40058200  0.83684600  1
  C  C8  1  0.75000000  0.59941800  0.16315400  1
  C  C9  1  0.25000000  0.90058200  0.66315400  1
  C  C10  1  0.75000000  0.97967100  0.10296200  1
  C  C11  1  0.25000000  0.52032900  0.60296200  1
  C  C12  1  0.25000000  0.29351300  0.21059900  1
  C  C13  1  0.75000000  0.70648700  0.78940100  1
  C  C14  1  0.75000000  0.20648700  0.71059900  1
  C  C15  1  0.25000000  0.79351300  0.28940100  1
  Ni  Ni16  1  0.75000000  0.87266700  0.96546200  1
  Ni  Ni17  1  0.75000000  0.58475800  0.87996800  1
  Ni  Ni18  1  0.25000000  0.64769300  0.73818800  1
  Ni  Ni19  1  0.75000000  0.72155700  0.61538100  1
  Ni  Ni20  1  0.25000000  0.08794700  0.21199700  1
  Ni  Ni21  1  0.25000000  0.27844300  0.38461900  1
  Ni  Ni22  1  0.25000000  0.91524200  0.37996800  1
  Ni  Ni23  1  0.25000000  0.62733300  0.46546200  1
  Ni  Ni24  1  0.25000000  0.14769300  0.76181200  1
  Ni  Ni25  1  0.25000000  0.58794700  0.28800300  1
  Ni  Ni26  1  0.25000000  0.12733300  0.03453800  1
  Ni  Ni27  1  0.25000000  0.77844300  0.11538100  1
  Ni  Ni28  1  0.75000000  0.08475800  0.62003200  1
  Ni  Ni29  1  0.75000000  0.22155700  0.88461900  1
  Ni  Ni30  1  0.75000000  0.37266700  0.53453800  1
  Ni  Ni31  1  0.75000000  0.91205300  0.78800300  1
  Ni  Ni32  1  0.25000000  0.41524200  0.12003200  1
  Ni  Ni33  1  0.75000000  0.35230700  0.26181200  1
  Ni  Ni34  1  0.75000000  0.85230700  0.23818800  1
  Ni  Ni35  1  0.75000000  0.41205300  0.71199700  1
  Cu  Cu36  1  0.25000000  0.42516600  0.95790500  1
  Cu  Cu37  1  0.75000000  0.57483400  0.04209500  1
  Cu  Cu38  1  0.75000000  0.07483400  0.45790500  1
  Cu  Cu39  1  0.25000000  0.92516600  0.54209500  1
