# generated using pymatgen
data_Cu2NiC4
_symmetry_space_group_name_H-M   'P 1'
_cell_length_a   23.84208970
_cell_length_b   23.84208970
_cell_length_c   23.84208979
_cell_angle_alpha   13.90222470
_cell_angle_beta   13.90222470
_cell_angle_gamma   13.90222410
_symmetry_Int_Tables_number   1
_chemical_formula_structural   Cu2NiC4
_chemical_formula_sum   'Cu20 Ni10 C40'
_cell_volume   680.88320622
_cell_formula_units_Z   10
loop_
 _symmetry_equiv_pos_site_id
 _symmetry_equiv_pos_as_xyz
  1  'x, y, z'
loop_
 _atom_site_type_symbol
 _atom_site_label
 _atom_site_symmetry_multiplicity
 _atom_site_fract_x
 _atom_site_fract_y
 _atom_site_fract_z
 _atom_site_occupancy
  Ni  Ni0  1  0.82418000  0.82418000  0.82418000  1
  Ni  Ni1  1  0.42401500  0.42401500  0.42401500  1
  Ni  Ni2  1  0.49968000  0.49968000  0.49968000  1
  Ni  Ni3  1  0.02481800  0.02481800  0.02481800  1
  Ni  Ni4  1  0.09932000  0.09932000  0.09932000  1
  Ni  Ni5  1  0.62518300  0.62518300  0.62518300  1
  Ni  Ni6  1  0.22504400  0.22504400  0.22504400  1
  Ni  Ni7  1  0.37579800  0.37579800  0.37579800  1
  Ni  Ni8  1  0.97511500  0.97511500  0.97511500  1
  Ni  Ni9  1  0.57479400  0.57479400  0.57479400  1
  Cu  Cu10  1  0.30476000  0.79060800  0.30476000  1
  Cu  Cu11  1  0.79060800  0.30476000  0.30476000  1
  Cu  Cu12  1  0.30476000  0.30476000  0.79060800  1
  Cu  Cu13  1  0.90272100  0.39420200  0.90272100  1
  Cu  Cu14  1  0.99995900  0.50027400  0.50027400  1
  Cu  Cu15  1  0.77603400  0.77603400  0.77603400  1
  Cu  Cu16  1  0.70018100  0.70018100  0.70018100  1
  Cu  Cu17  1  0.39420200  0.90272100  0.90272100  1
  Cu  Cu18  1  0.90272100  0.90272100  0.39420200  1
  Cu  Cu19  1  0.50027400  0.99995900  0.50027400  1
  Cu  Cu20  1  0.59937300  0.10049300  0.10049300  1
  Cu  Cu21  1  0.30019900  0.30019900  0.30019900  1
  Cu  Cu22  1  0.50027400  0.50027400  0.99995900  1
  Cu  Cu23  1  0.10049300  0.59937300  0.10049300  1
  Cu  Cu24  1  0.19488300  0.70282200  0.70282200  1
  Cu  Cu25  1  0.90039000  0.90039000  0.90039000  1
  Cu  Cu26  1  0.70282200  0.19488300  0.70282200  1
  Cu  Cu27  1  0.10049300  0.10049300  0.59937300  1
  Cu  Cu28  1  0.70282200  0.70282200  0.19488300  1
  Cu  Cu29  1  0.17529600  0.17529600  0.17529600  1
  C  C30  1  0.63403800  0.17594100  0.63403800  1
  C  C31  1  0.45202200  0.45202200  0.45202200  1
  C  C32  1  0.17594100  0.63403800  0.63403800  1
  C  C33  1  0.63403800  0.63403800  0.17594100  1
  C  C34  1  0.95844300  0.95844300  0.43830700  1
  C  C35  1  0.23461400  0.77321500  0.23461400  1
  C  C36  1  0.14909300  0.14909300  0.14909300  1
  C  C37  1  0.05204400  0.05204400  0.05204400  1
  C  C38  1  0.43830700  0.95844300  0.95844300  1
  C  C39  1  0.77321500  0.23461400  0.23461400  1
  C  C40  1  0.95844300  0.43830700  0.95844300  1
  C  C41  1  0.23461400  0.23461400  0.77321500  1
  C  C42  1  0.57194600  0.57194600  0.00931700  1
  C  C43  1  0.83078400  0.38536000  0.83078400  1
  C  C44  1  0.00931700  0.57194600  0.57194600  1
  C  C45  1  0.75006400  0.75006400  0.75006400  1
  C  C46  1  0.65269300  0.65269300  0.65269300  1
  C  C47  1  0.38536000  0.83078400  0.83078400  1
  C  C48  1  0.57194600  0.00931700  0.57194600  1
  C  C49  1  0.83078400  0.83078400  0.38536000  1
  C  C50  1  0.16920500  0.16920500  0.61414800  1
  C  C51  1  0.43097600  0.98504700  0.43097600  1
  C  C52  1  0.61414800  0.16920500  0.16920500  1
  C  C53  1  0.98504700  0.43097600  0.43097600  1
  C  C54  1  0.34750900  0.34750900  0.34750900  1
  C  C55  1  0.25265200  0.25265200  0.25265200  1
  C  C56  1  0.16920500  0.61414800  0.16920500  1
  C  C57  1  0.43097600  0.43097600  0.98504700  1
  C  C58  1  0.76860900  0.76860900  0.21526600  1
  C  C59  1  0.03025600  0.58749200  0.03025600  1
  C  C60  1  0.21526600  0.76860900  0.76860900  1
  C  C61  1  0.85256400  0.85256400  0.85256400  1
  C  C62  1  0.94719500  0.94719500  0.94719500  1
  C  C63  1  0.58749200  0.03025600  0.03025600  1
  C  C64  1  0.76860900  0.21526600  0.76860900  1
  C  C65  1  0.03025600  0.03025600  0.58749200  1
  C  C66  1  0.35448700  0.35448700  0.84577500  1
  C  C67  1  0.54636800  0.54636800  0.54636800  1
  C  C68  1  0.84577500  0.35448700  0.35448700  1
  C  C69  1  0.35448700  0.84577500  0.35448700  1
