# generated using pymatgen
data_Cu3NiC25
_symmetry_space_group_name_H-M   'P 1'
_cell_length_a   9.03189700
_cell_length_b   10.31274917
_cell_length_c   10.94105344
_cell_angle_alpha   72.55112554
_cell_angle_beta   66.75678026
_cell_angle_gamma   65.27874939
_symmetry_Int_Tables_number   1
_chemical_formula_structural   Cu3NiC25
_chemical_formula_sum   'Cu6 Ni2 C50'
_cell_volume   839.39284268
_cell_formula_units_Z   2
loop_
 _symmetry_equiv_pos_site_id
 _symmetry_equiv_pos_as_xyz
  1  'x, y, z'
loop_
 _atom_site_type_symbol
 _atom_site_label
 _atom_site_symmetry_multiplicity
 _atom_site_fract_x
 _atom_site_fract_y
 _atom_site_fract_z
 _atom_site_occupancy
  C  C0  1  0.73258600  0.02159100  0.98924100  1
  C  C1  1  0.76773100  0.92900800  0.40450100  1
  C  C2  1  0.78272200  0.45460700  0.49569500  1
  C  C3  1  0.21727800  0.54539300  0.50430500  1
  C  C4  1  0.75515400  0.57228500  0.10084100  1
  C  C5  1  0.26741400  0.97840900  0.01075900  1
  C  C6  1  0.23226900  0.07099200  0.59549900  1
  C  C7  1  0.24484600  0.42771500  0.89915900  1
  Ni  Ni8  1  0.47150300  0.31729800  0.22058500  1
  Ni  Ni9  1  0.52849700  0.68270200  0.77941500  1
  C  C10  1  0.67160900  0.76084600  0.86854700  1
  C  C11  1  0.80978000  0.09068600  0.64790300  1
  C  C12  1  0.74261200  0.23810600  0.24528700  1
  C  C13  1  0.32244800  0.61350200  0.14432500  1
  C  C14  1  0.32839100  0.23915400  0.13145300  1
  C  C15  1  0.19022000  0.90931400  0.35209700  1
  C  C16  1  0.67755200  0.38649800  0.85567500  1
  C  C17  1  0.25738800  0.76189400  0.75471300  1
  C  C18  1  0.21787400  0.27445900  0.36221900  1
  C  C19  1  0.78212600  0.72554100  0.63778100  1
  Cu  Cu20  1  0.03594600  0.19602300  0.27051500  1
  Cu  Cu21  1  0.96405400  0.80397700  0.72948500  1
  Cu  Cu22  1  0.46815300  0.82120400  0.31645500  1
  Cu  Cu23  1  0.95635900  0.31441500  0.81456600  1
  Cu  Cu24  1  0.04364100  0.68558500  0.18543400  1
  Cu  Cu25  1  0.53184700  0.17879600  0.68354500  1
  C  C26  1  0.66658600  0.19086900  0.23763400  1
  C  C27  1  0.55655100  0.74294700  0.89874800  1
  C  C28  1  0.13720600  0.70220200  0.73717800  1
  C  C29  1  0.05060600  0.57157400  0.12673500  1
  C  C30  1  0.72350800  0.18323100  0.61599200  1
  C  C31  1  0.42857400  0.32756600  0.64185500  1
  C  C32  1  0.52550900  0.51406500  0.81751100  1
  C  C33  1  0.92910500  0.77369300  0.62003000  1
  C  C34  1  0.33341400  0.80913100  0.76236600  1
  C  C35  1  0.92751100  0.82976300  0.14777600  1
  C  C36  1  0.47479000  0.93035700  0.37281000  1
  C  C37  1  0.57142600  0.67243400  0.35814500  1
  C  C38  1  0.22708300  0.70500000  0.11833900  1
  C  C39  1  0.83053000  0.78176900  0.86131000  1
  C  C40  1  0.07248900  0.17023700  0.85222400  1
  C  C41  1  0.16947000  0.21823100  0.13869000  1
  C  C42  1  0.98644800  0.35433200  0.66769500  1
  C  C43  1  0.52521000  0.06964300  0.62719000  1
  C  C44  1  0.01355200  0.64566800  0.33230500  1
  C  C45  1  0.68806400  0.70264500  0.62629400  1
  C  C46  1  0.47449100  0.48593500  0.18248900  1
  C  C47  1  0.94939400  0.42842600  0.87326500  1
  C  C48  1  0.44344900  0.25705300  0.10125200  1
  C  C49  1  0.95993400  0.95587000  0.70095300  1
  C  C50  1  0.27649200  0.81676900  0.38400800  1
  C  C51  1  0.50002300  0.14122300  0.83054000  1
  C  C52  1  0.49997700  0.85877700  0.16946000  1
  C  C53  1  0.07089500  0.22630700  0.37997000  1
  C  C54  1  0.31193600  0.29735500  0.37370600  1
  C  C55  1  0.86279400  0.29779800  0.26282200  1
  C  C56  1  0.04006600  0.04413000  0.29904700  1
  C  C57  1  0.77291700  0.29500000  0.88166100  1
