# generated using pymatgen
data_CuNiC5
_symmetry_space_group_name_H-M   'P 1'
_cell_length_a   5.96565200
_cell_length_b   7.32680500
_cell_length_c   10.08654200
_cell_angle_alpha   90.00000000
_cell_angle_beta   90.00000000
_cell_angle_gamma   90.00000000
_symmetry_Int_Tables_number   1
_chemical_formula_structural   CuNiC5
_chemical_formula_sum   'Cu4 Ni4 C20'
_cell_volume   440.87436791
_cell_formula_units_Z   4
loop_
 _symmetry_equiv_pos_site_id
 _symmetry_equiv_pos_as_xyz
  1  'x, y, z'
loop_
 _atom_site_type_symbol
 _atom_site_label
 _atom_site_symmetry_multiplicity
 _atom_site_fract_x
 _atom_site_fract_y
 _atom_site_fract_z
 _atom_site_occupancy
  Ni  Ni0  1  0.51007200  0.41789300  0.07952600  1
  Ni  Ni1  1  0.01007200  0.08210700  0.92047400  1
  Ni  Ni2  1  0.48992800  0.91789300  0.42047400  1
  Ni  Ni3  1  0.98992800  0.58210700  0.57952600  1
  Cu  Cu4  1  0.51323500  0.25375300  0.70050800  1
  Cu  Cu5  1  0.01323500  0.24624700  0.29949200  1
  Cu  Cu6  1  0.48676500  0.75375300  0.79949200  1
  Cu  Cu7  1  0.98676500  0.74624700  0.20050800  1
  C  C8  1  0.48565100  0.46761500  0.41609800  1
  C  C9  1  0.98565100  0.03238500  0.58390200  1
  C  C10  1  0.51434900  0.96761500  0.08390200  1
  C  C11  1  0.01434900  0.53238500  0.91609800  1
  C  C12  1  0.49725000  0.59884300  0.57620000  1
  C  C13  1  0.99725000  0.90115700  0.42380000  1
  C  C14  1  0.50275000  0.09884300  0.92380000  1
  C  C15  1  0.00275000  0.40115700  0.07620000  1
  C  C16  1  0.25699400  0.55834900  0.30439100  1
  C  C17  1  0.75699400  0.94165100  0.69560900  1
  C  C18  1  0.74300600  0.05834900  0.19560900  1
  C  C19  1  0.24300600  0.44165100  0.80439100  1
  C  C20  1  0.35106800  0.24789700  0.46365400  1
  C  C21  1  0.85106800  0.25210300  0.53634600  1
  C  C22  1  0.64893200  0.74789700  0.03634600  1
  C  C23  1  0.14893200  0.75210300  0.96365400  1
  C  C24  1  0.74754600  0.51168300  0.31979700  1
  C  C25  1  0.24754600  0.98831700  0.68020300  1
  C  C26  1  0.25245400  0.01168300  0.18020300  1
  C  C27  1  0.75245400  0.48831700  0.81979700  1
