# generated using pymatgen
data_CuNiC6
_symmetry_space_group_name_H-M   'P 1'
_cell_length_a   8.06843953
_cell_length_b   8.06843953
_cell_length_c   16.93679500
_cell_angle_alpha   90.00000000
_cell_angle_beta   90.00000000
_cell_angle_gamma   92.36527094
_symmetry_Int_Tables_number   1
_chemical_formula_structural   CuNiC6
_chemical_formula_sum   'Cu8 Ni8 C48'
_cell_volume   1101.64118563
_cell_formula_units_Z   8
loop_
 _symmetry_equiv_pos_site_id
 _symmetry_equiv_pos_as_xyz
  1  'x, y, z'
loop_
 _atom_site_type_symbol
 _atom_site_label
 _atom_site_symmetry_multiplicity
 _atom_site_fract_x
 _atom_site_fract_y
 _atom_site_fract_z
 _atom_site_occupancy
  C  C0  1  0.25756900  0.75600000  0.14056000  1
  C  C1  1  0.95770500  0.95770500  0.00000000  1
  C  C2  1  0.25782000  0.24835400  0.10942200  1
  C  C3  1  0.54808900  0.05231000  0.26199300  1
  C  C4  1  0.24835400  0.25782000  0.89057800  1
  C  C5  1  0.74218000  0.75164600  0.60942200  1
  C  C6  1  0.44641200  0.44641200  0.50000000  1
  C  C7  1  0.74243100  0.24400000  0.64056000  1
  C  C8  1  0.75600000  0.25756900  0.85944000  1
  C  C9  1  0.94769000  0.45191100  0.23800700  1
  C  C10  1  0.45191100  0.94769000  0.76199300  1
  C  C11  1  0.55358800  0.55358800  0.00000000  1
  C  C12  1  0.24400000  0.74243100  0.35944000  1
  C  C13  1  0.05231000  0.54808900  0.73800700  1
  C  C14  1  0.75164600  0.74218000  0.39057800  1
  C  C15  1  0.04229500  0.04229500  0.50000000  1
  Ni  Ni16  1  0.73112500  0.22815400  0.09387500  1
  Ni  Ni17  1  0.26887500  0.77184600  0.59387500  1
  Ni  Ni18  1  0.22815400  0.73112500  0.90612500  1
  Ni  Ni19  1  0.77184600  0.26887500  0.40612500  1
  Ni  Ni20  1  0.75249600  0.77133000  0.15655200  1
  Ni  Ni21  1  0.22867000  0.24750400  0.34344800  1
  Ni  Ni22  1  0.24750400  0.22867000  0.65655200  1
  Ni  Ni23  1  0.77133000  0.75249600  0.84344800  1
  Cu  Cu24  1  0.98715200  0.51692700  0.00459400  1
  Cu  Cu25  1  0.51692700  0.98715200  0.99540600  1
  Cu  Cu26  1  0.51761000  0.48239000  0.25000000  1
  Cu  Cu27  1  0.98959400  0.01040600  0.25000000  1
  Cu  Cu28  1  0.01284800  0.48307300  0.50459400  1
  Cu  Cu29  1  0.48307300  0.01284800  0.49540600  1
  Cu  Cu30  1  0.01040600  0.98959400  0.75000000  1
  Cu  Cu31  1  0.48239000  0.51761000  0.75000000  1
  C  C32  1  0.44758000  0.31349700  0.74135500  1
  C  C33  1  0.19332100  0.04861300  0.24871300  1
  C  C34  1  0.61143900  0.41599400  0.33030200  1
  C  C35  1  0.68650300  0.55242000  0.75864500  1
  C  C36  1  0.41162500  0.07311300  0.58302700  1
  C  C37  1  0.19309500  0.54011300  0.00487200  1
  C  C38  1  0.09820400  0.91837300  0.66884700  1
  C  C39  1  0.55242000  0.68650300  0.24135500  1
  C  C40  1  0.41599400  0.61143900  0.66969800  1
  C  C41  1  0.06366700  0.68365200  0.51225400  1
  C  C42  1  0.45988700  0.80690500  0.49512800  1
  C  C43  1  0.90783100  0.62227600  0.07797400  1
  C  C44  1  0.09216900  0.37772400  0.57797400  1
  C  C45  1  0.62227600  0.90783100  0.92202600  1
  C  C46  1  0.80690500  0.45988700  0.50487200  1
  C  C47  1  0.90179600  0.08162700  0.16884700  1
  C  C48  1  0.91837300  0.09820400  0.33115300  1
  C  C49  1  0.08162700  0.90179600  0.83115300  1
  C  C50  1  0.95138700  0.80667900  0.25128700  1
  C  C51  1  0.58837500  0.92688700  0.08302700  1
  C  C52  1  0.37772400  0.09216900  0.42202600  1
  C  C53  1  0.54011300  0.19309500  0.99512800  1
  C  C54  1  0.31349700  0.44758000  0.25864500  1
  C  C55  1  0.58400600  0.38856100  0.16969800  1
  C  C56  1  0.92688700  0.58837500  0.91697300  1
  C  C57  1  0.93633300  0.31634800  0.01225400  1
  C  C58  1  0.04861300  0.19332100  0.75128700  1
  C  C59  1  0.07311300  0.41162500  0.41697300  1
  C  C60  1  0.38856100  0.58400600  0.83030200  1
  C  C61  1  0.80667900  0.95138700  0.74871300  1
  C  C62  1  0.68365200  0.06366700  0.48774600  1
  C  C63  1  0.31634800  0.93633300  0.98774600  1
