# generated using pymatgen
data_Cu3NiC3
_symmetry_space_group_name_H-M   'P 1'
_cell_length_a   5.81846600
_cell_length_b   12.70492000
_cell_length_c   22.37138700
_cell_angle_alpha   90.00000000
_cell_angle_beta   90.00000000
_cell_angle_gamma   90.00000000
_symmetry_Int_Tables_number   1
_chemical_formula_structural   Cu3NiC3
_chemical_formula_sum   'Cu24 Ni8 C24'
_cell_volume   1653.76328623
_cell_formula_units_Z   8
loop_
 _symmetry_equiv_pos_site_id
 _symmetry_equiv_pos_as_xyz
  1  'x, y, z'
loop_
 _atom_site_type_symbol
 _atom_site_label
 _atom_site_symmetry_multiplicity
 _atom_site_fract_x
 _atom_site_fract_y
 _atom_site_fract_z
 _atom_site_occupancy
  C  C0  1  0.91740700  0.77986300  0.18253500  1
  C  C1  1  0.41740700  0.72013700  0.81746500  1
  C  C2  1  0.07855300  0.83834500  0.97628900  1
  C  C3  1  0.57855300  0.66165500  0.02371100  1
  C  C4  1  0.92144700  0.33834500  0.52371100  1
  C  C5  1  0.58259300  0.27986300  0.18253500  1
  C  C6  1  0.07855300  0.66165500  0.47628900  1
  C  C7  1  0.58259300  0.22013700  0.68253500  1
  C  C8  1  0.42144700  0.33834500  0.97628900  1
  C  C9  1  0.41740700  0.77986300  0.31746500  1
  C  C10  1  0.57855300  0.83834500  0.52371100  1
  C  C11  1  0.91740700  0.72013700  0.68253500  1
  C  C12  1  0.08259300  0.22013700  0.81746500  1
  C  C13  1  0.95399800  0.93264200  0.80941900  1
  C  C14  1  0.45399800  0.93264200  0.69058100  1
  C  C15  1  0.08259300  0.27986300  0.31746500  1
  C  C16  1  0.04600200  0.43264200  0.69058100  1
  C  C17  1  0.04600200  0.06735800  0.19058100  1
  C  C18  1  0.95399800  0.56735800  0.30941900  1
  C  C19  1  0.92144700  0.16165500  0.02371100  1
  C  C20  1  0.42144700  0.16165500  0.47628900  1
  C  C21  1  0.54600200  0.06735800  0.30941900  1
  C  C22  1  0.54600200  0.43264200  0.80941900  1
  C  C23  1  0.45399800  0.56735800  0.19058100  1
  Ni  Ni24  1  0.45387100  0.54954600  0.58706600  1
  Ni  Ni25  1  0.04612900  0.04954600  0.58706600  1
  Ni  Ni26  1  0.54612900  0.04954600  0.91293400  1
  Ni  Ni27  1  0.04612900  0.45045400  0.08706600  1
  Ni  Ni28  1  0.54612900  0.45045400  0.41293400  1
  Ni  Ni29  1  0.95387100  0.95045400  0.41293400  1
  Ni  Ni30  1  0.95387100  0.54954600  0.91293400  1
  Ni  Ni31  1  0.45387100  0.95045400  0.08706600  1
  Cu  Cu32  1  0.61496600  0.39505700  0.31769300  1
  Cu  Cu33  1  0.61496600  0.10494300  0.81769300  1
  Cu  Cu34  1  0.11496600  0.39505700  0.18230700  1
  Cu  Cu35  1  0.34753800  0.55395600  0.91482200  1
  Cu  Cu36  1  0.88503400  0.89505700  0.31769300  1
  Cu  Cu37  1  0.11950700  0.62588800  0.09136900  1
  Cu  Cu38  1  0.88049300  0.12588800  0.40863100  1
  Cu  Cu39  1  0.11496600  0.10494300  0.68230700  1
  Cu  Cu40  1  0.61950700  0.87411200  0.90863100  1
  Cu  Cu41  1  0.38049300  0.12588800  0.09136900  1
  Cu  Cu42  1  0.65246200  0.05395600  0.58517800  1
  Cu  Cu43  1  0.61950700  0.62588800  0.40863100  1
  Cu  Cu44  1  0.15246200  0.44604400  0.41482200  1
  Cu  Cu45  1  0.15246200  0.05395600  0.91482200  1
  Cu  Cu46  1  0.65246200  0.44604400  0.08517800  1
  Cu  Cu47  1  0.88049300  0.37411200  0.90863100  1
  Cu  Cu48  1  0.38049300  0.37411200  0.59136900  1
  Cu  Cu49  1  0.38503400  0.60494300  0.68230700  1
  Cu  Cu50  1  0.84753800  0.55395600  0.58517800  1
  Cu  Cu51  1  0.38503400  0.89505700  0.18230700  1
  Cu  Cu52  1  0.11950700  0.87411200  0.59136900  1
  Cu  Cu53  1  0.34753800  0.94604400  0.41482200  1
  Cu  Cu54  1  0.84753800  0.94604400  0.08517800  1
  Cu  Cu55  1  0.88503400  0.60494300  0.81769300  1
