# generated using pymatgen
data_CuNiC4
_symmetry_space_group_name_H-M   'P 1'
_cell_length_a   7.16232600
_cell_length_b   7.20812400
_cell_length_c   13.36557500
_cell_angle_alpha   90.00000000
_cell_angle_beta   90.00000000
_cell_angle_gamma   90.00000000
_symmetry_Int_Tables_number   1
_chemical_formula_structural   CuNiC4
_chemical_formula_sum   'Cu8 Ni8 C32'
_cell_volume   690.02365755
_cell_formula_units_Z   8
loop_
 _symmetry_equiv_pos_site_id
 _symmetry_equiv_pos_as_xyz
  1  'x, y, z'
loop_
 _atom_site_type_symbol
 _atom_site_label
 _atom_site_symmetry_multiplicity
 _atom_site_fract_x
 _atom_site_fract_y
 _atom_site_fract_z
 _atom_site_occupancy
  C  C0  1  0.02400600  0.04972800  0.25000000  1
  C  C1  1  0.52400600  0.45027200  0.25000000  1
  C  C2  1  0.47599400  0.54972800  0.75000000  1
  C  C3  1  0.97599400  0.95027200  0.75000000  1
  Ni  Ni4  1  0.78553000  0.20177100  0.00577800  1
  Ni  Ni5  1  0.28553000  0.29822900  0.49422200  1
  Ni  Ni6  1  0.71447000  0.70177100  0.99422200  1
  Ni  Ni7  1  0.21447000  0.79822900  0.50577800  1
  Ni  Ni8  1  0.21447000  0.79822900  0.99422200  1
  Ni  Ni9  1  0.71447000  0.70177100  0.50577800  1
  Ni  Ni10  1  0.28553000  0.29822900  0.00577800  1
  Ni  Ni11  1  0.78553000  0.20177100  0.49422200  1
  Cu  Cu12  1  0.01176200  0.52747300  0.12840100  1
  Cu  Cu13  1  0.51176200  0.97252700  0.37159900  1
  Cu  Cu14  1  0.48823800  0.02747300  0.87159900  1
  Cu  Cu15  1  0.98823800  0.47252700  0.62840100  1
  Cu  Cu16  1  0.98823800  0.47252700  0.87159900  1
  Cu  Cu17  1  0.48823800  0.02747300  0.62840100  1
  Cu  Cu18  1  0.51176200  0.97252700  0.12840100  1
  Cu  Cu19  1  0.01176200  0.52747300  0.37159900  1
  C  C20  1  0.89896900  0.50618600  0.25000000  1
  C  C21  1  0.39896900  0.99381400  0.25000000  1
  C  C22  1  0.60103100  0.00618600  0.75000000  1
  C  C23  1  0.10103100  0.49381400  0.75000000  1
  C  C24  1  0.18906500  0.35549800  0.13585200  1
  C  C25  1  0.68906500  0.14450200  0.36414800  1
  C  C26  1  0.31093500  0.85549800  0.86414800  1
  C  C27  1  0.81093500  0.64450200  0.63585200  1
  C  C28  1  0.81093500  0.64450200  0.86414800  1
  C  C29  1  0.31093500  0.85549800  0.63585200  1
  C  C30  1  0.68906500  0.14450200  0.13585200  1
  C  C31  1  0.18906500  0.35549800  0.36414800  1
  C  C32  1  0.07788200  0.76159100  0.11544300  1
  C  C33  1  0.57788200  0.73840900  0.38455700  1
  C  C34  1  0.42211800  0.26159100  0.88455700  1
  C  C35  1  0.92211800  0.23840900  0.61544300  1
  C  C36  1  0.92211800  0.23840900  0.88455700  1
  C  C37  1  0.42211800  0.26159100  0.61544300  1
  C  C38  1  0.57788200  0.73840900  0.11544300  1
  C  C39  1  0.07788200  0.76159100  0.38455700  1
  C  C40  1  0.82184400  0.46502300  0.04520800  1
  C  C41  1  0.32184400  0.03497700  0.45479200  1
  C  C42  1  0.67815600  0.96502300  0.95479200  1
  C  C43  1  0.17815600  0.53497700  0.54520800  1
  C  C44  1  0.17815600  0.53497700  0.95479200  1
  C  C45  1  0.67815600  0.96502300  0.54520800  1
  C  C46  1  0.32184400  0.03497700  0.04520800  1
  C  C47  1  0.82184400  0.46502300  0.45479200  1
