# generated using pymatgen
data_Cu11NiC3
_symmetry_space_group_name_H-M   'P 1'
_cell_length_a   11.09999173
_cell_length_b   11.09999173
_cell_length_c   16.27777900
_cell_angle_alpha   90.00000000
_cell_angle_beta   90.00000000
_cell_angle_gamma   114.23704138
_symmetry_Int_Tables_number   1
_chemical_formula_structural   Cu11NiC3
_chemical_formula_sum   'Cu44 Ni4 C12'
_cell_volume   1828.79994855
_cell_formula_units_Z   4
loop_
 _symmetry_equiv_pos_site_id
 _symmetry_equiv_pos_as_xyz
  1  'x, y, z'
loop_
 _atom_site_type_symbol
 _atom_site_label
 _atom_site_symmetry_multiplicity
 _atom_site_fract_x
 _atom_site_fract_y
 _atom_site_fract_z
 _atom_site_occupancy
  C  C0  1  0.35204400  0.35204400  0.06638500  1
  C  C1  1  0.14795600  0.14795600  0.56638500  1
  C  C2  1  0.64795600  0.64795600  0.93361500  1
  C  C3  1  0.85204400  0.85204400  0.43361500  1
  C  C4  1  0.80156900  0.19565100  0.18325500  1
  C  C5  1  0.30434900  0.69843100  0.68325500  1
  C  C6  1  0.19843100  0.80434900  0.81674500  1
  C  C7  1  0.69565100  0.30156900  0.31674500  1
  C  C8  1  0.19565100  0.80156900  0.18325500  1
  C  C9  1  0.69843100  0.30434900  0.68325500  1
  C  C10  1  0.80434900  0.19843100  0.81674500  1
  C  C11  1  0.30156900  0.69565100  0.31674500  1
  Ni  Ni12  1  0.29765900  0.79765900  0.75000000  1
  Ni  Ni13  1  0.20234100  0.70234100  0.25000000  1
  Ni  Ni14  1  0.79765900  0.29765900  0.75000000  1
  Ni  Ni15  1  0.70234100  0.20234100  0.25000000  1
  Cu  Cu16  1  0.29263700  0.52887200  0.72904400  1
  Cu  Cu17  1  0.92682100  0.92682100  0.58616500  1
  Cu  Cu18  1  0.97432000  0.27886200  0.87554800  1
  Cu  Cu19  1  0.47432000  0.77886200  0.62445200  1
  Cu  Cu20  1  0.20736300  0.97112800  0.22904400  1
  Cu  Cu21  1  0.84653500  0.33614500  0.09882900  1
  Cu  Cu22  1  0.79263700  0.02887200  0.77095600  1
  Cu  Cu23  1  0.52887200  0.29263700  0.72904400  1
  Cu  Cu24  1  0.02568000  0.72113800  0.12445200  1
  Cu  Cu25  1  0.77886200  0.47432000  0.62445200  1
  Cu  Cu26  1  0.65346500  0.16385500  0.59882900  1
  Cu  Cu27  1  0.83184400  0.83184400  0.28548600  1
  Cu  Cu28  1  0.22113800  0.52568000  0.37554800  1
  Cu  Cu29  1  0.57317900  0.57317900  0.08616500  1
  Cu  Cu30  1  0.70736300  0.47112800  0.27095600  1
  Cu  Cu31  1  0.77512900  0.51137300  0.93883300  1
  Cu  Cu32  1  0.51137300  0.77512900  0.93883300  1
  Cu  Cu33  1  0.16385500  0.65346500  0.59882900  1
  Cu  Cu34  1  0.83614500  0.34653500  0.40117100  1
  Cu  Cu35  1  0.01137300  0.27512900  0.56116700  1
  Cu  Cu36  1  0.98862700  0.72487100  0.43883300  1
  Cu  Cu37  1  0.72487100  0.98862700  0.43883300  1
  Cu  Cu38  1  0.42682100  0.42682100  0.91383500  1
  Cu  Cu39  1  0.33184400  0.33184400  0.21451400  1
  Cu  Cu40  1  0.52568000  0.22113800  0.37554800  1
  Cu  Cu41  1  0.02887200  0.79263700  0.77095600  1
  Cu  Cu42  1  0.66815600  0.66815600  0.78548600  1
  Cu  Cu43  1  0.66385500  0.15346500  0.90117100  1
  Cu  Cu44  1  0.72113800  0.02568000  0.12445200  1
  Cu  Cu45  1  0.16815600  0.16815600  0.71451400  1
  Cu  Cu46  1  0.22487100  0.48862700  0.06116700  1
  Cu  Cu47  1  0.33614500  0.84653500  0.09882900  1
  Cu  Cu48  1  0.27512900  0.01137300  0.56116700  1
  Cu  Cu49  1  0.07317900  0.07317900  0.41383500  1
  Cu  Cu50  1  0.66016700  0.66016700  0.47468300  1
  Cu  Cu51  1  0.48862700  0.22487100  0.06116700  1
  Cu  Cu52  1  0.16016700  0.16016700  0.02531700  1
  Cu  Cu53  1  0.33983300  0.33983300  0.52531700  1
  Cu  Cu54  1  0.27886200  0.97432000  0.87554800  1
  Cu  Cu55  1  0.97112800  0.20736300  0.22904400  1
  Cu  Cu56  1  0.34653500  0.83614500  0.40117100  1
  Cu  Cu57  1  0.47112800  0.70736300  0.27095600  1
  Cu  Cu58  1  0.83983300  0.83983300  0.97468300  1
  Cu  Cu59  1  0.15346500  0.66385500  0.90117100  1
