# generated using pymatgen
data_CuNi4C7
_symmetry_space_group_name_H-M   'P 1'
_cell_length_a   11.65851100
_cell_length_b   11.07003900
_cell_length_c   15.73461364
_cell_angle_alpha   45.78038838
_cell_angle_beta   90.00000000
_cell_angle_gamma   90.00000000
_symmetry_Int_Tables_number   1
_chemical_formula_structural   CuNi4C7
_chemical_formula_sum   'Cu8 Ni32 C56'
_cell_volume   1455.35425075
_cell_formula_units_Z   8
loop_
 _symmetry_equiv_pos_site_id
 _symmetry_equiv_pos_as_xyz
  1  'x, y, z'
loop_
 _atom_site_type_symbol
 _atom_site_label
 _atom_site_symmetry_multiplicity
 _atom_site_fract_x
 _atom_site_fract_y
 _atom_site_fract_z
 _atom_site_occupancy
  Ni  Ni0  1  0.10477300  0.50491700  0.24366800  1
  Ni  Ni1  1  0.70600900  0.48138500  0.18480900  1
  Ni  Ni2  1  0.79399100  0.48138500  0.68480900  1
  Ni  Ni3  1  0.26061900  0.94892700  0.34694400  1
  Ni  Ni4  1  0.58535200  0.81400900  0.83200300  1
  Ni  Ni5  1  0.65283800  0.00026000  0.76170600  1
  Ni  Ni6  1  0.82971100  0.54276300  0.82671000  1
  Ni  Ni7  1  0.84716200  0.00026000  0.26170600  1
  Ni  Ni8  1  0.91464800  0.81400900  0.33200300  1
  Ni  Ni9  1  0.89522700  0.49508300  0.75633200  1
  Ni  Ni10  1  0.60477300  0.49508300  0.25633200  1
  Ni  Ni11  1  0.73938100  0.05107300  0.65305600  1
  Ni  Ni12  1  0.48577800  0.34518700  0.85005400  1
  Ni  Ni13  1  0.95055200  0.15137800  0.19690500  1
  Ni  Ni14  1  0.34716200  0.99974000  0.23829400  1
  Ni  Ni15  1  0.76061900  0.05107300  0.15305600  1
  Ni  Ni16  1  0.98577800  0.65481300  0.64994600  1
  Ni  Ni17  1  0.01422200  0.34518700  0.35005400  1
  Ni  Ni18  1  0.17028900  0.45723700  0.17329000  1
  Ni  Ni19  1  0.15283800  0.99974000  0.73829400  1
  Ni  Ni20  1  0.54944800  0.15137800  0.69690500  1
  Ni  Ni21  1  0.04944800  0.84862200  0.80309500  1
  Ni  Ni22  1  0.23938100  0.94892700  0.84694400  1
  Ni  Ni23  1  0.45055200  0.84862200  0.30309500  1
  Ni  Ni24  1  0.08535200  0.18599100  0.66799700  1
  Ni  Ni25  1  0.29399100  0.51861500  0.81519100  1
  Ni  Ni26  1  0.20600900  0.51861500  0.31519100  1
  Ni  Ni27  1  0.39522700  0.50491700  0.74366800  1
  Ni  Ni28  1  0.67028900  0.54276300  0.32671000  1
  Ni  Ni29  1  0.41464800  0.18599100  0.16799700  1
  Ni  Ni30  1  0.51422200  0.65481300  0.14994600  1
  Ni  Ni31  1  0.32971100  0.45723700  0.67329000  1
  Cu  Cu32  1  0.27870600  0.01066900  0.15282900  1
  Cu  Cu33  1  0.53999500  0.33298100  0.34284400  1
  Cu  Cu34  1  0.72129400  0.98933100  0.84717100  1
  Cu  Cu35  1  0.46000500  0.66701900  0.65715600  1
  Cu  Cu36  1  0.77870600  0.98933100  0.34717100  1
  Cu  Cu37  1  0.96000500  0.33298100  0.84284400  1
  Cu  Cu38  1  0.03999500  0.66701900  0.15715600  1
  Cu  Cu39  1  0.22129400  0.01066900  0.65282900  1
  C  C40  1  0.72594400  0.98193800  0.41210100  1
  C  C41  1  0.27405600  0.01806200  0.58789900  1
  C  C42  1  0.50977800  0.79097300  0.59069800  1
  C  C43  1  0.22594400  0.01806200  0.08789900  1
  C  C44  1  0.49022200  0.20902700  0.40930200  1
  C  C45  1  0.99022200  0.79097300  0.09069800  1
  C  C46  1  0.00977800  0.20902700  0.90930200  1
  C  C47  1  0.77405600  0.98193800  0.91210100  1
  C  C48  1  0.16717200  0.55618500  0.05553800  1
  C  C49  1  0.05176200  0.18697800  0.43617500  1
  C  C50  1  0.14673200  0.92541000  0.35104300  1
  C  C51  1  0.09811300  0.63148200  0.64543100  1
  C  C52  1  0.35326800  0.92541000  0.85104300  1
  C  C53  1  0.64673200  0.07459000  0.14895700  1
  C  C54  1  0.19699600  0.92886700  0.93490400  1
  C  C55  1  0.44823800  0.18697800  0.93617500  1
  C  C56  1  0.02230500  0.18566800  0.11614100  1
  C  C57  1  0.30300400  0.92886700  0.43490400  1
  C  C58  1  0.90827600  0.67724000  0.44936000  1
  C  C59  1  0.02035500  0.20366400  0.72861600  1
  C  C60  1  0.80300400  0.07113300  0.06509600  1
  C  C61  1  0.33282800  0.55618500  0.55553800  1
  C  C62  1  0.52230500  0.81433200  0.38385900  1
  C  C63  1  0.83282800  0.44381500  0.94446200  1
  C  C64  1  0.28440000  0.65094300  0.80272000  1
  C  C65  1  0.23116700  0.31473200  0.23419400  1
  C  C66  1  0.71560000  0.34905700  0.19728000  1
  C  C67  1  0.47769500  0.18566800  0.61614100  1
  C  C68  1  0.53321800  0.24352400  0.72250800  1
  C  C69  1  0.73116700  0.68526800  0.26580600  1
  C  C70  1  0.46678200  0.75647600  0.27749200  1
  C  C71  1  0.47964500  0.20366400  0.22861600  1
  C  C72  1  0.78155600  0.60573100  0.11111200  1
  C  C73  1  0.76883300  0.68526800  0.76580600  1
  C  C74  1  0.21560000  0.65094300  0.30272000  1
  C  C75  1  0.78440000  0.34905700  0.69728000  1
  C  C76  1  0.21844400  0.39426900  0.88888800  1
  C  C77  1  0.40188700  0.63148200  0.14543100  1
  C  C78  1  0.55176200  0.81302200  0.06382500  1
  C  C79  1  0.97964500  0.79633600  0.27138400  1
  C  C80  1  0.28155600  0.39426900  0.38888800  1
  C  C81  1  0.40827600  0.32276000  0.05064000  1
  C  C82  1  0.71844400  0.60573100  0.61111200  1
  C  C83  1  0.03321800  0.75647600  0.77749200  1
  C  C84  1  0.96678200  0.24352400  0.22250800  1
  C  C85  1  0.52035500  0.79633600  0.77138400  1
  C  C86  1  0.66717200  0.44381500  0.44446200  1
  C  C87  1  0.97769500  0.81433200  0.88385900  1
  C  C88  1  0.26883300  0.31473200  0.73419400  1
  C  C89  1  0.69699600  0.07113300  0.56509600  1
  C  C90  1  0.09172400  0.32276000  0.55064000  1
  C  C91  1  0.59172400  0.67724000  0.94936000  1
  C  C92  1  0.94823800  0.81302200  0.56382500  1
  C  C93  1  0.59811300  0.36851800  0.85456900  1
  C  C94  1  0.90188700  0.36851800  0.35456900  1
  C  C95  1  0.85326800  0.07459000  0.64895700  1
