# generated using pymatgen
data_Cu6NiC10
_symmetry_space_group_name_H-M   'P 1'
_cell_length_a   13.95894300
_cell_length_b   9.00769900
_cell_length_c   9.64694884
_cell_angle_alpha   89.97613010
_cell_angle_beta   90.00000000
_cell_angle_gamma   90.00000000
_symmetry_Int_Tables_number   1
_chemical_formula_structural   Cu6NiC10
_chemical_formula_sum   'Cu48 Ni8 C80'
_cell_volume   1212.98753186
_cell_formula_units_Z   8
loop_
 _symmetry_equiv_pos_site_id
 _symmetry_equiv_pos_as_xyz
  1  'x, y, z'
loop_
 _atom_site_type_symbol
 _atom_site_label
 _atom_site_symmetry_multiplicity
 _atom_site_fract_x
 _atom_site_fract_y
 _atom_site_fract_z
 _atom_site_occupancy
  Ni  Ni0  1  0.14539700  0.34404900  0.12766600  1
  Ni  Ni1  1  0.64441600  0.15595400  0.37439400  1
  Ni  Ni2  1  0.14441600  0.84404600  0.12560600  1
  Ni  Ni3  1  0.35558400  0.84404600  0.62560600  1
  Ni  Ni4  1  0.85460300  0.65595100  0.87233400  1
  Ni  Ni5  1  0.64539700  0.65595100  0.37233400  1
  Ni  Ni6  1  0.85558400  0.15595400  0.87439400  1
  Ni  Ni7  1  0.35460300  0.34404900  0.62766600  1
  Cu  Cu8  1  0.35947600  0.12269500  0.45504000  1
  Cu  Cu9  1  0.46041100  0.63468400  0.52995700  1
  Cu  Cu10  1  0.04116400  0.12898300  0.22029900  1
  Cu  Cu11  1  0.54252500  0.36571500  0.94148100  1
  Cu  Cu12  1  0.64052400  0.87730500  0.54496000  1
  Cu  Cu13  1  0.14052400  0.12269500  0.95504000  1
  Cu  Cu14  1  0.25163400  0.12983100  0.70552900  1
  Cu  Cu15  1  0.15524700  0.35355800  0.46114100  1
  Cu  Cu16  1  0.35056900  0.94138400  0.95877900  1
  Cu  Cu17  1  0.74836600  0.87016900  0.29447100  1
  Cu  Cu18  1  0.85056900  0.05861600  0.54122100  1
  Cu  Cu19  1  0.35103400  0.44334400  0.29469900  1
  Cu  Cu20  1  0.85947600  0.87730500  0.04496000  1
  Cu  Cu21  1  0.04195100  0.14040500  0.69271000  1
  Cu  Cu22  1  0.25169900  0.62966700  0.54572400  1
  Cu  Cu23  1  0.64040800  0.37696500  0.20512900  1
  Cu  Cu24  1  0.14040800  0.62303500  0.29487100  1
  Cu  Cu25  1  0.03958900  0.63468400  0.02995700  1
  Cu  Cu26  1  0.84426400  0.14554600  0.20975900  1
  Cu  Cu27  1  0.15573600  0.85445400  0.79024100  1
  Cu  Cu28  1  0.54195100  0.85959500  0.80729000  1
  Cu  Cu29  1  0.65524700  0.64644200  0.03885900  1
  Cu  Cu30  1  0.85959200  0.37696500  0.70512900  1
  Cu  Cu31  1  0.75163400  0.87016900  0.79447100  1
  Cu  Cu32  1  0.74830100  0.37033300  0.45427600  1
  Cu  Cu33  1  0.45804900  0.14040500  0.19271000  1
  Cu  Cu34  1  0.54116400  0.87101700  0.27970100  1
  Cu  Cu35  1  0.45883600  0.12898300  0.72029900  1
  Cu  Cu36  1  0.14896600  0.44334400  0.79469900  1
  Cu  Cu37  1  0.64943100  0.05861600  0.04122100  1
  Cu  Cu38  1  0.65573600  0.14554600  0.70975900  1
  Cu  Cu39  1  0.96041100  0.36531600  0.97004300  1
  Cu  Cu40  1  0.95883600  0.87101700  0.77970100  1
  Cu  Cu41  1  0.85103400  0.55665600  0.20530100  1
  Cu  Cu42  1  0.24836600  0.12983100  0.20552900  1
  Cu  Cu43  1  0.24830100  0.62966700  0.04572400  1
  Cu  Cu44  1  0.34475300  0.35355800  0.96114100  1
  Cu  Cu45  1  0.95804900  0.85959500  0.30729000  1
  Cu  Cu46  1  0.14943100  0.94138400  0.45877900  1
  Cu  Cu47  1  0.75169900  0.37033300  0.95427600  1
  Cu  Cu48  1  0.04252500  0.63428500  0.55851900  1
  Cu  Cu49  1  0.35959200  0.62303500  0.79487100  1
  Cu  Cu50  1  0.64896600  0.55665600  0.70530100  1
  Cu  Cu51  1  0.84475300  0.64644200  0.53885900  1
  Cu  Cu52  1  0.45747500  0.63428500  0.05851900  1
  Cu  Cu53  1  0.34426400  0.85445400  0.29024100  1
  Cu  Cu54  1  0.95747500  0.36571500  0.44148100  1
  Cu  Cu55  1  0.53958900  0.36531600  0.47004300  1
  C  C56  1  0.54984700  0.00807400  0.13760900  1
  C  C57  1  0.15102700  0.25342900  0.28135000  1
  C  C58  1  0.24320700  0.50447100  0.38319900  1
  C  C59  1  0.14855900  0.51920900  0.12853500  1
  C  C60  1  0.35144100  0.51920900  0.62853500  1
  C  C61  1  0.34897300  0.25342900  0.78135000  1
  C  C62  1  0.74320700  0.49552900  0.11680100  1
  C  C63  1  0.26235800  0.75588900  0.70568800  1
  C  C64  1  0.14880400  0.24161600  0.78912300  1
  C  C65  1  0.05381500  0.75125300  0.19939400  1
  C  C66  1  0.85009100  0.24497700  0.02899700  1
  C  C67  1  0.05208100  0.25886800  0.53916700  1
  C  C68  1  0.94076100  0.00041300  0.14849100  1
  C  C69  1  0.94791900  0.74113200  0.46083300  1
  C  C70  1  0.64990900  0.24497700  0.52899700  1
  C  C71  1  0.95015300  0.00807400  0.63760900  1
  C  C72  1  0.94406000  0.75132800  0.94687700  1
  C  C73  1  0.34439500  0.00890300  0.13066000  1
  C  C74  1  0.05941100  0.49735700  0.39539200  1
  C  C75  1  0.14636400  0.01905300  0.12331200  1
  C  C76  1  0.64880400  0.75838400  0.71087700  1
  C  C77  1  0.04984700  0.99192600  0.36239100  1
  C  C78  1  0.15560500  0.00890300  0.63066000  1
  C  C79  1  0.44406000  0.24867200  0.55312300  1
  C  C80  1  0.55208100  0.74113200  0.96083300  1
  C  C81  1  0.35009100  0.75502300  0.47100300  1
  C  C82  1  0.44076100  0.99958700  0.35150900  1
  C  C83  1  0.55923900  0.00041300  0.64849100  1
  C  C84  1  0.35011200  0.73979000  0.96098600  1
  C  C85  1  0.85011200  0.26021000  0.53901400  1
  C  C86  1  0.85119600  0.75838400  0.21087700  1
  C  C87  1  0.64988800  0.26021000  0.03901400  1
  C  C88  1  0.94618500  0.24874700  0.80060600  1
  C  C89  1  0.85144100  0.48079100  0.87146500  1
  C  C90  1  0.44058900  0.49735700  0.89539200  1
  C  C91  1  0.94058900  0.50264300  0.60460800  1
  C  C92  1  0.55578200  0.24486200  0.79031700  1
  C  C93  1  0.25679300  0.50447100  0.88319900  1
  C  C94  1  0.55594000  0.75132800  0.44687700  1
  C  C95  1  0.45017700  0.49336400  0.39202700  1
  C  C96  1  0.54982300  0.50663600  0.60797300  1
  C  C97  1  0.65102700  0.74657100  0.21865000  1
  C  C98  1  0.26179600  0.25534700  0.54566300  1
  C  C99  1  0.84666800  0.49187000  0.37938700  1
  C  C100  1  0.15333200  0.50813000  0.62061300  1
  C  C101  1  0.65560500  0.99109700  0.86934000  1
  C  C102  1  0.76235800  0.24411100  0.79431200  1
  C  C103  1  0.23820400  0.25534700  0.04566300  1
  C  C104  1  0.73820400  0.74465300  0.45433700  1
  C  C105  1  0.65333200  0.49187000  0.87938700  1
  C  C106  1  0.55941100  0.50264300  0.10460800  1
  C  C107  1  0.64855900  0.48079100  0.37146500  1
  C  C108  1  0.44791900  0.25886800  0.03916700  1
  C  C109  1  0.94421800  0.24486200  0.29031700  1
  C  C110  1  0.76179600  0.74465300  0.95433700  1
  C  C111  1  0.23764200  0.75588900  0.20568800  1
  C  C112  1  0.35363600  0.01905300  0.62331200  1
  C  C113  1  0.34666800  0.50813000  0.12061300  1
  C  C114  1  0.84897300  0.74657100  0.71865000  1
  C  C115  1  0.44618500  0.75125300  0.69939400  1
  C  C116  1  0.75679300  0.49552900  0.61680100  1
  C  C117  1  0.14990900  0.75502300  0.97100300  1
  C  C118  1  0.74323600  0.99539900  0.63121600  1
  C  C119  1  0.73764200  0.24411100  0.29431200  1
  C  C120  1  0.05578200  0.75513800  0.70968300  1
  C  C121  1  0.24323600  0.00460100  0.86878400  1
  C  C122  1  0.44421800  0.75513800  0.20968300  1
  C  C123  1  0.04982300  0.49336400  0.89202700  1
  C  C124  1  0.25676400  0.00460100  0.36878400  1
  C  C125  1  0.45015300  0.99192600  0.86239100  1
  C  C126  1  0.84439500  0.99109700  0.36934000  1
  C  C127  1  0.05923900  0.99958700  0.85150900  1
  C  C128  1  0.95017700  0.50663600  0.10797300  1
  C  C129  1  0.64636400  0.98094700  0.37668800  1
  C  C130  1  0.14988800  0.73979000  0.46098600  1
  C  C131  1  0.75676400  0.99539900  0.13121600  1
  C  C132  1  0.05594000  0.24867200  0.05312300  1
  C  C133  1  0.35119600  0.24161600  0.28912300  1
  C  C134  1  0.85363600  0.98094700  0.87668800  1
  C  C135  1  0.55381500  0.24874700  0.30060600  1
