# generated using pymatgen
data_Cu2Ni2C9
_symmetry_space_group_name_H-M   'P 1'
_cell_length_a   7.66724500
_cell_length_b   9.01021600
_cell_length_c   12.07563223
_cell_angle_alpha   75.93522205
_cell_angle_beta   90.00000000
_cell_angle_gamma   90.00000000
_symmetry_Int_Tables_number   1
_chemical_formula_structural   Cu2Ni2C9
_chemical_formula_sum   'Cu8 Ni8 C36'
_cell_volume   809.21853689
_cell_formula_units_Z   4
loop_
 _symmetry_equiv_pos_site_id
 _symmetry_equiv_pos_as_xyz
  1  'x, y, z'
loop_
 _atom_site_type_symbol
 _atom_site_label
 _atom_site_symmetry_multiplicity
 _atom_site_fract_x
 _atom_site_fract_y
 _atom_site_fract_z
 _atom_site_occupancy
  C  C0  1  0.36028100  0.96544400  0.12770900  1
  C  C1  1  0.86028100  0.03455600  0.37229100  1
  C  C2  1  0.86682500  0.54342500  0.85269100  1
  C  C3  1  0.36682500  0.45657500  0.64730900  1
  C  C4  1  0.63317500  0.54342500  0.35269100  1
  C  C5  1  0.63971900  0.03455600  0.87229100  1
  C  C6  1  0.13971900  0.96544400  0.62770900  1
  C  C7  1  0.13317500  0.45657500  0.14730900  1
  Ni  Ni8  1  0.87650900  0.34186100  0.62184100  1
  Ni  Ni9  1  0.62349100  0.34186100  0.12184100  1
  Ni  Ni10  1  0.37650900  0.65813900  0.87815900  1
  Ni  Ni11  1  0.58279100  0.81502100  0.63414300  1
  Ni  Ni12  1  0.41720900  0.18497900  0.36585700  1
  Ni  Ni13  1  0.08279100  0.18497900  0.86585700  1
  Ni  Ni14  1  0.91720900  0.81502100  0.13414300  1
  Ni  Ni15  1  0.12349100  0.65813900  0.37815900  1
  Cu  Cu16  1  0.41133100  0.84431700  0.41168000  1
  Cu  Cu17  1  0.11604300  0.31862900  0.43789600  1
  Cu  Cu18  1  0.58866900  0.15568300  0.58832000  1
  Cu  Cu19  1  0.61604300  0.68137100  0.06210400  1
  Cu  Cu20  1  0.08866900  0.84431700  0.91168000  1
  Cu  Cu21  1  0.38395700  0.31862900  0.93789600  1
  Cu  Cu22  1  0.88395700  0.68137100  0.56210400  1
  Cu  Cu23  1  0.91133100  0.15568300  0.08832000  1
  C  C24  1  0.53858800  0.22928400  0.47924300  1
  C  C25  1  0.80845700  0.79727400  0.60372100  1
  C  C26  1  0.96946800  0.28188100  0.50515800  1
  C  C27  1  0.01913300  0.30784000  0.73753800  1
  C  C28  1  0.46946800  0.71811900  0.99484200  1
  C  C29  1  0.54217600  0.00630900  0.63861500  1
  C  C30  1  0.81205600  0.53677800  0.58860200  1
  C  C31  1  0.45782400  0.99369100  0.36138500  1
  C  C32  1  0.30845700  0.20272600  0.89627900  1
  C  C33  1  0.03858800  0.77071600  0.02075700  1
  C  C34  1  0.46141200  0.77071600  0.52075700  1
  C  C35  1  0.31205600  0.46322200  0.91139800  1
  C  C36  1  0.68794400  0.53677800  0.08860200  1
  C  C37  1  0.18000300  0.76332800  0.84650700  1
  C  C38  1  0.31999700  0.76332800  0.34650700  1
  C  C39  1  0.51913300  0.69216000  0.76246200  1
  C  C40  1  0.95782400  0.00630900  0.13861500  1
  C  C41  1  0.18794400  0.46322200  0.41139800  1
  C  C42  1  0.19154300  0.20272600  0.39627900  1
  C  C43  1  0.68000300  0.23667200  0.65349300  1
  C  C44  1  0.04217600  0.99369100  0.86138500  1
  C  C45  1  0.03053200  0.71811900  0.49484200  1
  C  C46  1  0.96141200  0.22928400  0.97924300  1
  C  C47  1  0.69154300  0.79727400  0.10372100  1
  C  C48  1  0.81999700  0.23667200  0.15349300  1
  C  C49  1  0.53053200  0.28188100  0.00515800  1
  C  C50  1  0.48086700  0.30784000  0.23753800  1
  C  C51  1  0.98086700  0.69216000  0.26246200  1
