# generated using pymatgen
data_Cu2NiC4
_symmetry_space_group_name_H-M   'P 1'
_cell_length_a   20.66903705
_cell_length_b   20.66903705
_cell_length_c   20.66903727
_cell_angle_alpha   17.16675742
_cell_angle_beta   17.16675742
_cell_angle_gamma   17.16675837
_symmetry_Int_Tables_number   1
_chemical_formula_structural   Cu2NiC4
_chemical_formula_sum   'Cu16 Ni8 C32'
_cell_volume   671.15730410
_cell_formula_units_Z   8
loop_
 _symmetry_equiv_pos_site_id
 _symmetry_equiv_pos_as_xyz
  1  'x, y, z'
loop_
 _atom_site_type_symbol
 _atom_site_label
 _atom_site_symmetry_multiplicity
 _atom_site_fract_x
 _atom_site_fract_y
 _atom_site_fract_z
 _atom_site_occupancy
  Ni  Ni0  1  0.68805400  0.68805400  0.68805400  1
  Ni  Ni1  1  0.43825000  0.43825000  0.43825000  1
  Ni  Ni2  1  0.49891400  0.49891400  0.49891400  1
  Ni  Ni3  1  0.34289600  0.34289600  0.34289600  1
  Ni  Ni4  1  0.18819700  0.18819700  0.18819700  1
  Ni  Ni5  1  0.25065300  0.25065300  0.25065300  1
  Ni  Ni6  1  0.09461400  0.09461400  0.09461400  1
  Ni  Ni7  1  0.93733900  0.93733900  0.93733900  1
  Cu  Cu8  1  0.99899400  0.99899400  0.99899400  1
  Cu  Cu9  1  0.74815900  0.74815900  0.74815900  1
  Cu  Cu10  1  0.70934300  0.22338400  0.22338400  1
  Cu  Cu11  1  0.22338400  0.22338400  0.70934300  1
  Cu  Cu12  1  0.46458400  0.97226400  0.97226400  1
  Cu  Cu13  1  0.22338400  0.70934300  0.22338400  1
  Cu  Cu14  1  0.97226400  0.97226400  0.46458400  1
  Cu  Cu15  1  0.21779300  0.71888400  0.71888400  1
  Cu  Cu16  1  0.97226400  0.46458400  0.97226400  1
  Cu  Cu17  1  0.84389400  0.84389400  0.84389400  1
  Cu  Cu18  1  0.71888400  0.71888400  0.21779300  1
  Cu  Cu19  1  0.95978700  0.47223700  0.47223700  1
  Cu  Cu20  1  0.71888400  0.21779300  0.71888400  1
  Cu  Cu21  1  0.47223700  0.47223700  0.95978700  1
  Cu  Cu22  1  0.59287400  0.59287400  0.59287400  1
  Cu  Cu23  1  0.47223700  0.95978700  0.47223700  1
  C  C24  1  0.51853000  0.06878500  0.51853000  1
  C  C25  1  0.40297400  0.40297400  0.40297400  1
  C  C26  1  0.51853000  0.51853000  0.06878500  1
  C  C27  1  0.06878500  0.51853000  0.51853000  1
  C  C28  1  0.27302800  0.81489800  0.27302800  1
  C  C29  1  0.39333700  0.90786500  0.90786500  1
  C  C30  1  0.90786500  0.90786500  0.39333700  1
  C  C31  1  0.15342700  0.15342700  0.15342700  1
  C  C32  1  0.03165700  0.03165700  0.03165700  1
  C  C33  1  0.27302800  0.27302800  0.81489800  1
  C  C34  1  0.81489800  0.27302800  0.27302800  1
  C  C35  1  0.90786500  0.39333700  0.90786500  1
  C  C36  1  0.00854300  0.58212900  0.00854300  1
  C  C37  1  0.09958500  0.68258400  0.68258400  1
  C  C38  1  0.90186700  0.90186700  0.90186700  1
  C  C39  1  0.00854300  0.00854300  0.58212900  1
  C  C40  1  0.68258400  0.68258400  0.09958500  1
  C  C41  1  0.78003200  0.78003200  0.78003200  1
  C  C42  1  0.58212900  0.00854300  0.00854300  1
  C  C43  1  0.68258400  0.09958500  0.68258400  1
  C  C44  1  0.85829100  0.42784100  0.42784100  1
  C  C45  1  0.75631500  0.33321500  0.75631500  1
  C  C46  1  0.42784100  0.42784100  0.85829100  1
  C  C47  1  0.65176300  0.65176300  0.65176300  1
  C  C48  1  0.53547200  0.53547200  0.53547200  1
  C  C49  1  0.75631500  0.75631500  0.33321500  1
  C  C50  1  0.33321500  0.75631500  0.75631500  1
  C  C51  1  0.42784100  0.85829100  0.42784100  1
  C  C52  1  0.65765400  0.15009200  0.15009200  1
  C  C53  1  0.15009200  0.15009200  0.65765400  1
  C  C54  1  0.28743500  0.28743500  0.28743500  1
  C  C55  1  0.15009200  0.65765400  0.15009200  1
