# generated using pymatgen
data_Cu(Ni2C15)2
_symmetry_space_group_name_H-M   'P 1'
_cell_length_a   14.97658942
_cell_length_b   14.97658942
_cell_length_c   14.97658869
_cell_angle_alpha   33.54102363
_cell_angle_beta   33.54102363
_cell_angle_gamma   33.54102350
_symmetry_Int_Tables_number   1
_chemical_formula_structural   Cu(Ni2C15)2
_chemical_formula_sum   'Cu2 Ni8 C60'
_cell_volume   913.45659399
_cell_formula_units_Z   2
loop_
 _symmetry_equiv_pos_site_id
 _symmetry_equiv_pos_as_xyz
  1  'x, y, z'
loop_
 _atom_site_type_symbol
 _atom_site_label
 _atom_site_symmetry_multiplicity
 _atom_site_fract_x
 _atom_site_fract_y
 _atom_site_fract_z
 _atom_site_occupancy
  Ni  Ni0  1  0.30369200  0.30369200  0.30369200  1
  Ni  Ni1  1  0.44405800  0.44405800  0.44405800  1
  Ni  Ni2  1  0.55594200  0.55594200  0.55594200  1
  Ni  Ni3  1  0.94715900  0.94715900  0.94715900  1
  Ni  Ni4  1  0.19464900  0.19464900  0.19464900  1
  Ni  Ni5  1  0.69630800  0.69630800  0.69630800  1
  Ni  Ni6  1  0.80535100  0.80535100  0.80535100  1
  Ni  Ni7  1  0.05284100  0.05284100  0.05284100  1
  Cu  Cu8  1  0.12453400  0.12453400  0.12453400  1
  Cu  Cu9  1  0.87546600  0.87546600  0.87546600  1
  C  C10  1  0.53982000  0.96338300  0.24000600  1
  C  C11  1  0.24000600  0.53982000  0.96338200  1
  C  C12  1  0.46018000  0.75999400  0.03661800  1
  C  C13  1  0.21318700  0.78681300  0.50000000  1
  C  C14  1  0.78681300  0.50000000  0.21318700  1
  C  C15  1  0.03661800  0.46018000  0.75999400  1
  C  C16  1  0.71096300  0.28903700  0.00000000  1
  C  C17  1  0.75999400  0.03661800  0.46018000  1
  C  C18  1  0.50000000  0.21318700  0.78681300  1
  C  C19  1  0.96338300  0.24000600  0.53982000  1
  C  C20  1  0.00000000  0.71096300  0.28903700  1
  C  C21  1  0.28903700  0.00000000  0.71096300  1
  C  C22  1  0.18502400  0.97369200  0.32775100  1
  C  C23  1  0.69706700  0.47588300  0.83716100  1
  C  C24  1  0.22810000  0.42755400  0.60141900  1
  C  C25  1  0.16283900  0.52411700  0.30293300  1
  C  C26  1  0.06234400  0.72323200  0.95401900  1
  C  C27  1  0.20009200  0.05502200  0.83330900  1
  C  C28  1  0.95401900  0.06234400  0.72323200  1
  C  C29  1  0.79513000  0.96237300  0.59010800  1
  C  C30  1  0.72243800  0.90938000  0.53728100  1
  C  C31  1  0.03762700  0.20487000  0.40989200  1
  C  C32  1  0.52411700  0.30293300  0.16283900  1
  C  C33  1  0.83330900  0.20009200  0.05502200  1
  C  C34  1  0.32775100  0.18502400  0.97369200  1
  C  C35  1  0.94497800  0.79990800  0.16669100  1
  C  C36  1  0.65034200  0.48588000  0.27485700  1
  C  C37  1  0.96237300  0.59010800  0.79513000  1
  C  C38  1  0.40989200  0.03762700  0.20487000  1
  C  C39  1  0.16669100  0.94497800  0.79990800  1
  C  C40  1  0.97369200  0.32775100  0.18502400  1
  C  C41  1  0.77190000  0.39858100  0.57244600  1
  C  C42  1  0.60141900  0.22810000  0.42755400  1
  C  C43  1  0.04598100  0.27676800  0.93765600  1
  C  C44  1  0.72514300  0.51412000  0.34965800  1
  C  C45  1  0.79990800  0.16669100  0.94497800  1
  C  C46  1  0.34965800  0.72514300  0.51412000  1
  C  C47  1  0.30293300  0.16283900  0.52411700  1
  C  C48  1  0.27485700  0.65034200  0.48588000  1
  C  C49  1  0.93765600  0.04598100  0.27676800  1
  C  C50  1  0.39858100  0.57244600  0.77190000  1
  C  C51  1  0.05502200  0.83330900  0.20009200  1
  C  C52  1  0.09062000  0.27756200  0.46271900  1
  C  C53  1  0.90938000  0.53728100  0.72243800  1
  C  C54  1  0.48588000  0.27485700  0.65034200  1
  C  C55  1  0.81497600  0.67224900  0.02630800  1
  C  C56  1  0.53728100  0.72243800  0.90938000  1
  C  C57  1  0.59010800  0.79513000  0.96237300  1
  C  C58  1  0.20487000  0.40989200  0.03762700  1
  C  C59  1  0.67224900  0.02630800  0.81497600  1
  C  C60  1  0.51412000  0.34965800  0.72514300  1
  C  C61  1  0.47588300  0.83716100  0.69706700  1
  C  C62  1  0.42755400  0.60141900  0.22810000  1
  C  C63  1  0.02630800  0.81497600  0.67224900  1
  C  C64  1  0.57244600  0.77190000  0.39858100  1
  C  C65  1  0.46271900  0.09062000  0.27756200  1
  C  C66  1  0.27676800  0.93765600  0.04598100  1
  C  C67  1  0.72323200  0.95401900  0.06234400  1
  C  C68  1  0.27756200  0.46271900  0.09062000  1
  C  C69  1  0.83716100  0.69706700  0.47588300  1
