# generated using pymatgen
data_Cu4NiC4
_symmetry_space_group_name_H-M   'P 1'
_cell_length_a   11.91783714
_cell_length_b   11.91783714
_cell_length_c   6.40020668
_cell_angle_alpha   82.00011845
_cell_angle_beta   82.00011845
_cell_angle_gamma   142.54210803
_symmetry_Int_Tables_number   1
_chemical_formula_structural   Cu4NiC4
_chemical_formula_sum   'Cu8 Ni2 C8'
_cell_volume   498.23531963
_cell_formula_units_Z   2
loop_
 _symmetry_equiv_pos_site_id
 _symmetry_equiv_pos_as_xyz
  1  'x, y, z'
loop_
 _atom_site_type_symbol
 _atom_site_label
 _atom_site_symmetry_multiplicity
 _atom_site_fract_x
 _atom_site_fract_y
 _atom_site_fract_z
 _atom_site_occupancy
  C  C0  1  0.80819500  0.19180500  0.75000000  1
  C  C1  1  0.06173100  0.93826900  0.75000000  1
  C  C2  1  0.19180500  0.80819500  0.25000000  1
  C  C3  1  0.93826900  0.06173100  0.25000000  1
  C  C4  1  0.68453600  0.31546400  0.25000000  1
  C  C5  1  0.53244000  0.46756000  0.25000000  1
  C  C6  1  0.46756000  0.53244000  0.75000000  1
  C  C7  1  0.31546400  0.68453600  0.75000000  1
  Ni  Ni8  1  0.37681200  0.62318800  0.25000000  1
  Ni  Ni9  1  0.62318800  0.37681200  0.75000000  1
  Cu  Cu10  1  0.51639400  0.87802200  0.34137400  1
  Cu  Cu11  1  0.76664400  0.63427700  0.45236000  1
  Cu  Cu12  1  0.23335600  0.36572300  0.54764000  1
  Cu  Cu13  1  0.48360600  0.12197800  0.65862600  1
  Cu  Cu14  1  0.36572300  0.23335600  0.04764000  1
  Cu  Cu15  1  0.12197800  0.48360600  0.15862600  1
  Cu  Cu16  1  0.87802200  0.51639400  0.84137400  1
  Cu  Cu17  1  0.63427700  0.76664400  0.95236000  1
