# generated using pymatgen
data_Cu5NiC2
_symmetry_space_group_name_H-M   'P 1'
_cell_length_a   9.55590100
_cell_length_b   6.28812900
_cell_length_c   16.78503521
_cell_angle_alpha   69.78601218
_cell_angle_beta   90.00000000
_cell_angle_gamma   90.00000000
_symmetry_Int_Tables_number   1
_chemical_formula_structural   Cu5NiC2
_chemical_formula_sum   'Cu20 Ni4 C8'
_cell_volume   946.47111516
_cell_formula_units_Z   4
loop_
 _symmetry_equiv_pos_site_id
 _symmetry_equiv_pos_as_xyz
  1  'x, y, z'
loop_
 _atom_site_type_symbol
 _atom_site_label
 _atom_site_symmetry_multiplicity
 _atom_site_fract_x
 _atom_site_fract_y
 _atom_site_fract_z
 _atom_site_occupancy
  C  C0  1  0.85290700  0.90299000  0.59046400  1
  C  C1  1  0.64709300  0.90299000  0.09046400  1
  C  C2  1  0.14709300  0.09701000  0.40953600  1
  C  C3  1  0.35290700  0.09701000  0.90953600  1
  C  C4  1  0.28796400  0.57212500  0.74424400  1
  C  C5  1  0.21203600  0.57212500  0.24424400  1
  C  C6  1  0.78796400  0.42787500  0.75575600  1
  C  C7  1  0.71203600  0.42787500  0.25575600  1
  Ni  Ni8  1  0.18447200  0.34984200  0.32214500  1
  Ni  Ni9  1  0.68447200  0.65015800  0.17785500  1
  Ni  Ni10  1  0.81552800  0.65015800  0.67785500  1
  Ni  Ni11  1  0.31552800  0.34984200  0.82214500  1
  Cu  Cu12  1  0.32606000  0.87030600  0.39119000  1
  Cu  Cu13  1  0.91627200  0.44966700  0.85121500  1
  Cu  Cu14  1  0.50656700  0.94667900  0.83742400  1
  Cu  Cu15  1  0.99343300  0.94667900  0.33742400  1
  Cu  Cu16  1  0.41627200  0.55033300  0.64878500  1
  Cu  Cu17  1  0.58372800  0.44966700  0.35121500  1
  Cu  Cu18  1  0.55833500  0.25921300  0.95643800  1
  Cu  Cu19  1  0.17394000  0.87030600  0.89119000  1
  Cu  Cu20  1  0.77369000  0.82004200  0.98853600  1
  Cu  Cu21  1  0.67394000  0.12969400  0.60881000  1
  Cu  Cu22  1  0.72631000  0.82004200  0.48853600  1
  Cu  Cu23  1  0.44166500  0.74078700  0.04356200  1
  Cu  Cu24  1  0.05833500  0.74078700  0.54356200  1
  Cu  Cu25  1  0.82606000  0.12969400  0.10881000  1
  Cu  Cu26  1  0.49343300  0.05332100  0.16257600  1
  Cu  Cu27  1  0.94166500  0.25921300  0.45643800  1
  Cu  Cu28  1  0.08372800  0.55033300  0.14878500  1
  Cu  Cu29  1  0.27369000  0.17995800  0.51146400  1
  Cu  Cu30  1  0.00656700  0.05332100  0.66257600  1
  Cu  Cu31  1  0.22631000  0.17995800  0.01146400  1
