# generated using pymatgen
data_Cu4NiC2
_symmetry_space_group_name_H-M   'P 1'
_cell_length_a   5.44268434
_cell_length_b   5.44268434
_cell_length_c   9.56330500
_cell_angle_alpha   90.00000000
_cell_angle_beta   90.00000000
_cell_angle_gamma   120.00000412
_symmetry_Int_Tables_number   1
_chemical_formula_structural   Cu4NiC2
_chemical_formula_sum   'Cu8 Ni2 C4'
_cell_volume   245.33805321
_cell_formula_units_Z   2
loop_
 _symmetry_equiv_pos_site_id
 _symmetry_equiv_pos_as_xyz
  1  'x, y, z'
loop_
 _atom_site_type_symbol
 _atom_site_label
 _atom_site_symmetry_multiplicity
 _atom_site_fract_x
 _atom_site_fract_y
 _atom_site_fract_z
 _atom_site_occupancy
  C  C0  1  0.00000000  0.00000000  0.00000000  1
  C  C1  1  0.66666700  0.33333300  0.92113000  1
  C  C2  1  0.00000000  0.00000000  0.50000000  1
  C  C3  1  0.33333300  0.66666700  0.07887000  1
  Ni  Ni4  1  0.33333300  0.66666700  0.71582600  1
  Ni  Ni5  1  0.66666700  0.33333300  0.28417400  1
  Cu  Cu6  1  0.66666700  0.33333300  0.43695100  1
  Cu  Cu7  1  0.33333300  0.66666700  0.56304900  1
  Cu  Cu8  1  0.86590300  0.73180500  0.76071600  1
  Cu  Cu9  1  0.26819500  0.13409700  0.76071600  1
  Cu  Cu10  1  0.13409700  0.86590300  0.23928400  1
  Cu  Cu11  1  0.13409700  0.26819500  0.23928400  1
  Cu  Cu12  1  0.73180500  0.86590300  0.23928400  1
  Cu  Cu13  1  0.86590300  0.13409700  0.76071600  1
