# generated using pymatgen
data_Cu13(Ni17C13)2
_symmetry_space_group_name_H-M   'P 1'
_cell_length_a   4.51594310
_cell_length_b   4.51594345
_cell_length_c   92.95942253
_cell_angle_alpha   90.00000000
_cell_angle_beta   90.00000000
_cell_angle_gamma   119.99999744
_symmetry_Int_Tables_number   1
_chemical_formula_structural   Cu13(Ni17C13)2
_chemical_formula_sum   'Cu13 Ni34 C26'
_cell_volume   1641.80289150
_cell_formula_units_Z   1
loop_
 _symmetry_equiv_pos_site_id
 _symmetry_equiv_pos_as_xyz
  1  'x, y, z'
loop_
 _atom_site_type_symbol
 _atom_site_label
 _atom_site_symmetry_multiplicity
 _atom_site_fract_x
 _atom_site_fract_y
 _atom_site_fract_z
 _atom_site_occupancy
  Ni  Ni0  1  0.00000000  0.00000000  0.11730542  1
  Ni  Ni1  1  0.00000000  0.00000000  0.34814577  1
  Ni  Ni2  1  0.00000000  0.00000000  0.57688659  1
  Ni  Ni3  1  0.00000000  0.00000000  0.80870312  1
  Ni  Ni4  1  0.00000000  0.00000000  0.03684804  1
  Ni  Ni5  1  0.00000000  0.00000000  0.19385668  1
  Ni  Ni6  1  0.33333300  0.66666700  0.05079873  1
  Ni  Ni7  1  0.00000000  0.00000000  0.26900309  1
  Ni  Ni8  1  0.33333300  0.66666700  0.28048932  1
  Ni  Ni9  1  0.00000000  0.00000000  0.42192230  1
  Ni  Ni10  1  0.33333300  0.66666700  0.43393510  1
  Ni  Ni11  1  0.33333300  0.66666700  0.51131118  1
  Ni  Ni12  1  0.33333300  0.66666700  0.58837590  1
  Ni  Ni13  1  0.00000000  0.00000000  0.65391579  1
  Ni  Ni14  1  0.00000000  0.00000000  0.73119490  1
  Ni  Ni15  1  0.33333300  0.66666700  0.66534326  1
  Ni  Ni16  1  0.33333300  0.66666700  0.74252845  1
  Ni  Ni17  1  0.33333300  0.66666700  0.82003701  1
  Ni  Ni18  1  0.33333300  0.66666700  0.97325710  1
  Ni  Ni19  1  0.66666700  0.33333300  0.18007796  1
  Ni  Ni20  1  0.66666700  0.33333300  0.33443458  1
  Ni  Ni21  1  0.66666700  0.33333300  0.41082217  1
  Ni  Ni22  1  0.66666700  0.33333300  0.10351758  1
  Ni  Ni23  1  0.66666700  0.33333300  0.25730622  1
  Ni  Ni24  1  0.66666700  0.33333300  0.48830332  1
  Ni  Ni25  1  0.66666700  0.33333300  0.56547000  1
  Ni  Ni26  1  0.66666700  0.33333300  0.64241775  1
  Ni  Ni27  1  0.66666700  0.33333300  0.87328870  1
  Ni  Ni28  1  0.66666700  0.33333300  0.71949699  1
  Ni  Ni29  1  0.66666700  0.33333300  0.79655815  1
  Ni  Ni30  1  0.00000000  0.00000000  0.88720193  1
  Ni  Ni31  1  0.66666700  0.33333300  0.95035205  1
  Ni  Ni32  1  0.00000000  0.00000000  0.49962844  1
  Ni  Ni33  1  0.00000000  0.00000000  0.96172453  1
  C  C34  1  0.33333300  0.66666700  0.02038123  1
  C  C35  1  0.33333300  0.66666700  0.09616979  1
  C  C36  1  0.33333300  0.66666700  0.17187950  1
  C  C37  1  0.33333300  0.66666700  0.24919524  1
  C  C38  1  0.33333300  0.66666700  0.32635120  1
  C  C39  1  0.33333300  0.66666700  0.40320534  1
  C  C40  1  0.33333300  0.66666700  0.48047389  1
  C  C41  1  0.33333300  0.66666700  0.55758850  1
  C  C42  1  0.33333300  0.66666700  0.63453914  1
  C  C43  1  0.33333300  0.66666700  0.71159082  1
  C  C44  1  0.33333300  0.66666700  0.78865204  1
  C  C45  1  0.33333300  0.66666700  0.86514062  1
  C  C46  1  0.33333300  0.66666700  0.94219880  1
  C  C47  1  0.66666700  0.33333300  0.05859052  1
  C  C48  1  0.66666700  0.33333300  0.13384565  1
  C  C49  1  0.66666700  0.33333300  0.21039944  1
  C  C50  1  0.66666700  0.33333300  0.28817360  1
  C  C51  1  0.66666700  0.33333300  0.36469718  1
  C  C52  1  0.66666700  0.33333300  0.44193906  1
  C  C53  1  0.66666700  0.33333300  0.51919159  1
  C  C54  1  0.66666700  0.33333300  0.59618724  1
  C  C55  1  0.66666700  0.33333300  0.67317490  1
  C  C56  1  0.66666700  0.33333300  0.75027050  1
  C  C57  1  0.66666700  0.33333300  0.82711528  1
  C  C58  1  0.66666700  0.33333300  0.90355021  1
  C  C59  1  0.66666700  0.33333300  0.98144406  1
  Cu  Cu60  1  0.00000000  0.00000000  0.00103709  1
  Cu  Cu61  1  0.00000000  0.00000000  0.07724313  1
  Cu  Cu62  1  0.00000000  0.00000000  0.15309879  1
  Cu  Cu63  1  0.00000000  0.00000000  0.30779806  1
  Cu  Cu64  1  0.00000000  0.00000000  0.53836435  1
  Cu  Cu65  1  0.00000000  0.00000000  0.61538187  1
  Cu  Cu66  1  0.00000000  0.00000000  0.84682539  1
  Cu  Cu67  1  0.00000000  0.00000000  0.22967229  1
  Cu  Cu68  1  0.00000000  0.00000000  0.46105913  1
  Cu  Cu69  1  0.00000000  0.00000000  0.69244066  1
  Cu  Cu70  1  0.00000000  0.00000000  0.92265267  1
  Cu  Cu71  1  0.00000000  0.00000000  0.38353831  1
  Cu  Cu72  1  0.00000000  0.00000000  0.76963876  1
