# generated using pymatgen
data_Cu2NiC2
_symmetry_space_group_name_H-M   'P 1'
_cell_length_a   3.57252200
_cell_length_b   8.55516824
_cell_length_c   8.68436014
_cell_angle_alpha   113.65656979
_cell_angle_beta   86.83743995
_cell_angle_gamma   100.31212992
_symmetry_Int_Tables_number   1
_chemical_formula_structural   Cu2NiC2
_chemical_formula_sum   'Cu8 Ni4 C8'
_cell_volume   239.15228611
_cell_formula_units_Z   4
loop_
 _symmetry_equiv_pos_site_id
 _symmetry_equiv_pos_as_xyz
  1  'x, y, z'
loop_
 _atom_site_type_symbol
 _atom_site_label
 _atom_site_symmetry_multiplicity
 _atom_site_fract_x
 _atom_site_fract_y
 _atom_site_fract_z
 _atom_site_occupancy
  C  C0  1  0.28430700  0.53688600  0.83276300  1
  C  C1  1  0.00000000  0.00000000  0.00000000  1
  C  C2  1  0.71569300  0.46311400  0.16723700  1
  C  C3  1  0.91760200  0.16100300  0.38355500  1
  C  C4  1  0.43706900  0.86235800  0.34378600  1
  C  C5  1  0.08239800  0.83899700  0.61644500  1
  C  C6  1  0.56293100  0.13764200  0.65621400  1
  C  C7  1  0.50000000  0.50000000  0.50000000  1
  Ni  Ni8  1  0.88886200  0.72599800  0.62428300  1
  Ni  Ni9  1  0.61111400  0.19396600  0.79568000  1
  Ni  Ni10  1  0.11113800  0.27400200  0.37571700  1
  Ni  Ni11  1  0.38888600  0.80603400  0.20432000  1
  Cu  Cu12  1  0.13750800  0.29392700  0.24019400  1
  Cu  Cu13  1  0.86249200  0.70607300  0.75980600  1
  Cu  Cu14  1  0.71098100  0.35734800  0.86563900  1
  Cu  Cu15  1  0.44025300  0.91019600  0.13234500  1
  Cu  Cu16  1  0.28901900  0.64265200  0.13436100  1
  Cu  Cu17  1  0.70508900  0.62374900  0.48606700  1
  Cu  Cu18  1  0.55974700  0.08980400  0.86765500  1
  Cu  Cu19  1  0.29491100  0.37625100  0.51393300  1
