# generated using pymatgen
data_Cu9NiC10
_symmetry_space_group_name_H-M   'P 1'
_cell_length_a   7.36590300
_cell_length_b   9.20003500
_cell_length_c   18.22382300
_cell_angle_alpha   90.00000000
_cell_angle_beta   90.00000000
_cell_angle_gamma   90.00000000
_symmetry_Int_Tables_number   1
_chemical_formula_structural   Cu9NiC10
_chemical_formula_sum   'Cu36 Ni4 C40'
_cell_volume   1234.96589329
_cell_formula_units_Z   4
loop_
 _symmetry_equiv_pos_site_id
 _symmetry_equiv_pos_as_xyz
  1  'x, y, z'
loop_
 _atom_site_type_symbol
 _atom_site_label
 _atom_site_symmetry_multiplicity
 _atom_site_fract_x
 _atom_site_fract_y
 _atom_site_fract_z
 _atom_site_occupancy
  Ni  Ni0  1  0.75000000  0.85887000  0.03234400  1
  Ni  Ni1  1  0.25000000  0.35887000  0.46765600  1
  Ni  Ni2  1  0.25000000  0.14113000  0.96765600  1
  Ni  Ni3  1  0.75000000  0.64113000  0.53234400  1
  Cu  Cu4  1  0.25000000  0.15328600  0.61383400  1
  Cu  Cu5  1  0.75000000  0.17728100  0.80308500  1
  Cu  Cu6  1  0.75000000  0.65328600  0.88616600  1
  Cu  Cu7  1  0.75000000  0.17645700  0.64655300  1
  Cu  Cu8  1  0.25000000  0.34671400  0.11383400  1
  Cu  Cu9  1  0.99565900  0.90074400  0.88153000  1
  Cu  Cu10  1  0.75000000  0.84671400  0.38616600  1
  Cu  Cu11  1  0.75000000  0.32271900  0.30308500  1
  Cu  Cu12  1  0.25000000  0.67645700  0.85344700  1
  Cu  Cu13  1  0.49565900  0.40074400  0.61847000  1
  Cu  Cu14  1  0.03687100  0.04470300  0.42909800  1
  Cu  Cu15  1  0.75000000  0.32354300  0.14655300  1
  Cu  Cu16  1  0.50434100  0.90074400  0.88153000  1
  Cu  Cu17  1  0.49565900  0.09925600  0.11847000  1
  Cu  Cu18  1  0.45770200  0.95076200  0.72506000  1
  Cu  Cu19  1  0.25000000  0.82354300  0.35344700  1
  Cu  Cu20  1  0.54229800  0.04923800  0.27494000  1
  Cu  Cu21  1  0.96312900  0.54470300  0.07090200  1
  Cu  Cu22  1  0.95770200  0.04923800  0.27494000  1
  Cu  Cu23  1  0.53687100  0.95529700  0.57090200  1
  Cu  Cu24  1  0.54229800  0.45076200  0.77494000  1
  Cu  Cu25  1  0.03687100  0.45529700  0.92909800  1
  Cu  Cu26  1  0.46312900  0.04470300  0.42909800  1
  Cu  Cu27  1  0.25000000  0.67728100  0.69691500  1
  Cu  Cu28  1  0.96312900  0.95529700  0.57090200  1
  Cu  Cu29  1  0.04229800  0.95076200  0.72506000  1
  Cu  Cu30  1  0.99565900  0.59925600  0.38153000  1
  Cu  Cu31  1  0.50434100  0.59925600  0.38153000  1
  Cu  Cu32  1  0.46312900  0.45529700  0.92909800  1
  Cu  Cu33  1  0.53687100  0.54470300  0.07090200  1
  Cu  Cu34  1  0.25000000  0.82271900  0.19691500  1
  Cu  Cu35  1  0.45770200  0.54923800  0.22506000  1
  Cu  Cu36  1  0.00434100  0.40074400  0.61847000  1
  Cu  Cu37  1  0.04229800  0.54923800  0.22506000  1
  Cu  Cu38  1  0.00434100  0.09925600  0.11847000  1
  Cu  Cu39  1  0.95770200  0.45076200  0.77494000  1
  C  C40  1  0.75000000  0.78378000  0.21569200  1
  C  C41  1  0.25000000  0.21622000  0.78430800  1
  C  C42  1  0.75000000  0.25732600  0.46709600  1
  C  C43  1  0.75000000  0.71622000  0.71569200  1
  C  C44  1  0.25000000  0.75732600  0.03290400  1
  C  C45  1  0.75000000  0.24267400  0.96709600  1
  C  C46  1  0.25000000  0.28378000  0.28430800  1
  C  C47  1  0.25000000  0.74267400  0.53290400  1
  C  C48  1  0.51670700  0.78335800  0.28308500  1
  C  C49  1  0.25000000  0.41269900  0.84223400  1
  C  C50  1  0.01670700  0.21664200  0.71691500  1
  C  C51  1  0.75000000  0.51049900  0.66676200  1
  C  C52  1  0.75000000  0.98950100  0.16676200  1
  C  C53  1  0.02267900  0.70121300  0.96768600  1
  C  C54  1  0.25000000  0.89618700  0.62250900  1
  C  C55  1  0.47732100  0.70121300  0.96768600  1
  C  C56  1  0.48329300  0.21664200  0.71691500  1
  C  C57  1  0.75000000  0.04086300  0.91502700  1
  C  C58  1  0.98329300  0.71664200  0.78308500  1
  C  C59  1  0.02267900  0.79878700  0.46768600  1
  C  C60  1  0.25000000  0.48950100  0.33323800  1
  C  C61  1  0.52267900  0.20121300  0.53231400  1
  C  C62  1  0.25000000  0.01049900  0.83323800  1
  C  C63  1  0.75000000  0.58730100  0.15776600  1
  C  C64  1  0.48329300  0.28335800  0.21691500  1
  C  C65  1  0.75000000  0.39618700  0.87749100  1
  C  C66  1  0.52267900  0.29878700  0.03231400  1
  C  C67  1  0.97732100  0.20121300  0.53231400  1
  C  C68  1  0.25000000  0.95913700  0.08497300  1
  C  C69  1  0.75000000  0.10381300  0.37749100  1
  C  C70  1  0.25000000  0.08730100  0.34223400  1
  C  C71  1  0.75000000  0.91269900  0.65776600  1
  C  C72  1  0.98329300  0.78335800  0.28308500  1
  C  C73  1  0.75000000  0.45913700  0.41502700  1
  C  C74  1  0.25000000  0.60381300  0.12250900  1
  C  C75  1  0.25000000  0.54086300  0.58497300  1
  C  C76  1  0.01670700  0.28335800  0.21691500  1
  C  C77  1  0.97732100  0.29878700  0.03231400  1
  C  C78  1  0.47732100  0.79878700  0.46768600  1
  C  C79  1  0.51670700  0.71664200  0.78308500  1
