# generated using pymatgen
data_Cu5Ni2C19
_symmetry_space_group_name_H-M   'P 1'
_cell_length_a   6.12318186
_cell_length_b   6.12318186
_cell_length_c   21.48574200
_cell_angle_alpha   90.00000000
_cell_angle_beta   90.00000000
_cell_angle_gamma   119.99999847
_symmetry_Int_Tables_number   1
_chemical_formula_structural   Cu5Ni2C19
_chemical_formula_sum   'Cu10 Ni4 C38'
_cell_volume   697.64632546
_cell_formula_units_Z   2
loop_
 _symmetry_equiv_pos_site_id
 _symmetry_equiv_pos_as_xyz
  1  'x, y, z'
loop_
 _atom_site_type_symbol
 _atom_site_label
 _atom_site_symmetry_multiplicity
 _atom_site_fract_x
 _atom_site_fract_y
 _atom_site_fract_z
 _atom_site_occupancy
  C  C0  1  0.33333300  0.66666700  0.61543100  1
  C  C1  1  0.66666700  0.33333300  0.38456900  1
  C  C2  1  0.00000000  0.00000000  0.00000000  1
  C  C3  1  0.66666700  0.33333300  0.88878300  1
  C  C4  1  0.33333300  0.66666700  0.11121700  1
  C  C5  1  0.00000000  0.00000000  0.50000000  1
  Ni  Ni6  1  0.00000000  0.00000000  0.35249900  1
  Ni  Ni7  1  0.00000000  0.00000000  0.84930800  1
  Ni  Ni8  1  0.00000000  0.00000000  0.64750100  1
  Ni  Ni9  1  0.00000000  0.00000000  0.15069200  1
  Cu  Cu10  1  0.66666700  0.33333300  0.56897000  1
  Cu  Cu11  1  0.99754200  0.49877100  0.24765400  1
  Cu  Cu12  1  0.33333300  0.66666700  0.43103000  1
  Cu  Cu13  1  0.49877100  0.50122900  0.75234600  1
  Cu  Cu14  1  0.50122900  0.49877100  0.24765400  1
  Cu  Cu15  1  0.49877100  0.99754200  0.75234600  1
  Cu  Cu16  1  0.66666700  0.33333300  0.07604100  1
  Cu  Cu17  1  0.00245800  0.50122900  0.75234600  1
  Cu  Cu18  1  0.50122900  0.00245800  0.24765400  1
  Cu  Cu19  1  0.33333300  0.66666700  0.92395900  1
  C  C20  1  0.33360100  0.16680100  0.59007000  1
  C  C21  1  0.66639900  0.83319900  0.40993000  1
  C  C22  1  0.32356400  0.16178200  0.09072500  1
  C  C23  1  0.16178200  0.32356400  0.90927500  1
  C  C24  1  0.65996600  0.82998300  0.19465900  1
  C  C25  1  0.17707200  0.82292800  0.70183700  1
  C  C26  1  0.83319900  0.66639900  0.59007000  1
  C  C27  1  0.33333300  0.66666700  0.51292900  1
  C  C28  1  0.83821800  0.16178200  0.09072500  1
  C  C29  1  0.16680100  0.33360100  0.40993000  1
  C  C30  1  0.17001700  0.34003400  0.19465900  1
  C  C31  1  0.67643600  0.83821800  0.90927500  1
  C  C32  1  0.66666700  0.33333300  0.19179000  1
  C  C33  1  0.82292800  0.17707200  0.29816300  1
  C  C34  1  0.82998300  0.17001700  0.80534100  1
  C  C35  1  0.66666700  0.33333300  0.48707100  1
  C  C36  1  0.33333300  0.66666700  0.80821000  1
  C  C37  1  0.17707200  0.35414400  0.70183700  1
  C  C38  1  0.83319900  0.16680100  0.59007000  1
  C  C39  1  0.33333300  0.66666700  0.29839800  1
  C  C40  1  0.17001700  0.82998300  0.19465900  1
  C  C41  1  0.33333300  0.66666700  0.00574800  1
  C  C42  1  0.82998300  0.65996600  0.80534100  1
  C  C43  1  0.66666700  0.33333300  0.70160200  1
  C  C44  1  0.35414400  0.17707200  0.29816300  1
  C  C45  1  0.64585600  0.82292800  0.70183700  1
  C  C46  1  0.82292800  0.64585600  0.29816300  1
  C  C47  1  0.16680100  0.83319900  0.40993000  1
  C  C48  1  0.16178200  0.83821800  0.90927500  1
  C  C49  1  0.34003400  0.17001700  0.80534100  1
  C  C50  1  0.66666700  0.33333300  0.99425200  1
  C  C51  1  0.83821800  0.67643600  0.09072500  1
