# generated using pymatgen
data_Cu4NiC
_symmetry_space_group_name_H-M   'P 1'
_cell_length_a   5.39580200
_cell_length_b   6.88519000
_cell_length_c   7.90395800
_cell_angle_alpha   90.00000000
_cell_angle_beta   90.00000000
_cell_angle_gamma   90.00000000
_symmetry_Int_Tables_number   1
_chemical_formula_structural   Cu4NiC
_chemical_formula_sum   'Cu16 Ni4 C4'
_cell_volume   293.64090772
_cell_formula_units_Z   4
loop_
 _symmetry_equiv_pos_site_id
 _symmetry_equiv_pos_as_xyz
  1  'x, y, z'
loop_
 _atom_site_type_symbol
 _atom_site_label
 _atom_site_symmetry_multiplicity
 _atom_site_fract_x
 _atom_site_fract_y
 _atom_site_fract_z
 _atom_site_occupancy
  C  C0  1  0.25000000  0.17576200  0.19056600  1
  C  C1  1  0.75000000  0.82423800  0.80943400  1
  C  C2  1  0.25000000  0.32423800  0.69056600  1
  C  C3  1  0.75000000  0.67576200  0.30943400  1
  Ni  Ni4  1  0.75000000  0.32454000  0.94687000  1
  Ni  Ni5  1  0.25000000  0.82454000  0.55313000  1
  Ni  Ni6  1  0.75000000  0.17546000  0.44687000  1
  Ni  Ni7  1  0.25000000  0.67546000  0.05313000  1
  Cu  Cu8  1  0.25000000  0.92479300  0.38882100  1
  Cu  Cu9  1  0.75000000  0.07520700  0.61117900  1
  Cu  Cu10  1  0.47683000  0.80146700  0.06487600  1
  Cu  Cu11  1  0.25000000  0.53711100  0.19752300  1
  Cu  Cu12  1  0.75000000  0.42479300  0.11117900  1
  Cu  Cu13  1  0.02317000  0.80146700  0.06487600  1
  Cu  Cu14  1  0.25000000  0.57520700  0.88882100  1
  Cu  Cu15  1  0.97683000  0.30146700  0.43512400  1
  Cu  Cu16  1  0.97683000  0.19853300  0.93512400  1
  Cu  Cu17  1  0.75000000  0.03711100  0.30247700  1
  Cu  Cu18  1  0.02317000  0.69853300  0.56487600  1
  Cu  Cu19  1  0.75000000  0.46288900  0.80247700  1
  Cu  Cu20  1  0.52317000  0.19853300  0.93512400  1
  Cu  Cu21  1  0.25000000  0.96288900  0.69752300  1
  Cu  Cu22  1  0.47683000  0.69853300  0.56487600  1
  Cu  Cu23  1  0.52317000  0.30146700  0.43512400  1
