# generated using pymatgen
data_Cu(NiC)2
_symmetry_space_group_name_H-M   'P 1'
_cell_length_a   3.86265400
_cell_length_b   6.64950924
_cell_length_c   9.59898971
_cell_angle_alpha   91.39625350
_cell_angle_beta   90.00000000
_cell_angle_gamma   106.88469203
_symmetry_Int_Tables_number   1
_chemical_formula_structural   Cu(NiC)2
_chemical_formula_sum   'Cu2 Ni4 C4'
_cell_volume   235.84281131
_cell_formula_units_Z   2
loop_
 _symmetry_equiv_pos_site_id
 _symmetry_equiv_pos_as_xyz
  1  'x, y, z'
loop_
 _atom_site_type_symbol
 _atom_site_label
 _atom_site_symmetry_multiplicity
 _atom_site_fract_x
 _atom_site_fract_y
 _atom_site_fract_z
 _atom_site_occupancy
  C  C0  1  0.00000000  0.00000000  0.00000000  1
  C  C1  1  0.00000000  0.00000000  0.50000000  1
  C  C2  1  0.71035800  0.42071600  0.80943400  1
  C  C3  1  0.28964200  0.57928400  0.19056600  1
  Ni  Ni4  1  0.63795000  0.27590000  0.05048300  1
  Ni  Ni5  1  0.07451500  0.14903000  0.75755900  1
  Ni  Ni6  1  0.36205000  0.72410000  0.94951700  1
  Ni  Ni7  1  0.92548500  0.85097000  0.24244100  1
  Cu  Cu8  1  0.36732900  0.73465800  0.56918600  1
  Cu  Cu9  1  0.63267100  0.26534200  0.43081400  1
