# generated using pymatgen
data_Cu2Ni2C11
_symmetry_space_group_name_H-M   'P 1'
_cell_length_a   6.97168600
_cell_length_b   9.86720200
_cell_length_c   10.84560400
_cell_angle_alpha   90.00000000
_cell_angle_beta   90.00000000
_cell_angle_gamma   90.00000000
_symmetry_Int_Tables_number   1
_chemical_formula_structural   Cu2Ni2C11
_chemical_formula_sum   'Cu8 Ni8 C44'
_cell_volume   746.08031398
_cell_formula_units_Z   4
loop_
 _symmetry_equiv_pos_site_id
 _symmetry_equiv_pos_as_xyz
  1  'x, y, z'
loop_
 _atom_site_type_symbol
 _atom_site_label
 _atom_site_symmetry_multiplicity
 _atom_site_fract_x
 _atom_site_fract_y
 _atom_site_fract_z
 _atom_site_occupancy
  C  C0  1  0.50000000  0.50000000  0.00000000  1
  C  C1  1  0.50000000  0.25000000  0.85357600  1
  C  C2  1  0.00000000  0.25000000  0.35357600  1
  C  C3  1  0.50000000  0.75000000  0.14642400  1
  C  C4  1  0.00000000  0.50000000  0.50000000  1
  C  C5  1  0.00000000  0.75000000  0.64642400  1
  C  C6  1  0.50000000  0.00000000  0.00000000  1
  C  C7  1  0.00000000  0.00000000  0.50000000  1
  Ni  Ni8  1  0.71699500  0.25131500  0.58825600  1
  Ni  Ni9  1  0.21699500  0.24868500  0.08825600  1
  Ni  Ni10  1  0.28300500  0.74868500  0.41174400  1
  Ni  Ni11  1  0.21699500  0.74868500  0.91174400  1
  Ni  Ni12  1  0.71699500  0.75131500  0.41174400  1
  Ni  Ni13  1  0.28300500  0.24868500  0.58825600  1
  Ni  Ni14  1  0.78300500  0.75131500  0.91174400  1
  Ni  Ni15  1  0.78300500  0.25131500  0.08825600  1
  Cu  Cu16  1  0.04973900  0.54897000  0.19616400  1
  Cu  Cu17  1  0.04973900  0.04897000  0.80383600  1
  Cu  Cu18  1  0.45026100  0.04897000  0.30383600  1
  Cu  Cu19  1  0.54973900  0.95103000  0.69616400  1
  Cu  Cu20  1  0.95026100  0.95103000  0.19616400  1
  Cu  Cu21  1  0.54973900  0.45103000  0.30383600  1
  Cu  Cu22  1  0.95026100  0.45103000  0.80383600  1
  Cu  Cu23  1  0.45026100  0.54897000  0.69616400  1
  C  C24  1  0.69246400  0.90371600  0.89428500  1
  C  C25  1  0.39086200  0.57784600  0.14074700  1
  C  C26  1  0.30753600  0.59628400  0.89428500  1
  C  C27  1  0.60913800  0.42215400  0.85925300  1
  C  C28  1  0.50000000  0.75000000  0.47739100  1
  C  C29  1  0.89086200  0.42215400  0.35925300  1
  C  C30  1  0.34747300  0.83683700  0.00723000  1
  C  C31  1  0.30753600  0.09628400  0.10571500  1
  C  C32  1  0.68478000  0.18382200  0.72595400  1
  C  C33  1  0.18478000  0.81617800  0.77404600  1
  C  C34  1  0.34747300  0.33683700  0.99277000  1
  C  C35  1  0.15252700  0.83683700  0.50723000  1
  C  C36  1  0.10913800  0.07784600  0.35925300  1
  C  C37  1  0.84747300  0.66316300  0.50723000  1
  C  C38  1  0.68478000  0.68382200  0.27404600  1
  C  C39  1  0.31522000  0.31617800  0.72595400  1
  C  C40  1  0.19246400  0.09628400  0.60571500  1
  C  C41  1  0.31522000  0.81617800  0.27404600  1
  C  C42  1  0.18478000  0.31617800  0.22595400  1
  C  C43  1  0.39086200  0.07784600  0.85925300  1
  C  C44  1  0.00000000  0.75000000  0.97739100  1
  C  C45  1  0.89086200  0.92215400  0.64074700  1
  C  C46  1  0.84747300  0.16316300  0.49277000  1
  C  C47  1  0.10913800  0.57784600  0.64074700  1
  C  C48  1  0.80753600  0.40371600  0.60571500  1
  C  C49  1  0.15252700  0.33683700  0.49277000  1
  C  C50  1  0.60913800  0.92215400  0.14074700  1
  C  C51  1  0.19246400  0.59628400  0.39428500  1
  C  C52  1  0.69246400  0.40371600  0.10571500  1
  C  C53  1  0.81522000  0.68382200  0.77404600  1
  C  C54  1  0.80753600  0.90371600  0.39428500  1
  C  C55  1  0.65252700  0.16316300  0.99277000  1
  C  C56  1  0.65252700  0.66316300  0.00723000  1
  C  C57  1  0.00000000  0.25000000  0.02260900  1
  C  C58  1  0.81522000  0.18382200  0.22595400  1
  C  C59  1  0.50000000  0.25000000  0.52260900  1
