# generated using pymatgen
data_CuNi3C17
_symmetry_space_group_name_H-M   'P 1'
_cell_length_a   10.52349251
_cell_length_b   10.52349251
_cell_length_c   7.76466400
_cell_angle_alpha   90.00000000
_cell_angle_beta   90.00000000
_cell_angle_gamma   120.00000322
_symmetry_Int_Tables_number   1
_chemical_formula_structural   CuNi3C17
_chemical_formula_sum   'Cu2 Ni6 C34'
_cell_volume   744.68580863
_cell_formula_units_Z   2
loop_
 _symmetry_equiv_pos_site_id
 _symmetry_equiv_pos_as_xyz
  1  'x, y, z'
loop_
 _atom_site_type_symbol
 _atom_site_label
 _atom_site_symmetry_multiplicity
 _atom_site_fract_x
 _atom_site_fract_y
 _atom_site_fract_z
 _atom_site_occupancy
  C  C0  1  0.66666700  0.33333300  0.50048200  1
  C  C1  1  0.01213100  0.26603000  0.25000000  1
  C  C2  1  0.26603000  0.25389800  0.75000000  1
  C  C3  1  0.73397000  0.74610200  0.25000000  1
  C  C4  1  0.33333300  0.66666700  0.00048200  1
  C  C5  1  0.98786900  0.73397000  0.75000000  1
  C  C6  1  0.74610200  0.01213100  0.75000000  1
  C  C7  1  0.25389800  0.98786900  0.25000000  1
  C  C8  1  0.33333300  0.66666700  0.49951800  1
  C  C9  1  0.66666700  0.33333300  0.99951800  1
  Ni  Ni10  1  0.62898800  0.03727700  0.25000000  1
  Ni  Ni11  1  0.37101200  0.96272300  0.75000000  1
  Ni  Ni12  1  0.59171100  0.62898800  0.75000000  1
  Ni  Ni13  1  0.03727700  0.40828900  0.75000000  1
  Ni  Ni14  1  0.96272300  0.59171100  0.25000000  1
  Ni  Ni15  1  0.40828900  0.37101200  0.25000000  1
  Cu  Cu16  1  0.00000000  0.00000000  0.00000000  1
  Cu  Cu17  1  0.00000000  0.00000000  0.50000000  1
  C  C18  1  0.35859900  0.27157900  0.08664800  1
  C  C19  1  0.65387000  0.52162200  0.75000000  1
  C  C20  1  0.34613000  0.47837800  0.25000000  1
  C  C21  1  0.58047400  0.46021000  0.25000000  1
  C  C22  1  0.72842100  0.08701900  0.41335200  1
  C  C23  1  0.35859900  0.27157900  0.41335200  1
  C  C24  1  0.53979000  0.12026400  0.25000000  1
  C  C25  1  0.27157900  0.91298100  0.91335200  1
  C  C26  1  0.52162200  0.86775200  0.25000000  1
  C  C27  1  0.08701900  0.35859900  0.58664800  1
  C  C28  1  0.27157900  0.91298100  0.58664800  1
  C  C29  1  0.13224800  0.65387000  0.25000000  1
  C  C30  1  0.91298100  0.64140100  0.41335200  1
  C  C31  1  0.87973600  0.41952600  0.25000000  1
  C  C32  1  0.12026400  0.58047400  0.75000000  1
  C  C33  1  0.64140100  0.72842100  0.91335200  1
  C  C34  1  0.41952600  0.53979000  0.75000000  1
  C  C35  1  0.08701900  0.35859900  0.91335200  1
  C  C36  1  0.46021000  0.87973600  0.75000000  1
  C  C37  1  0.64140100  0.72842100  0.58664800  1
  C  C38  1  0.86775200  0.34613000  0.75000000  1
  C  C39  1  0.72842100  0.08701900  0.08664800  1
  C  C40  1  0.47837800  0.13224800  0.75000000  1
  C  C41  1  0.91298100  0.64140100  0.08664800  1
