# generated using pymatgen
data_Cu(NiC4)5
_symmetry_space_group_name_H-M   'P 1'
_cell_length_a   9.96690981
_cell_length_b   9.96690981
_cell_length_c   9.96690981
_cell_angle_alpha   109.05179217
_cell_angle_beta   109.05179217
_cell_angle_gamma   110.31337409
_symmetry_Int_Tables_number   1
_chemical_formula_structural   Cu(NiC4)5
_chemical_formula_sum   'Cu2 Ni10 C40'
_cell_volume   762.06006043
_cell_formula_units_Z   2
loop_
 _symmetry_equiv_pos_site_id
 _symmetry_equiv_pos_as_xyz
  1  'x, y, z'
loop_
 _atom_site_type_symbol
 _atom_site_label
 _atom_site_symmetry_multiplicity
 _atom_site_fract_x
 _atom_site_fract_y
 _atom_site_fract_z
 _atom_site_occupancy
  Ni  Ni0  1  0.00000000  0.00000000  0.00000000  1
  Ni  Ni1  1  0.25000000  0.75000000  0.50000000  1
  Ni  Ni2  1  0.92681600  0.83928300  0.32494100  1
  Ni  Ni3  1  0.85187500  0.67681600  0.58753300  1
  Ni  Ni4  1  0.08928300  0.26434300  0.41246700  1
  Ni  Ni5  1  0.51434300  0.60187500  0.67505900  1
  Ni  Ni6  1  0.32318400  0.91071700  0.17505900  1
  Ni  Ni7  1  0.39812500  0.07318400  0.91246700  1
  Ni  Ni8  1  0.16071700  0.48565700  0.08753300  1
  Ni  Ni9  1  0.73565700  0.14812500  0.82494100  1
  Cu  Cu10  1  0.50000000  0.50000000  0.00000000  1
  Cu  Cu11  1  0.75000000  0.25000000  0.50000000  1
  C  C12  1  0.66689700  0.94101100  0.09232000  1
  C  C13  1  0.82457700  0.41689700  0.22588600  1
  C  C14  1  0.19101100  0.59869100  0.77411400  1
  C  C15  1  0.84869100  0.57457700  0.90768000  1
  C  C16  1  0.58310300  0.80898900  0.40768000  1
  C  C17  1  0.42542300  0.33310300  0.27411400  1
  C  C18  1  0.05898900  0.15130900  0.72588600  1
  C  C19  1  0.40130900  0.17542300  0.59232000  1
  C  C20  1  0.63657900  0.03331500  0.96589000  1
  C  C21  1  0.92068900  0.38657900  0.10326300  1
  C  C22  1  0.28331500  0.81742600  0.89673700  1
  C  C23  1  0.06742600  0.67068900  0.03411000  1
  C  C24  1  0.61342100  0.71668500  0.53411000  1
  C  C25  1  0.32931100  0.36342100  0.39673700  1
  C  C26  1  0.96668500  0.93257400  0.60326300  1
  C  C27  1  0.18257400  0.07931100  0.46589000  1
  C  C28  1  0.88192800  0.99735900  0.17824200  1
  C  C29  1  0.95368500  0.63192800  0.38456900  1
  C  C30  1  0.24735900  0.56911700  0.61543100  1
  C  C31  1  0.81911700  0.70368500  0.82175800  1
  C  C32  1  0.36807200  0.75264100  0.32175800  1
  C  C33  1  0.29631500  0.11807200  0.11543100  1
  C  C34  1  0.00264100  0.18088300  0.88456900  1
  C  C35  1  0.43088300  0.04631500  0.67824200  1
  C  C36  1  0.54689200  0.71873600  0.94798100  1
  C  C37  1  0.84891100  0.29689200  0.32815600  1
  C  C38  1  0.96873600  0.52075600  0.67184400  1
  C  C39  1  0.77075600  0.59891100  0.05201900  1
  C  C40  1  0.70310800  0.03126400  0.55201900  1
  C  C41  1  0.40108900  0.45310800  0.17184400  1
  C  C42  1  0.28126400  0.22924400  0.82815600  1
  C  C43  1  0.47924400  0.15108900  0.44798100  1
  C  C44  1  0.60408700  0.00801500  0.24676200  1
  C  C45  1  0.60732500  0.35408700  0.09607300  1
  C  C46  1  0.25801500  0.51125300  0.90392700  1
  C  C47  1  0.76125300  0.35732500  0.75323800  1
  C  C48  1  0.64591300  0.74198500  0.25323800  1
  C  C49  1  0.64267500  0.39591300  0.40392700  1
  C  C50  1  0.99198500  0.23874700  0.59607300  1
  C  C51  1  0.48874700  0.39267500  0.74676200  1
