# generated using pymatgen
data_Cu(Ni5C3)2
_symmetry_space_group_name_H-M   'P 1'
_cell_length_a   5.91161000
_cell_length_b   10.35854500
_cell_length_c   15.45002300
_cell_angle_alpha   90.00000000
_cell_angle_beta   90.00000000
_cell_angle_gamma   90.00000000
_symmetry_Int_Tables_number   1
_chemical_formula_structural   Cu(Ni5C3)2
_chemical_formula_sum   'Cu4 Ni40 C24'
_cell_volume   946.09263673
_cell_formula_units_Z   4
loop_
 _symmetry_equiv_pos_site_id
 _symmetry_equiv_pos_as_xyz
  1  'x, y, z'
loop_
 _atom_site_type_symbol
 _atom_site_label
 _atom_site_symmetry_multiplicity
 _atom_site_fract_x
 _atom_site_fract_y
 _atom_site_fract_z
 _atom_site_occupancy
  C  C0  1  0.92976600  0.88690700  0.65215000  1
  C  C1  1  0.07023400  0.11309300  0.34785000  1
  C  C2  1  0.25000000  0.37239300  0.50000000  1
  C  C3  1  0.75000000  0.62760700  0.50000000  1
  C  C4  1  0.42976600  0.11309300  0.65215000  1
  C  C5  1  0.42976600  0.38690700  0.84785000  1
  C  C6  1  0.57023400  0.61309300  0.15215000  1
  C  C7  1  0.75000000  0.87239300  0.00000000  1
  C  C8  1  0.92976600  0.61309300  0.84785000  1
  C  C9  1  0.07023400  0.38690700  0.15215000  1
  C  C10  1  0.57023400  0.88690700  0.34785000  1
  C  C11  1  0.25000000  0.12760700  0.00000000  1
  C  C12  1  0.75000000  0.35812500  0.00000000  1
  C  C13  1  0.25000000  0.85812500  0.50000000  1
  C  C14  1  0.75000000  0.14187500  0.50000000  1
  C  C15  1  0.25000000  0.64187500  0.00000000  1
  C  C16  1  0.03006900  0.88392900  0.17494100  1
  C  C17  1  0.96993100  0.11607100  0.82505900  1
  C  C18  1  0.96993100  0.38392900  0.67494100  1
  C  C19  1  0.53006900  0.11607100  0.17494100  1
  C  C20  1  0.53006900  0.38392900  0.32505900  1
  C  C21  1  0.46993100  0.61607100  0.67494100  1
  C  C22  1  0.03006900  0.61607100  0.32505900  1
  C  C23  1  0.46993100  0.88392900  0.82505900  1
  Ni  Ni24  1  0.48115400  0.98517800  0.91420100  1
  Ni  Ni25  1  0.98115400  0.01482200  0.91420100  1
  Ni  Ni26  1  0.23215800  0.55281300  0.08868000  1
  Ni  Ni27  1  0.02234500  0.77522000  0.52697600  1
  Ni  Ni28  1  0.38019400  0.03286900  0.25506100  1
  Ni  Ni29  1  0.73215800  0.44718700  0.08868000  1
  Ni  Ni30  1  0.01884600  0.98517800  0.08579900  1
  Ni  Ni31  1  0.73215800  0.05281300  0.41132000  1
  Ni  Ni32  1  0.47765500  0.72478000  0.02697600  1
  Ni  Ni33  1  0.97765500  0.22478000  0.47302400  1
  Ni  Ni34  1  0.47765500  0.77522000  0.47302400  1
  Ni  Ni35  1  0.88019400  0.96713100  0.25506100  1
  Ni  Ni36  1  0.51884600  0.01482200  0.08579900  1
  Ni  Ni37  1  0.81712500  0.78237700  0.13865600  1
  Ni  Ni38  1  0.98115400  0.48517800  0.58579900  1
  Ni  Ni39  1  0.18287500  0.21762300  0.86134400  1
  Ni  Ni40  1  0.88019400  0.53286900  0.24493900  1
  Ni  Ni41  1  0.76784200  0.05281300  0.58868000  1
  Ni  Ni42  1  0.23215800  0.94718700  0.41132000  1
  Ni  Ni43  1  0.11980600  0.46713100  0.75506100  1
  Ni  Ni44  1  0.38019400  0.46713100  0.24493900  1
  Ni  Ni45  1  0.52234500  0.22478000  0.52697600  1
  Ni  Ni46  1  0.31712500  0.28237700  0.36134400  1
  Ni  Ni47  1  0.76784200  0.44718700  0.91132000  1
  Ni  Ni48  1  0.26784200  0.55281300  0.91132000  1
  Ni  Ni49  1  0.31712500  0.21762300  0.13865600  1
  Ni  Ni50  1  0.52234500  0.27522000  0.97302400  1
  Ni  Ni51  1  0.18287500  0.28237700  0.63865600  1
  Ni  Ni52  1  0.48115400  0.51482200  0.58579900  1
  Ni  Ni53  1  0.02234500  0.72478000  0.97302400  1
  Ni  Ni54  1  0.81712500  0.71762300  0.36134400  1
  Ni  Ni55  1  0.61980600  0.53286900  0.75506100  1
  Ni  Ni56  1  0.68287500  0.78237700  0.86134400  1
  Ni  Ni57  1  0.51884600  0.48517800  0.41420100  1
  Ni  Ni58  1  0.26784200  0.94718700  0.58868000  1
  Ni  Ni59  1  0.11980600  0.03286900  0.74493900  1
  Ni  Ni60  1  0.68287500  0.71762300  0.63865600  1
  Ni  Ni61  1  0.01884600  0.51482200  0.41420100  1
  Ni  Ni62  1  0.97765500  0.27522000  0.02697600  1
  Ni  Ni63  1  0.61980600  0.96713100  0.74493900  1
  Cu  Cu64  1  0.43969300  0.75000000  0.25000000  1
  Cu  Cu65  1  0.93969300  0.25000000  0.25000000  1
  Cu  Cu66  1  0.56030700  0.25000000  0.75000000  1
  Cu  Cu67  1  0.06030700  0.75000000  0.75000000  1
