# generated using pymatgen
data_Cu3Ni2C29
_symmetry_space_group_name_H-M   'P 1'
_cell_length_a   5.41353300
_cell_length_b   13.43990200
_cell_length_c   14.01814227
_cell_angle_alpha   80.32863103
_cell_angle_beta   90.00000000
_cell_angle_gamma   90.00000000
_symmetry_Int_Tables_number   1
_chemical_formula_structural   Cu3Ni2C29
_chemical_formula_sum   'Cu6 Ni4 C58'
_cell_volume   1005.42731286
_cell_formula_units_Z   2
loop_
 _symmetry_equiv_pos_site_id
 _symmetry_equiv_pos_as_xyz
  1  'x, y, z'
loop_
 _atom_site_type_symbol
 _atom_site_label
 _atom_site_symmetry_multiplicity
 _atom_site_fract_x
 _atom_site_fract_y
 _atom_site_fract_z
 _atom_site_occupancy
  Ni  Ni0  1  0.12696500  0.43367500  0.39850000  1
  Ni  Ni1  1  0.62696500  0.56632500  0.60150000  1
  Ni  Ni2  1  0.16803900  0.55921300  0.08542100  1
  Ni  Ni3  1  0.66803900  0.44078700  0.91457900  1
  Cu  Cu4  1  0.17314800  0.75408400  0.35311700  1
  Cu  Cu5  1  0.61788600  0.77741500  0.83627200  1
  Cu  Cu6  1  0.63910800  0.99102900  0.25118900  1
  Cu  Cu7  1  0.13910800  0.00897100  0.74881100  1
  Cu  Cu8  1  0.67314800  0.24591600  0.64688300  1
  Cu  Cu9  1  0.11788600  0.22258500  0.16372800  1
  C  C10  1  0.62299900  0.77341700  0.11739900  1
  C  C11  1  0.65959900  0.21238700  0.37489400  1
  C  C12  1  0.15959900  0.78761300  0.62510600  1
  C  C13  1  0.12299900  0.22658300  0.88260100  1
  C  C14  1  0.12337700  0.40748800  0.69151400  1
  C  C15  1  0.66095200  0.94108800  0.62424200  1
  C  C16  1  0.66547800  0.81042700  0.48016500  1
  C  C17  1  0.16095200  0.05891200  0.37575800  1
  C  C18  1  0.61841000  0.18865000  0.02777400  1
  C  C19  1  0.12035800  0.92394000  0.13105000  1
  C  C20  1  0.62035800  0.07606000  0.86895000  1
  C  C21  1  0.11841000  0.81135000  0.97222600  1
  C  C22  1  0.62337700  0.59251200  0.30848600  1
  C  C23  1  0.61471200  0.40565300  0.20753900  1
  C  C24  1  0.11471200  0.59434700  0.79246100  1
  C  C25  1  0.16547800  0.18957300  0.51983500  1
  C  C26  1  0.86271000  0.24326300  0.99655000  1
  C  C27  1  0.19096500  0.94790800  0.37284900  1
  C  C28  1  0.22416500  0.53405200  0.88368900  1
  C  C29  1  0.37196900  0.12327800  0.32155700  1
  C  C30  1  0.28116100  0.68372500  0.74515400  1
  C  C31  1  0.16838500  0.17006100  0.62973700  1
  C  C32  1  0.90394000  0.85897800  0.17917500  1
  C  C33  1  0.41312500  0.89696500  0.66694800  1
  C  C34  1  0.86652700  0.12370500  0.82839500  1
  C  C35  1  0.10592400  0.52643500  0.70426000  1
  C  C36  1  0.96880400  0.40351500  0.60100800  1
  C  C37  1  0.39817900  0.38446000  0.68385900  1
  C  C38  1  0.59346200  0.96630400  0.85891200  1
  C  C39  1  0.99651200  0.34470400  0.78124100  1
  C  C40  1  0.39820000  0.24771200  0.47882600  1
  C  C41  1  0.89820000  0.75228800  0.52117400  1
  C  C42  1  0.42600700  0.75929600  0.52124400  1
  C  C43  1  0.10478300  0.84351600  0.86334500  1
  C  C44  1  0.11460800  0.91682400  0.01652800  1
  C  C45  1  0.17415200  0.07726300  0.48729500  1
  C  C46  1  0.89029700  0.74926100  0.01135800  1
  C  C47  1  0.91312500  0.10303500  0.33305200  1
  C  C48  1  0.60478300  0.15648400  0.13665500  1
  C  C49  1  0.34549100  0.37316900  0.19834500  1
  C  C50  1  0.40394000  0.14102200  0.82082500  1
  C  C51  1  0.36271000  0.75673700  0.00345000  1
  C  C52  1  0.69096500  0.05209200  0.62715100  1
  C  C53  1  0.78116100  0.31627500  0.25484600  1
  C  C54  1  0.49651200  0.65529600  0.21875900  1
  C  C55  1  0.67415200  0.92273700  0.51270500  1
  C  C56  1  0.39029700  0.25073900  0.98864200  1
  C  C57  1  0.87196900  0.87672200  0.67844300  1
  C  C58  1  0.66838500  0.82993900  0.37026300  1
  C  C59  1  0.46880400  0.59648500  0.39899200  1
  C  C60  1  0.09346200  0.03369600  0.14108800  1
  C  C61  1  0.36652700  0.87629500  0.17160500  1
  C  C62  1  0.72416500  0.46594800  0.11631100  1
  C  C63  1  0.61460800  0.08317600  0.98347200  1
  C  C64  1  0.89817900  0.61554000  0.31614100  1
  C  C65  1  0.60592400  0.47356500  0.29574000  1
  C  C66  1  0.92600700  0.24070400  0.47875600  1
  C  C67  1  0.84549100  0.62683100  0.80165500  1
