# generated using pymatgen
data_Cu(Ni2C5)3
_symmetry_space_group_name_H-M   'P 1'
_cell_length_a   11.14101738
_cell_length_b   11.14101738
_cell_length_c   13.41627300
_cell_angle_alpha   90.00000000
_cell_angle_beta   90.00000000
_cell_angle_gamma   95.21127629
_symmetry_Int_Tables_number   1
_chemical_formula_structural   Cu(Ni2C5)3
_chemical_formula_sum   'Cu2 Ni12 C30'
_cell_volume   1658.37496255
_cell_formula_units_Z   2
loop_
 _symmetry_equiv_pos_site_id
 _symmetry_equiv_pos_as_xyz
  1  'x, y, z'
loop_
 _atom_site_type_symbol
 _atom_site_label
 _atom_site_symmetry_multiplicity
 _atom_site_fract_x
 _atom_site_fract_y
 _atom_site_fract_z
 _atom_site_occupancy
  C  C0  1  0.00000000  0.00000000  0.00000000  1
  C  C1  1  0.50000000  0.50000000  0.50000000  1
  Ni  Ni2  1  0.86412000  0.86412000  0.60082600  1
  Ni  Ni3  1  0.45674500  0.67450200  0.88944700  1
  Ni  Ni4  1  0.82549800  0.04325500  0.38944700  1
  Ni  Ni5  1  0.67450200  0.45674500  0.88944700  1
  Ni  Ni6  1  0.36412000  0.36412000  0.89917400  1
  Ni  Ni7  1  0.17450200  0.95674500  0.61055300  1
  Ni  Ni8  1  0.63588000  0.63588000  0.10082600  1
  Ni  Ni9  1  0.13588000  0.13588000  0.39917400  1
  Ni  Ni10  1  0.54325500  0.32549800  0.11055300  1
  Ni  Ni11  1  0.32549800  0.54325500  0.11055300  1
  Ni  Ni12  1  0.95674500  0.17450200  0.61055300  1
  Ni  Ni13  1  0.04325500  0.82549800  0.38944700  1
  Cu  Cu14  1  0.50000000  0.50000000  0.00000000  1
  Cu  Cu15  1  0.00000000  0.00000000  0.50000000  1
  C  C16  1  0.38579100  0.13823600  0.00584600  1
  C  C17  1  0.36176400  0.11420900  0.50584600  1
  C  C18  1  0.96381100  0.21028300  0.25242400  1
  C  C19  1  0.25113500  0.74886500  0.00000000  1
  C  C20  1  0.15664900  0.15664900  0.75653700  1
  C  C21  1  0.86176400  0.61420900  0.99415400  1
  C  C22  1  0.46381100  0.71028300  0.24757600  1
  C  C23  1  0.78971700  0.03618900  0.74757600  1
  C  C24  1  0.10345100  0.60345100  0.25000000  1
  C  C25  1  0.88579100  0.63823600  0.49415400  1
  C  C26  1  0.75113500  0.24886500  0.50000000  1
  C  C27  1  0.63823600  0.88579100  0.49415400  1
  C  C28  1  0.65664900  0.65664900  0.74346300  1
  C  C29  1  0.21028300  0.96381100  0.25242400  1
  C  C30  1  0.84335100  0.84335100  0.24346300  1
  C  C31  1  0.34335100  0.34335100  0.25653700  1
  C  C32  1  0.39654900  0.89654900  0.75000000  1
  C  C33  1  0.13823600  0.38579100  0.00584600  1
  C  C34  1  0.71028300  0.46381100  0.24757600  1
  C  C35  1  0.60345100  0.10345100  0.25000000  1
  C  C36  1  0.74886500  0.25113500  0.00000000  1
  C  C37  1  0.24886500  0.75113500  0.50000000  1
  C  C38  1  0.61420900  0.86176400  0.99415400  1
  C  C39  1  0.28971700  0.53618900  0.75242400  1
  C  C40  1  0.89654900  0.39654900  0.75000000  1
  C  C41  1  0.03618900  0.78971700  0.74757600  1
  C  C42  1  0.53618900  0.28971700  0.75242400  1
  C  C43  1  0.11420900  0.36176400  0.50584600  1
