# generated using pymatgen
data_CuNiC9
_symmetry_space_group_name_H-M   'P 1'
_cell_length_a   11.08135200
_cell_length_b   7.70089700
_cell_length_c   8.71626084
_cell_angle_alpha   73.04681181
_cell_angle_beta   90.00000000
_cell_angle_gamma   90.00000000
_symmetry_Int_Tables_number   1
_chemical_formula_structural   CuNiC9
_chemical_formula_sum   'Cu4 Ni4 C36'
_cell_volume   711.49019984
_cell_formula_units_Z   4
loop_
 _symmetry_equiv_pos_site_id
 _symmetry_equiv_pos_as_xyz
  1  'x, y, z'
loop_
 _atom_site_type_symbol
 _atom_site_label
 _atom_site_symmetry_multiplicity
 _atom_site_fract_x
 _atom_site_fract_y
 _atom_site_fract_z
 _atom_site_occupancy
  Ni  Ni0  1  0.82175900  0.18118600  0.42931200  1
  Ni  Ni1  1  0.67824100  0.18118600  0.92931200  1
  Ni  Ni2  1  0.32175900  0.81881400  0.07068800  1
  Ni  Ni3  1  0.17824100  0.81881400  0.57068800  1
  Cu  Cu4  1  0.59525600  0.76892200  0.74868600  1
  Cu  Cu5  1  0.09525600  0.23107800  0.75131400  1
  Cu  Cu6  1  0.90474400  0.76892200  0.24868600  1
  Cu  Cu7  1  0.40474400  0.23107800  0.25131400  1
  C  C8  1  0.10300700  0.12862000  0.19175100  1
  C  C9  1  0.60300700  0.87138000  0.30824900  1
  C  C10  1  0.39699300  0.12862000  0.69175100  1
  C  C11  1  0.89699300  0.87138000  0.80824900  1
  C  C12  1  0.35669200  0.44494500  0.80971700  1
  C  C13  1  0.85669200  0.55505500  0.69028300  1
  C  C14  1  0.64330800  0.55505500  0.19028300  1
  C  C15  1  0.14330800  0.44494500  0.30971700  1
  C  C16  1  0.08583600  0.63370800  0.25676100  1
  C  C17  1  0.09627600  0.13256100  0.01691600  1
  C  C18  1  0.72794000  0.93161000  0.23480300  1
  C  C19  1  0.22794000  0.06839000  0.26519700  1
  C  C20  1  0.40372400  0.13256100  0.51691600  1
  C  C21  1  0.57885100  0.66426200  0.30401000  1
  C  C22  1  0.38696300  0.33940000  0.98249900  1
  C  C23  1  0.49836300  0.01335500  0.79240300  1
  C  C24  1  0.99836300  0.98664500  0.70759700  1
  C  C25  1  0.42114900  0.33573800  0.69599000  1
  C  C26  1  0.41416400  0.63370800  0.75676100  1
  C  C27  1  0.27829900  0.45691100  0.26957000  1
  C  C28  1  0.50163700  0.98664500  0.20759700  1
  C  C29  1  0.07885100  0.33573800  0.19599000  1
  C  C30  1  0.27206000  0.06839000  0.76519700  1
  C  C31  1  0.90372400  0.86743900  0.98308400  1
  C  C32  1  0.92114900  0.66426200  0.80401000  1
  C  C33  1  0.88696300  0.66060000  0.51750100  1
  C  C34  1  0.58583600  0.36629200  0.24323900  1
  C  C35  1  0.72170100  0.54308900  0.73043000  1
  C  C36  1  0.59627600  0.86743900  0.48308400  1
  C  C37  1  0.61303700  0.66060000  0.01750100  1
  C  C38  1  0.91416400  0.36629200  0.74323900  1
  C  C39  1  0.11303700  0.33940000  0.48249900  1
  C  C40  1  0.00163700  0.01335500  0.29240300  1
  C  C41  1  0.22170100  0.45691100  0.76957000  1
  C  C42  1  0.77206000  0.93161000  0.73480300  1
  C  C43  1  0.77829900  0.54308900  0.23043000  1
