# generated using pymatgen
data_Cu(NiC6)4
_symmetry_space_group_name_H-M   'P 1'
_cell_length_a   7.78123887
_cell_length_b   7.78123887
_cell_length_c   14.46879915
_cell_angle_alpha   86.30387801
_cell_angle_beta   86.30387801
_cell_angle_gamma   62.84192352
_symmetry_Int_Tables_number   1
_chemical_formula_structural   Cu(NiC6)4
_chemical_formula_sum   'Cu2 Ni8 C48'
_cell_volume   777.24071252
_cell_formula_units_Z   2
loop_
 _symmetry_equiv_pos_site_id
 _symmetry_equiv_pos_as_xyz
  1  'x, y, z'
loop_
 _atom_site_type_symbol
 _atom_site_label
 _atom_site_symmetry_multiplicity
 _atom_site_fract_x
 _atom_site_fract_y
 _atom_site_fract_z
 _atom_site_occupancy
  Ni  Ni0  1  0.21494300  0.46070500  0.45458400  1
  Ni  Ni1  1  0.53929500  0.78505700  0.04541600  1
  Ni  Ni2  1  0.78505700  0.53929500  0.54541600  1
  Ni  Ni3  1  0.46070500  0.21494300  0.95458400  1
  Ni  Ni4  1  0.70883100  0.95911000  0.41657300  1
  Ni  Ni5  1  0.04089000  0.29116900  0.08342700  1
  Ni  Ni6  1  0.29116900  0.04089000  0.58342700  1
  Ni  Ni7  1  0.95911000  0.70883100  0.91657300  1
  Cu  Cu8  1  0.37756200  0.62243800  0.75000000  1
  Cu  Cu9  1  0.62243800  0.37756200  0.25000000  1
  C  C10  1  0.95832700  0.85554500  0.61511800  1
  C  C11  1  0.14445500  0.04167300  0.88488200  1
  C  C12  1  0.04167300  0.14445500  0.38488200  1
  C  C13  1  0.85554500  0.95832700  0.11511800  1
  C  C14  1  0.63407400  0.91093700  0.74752000  1
  C  C15  1  0.08906300  0.36592600  0.75248000  1
  C  C16  1  0.36592600  0.08906300  0.25248000  1
  C  C17  1  0.91093700  0.63407400  0.24752000  1
  C  C18  1  0.60508100  0.22097300  0.61123100  1
  C  C19  1  0.77902700  0.39491900  0.88876900  1
  C  C20  1  0.39491900  0.77902700  0.38876900  1
  C  C21  1  0.22097300  0.60508100  0.11123100  1
  C  C22  1  0.16099800  0.81330400  0.63465700  1
  C  C23  1  0.18669600  0.83900200  0.86534300  1
  C  C24  1  0.83900200  0.18669600  0.36534300  1
  C  C25  1  0.81330400  0.16099800  0.13465700  1
  C  C26  1  0.92132500  0.75860700  0.53798900  1
  C  C27  1  0.24139300  0.07867500  0.96201100  1
  C  C28  1  0.07867500  0.24139300  0.46201100  1
  C  C29  1  0.75860700  0.92132500  0.03798900  1
  C  C30  1  0.83792800  0.08960000  0.59984900  1
  C  C31  1  0.91040000  0.16207200  0.90015100  1
  C  C32  1  0.16207200  0.91040000  0.40015100  1
  C  C33  1  0.08960000  0.83792800  0.09984900  1
  C  C34  1  0.86035500  0.82026900  0.71239800  1
  C  C35  1  0.17973100  0.13964500  0.78760200  1
  C  C36  1  0.13964500  0.17973100  0.28760200  1
  C  C37  1  0.82026900  0.86035500  0.21239800  1
  C  C38  1  0.53444200  0.81836100  0.69805400  1
  C  C39  1  0.18163900  0.46555800  0.80194600  1
  C  C40  1  0.46555800  0.18163900  0.30194600  1
  C  C41  1  0.81836100  0.53444200  0.19805400  1
  C  C42  1  0.63002100  0.90703300  0.85074600  1
  C  C43  1  0.09296700  0.36997900  0.64925400  1
  C  C44  1  0.36997900  0.09296700  0.14925400  1
  C  C45  1  0.90703300  0.63002100  0.35074600  1
  C  C46  1  0.55598400  0.13470000  0.70933200  1
  C  C47  1  0.86530000  0.44401600  0.79066800  1
  C  C48  1  0.44401600  0.86530000  0.29066800  1
  C  C49  1  0.13470000  0.55598400  0.20933200  1
  C  C50  1  0.57233500  0.42217900  0.62839900  1
  C  C51  1  0.57782100  0.42766500  0.87160100  1
  C  C52  1  0.42766500  0.57782100  0.37160100  1
  C  C53  1  0.42217900  0.57233500  0.12839900  1
  C  C54  1  0.50489600  0.18750900  0.53436000  1
  C  C55  1  0.81249100  0.49510400  0.96564000  1
  C  C56  1  0.49510400  0.81249100  0.46564000  1
  C  C57  1  0.18750900  0.50489600  0.03436000  1
