# generated using pymatgen
data_CuNiC16
_symmetry_space_group_name_H-M   'P 1'
_cell_length_a   9.07122300
_cell_length_b   10.52117200
_cell_length_c   12.88876601
_cell_angle_alpha   54.53511104
_cell_angle_beta   90.00000000
_cell_angle_gamma   90.00000000
_symmetry_Int_Tables_number   1
_chemical_formula_structural   CuNiC16
_chemical_formula_sum   'Cu4 Ni4 C64'
_cell_volume   1001.88309106
_cell_formula_units_Z   4
loop_
 _symmetry_equiv_pos_site_id
 _symmetry_equiv_pos_as_xyz
  1  'x, y, z'
loop_
 _atom_site_type_symbol
 _atom_site_label
 _atom_site_symmetry_multiplicity
 _atom_site_fract_x
 _atom_site_fract_y
 _atom_site_fract_z
 _atom_site_occupancy
  Ni  Ni0  1  0.42850000  0.75018000  0.95747500  1
  Ni  Ni1  1  0.92850000  0.24982000  0.54252500  1
  Ni  Ni2  1  0.57150000  0.24982000  0.04252500  1
  Ni  Ni3  1  0.07150000  0.75018000  0.45747500  1
  Cu  Cu4  1  0.22765700  0.18493400  0.81519300  1
  Cu  Cu5  1  0.72765700  0.81506600  0.68480700  1
  Cu  Cu6  1  0.27234300  0.18493400  0.31519300  1
  Cu  Cu7  1  0.77234300  0.81506600  0.18480700  1
  C  C8  1  0.66987400  0.18092400  0.35853000  1
  C  C9  1  0.97676600  0.47995300  0.76960200  1
  C  C10  1  0.60622900  0.69731500  0.48037600  1
  C  C11  1  0.40549100  0.88676100  0.25987100  1
  C  C12  1  0.90549100  0.11323900  0.24012900  1
  C  C13  1  0.47676600  0.52004700  0.73039800  1
  C  C14  1  0.39377100  0.30268500  0.51962400  1
  C  C15  1  0.89377100  0.69731500  0.98037600  1
  C  C16  1  0.09450900  0.88676100  0.75987100  1
  C  C17  1  0.52323400  0.47995300  0.26960200  1
  C  C18  1  0.16987400  0.81907600  0.14147000  1
  C  C19  1  0.02323400  0.52004700  0.23039800  1
  C  C20  1  0.10622900  0.30268500  0.01962400  1
  C  C21  1  0.33012600  0.81907600  0.64147000  1
  C  C22  1  0.83012600  0.18092400  0.85853000  1
  C  C23  1  0.59450900  0.11323900  0.74012900  1
  C  C24  1  0.90934500  0.63942300  0.68802100  1
  C  C25  1  0.53666000  0.92645500  0.17492900  1
  C  C26  1  0.55013800  0.23685500  0.59328600  1
  C  C27  1  0.46968200  0.86164900  0.67705500  1
  C  C28  1  0.09065500  0.36057700  0.31197900  1
  C  C29  1  0.84014700  0.79956400  0.01829200  1
  C  C30  1  0.32017300  0.01789800  0.24551600  1
  C  C31  1  0.20841000  0.77511400  0.74989000  1
  C  C32  1  0.41194200  0.43723800  0.20789200  1
  C  C33  1  0.45362500  0.46371500  0.39307000  1
  C  C34  1  0.96968200  0.13835100  0.82294500  1
  C  C35  1  0.08805800  0.43723800  0.70789200  1
  C  C36  1  0.29214100  0.33791800  0.59181600  1
  C  C37  1  0.76233900  0.07629500  0.98812600  1
  C  C38  1  0.40934500  0.36057700  0.81197900  1
  C  C39  1  0.58805800  0.56276200  0.79210800  1
  C  C40  1  0.65985300  0.79956400  0.51829200  1
  C  C41  1  0.59065500  0.63942300  0.18802100  1
  C  C42  1  0.15985300  0.20043600  0.98170800  1
  C  C43  1  0.34514200  0.64880600  0.66800400  1
  C  C44  1  0.70785900  0.66208200  0.40818400  1
  C  C45  1  0.73766100  0.07629500  0.48812600  1
  C  C46  1  0.04637500  0.46371500  0.89307000  1
  C  C47  1  0.15485800  0.64880600  0.16800400  1
  C  C48  1  0.03031800  0.86164900  0.17705500  1
  C  C49  1  0.23766100  0.92370500  0.01187400  1
  C  C50  1  0.29159000  0.77511400  0.24989000  1
  C  C51  1  0.70841000  0.22488600  0.75011000  1
  C  C52  1  0.05013800  0.76314500  0.90671400  1
  C  C53  1  0.94986200  0.23685500  0.09328600  1
  C  C54  1  0.91194200  0.56276200  0.29210800  1
  C  C55  1  0.67982700  0.98210200  0.75448400  1
  C  C56  1  0.34014700  0.20043600  0.48170800  1
  C  C57  1  0.17982700  0.01789800  0.74551600  1
  C  C58  1  0.46334000  0.07354500  0.82507100  1
  C  C59  1  0.20785900  0.33791800  0.09181600  1
  C  C60  1  0.44986200  0.76314500  0.40671400  1
  C  C61  1  0.79159000  0.22488600  0.25011000  1
  C  C62  1  0.26233900  0.92370500  0.51187400  1
  C  C63  1  0.84514200  0.35119400  0.83199600  1
  C  C64  1  0.53031800  0.13835100  0.32294500  1
  C  C65  1  0.82017300  0.98210200  0.25448400  1
  C  C66  1  0.54637500  0.53628500  0.60693000  1
  C  C67  1  0.96334000  0.92645500  0.67492900  1
  C  C68  1  0.79214100  0.66208200  0.90818400  1
  C  C69  1  0.95362500  0.53628500  0.10693000  1
  C  C70  1  0.65485800  0.35119400  0.33199600  1
  C  C71  1  0.03666000  0.07354500  0.32507100  1
