# generated using pymatgen
data_Cu14(NiC14)3
_symmetry_space_group_name_H-M   'P 1'
_cell_length_a   19.51995353
_cell_length_b   19.51995353
_cell_length_c   19.51995354
_cell_angle_alpha   29.03823655
_cell_angle_beta   29.03823655
_cell_angle_gamma   29.03823859
_symmetry_Int_Tables_number   1
_chemical_formula_structural   Cu14(NiC14)3
_chemical_formula_sum   'Cu28 Ni6 C84'
_cell_volume   1550.03206909
_cell_formula_units_Z   2
loop_
 _symmetry_equiv_pos_site_id
 _symmetry_equiv_pos_as_xyz
  1  'x, y, z'
loop_
 _atom_site_type_symbol
 _atom_site_label
 _atom_site_symmetry_multiplicity
 _atom_site_fract_x
 _atom_site_fract_y
 _atom_site_fract_z
 _atom_site_occupancy
  Ni  Ni0  1  0.55320600  0.55320600  0.55320600  1
  Ni  Ni1  1  0.75000000  0.75000000  0.75000000  1
  Ni  Ni2  1  0.44679400  0.44679400  0.44679400  1
  Ni  Ni3  1  0.05320600  0.05320600  0.05320600  1
  Ni  Ni4  1  0.25000000  0.25000000  0.25000000  1
  Ni  Ni5  1  0.94679400  0.94679400  0.94679400  1
  Cu  Cu6  1  0.04086900  0.69760500  0.31925000  1
  Cu  Cu7  1  0.60782600  0.60782600  0.60782600  1
  Cu  Cu8  1  0.81925000  0.19760500  0.54086900  1
  Cu  Cu9  1  0.99898700  0.57056500  0.28014000  1
  Cu  Cu10  1  0.50101300  0.21986000  0.92943500  1
  Cu  Cu11  1  0.00101300  0.42943500  0.71986000  1
  Cu  Cu12  1  0.54086900  0.81925000  0.19760500  1
  Cu  Cu13  1  0.42943500  0.71986000  0.00101300  1
  Cu  Cu14  1  0.78014000  0.07056500  0.49898700  1
  Cu  Cu15  1  0.80239500  0.45913100  0.18075000  1
  Cu  Cu16  1  0.30239500  0.68075000  0.95913100  1
  Cu  Cu17  1  0.07056500  0.49898700  0.78014000  1
  Cu  Cu18  1  0.21986000  0.92943500  0.50101300  1
  Cu  Cu19  1  0.57056500  0.28014000  0.99898700  1
  Cu  Cu20  1  0.68075000  0.95913100  0.30239500  1
  Cu  Cu21  1  0.45913100  0.18075000  0.80239500  1
  Cu  Cu22  1  0.10782600  0.10782600  0.10782600  1
  Cu  Cu23  1  0.69760500  0.31925000  0.04086900  1
  Cu  Cu24  1  0.49898700  0.78014000  0.07056500  1
  Cu  Cu25  1  0.89217400  0.89217400  0.89217400  1
  Cu  Cu26  1  0.92943500  0.50101300  0.21986000  1
  Cu  Cu27  1  0.95913100  0.30239500  0.68075000  1
  Cu  Cu28  1  0.31925000  0.04086900  0.69760500  1
  Cu  Cu29  1  0.19760500  0.54086900  0.81925000  1
  Cu  Cu30  1  0.18075000  0.80239500  0.45913100  1
  Cu  Cu31  1  0.28014000  0.99898700  0.57056500  1
  Cu  Cu32  1  0.71986000  0.00101300  0.42943500  1
  Cu  Cu33  1  0.39217400  0.39217400  0.39217400  1
  C  C34  1  0.08280000  0.75000000  0.41720000  1
  C  C35  1  0.58280000  0.91720000  0.25000000  1
  C  C36  1  0.25000000  0.58280000  0.91720000  1
  C  C37  1  0.66231400  0.66231400  0.66231400  1
  C  C38  1  0.00000000  0.00000000  0.00000000  1
  C  C39  1  0.41720000  0.08280000  0.75000000  1
  C  C40  1  0.16231400  0.16231400  0.16231400  1
  C  C41  1  0.50000000  0.50000000  0.50000000  1
  C  C42  1  0.83768600  0.83768600  0.83768600  1
  C  C43  1  0.33768600  0.33768600  0.33768600  1
  C  C44  1  0.91720000  0.25000000  0.58280000  1
  C  C45  1  0.75000000  0.41720000  0.08280000  1
  C  C46  1  0.28135500  0.46749100  0.08046100  1
  C  C47  1  0.94504500  0.98561300  0.31535300  1
  C  C48  1  0.48518500  0.16370000  0.42846600  1
  C  C49  1  0.44504500  0.81535300  0.48561300  1
  C  C50  1  0.79800100  0.29656000  0.23296600  1
  C  C51  1  0.71864500  0.53250900  0.91953900  1
  C  C52  1  0.23296600  0.79800100  0.29656000  1
  C  C53  1  0.83630000  0.57153400  0.51481500  1
  C  C54  1  0.29656000  0.23296600  0.79800100  1
  C  C55  1  0.18960000  0.52014600  0.25216400  1
  C  C56  1  0.31040000  0.24783600  0.97985400  1
  C  C57  1  0.81040000  0.47985400  0.74783600  1
  C  C58  1  0.34968600  0.68861000  0.52390600  1
  C  C59  1  0.84968600  0.02390600  0.18861000  1
  C  C60  1  0.47609400  0.65031400  0.31139000  1
  C  C61  1  0.03250900  0.21864500  0.41953900  1
  C  C62  1  0.96749100  0.78135500  0.58046100  1
  C  C63  1  0.68861000  0.52390600  0.34968600  1
  C  C64  1  0.76703400  0.20199900  0.70344000  1
  C  C65  1  0.57153400  0.51481500  0.83630000  1
  C  C66  1  0.78135500  0.58046100  0.96749100  1
  C  C67  1  0.79656000  0.29800100  0.73296600  1
  C  C68  1  0.26703400  0.20344000  0.70199900  1
  C  C69  1  0.01481500  0.07153400  0.33630000  1
  C  C70  1  0.31139000  0.47609400  0.65031400  1
  C  C71  1  0.70344000  0.76703400  0.20199900  1
  C  C72  1  0.52014600  0.25216400  0.18960000  1
  C  C73  1  0.31535300  0.94504500  0.98561300  1
  C  C74  1  0.20344000  0.70199900  0.26703400  1
  C  C75  1  0.47985400  0.74783600  0.81040000  1
  C  C76  1  0.29800100  0.73296600  0.79656000  1
  C  C77  1  0.68960000  0.75216400  0.02014600  1
  C  C78  1  0.73296600  0.79656000  0.29800100  1
  C  C79  1  0.65031400  0.31139000  0.47609400  1
  C  C80  1  0.18861000  0.84968600  0.02390600  1
  C  C81  1  0.91953900  0.71864500  0.53250900  1
  C  C82  1  0.81139000  0.15031400  0.97609400  1
  C  C83  1  0.24783600  0.97985400  0.31040000  1
  C  C84  1  0.66370000  0.98518500  0.92846600  1
  C  C85  1  0.07153400  0.33630000  0.01481500  1
  C  C86  1  0.51438700  0.55495500  0.18464700  1
  C  C87  1  0.48561300  0.44504500  0.81535300  1
  C  C88  1  0.58046100  0.96749100  0.78135500  1
  C  C89  1  0.55495500  0.18464700  0.51438700  1
  C  C90  1  0.68464700  0.05495500  0.01438700  1
  C  C91  1  0.74783600  0.81040000  0.47985400  1
  C  C92  1  0.02390600  0.18861000  0.84968600  1
  C  C93  1  0.18464700  0.51438700  0.55495500  1
  C  C94  1  0.75216400  0.02014600  0.68960000  1
  C  C95  1  0.46749100  0.08046100  0.28135500  1
  C  C96  1  0.15031400  0.97609400  0.81139000  1
  C  C97  1  0.01438700  0.68464700  0.05495500  1
  C  C98  1  0.92846600  0.66370000  0.98518500  1
  C  C99  1  0.51481500  0.83630000  0.57153400  1
  C  C100  1  0.98518500  0.92846600  0.66370000  1
  C  C101  1  0.21864500  0.41953900  0.03250900  1
  C  C102  1  0.52390600  0.34968600  0.68861000  1
  C  C103  1  0.70199900  0.26703400  0.20344000  1
  C  C104  1  0.97985400  0.31040000  0.24783600  1
  C  C105  1  0.16370000  0.42846600  0.48518500  1
  C  C106  1  0.97609400  0.81139000  0.15031400  1
  C  C107  1  0.20199900  0.70344000  0.76703400  1
  C  C108  1  0.08046100  0.28135500  0.46749100  1
  C  C109  1  0.53250900  0.91953900  0.71864500  1
  C  C110  1  0.25216400  0.18960000  0.52014600  1
  C  C111  1  0.02014600  0.68960000  0.75216400  1
  C  C112  1  0.33630000  0.01481500  0.07153400  1
  C  C113  1  0.98561300  0.31535300  0.94504500  1
  C  C114  1  0.05495500  0.01438700  0.68464700  1
  C  C115  1  0.42846600  0.48518500  0.16370000  1
  C  C116  1  0.41953900  0.03250900  0.21864500  1
  C  C117  1  0.81535300  0.48561300  0.44504500  1
