# generated using pymatgen
data_Cu9(Ni3C5)2
_symmetry_space_group_name_H-M   'P 1'
_cell_length_a   10.71080801
_cell_length_b   10.71080801
_cell_length_c   10.71080870
_cell_angle_alpha   81.37178477
_cell_angle_beta   81.37178477
_cell_angle_gamma   81.37178198
_symmetry_Int_Tables_number   1
_chemical_formula_structural   Cu9(Ni3C5)2
_chemical_formula_sum   'Cu18 Ni12 C20'
_cell_volume   1190.83995639
_cell_formula_units_Z   2
loop_
 _symmetry_equiv_pos_site_id
 _symmetry_equiv_pos_as_xyz
  1  'x, y, z'
loop_
 _atom_site_type_symbol
 _atom_site_label
 _atom_site_symmetry_multiplicity
 _atom_site_fract_x
 _atom_site_fract_y
 _atom_site_fract_z
 _atom_site_occupancy
  C  C0  1  0.79292000  0.20708000  0.50000000  1
  C  C1  1  0.20708000  0.50000000  0.79292000  1
  C  C2  1  0.29144300  0.70855700  0.00000000  1
  C  C3  1  0.79292000  0.50000000  0.20708000  1
  C  C4  1  0.00000000  0.29144300  0.70855700  1
  C  C5  1  0.65596500  0.94679400  0.65596500  1
  C  C6  1  0.34403500  0.34403500  0.05320600  1
  C  C7  1  0.00000000  0.70855700  0.29144300  1
  C  C8  1  0.34403500  0.05320600  0.34403500  1
  C  C9  1  0.94679400  0.65596500  0.65596500  1
  C  C10  1  0.20708000  0.79292000  0.50000000  1
  C  C11  1  0.50000000  0.79292000  0.20708000  1
  C  C12  1  0.05320600  0.34403500  0.34403500  1
  C  C13  1  0.00000000  0.00000000  0.00000000  1
  C  C14  1  0.70855700  0.29144300  0.00000000  1
  C  C15  1  0.65596500  0.65596500  0.94679400  1
  C  C16  1  0.50000000  0.50000000  0.50000000  1
  C  C17  1  0.29144300  0.00000000  0.70855700  1
  C  C18  1  0.50000000  0.20708000  0.79292000  1
  C  C19  1  0.70855700  0.00000000  0.29144300  1
  Ni  Ni20  1  0.03112900  0.03112900  0.31757400  1
  Ni  Ni21  1  0.28541100  0.28541100  0.50032500  1
  Ni  Ni22  1  0.71458900  0.49967500  0.71458900  1
  Ni  Ni23  1  0.31757400  0.03112900  0.03112900  1
  Ni  Ni24  1  0.68242600  0.96887100  0.96887100  1
  Ni  Ni25  1  0.28541100  0.50032500  0.28541100  1
  Ni  Ni26  1  0.49967500  0.71458900  0.71458900  1
  Ni  Ni27  1  0.96887100  0.96887100  0.68242600  1
  Ni  Ni28  1  0.71458900  0.71458900  0.49967500  1
  Ni  Ni29  1  0.50032500  0.28541100  0.28541100  1
  Ni  Ni30  1  0.03112900  0.31757400  0.03112900  1
  Ni  Ni31  1  0.96887100  0.68242600  0.96887100  1
  Cu  Cu32  1  0.10913100  0.51361800  0.10913100  1
  Cu  Cu33  1  0.51315200  0.18592300  0.51315200  1
  Cu  Cu34  1  0.18592300  0.51315200  0.51315200  1
  Cu  Cu35  1  0.89086900  0.89086900  0.48638200  1
  Cu  Cu36  1  0.20452000  0.88361000  0.20452000  1
  Cu  Cu37  1  0.48684800  0.81407700  0.48684800  1
  Cu  Cu38  1  0.11639000  0.79548000  0.79548000  1
  Cu  Cu39  1  0.48638200  0.89086900  0.89086900  1
  Cu  Cu40  1  0.51361800  0.10913100  0.10913100  1
  Cu  Cu41  1  0.88361000  0.20452000  0.20452000  1
  Cu  Cu42  1  0.10913100  0.10913100  0.51361800  1
  Cu  Cu43  1  0.79548000  0.79548000  0.11639000  1
  Cu  Cu44  1  0.79548000  0.11639000  0.79548000  1
  Cu  Cu45  1  0.89086900  0.48638200  0.89086900  1
  Cu  Cu46  1  0.48684800  0.48684800  0.81407700  1
  Cu  Cu47  1  0.51315200  0.51315200  0.18592300  1
  Cu  Cu48  1  0.20452000  0.20452000  0.88361000  1
  Cu  Cu49  1  0.81407700  0.48684800  0.48684800  1
