# generated using pymatgen
data_Cu6Ni2C3
_symmetry_space_group_name_H-M   'P 1'
_cell_length_a   10.20851700
_cell_length_b   8.87630600
_cell_length_c   12.36584041
_cell_angle_alpha   89.73186466
_cell_angle_beta   90.00000000
_cell_angle_gamma   90.00000000
_symmetry_Int_Tables_number   1
_chemical_formula_structural   Cu6Ni2C3
_chemical_formula_sum   'Cu48 Ni16 C24'
_cell_volume   1120.50501225
_cell_formula_units_Z   8
loop_
 _symmetry_equiv_pos_site_id
 _symmetry_equiv_pos_as_xyz
  1  'x, y, z'
loop_
 _atom_site_type_symbol
 _atom_site_label
 _atom_site_symmetry_multiplicity
 _atom_site_fract_x
 _atom_site_fract_y
 _atom_site_fract_z
 _atom_site_occupancy
  C  C0  1  0.62553800  0.45333900  0.07461600  1
  C  C1  1  0.37430700  0.19548800  0.78842800  1
  C  C2  1  0.82311900  0.98702100  0.36549700  1
  C  C3  1  0.92028400  0.57676600  0.59870700  1
  C  C4  1  0.87299400  0.58445500  0.89488100  1
  C  C5  1  0.12569300  0.69548800  0.78842800  1
  C  C6  1  0.07971600  0.42323400  0.40129300  1
  C  C7  1  0.87430700  0.30451200  0.21157200  1
  C  C8  1  0.62700600  0.08445500  0.89488100  1
  C  C9  1  0.67688100  0.48702100  0.36549700  1
  C  C10  1  0.12553800  0.04666100  0.92538400  1
  C  C11  1  0.12700600  0.41554500  0.10511900  1
  C  C12  1  0.57971600  0.07676600  0.59870700  1
  C  C13  1  0.42028400  0.92323400  0.40129300  1
  C  C14  1  0.87446200  0.95333900  0.07461600  1
  C  C15  1  0.17688100  0.01297900  0.63450300  1
  C  C16  1  0.62569300  0.80451200  0.21157200  1
  C  C17  1  0.32311900  0.51297900  0.63450300  1
  C  C18  1  0.37446200  0.54666100  0.92538400  1
  C  C19  1  0.37299400  0.91554500  0.10511900  1
  C  C20  1  0.37630200  0.28535100  0.27639700  1
  C  C21  1  0.62369800  0.71464900  0.72360300  1
  C  C22  1  0.12369800  0.78535100  0.27639700  1
  C  C23  1  0.87630200  0.21464900  0.72360300  1
  Ni  Ni24  1  0.86577000  0.26197800  0.49626400  1
  Ni  Ni25  1  0.36577000  0.23802200  0.50373600  1
  Ni  Ni26  1  0.61841900  0.14268200  0.21830600  1
  Ni  Ni27  1  0.39152900  0.24472800  0.01321100  1
  Ni  Ni28  1  0.86632800  0.88851400  0.72227900  1
  Ni  Ni29  1  0.13367200  0.11148600  0.27772100  1
  Ni  Ni30  1  0.13423000  0.73802200  0.50373600  1
  Ni  Ni31  1  0.63423000  0.76197800  0.49626400  1
  Ni  Ni32  1  0.63367200  0.38851400  0.72227900  1
  Ni  Ni33  1  0.38158100  0.85731800  0.78169400  1
  Ni  Ni34  1  0.10847100  0.74472800  0.01321100  1
  Ni  Ni35  1  0.36632800  0.61148600  0.27772100  1
  Ni  Ni36  1  0.11841900  0.35731800  0.78169400  1
  Ni  Ni37  1  0.89152900  0.25527200  0.98678900  1
  Ni  Ni38  1  0.88158100  0.64268200  0.21830600  1
  Ni  Ni39  1  0.60847100  0.75527200  0.98678900  1
  Cu  Cu40  1  0.83669800  0.38008800  0.01312800  1
  Cu  Cu41  1  0.84754000  0.17612700  0.90391400  1
  Cu  Cu42  1  0.65246000  0.67612700  0.90391400  1
  Cu  Cu43  1  0.86800100  0.74354600  0.73150400  1
  Cu  Cu44  1  0.74694500  0.45706900  0.72881300  1
  Cu  Cu45  1  0.75305500  0.95706900  0.72881300  1
  Cu  Cu46  1  0.98982700  0.56408500  0.22282000  1
  Cu  Cu47  1  0.29899800  0.34950300  0.46196200  1
  Cu  Cu48  1  0.36800100  0.75645400  0.26849600  1
  Cu  Cu49  1  0.98855700  0.20083800  0.04249800  1
  Cu  Cu50  1  0.51144300  0.70083800  0.04249800  1
  Cu  Cu51  1  0.48982700  0.93591500  0.77718000  1
  Cu  Cu52  1  0.97021900  0.96810500  0.70690600  1
  Cu  Cu53  1  0.15177600  0.68883400  0.59986100  1
  Cu  Cu54  1  0.34822400  0.18883400  0.59986100  1
  Cu  Cu55  1  0.79899800  0.15049700  0.53803800  1
  Cu  Cu56  1  0.70100200  0.65049700  0.53803800  1
  Cu  Cu57  1  0.13199900  0.25645400  0.26849600  1
  Cu  Cu58  1  0.39425000  0.71104800  0.77087400  1
  Cu  Cu59  1  0.01144300  0.79916200  0.95750200  1
  Cu  Cu60  1  0.95481200  0.32372800  0.55964100  1
  Cu  Cu61  1  0.51017300  0.06408500  0.22282000  1
  Cu  Cu62  1  0.52978100  0.46810500  0.70690600  1
  Cu  Cu63  1  0.20100200  0.84950300  0.46196200  1
  Cu  Cu64  1  0.73096600  0.08144600  0.20604000  1
  Cu  Cu65  1  0.23096600  0.41855400  0.79396000  1
  Cu  Cu66  1  0.04518800  0.67627200  0.44035900  1
  Cu  Cu67  1  0.66330200  0.88008800  0.01312800  1
  Cu  Cu68  1  0.48855700  0.29916200  0.95750200  1
  Cu  Cu69  1  0.15246000  0.82387300  0.09608600  1
  Cu  Cu70  1  0.84822400  0.31116600  0.40013900  1
  Cu  Cu71  1  0.89425000  0.78895200  0.22912600  1
  Cu  Cu72  1  0.76903400  0.58144600  0.20604000  1
  Cu  Cu73  1  0.02978100  0.03189500  0.29309400  1
  Cu  Cu74  1  0.63199900  0.24354600  0.73150400  1
  Cu  Cu75  1  0.16330200  0.61991200  0.98687200  1
  Cu  Cu76  1  0.01017300  0.43591500  0.77718000  1
  Cu  Cu77  1  0.65177600  0.81116600  0.40013900  1
  Cu  Cu78  1  0.34754000  0.32387300  0.09608600  1
  Cu  Cu79  1  0.60575000  0.28895200  0.22912600  1
  Cu  Cu80  1  0.26903400  0.91855400  0.79396000  1
  Cu  Cu81  1  0.45481200  0.17627200  0.44035900  1
  Cu  Cu82  1  0.47021900  0.53189500  0.29309400  1
  Cu  Cu83  1  0.25305500  0.54293100  0.27118700  1
  Cu  Cu84  1  0.54518800  0.82372800  0.55964100  1
  Cu  Cu85  1  0.33669800  0.11991200  0.98687200  1
  Cu  Cu86  1  0.24694500  0.04293100  0.27118700  1
  Cu  Cu87  1  0.10575000  0.21104800  0.77087400  1
