# generated using pymatgen
data_Cu27(Ni7C4)2
_symmetry_space_group_name_H-M   'P 1'
_cell_length_a   9.22444350
_cell_length_b   9.22444350
_cell_length_c   9.22444392
_cell_angle_alpha   94.76591509
_cell_angle_beta   94.76591509
_cell_angle_gamma   94.76592444
_symmetry_Int_Tables_number   1
_chemical_formula_structural   Cu27(Ni7C4)2
_chemical_formula_sum   'Cu27 Ni14 C8'
_cell_volume   776.28614595
_cell_formula_units_Z   1
loop_
 _symmetry_equiv_pos_site_id
 _symmetry_equiv_pos_as_xyz
  1  'x, y, z'
loop_
 _atom_site_type_symbol
 _atom_site_label
 _atom_site_symmetry_multiplicity
 _atom_site_fract_x
 _atom_site_fract_y
 _atom_site_fract_z
 _atom_site_occupancy
  C  C0  1  0.71937100  0.09570400  0.38618300  1
  C  C1  1  0.18552000  0.18552000  0.18552000  1
  C  C2  1  0.61381700  0.28062900  0.90429600  1
  C  C3  1  0.28062900  0.90429600  0.61381700  1
  C  C4  1  0.90429600  0.61381700  0.28062900  1
  C  C5  1  0.38618300  0.71937100  0.09570400  1
  C  C6  1  0.09570400  0.38618300  0.71937100  1
  C  C7  1  0.81448000  0.81448000  0.81448000  1
  Ni  Ni8  1  0.46338700  0.23075700  0.34028600  1
  Ni  Ni9  1  0.37477300  0.73458000  0.38711500  1
  Ni  Ni10  1  0.50000000  0.50000000  0.50000000  1
  Ni  Ni11  1  0.76924300  0.65971400  0.53661300  1
  Ni  Ni12  1  0.26542000  0.61288500  0.62522700  1
  Ni  Ni13  1  0.23075700  0.34028600  0.46338700  1
  Ni  Ni14  1  0.53661300  0.76924300  0.65971400  1
  Ni  Ni15  1  0.73458000  0.38711500  0.37477300  1
  Ni  Ni16  1  0.62522700  0.26542000  0.61288500  1
  Ni  Ni17  1  0.34028600  0.46338700  0.23075700  1
  Ni  Ni18  1  0.65971400  0.53661300  0.76924300  1
  Ni  Ni19  1  0.61288500  0.62522700  0.26542000  1
  Ni  Ni20  1  0.38711500  0.37477300  0.73458000  1
  Ni  Ni21  1  0.00000000  0.00000000  0.00000000  1
  Cu  Cu22  1  0.44657100  0.08608300  0.77390100  1
  Cu  Cu23  1  0.22164200  0.04372300  0.39917000  1
  Cu  Cu24  1  0.26836300  0.94732700  0.12016800  1
  Cu  Cu25  1  0.32796700  0.82328200  0.85772300  1
  Cu  Cu26  1  0.82328200  0.85772300  0.32796700  1
  Cu  Cu27  1  0.87983200  0.73163700  0.05267300  1
  Cu  Cu28  1  0.85772300  0.32796700  0.82328200  1
  Cu  Cu29  1  0.39917000  0.22164200  0.04372300  1
  Cu  Cu30  1  0.17671800  0.14227700  0.67203300  1
  Cu  Cu31  1  0.05267300  0.87983200  0.73163700  1
  Cu  Cu32  1  0.12016800  0.26836300  0.94732700  1
  Cu  Cu33  1  0.22609900  0.55342900  0.91391700  1
  Cu  Cu34  1  0.77835800  0.95627700  0.60083000  1
  Cu  Cu35  1  0.95627700  0.60083000  0.77835800  1
  Cu  Cu36  1  0.91391700  0.22609900  0.55342900  1
  Cu  Cu37  1  0.55342900  0.91391700  0.22609900  1
  Cu  Cu38  1  0.50000000  0.00000000  0.50000000  1
  Cu  Cu39  1  0.94732700  0.12016800  0.26836300  1
  Cu  Cu40  1  0.73163700  0.05267300  0.87983200  1
  Cu  Cu41  1  0.77390100  0.44657100  0.08608300  1
  Cu  Cu42  1  0.60083000  0.77835800  0.95627700  1
  Cu  Cu43  1  0.67203300  0.17671800  0.14227700  1
  Cu  Cu44  1  0.04372300  0.39917000  0.22164200  1
  Cu  Cu45  1  0.14227700  0.67203300  0.17671800  1
  Cu  Cu46  1  0.08608300  0.77390100  0.44657100  1
  Cu  Cu47  1  0.50000000  0.50000000  0.00000000  1
  Cu  Cu48  1  0.00000000  0.50000000  0.50000000  1
