# generated using pymatgen
data_CuNiC5
_symmetry_space_group_name_H-M   'P 1'
_cell_length_a   5.22318000
_cell_length_b   10.40366400
_cell_length_c   14.18363400
_cell_angle_alpha   90.00000000
_cell_angle_beta   90.00000000
_cell_angle_gamma   90.00000000
_symmetry_Int_Tables_number   1
_chemical_formula_structural   CuNiC5
_chemical_formula_sum   'Cu8 Ni8 C40'
_cell_volume   770.74164632
_cell_formula_units_Z   8
loop_
 _symmetry_equiv_pos_site_id
 _symmetry_equiv_pos_as_xyz
  1  'x, y, z'
loop_
 _atom_site_type_symbol
 _atom_site_label
 _atom_site_symmetry_multiplicity
 _atom_site_fract_x
 _atom_site_fract_y
 _atom_site_fract_z
 _atom_site_occupancy
  C  C0  1  0.94734100  0.47477200  0.25286300  1
  C  C1  1  0.94734100  0.02522800  0.75286300  1
  C  C2  1  0.44735900  0.28556000  0.50062500  1
  C  C3  1  0.05265900  0.97477200  0.25286300  1
  C  C4  1  0.55264100  0.78556000  0.50062500  1
  C  C5  1  0.05265900  0.52522800  0.75286300  1
  C  C6  1  0.44735900  0.21444000  0.00062500  1
  C  C7  1  0.55264100  0.71444000  0.00062500  1
  Ni  Ni8  1  0.54723200  0.72153100  0.75029100  1
  Ni  Ni9  1  0.93722100  0.52805200  0.50245900  1
  Ni  Ni10  1  0.93722100  0.97194800  0.00245900  1
  Ni  Ni11  1  0.45276800  0.27846900  0.25029100  1
  Ni  Ni12  1  0.06277900  0.47194800  0.00245900  1
  Ni  Ni13  1  0.45276800  0.22153100  0.75029100  1
  Ni  Ni14  1  0.06277900  0.02805200  0.50245900  1
  Ni  Ni15  1  0.54723200  0.77846900  0.25029100  1
  Cu  Cu16  1  0.56168600  0.03061400  0.37594300  1
  Cu  Cu17  1  0.56168600  0.46938600  0.87594300  1
  Cu  Cu18  1  0.95373100  0.27765800  0.62729500  1
  Cu  Cu19  1  0.04626900  0.77765800  0.62729500  1
  Cu  Cu20  1  0.95373100  0.22234200  0.12729500  1
  Cu  Cu21  1  0.43831400  0.53061400  0.37594300  1
  Cu  Cu22  1  0.04626900  0.72234200  0.12729500  1
  Cu  Cu23  1  0.43831400  0.96938600  0.87594300  1
  C  C24  1  0.12652700  0.23908300  0.71955500  1
  C  C25  1  0.48293500  0.81813300  0.84966000  1
  C  C26  1  0.12652700  0.26091700  0.21955500  1
  C  C27  1  0.62119400  0.00642800  0.96596100  1
  C  C28  1  0.50782700  0.05978200  0.78438600  1
  C  C29  1  0.65040500  0.25348400  0.65169200  1
  C  C30  1  0.99300000  0.92900800  0.60079600  1
  C  C31  1  0.87347300  0.76091700  0.21955500  1
  C  C32  1  0.96055200  0.69063000  0.53642000  1
  C  C33  1  0.50782700  0.44021800  0.28438600  1
  C  C34  1  0.96055200  0.80937000  0.03642000  1
  C  C35  1  0.34959500  0.74651600  0.15169200  1
  C  C36  1  0.85919500  0.99965400  0.40505300  1
  C  C37  1  0.49217300  0.94021800  0.28438600  1
  C  C38  1  0.65040500  0.24651600  0.15169200  1
  C  C39  1  0.49217300  0.55978200  0.78438600  1
  C  C40  1  0.51706500  0.18186700  0.34966000  1
  C  C41  1  0.37880600  0.50642800  0.96596100  1
  C  C42  1  0.87347300  0.73908300  0.71955500  1
  C  C43  1  0.48293500  0.68186700  0.34966000  1
  C  C44  1  0.37880600  0.99357200  0.46596100  1
  C  C45  1  0.14080500  0.49965400  0.40505300  1
  C  C46  1  0.14080500  0.00034600  0.90505300  1
  C  C47  1  0.51706500  0.31813300  0.84966000  1
  C  C48  1  0.62119400  0.49357200  0.46596100  1
  C  C49  1  0.85919500  0.50034600  0.90505300  1
  C  C50  1  0.00700000  0.07099200  0.10079600  1
  C  C51  1  0.03944800  0.30937000  0.03642000  1
  C  C52  1  0.34959500  0.75348400  0.65169200  1
  C  C53  1  0.03944800  0.19063000  0.53642000  1
  C  C54  1  0.99300000  0.57099200  0.10079600  1
  C  C55  1  0.00700000  0.42900800  0.60079600  1
