# generated using pymatgen
data_Cu(Ni4C5)3
_symmetry_space_group_name_H-M   'P 1'
_cell_length_a   6.95620599
_cell_length_b   6.95620599
_cell_length_c   6.95620621
_cell_angle_alpha   94.26620409
_cell_angle_beta   94.26620409
_cell_angle_gamma   94.26619959
_symmetry_Int_Tables_number   1
_chemical_formula_structural   Cu(Ni4C5)3
_chemical_formula_sum   'Cu1 Ni12 C15'
_cell_volume   333.65691523
_cell_formula_units_Z   1
loop_
 _symmetry_equiv_pos_site_id
 _symmetry_equiv_pos_as_xyz
  1  'x, y, z'
loop_
 _atom_site_type_symbol
 _atom_site_label
 _atom_site_symmetry_multiplicity
 _atom_site_fract_x
 _atom_site_fract_y
 _atom_site_fract_z
 _atom_site_occupancy
  C  C0  1  0.50000000  0.50000000  0.00000000  1
  C  C1  1  0.50000000  0.00000000  0.50000000  1
  C  C2  1  0.00000000  0.50000000  0.50000000  1
  C  C3  1  0.76317300  0.93704900  0.93704900  1
  C  C4  1  0.93704900  0.93704900  0.76317300  1
  C  C5  1  0.93704900  0.76317300  0.93704900  1
  C  C6  1  0.06295100  0.23682700  0.06295100  1
  C  C7  1  0.23682700  0.06295100  0.06295100  1
  C  C8  1  0.06295100  0.06295100  0.23682700  1
  C  C9  1  0.84065100  0.12280600  0.12280600  1
  C  C10  1  0.12280600  0.12280600  0.84065100  1
  C  C11  1  0.12280600  0.84065100  0.12280600  1
  C  C12  1  0.87719400  0.15934900  0.87719400  1
  C  C13  1  0.15934900  0.87719400  0.87719400  1
  C  C14  1  0.87719400  0.87719400  0.15934900  1
  Ni  Ni15  1  0.40488200  0.10847900  0.10847900  1
  Ni  Ni16  1  0.10847900  0.10847900  0.40488200  1
  Ni  Ni17  1  0.10847900  0.40488200  0.10847900  1
  Ni  Ni18  1  0.89152100  0.59511800  0.89152100  1
  Ni  Ni19  1  0.59511800  0.89152100  0.89152100  1
  Ni  Ni20  1  0.89152100  0.89152100  0.59511800  1
  Ni  Ni21  1  0.72877100  0.21150200  0.21150200  1
  Ni  Ni22  1  0.21150200  0.21150200  0.72877100  1
  Ni  Ni23  1  0.21150200  0.72877100  0.21150200  1
  Ni  Ni24  1  0.78849800  0.27122900  0.78849800  1
  Ni  Ni25  1  0.27122900  0.78849800  0.78849800  1
  Ni  Ni26  1  0.78849800  0.78849800  0.27122900  1
  Cu  Cu27  1  0.50000000  0.50000000  0.50000000  1
