# generated using pymatgen
data_Cu(NiC2)2
_symmetry_space_group_name_H-M   'P 1'
_cell_length_a   8.20812946
_cell_length_b   8.20812946
_cell_length_c   8.20812946
_cell_angle_alpha   60.00000000
_cell_angle_beta   60.00000000
_cell_angle_gamma   60.00000000
_symmetry_Int_Tables_number   1
_chemical_formula_structural   Cu(NiC2)2
_chemical_formula_sum   'Cu4 Ni8 C16'
_cell_volume   391.03676779
_cell_formula_units_Z   4
loop_
 _symmetry_equiv_pos_site_id
 _symmetry_equiv_pos_as_xyz
  1  'x, y, z'
loop_
 _atom_site_type_symbol
 _atom_site_label
 _atom_site_symmetry_multiplicity
 _atom_site_fract_x
 _atom_site_fract_y
 _atom_site_fract_z
 _atom_site_occupancy
  C  C0  1  0.56112500  0.93887500  0.56112500  1
  C  C1  1  0.31112500  0.68887500  0.68887500  1
  C  C2  1  0.68887500  0.31112500  0.31112500  1
  C  C3  1  0.31112500  0.68887500  0.31112500  1
  C  C4  1  0.68887500  0.68887500  0.31112500  1
  C  C5  1  0.31112500  0.31112500  0.68887500  1
  C  C6  1  0.56112500  0.56112500  0.93887500  1
  C  C7  1  0.93887500  0.56112500  0.56112500  1
  C  C8  1  0.56112500  0.93887500  0.93887500  1
  C  C9  1  0.93887500  0.93887500  0.56112500  1
  C  C10  1  0.68887500  0.31112500  0.68887500  1
  C  C11  1  0.93887500  0.56112500  0.93887500  1
  Ni  Ni12  1  0.91820300  0.91820300  0.91820300  1
  Ni  Ni13  1  0.00460800  0.33179700  0.33179700  1
  Ni  Ni14  1  0.33179700  0.00460800  0.33179700  1
  Ni  Ni15  1  0.33179700  0.33179700  0.00460800  1
  Ni  Ni16  1  0.91820300  0.24539200  0.91820300  1
  Ni  Ni17  1  0.91820300  0.91820300  0.24539200  1
  Ni  Ni18  1  0.24539200  0.91820300  0.91820300  1
  Ni  Ni19  1  0.33179700  0.33179700  0.33179700  1
  Cu  Cu20  1  0.12500000  0.12500000  0.12500000  1
  Cu  Cu21  1  0.62500000  0.12500000  0.12500000  1
  Cu  Cu22  1  0.12500000  0.62500000  0.12500000  1
  Cu  Cu23  1  0.12500000  0.12500000  0.62500000  1
  C  C24  1  0.62500000  0.62500000  0.62500000  1
  C  C25  1  0.12500000  0.62500000  0.62500000  1
  C  C26  1  0.62500000  0.12500000  0.62500000  1
  C  C27  1  0.62500000  0.62500000  0.12500000  1
