# generated using pymatgen
data_Cu2NiC9
_symmetry_space_group_name_H-M   'P 1'
_cell_length_a   3.86782794
_cell_length_b   3.86782815
_cell_length_c   34.65246752
_cell_angle_alpha   93.19927217
_cell_angle_beta   93.19927190
_cell_angle_gamma   90.00000036
_symmetry_Int_Tables_number   1
_chemical_formula_structural   Cu2NiC9
_chemical_formula_sum   'Cu6 Ni3 C27'
_cell_volume   516.78700848
_cell_formula_units_Z   3
loop_
 _symmetry_equiv_pos_site_id
 _symmetry_equiv_pos_as_xyz
  1  'x, y, z'
loop_
 _atom_site_type_symbol
 _atom_site_label
 _atom_site_symmetry_multiplicity
 _atom_site_fract_x
 _atom_site_fract_y
 _atom_site_fract_z
 _atom_site_occupancy
  C  C0  1  0.46079100  0.46079100  0.92158300  1
  C  C1  1  0.53920900  0.53920900  0.07841700  1
  C  C2  1  0.30809300  0.30809300  0.61618700  1
  C  C3  1  0.69190700  0.69190700  0.38381300  1
  C  C4  1  0.64035600  0.64035600  0.28071100  1
  C  C5  1  0.59258300  0.59258300  0.18516700  1
  C  C6  1  0.40741700  0.40741700  0.81483300  1
  C  C7  1  0.35964400  0.35964400  0.71928900  1
  Ni  Ni8  1  0.76657100  0.76657100  0.53314300  1
  Ni  Ni9  1  0.00000000  0.00000000  0.00000000  1
  Ni  Ni10  1  0.23342900  0.23342900  0.46685700  1
  Cu  Cu11  1  0.83725000  0.83725000  0.67450000  1
  Cu  Cu12  1  0.06987800  0.06987800  0.13975700  1
  Cu  Cu13  1  0.16275000  0.16275000  0.32550000  1
  Cu  Cu14  1  0.93012200  0.93012200  0.86024300  1
  Cu  Cu15  1  0.88271800  0.88271800  0.76543600  1
  Cu  Cu16  1  0.11728200  0.11728200  0.23456400  1
  C  C17  1  0.07160200  0.57160200  0.14320400  1
  C  C18  1  0.92839800  0.42839800  0.85679600  1
  C  C19  1  0.57160200  0.07160200  0.14320400  1
  C  C20  1  0.79591900  0.79591900  0.59183800  1
  C  C21  1  0.61751900  0.11751900  0.23503700  1
  C  C22  1  0.83664200  0.33664300  0.67328500  1
  C  C23  1  0.26355300  0.26355300  0.52710600  1
  C  C24  1  0.96962200  0.96962200  0.93924500  1
  C  C25  1  0.16335700  0.66335800  0.32671500  1
  C  C26  1  0.88248100  0.38248100  0.76496300  1
  C  C27  1  0.20408100  0.20408100  0.40816200  1
  C  C28  1  0.33664300  0.83664200  0.67328500  1
  C  C29  1  0.11751900  0.61751900  0.23503700  1
  C  C30  1  0.66335800  0.16335700  0.32671500  1
  C  C31  1  0.42839800  0.92839800  0.85679600  1
  C  C32  1  0.03037800  0.03037800  0.06075500  1
  C  C33  1  0.50000000  0.50000000  0.00000000  1
  C  C34  1  0.73644700  0.73644700  0.47289400  1
  C  C35  1  0.38248100  0.88248100  0.76496300  1
