# generated using pymatgen
data_Cu2NiC12
_symmetry_space_group_name_H-M   'P 1'
_cell_length_a   6.12518400
_cell_length_b   8.39675500
_cell_length_c   11.02933500
_cell_angle_alpha   90.00000000
_cell_angle_beta   90.00000000
_cell_angle_gamma   90.00000000
_symmetry_Int_Tables_number   1
_chemical_formula_structural   Cu2NiC12
_chemical_formula_sum   'Cu8 Ni4 C48'
_cell_volume   567.25711118
_cell_formula_units_Z   4
loop_
 _symmetry_equiv_pos_site_id
 _symmetry_equiv_pos_as_xyz
  1  'x, y, z'
loop_
 _atom_site_type_symbol
 _atom_site_label
 _atom_site_symmetry_multiplicity
 _atom_site_fract_x
 _atom_site_fract_y
 _atom_site_fract_z
 _atom_site_occupancy
  Ni  Ni0  1  0.75000000  0.15910300  0.42992000  1
  Ni  Ni1  1  0.25000000  0.65910300  0.07008000  1
  Ni  Ni2  1  0.75000000  0.34089700  0.92992000  1
  Ni  Ni3  1  0.25000000  0.84089700  0.57008000  1
  Cu  Cu4  1  0.75000000  0.63223800  0.91845300  1
  Cu  Cu5  1  0.75000000  0.10116200  0.08466800  1
  Cu  Cu6  1  0.75000000  0.39883800  0.58466800  1
  Cu  Cu7  1  0.25000000  0.89883800  0.91533200  1
  Cu  Cu8  1  0.25000000  0.36776200  0.08154700  1
  Cu  Cu9  1  0.75000000  0.86776200  0.41845300  1
  Cu  Cu10  1  0.25000000  0.13223800  0.58154700  1
  Cu  Cu11  1  0.25000000  0.60116200  0.41533200  1
  C  C12  1  0.01508300  0.53306000  0.83056000  1
  C  C13  1  0.09217200  0.16640400  0.29168500  1
  C  C14  1  0.98491700  0.46694000  0.16944000  1
  C  C15  1  0.75000000  0.15462100  0.64777300  1
  C  C16  1  0.01736100  0.03021200  0.17301300  1
  C  C17  1  0.09098900  0.83345700  0.21295200  1
  C  C18  1  0.75000000  0.34537900  0.14777300  1
  C  C19  1  0.75000000  0.64878600  0.34653900  1
  C  C20  1  0.25000000  0.84537900  0.35222700  1
  C  C21  1  0.40901100  0.83345700  0.21295200  1
  C  C22  1  0.75000000  0.94300300  0.59726500  1
  C  C23  1  0.40782800  0.16640400  0.29168500  1
  C  C24  1  0.25000000  0.05699700  0.40273500  1
  C  C25  1  0.01508300  0.96694000  0.33056000  1
  C  C26  1  0.59217200  0.83359600  0.70831500  1
  C  C27  1  0.09098900  0.66654300  0.71295200  1
  C  C28  1  0.48263900  0.46978800  0.67301300  1
  C  C29  1  0.40901100  0.66654300  0.71295200  1
  C  C30  1  0.59098900  0.33345700  0.28704800  1
  C  C31  1  0.01736100  0.46978800  0.67301300  1
  C  C32  1  0.51736100  0.96978800  0.82698700  1
  C  C33  1  0.90782800  0.66640400  0.20831500  1
  C  C34  1  0.48491700  0.53306000  0.83056000  1
  C  C35  1  0.75000000  0.44563000  0.39928900  1
  C  C36  1  0.51508300  0.03306000  0.66944000  1
  C  C37  1  0.25000000  0.94563000  0.10071100  1
  C  C38  1  0.75000000  0.85121400  0.84653900  1
  C  C39  1  0.59098900  0.16654300  0.78704800  1
  C  C40  1  0.98491700  0.03306000  0.66944000  1
  C  C41  1  0.25000000  0.35121400  0.65346100  1
  C  C42  1  0.98263900  0.96978800  0.82698700  1
  C  C43  1  0.90901100  0.33345700  0.28704800  1
  C  C44  1  0.75000000  0.05437000  0.89928900  1
  C  C45  1  0.98263900  0.53021200  0.32698700  1
  C  C46  1  0.09217200  0.33359600  0.79168500  1
  C  C47  1  0.51508300  0.46694000  0.16944000  1
  C  C48  1  0.40782800  0.33359600  0.79168500  1
  C  C49  1  0.48263900  0.03021200  0.17301300  1
  C  C50  1  0.48491700  0.96694000  0.33056000  1
  C  C51  1  0.90901100  0.16654300  0.78704800  1
  C  C52  1  0.25000000  0.55437000  0.60071100  1
  C  C53  1  0.25000000  0.14878600  0.15346100  1
  C  C54  1  0.51736100  0.53021200  0.32698700  1
  C  C55  1  0.59217200  0.66640400  0.20831500  1
  C  C56  1  0.90782800  0.83359600  0.70831500  1
  C  C57  1  0.75000000  0.55699700  0.09726500  1
  C  C58  1  0.25000000  0.65462100  0.85222700  1
  C  C59  1  0.25000000  0.44300300  0.90273500  1
