# generated using pymatgen
data_Cu3NiC7
_symmetry_space_group_name_H-M   'P 1'
_cell_length_a   11.52852389
_cell_length_b   11.52852389
_cell_length_c   11.52852400
_cell_angle_alpha   117.55470367
_cell_angle_beta   117.55470367
_cell_angle_gamma   117.55470632
_symmetry_Int_Tables_number   1
_chemical_formula_structural   Cu3NiC7
_chemical_formula_sum   'Cu9 Ni3 C21'
_cell_volume   612.94765277
_cell_formula_units_Z   3
loop_
 _symmetry_equiv_pos_site_id
 _symmetry_equiv_pos_as_xyz
  1  'x, y, z'
loop_
 _atom_site_type_symbol
 _atom_site_label
 _atom_site_symmetry_multiplicity
 _atom_site_fract_x
 _atom_site_fract_y
 _atom_site_fract_z
 _atom_site_occupancy
  Ni  Ni0  1  0.42513600  0.42513600  0.70294700  1
  Ni  Ni1  1  0.70294700  0.42513600  0.42513600  1
  Ni  Ni2  1  0.42513600  0.70294700  0.42513600  1
  Cu  Cu3  1  0.13258100  0.13258100  0.74465100  1
  Cu  Cu4  1  0.13258100  0.74465100  0.13258100  1
  Cu  Cu5  1  0.00852800  0.60716900  0.46615600  1
  Cu  Cu6  1  0.74465100  0.13258100  0.13258100  1
  Cu  Cu7  1  0.46615600  0.00852800  0.60716900  1
  Cu  Cu8  1  0.00852800  0.46615600  0.60716900  1
  Cu  Cu9  1  0.60716900  0.00852800  0.46615600  1
  Cu  Cu10  1  0.60716900  0.46615600  0.00852800  1
  Cu  Cu11  1  0.46615600  0.60716900  0.00852800  1
  C  C12  1  0.80477900  0.53401000  0.39426600  1
  C  C13  1  0.80477900  0.39426600  0.53401000  1
  C  C14  1  0.67408800  0.17312000  0.67408800  1
  C  C15  1  0.81342200  0.31845900  0.18167600  1
  C  C16  1  0.39426600  0.80477900  0.53401000  1
  C  C17  1  0.18167600  0.31845900  0.81342200  1
  C  C18  1  0.67408800  0.67408800  0.17312000  1
  C  C19  1  0.31845900  0.81342200  0.18167600  1
  C  C20  1  0.53401000  0.39426600  0.80477900  1
  C  C21  1  0.31845900  0.18167600  0.81342200  1
  C  C22  1  0.53401000  0.80477900  0.39426600  1
  C  C23  1  0.18167600  0.81342200  0.31845900  1
  C  C24  1  0.39426600  0.53401000  0.80477900  1
  C  C25  1  0.81342200  0.18167600  0.31845900  1
  C  C26  1  0.17312000  0.67408800  0.67408800  1
  C  C27  1  0.74767100  0.59288800  0.59288800  1
  C  C28  1  0.40132900  0.16913400  0.16913400  1
  C  C29  1  0.59288800  0.59288800  0.74767100  1
  C  C30  1  0.16913400  0.16913400  0.40132900  1
  C  C31  1  0.16913400  0.40132900  0.16913400  1
  C  C32  1  0.59288800  0.74767100  0.59288800  1
