# generated using pymatgen
data_Cu2NiC9
_symmetry_space_group_name_H-M   'P 1'
_cell_length_a   5.59217600
_cell_length_b   5.59217600
_cell_length_c   19.60833800
_cell_angle_alpha   90.00000000
_cell_angle_beta   90.00000000
_cell_angle_gamma   90.00000000
_symmetry_Int_Tables_number   1
_chemical_formula_structural   Cu2NiC9
_chemical_formula_sum   'Cu8 Ni4 C36'
_cell_volume   613.20042488
_cell_formula_units_Z   4
loop_
 _symmetry_equiv_pos_site_id
 _symmetry_equiv_pos_as_xyz
  1  'x, y, z'
loop_
 _atom_site_type_symbol
 _atom_site_label
 _atom_site_symmetry_multiplicity
 _atom_site_fract_x
 _atom_site_fract_y
 _atom_site_fract_z
 _atom_site_occupancy
  Ni  Ni0  1  0.25934600  0.25934600  0.00000000  1
  Ni  Ni1  1  0.24065400  0.75934600  0.50000000  1
  Ni  Ni2  1  0.75934600  0.24065400  0.50000000  1
  Ni  Ni3  1  0.74065400  0.74065400  0.00000000  1
  Cu  Cu4  1  0.27715300  0.27715300  0.18343200  1
  Cu  Cu5  1  0.22284700  0.77715300  0.68343200  1
  Cu  Cu6  1  0.77715300  0.22284700  0.68343200  1
  Cu  Cu7  1  0.77715300  0.22284700  0.31656800  1
  Cu  Cu8  1  0.22284700  0.77715300  0.31656800  1
  Cu  Cu9  1  0.72284700  0.72284700  0.18343200  1
  Cu  Cu10  1  0.27715300  0.27715300  0.81656800  1
  Cu  Cu11  1  0.72284700  0.72284700  0.81656800  1
  C  C12  1  0.25830200  0.25830200  0.39913000  1
  C  C13  1  0.24169800  0.75830200  0.89913000  1
  C  C14  1  0.75830200  0.24169800  0.89913000  1
  C  C15  1  0.75830200  0.24169800  0.10087000  1
  C  C16  1  0.24169800  0.75830200  0.10087000  1
  C  C17  1  0.74169800  0.74169800  0.39913000  1
  C  C18  1  0.25830200  0.25830200  0.60087000  1
  C  C19  1  0.74169800  0.74169800  0.60087000  1
  C  C20  1  0.70489800  0.70489800  0.50000000  1
  C  C21  1  0.79510200  0.20489800  0.00000000  1
  C  C22  1  0.20489800  0.79510200  0.00000000  1
  C  C23  1  0.29510200  0.29510200  0.50000000  1
  C  C24  1  0.18561000  0.18561000  0.28963000  1
  C  C25  1  0.31439000  0.68561000  0.78963000  1
  C  C26  1  0.68561000  0.31439000  0.78963000  1
  C  C27  1  0.68561000  0.31439000  0.21037000  1
  C  C28  1  0.31439000  0.68561000  0.21037000  1
  C  C29  1  0.81439000  0.81439000  0.28963000  1
  C  C30  1  0.18561000  0.18561000  0.71037000  1
  C  C31  1  0.81439000  0.81439000  0.71037000  1
  C  C32  1  0.00000000  0.50000000  0.11248900  1
  C  C33  1  0.00000000  0.50000000  0.61248900  1
  C  C34  1  0.50000000  0.00000000  0.38751100  1
  C  C35  1  0.50000000  0.00000000  0.88751100  1
  C  C36  1  0.00000000  0.50000000  0.88751100  1
  C  C37  1  0.00000000  0.50000000  0.38751100  1
  C  C38  1  0.50000000  0.00000000  0.61248900  1
  C  C39  1  0.50000000  0.00000000  0.11248900  1
  C  C40  1  0.00000000  0.00000000  0.13108400  1
  C  C41  1  0.50000000  0.50000000  0.63108500  1
  C  C42  1  0.50000000  0.50000000  0.36891600  1
  C  C43  1  0.00000000  0.00000000  0.86891500  1
  C  C44  1  0.00000000  0.00000000  0.40976200  1
  C  C45  1  0.50000000  0.50000000  0.90976200  1
  C  C46  1  0.50000000  0.50000000  0.09023800  1
  C  C47  1  0.00000000  0.00000000  0.59023800  1
