# generated using pymatgen
data_Cu2Ni2C17
_symmetry_space_group_name_H-M   'P 1'
_cell_length_a   9.58943700
_cell_length_b   9.58815300
_cell_length_c   11.91518469
_cell_angle_alpha   51.77460335
_cell_angle_beta   90.00000000
_cell_angle_gamma   90.00000000
_symmetry_Int_Tables_number   1
_chemical_formula_structural   Cu2Ni2C17
_chemical_formula_sum   'Cu8 Ni8 C68'
_cell_volume   860.63847438
_cell_formula_units_Z   4
loop_
 _symmetry_equiv_pos_site_id
 _symmetry_equiv_pos_as_xyz
  1  'x, y, z'
loop_
 _atom_site_type_symbol
 _atom_site_label
 _atom_site_symmetry_multiplicity
 _atom_site_fract_x
 _atom_site_fract_y
 _atom_site_fract_z
 _atom_site_occupancy
  C  C0  1  0.20338400  0.38028300  0.09802600  1
  C  C1  1  0.70338400  0.61971700  0.40197400  1
  C  C2  1  0.79661600  0.61971700  0.90197400  1
  C  C3  1  0.29661600  0.38028300  0.59802600  1
  Ni  Ni4  1  0.54360300  0.98162700  0.62848000  1
  Ni  Ni5  1  0.04360300  0.01837300  0.87152000  1
  Ni  Ni6  1  0.45639700  0.01837300  0.37152000  1
  Ni  Ni7  1  0.95639700  0.98162700  0.12848000  1
  Ni  Ni8  1  0.22523100  0.70811600  0.69013000  1
  Ni  Ni9  1  0.72523100  0.29188400  0.80987000  1
  Ni  Ni10  1  0.77476900  0.29188400  0.30987000  1
  Ni  Ni11  1  0.27476900  0.70811600  0.19013000  1
  Cu  Cu12  1  0.02714200  0.35152800  0.85206500  1
  Cu  Cu13  1  0.52714200  0.64847200  0.64793500  1
  Cu  Cu14  1  0.97285800  0.64847200  0.14793500  1
  Cu  Cu15  1  0.47285800  0.35152800  0.35206500  1
  Cu  Cu16  1  0.18565800  0.84154400  0.36752400  1
  Cu  Cu17  1  0.68565800  0.15845600  0.13247600  1
  Cu  Cu18  1  0.81434200  0.15845600  0.63247600  1
  Cu  Cu19  1  0.31434200  0.84154400  0.86752400  1
  C  C20  1  0.30021300  0.04525700  0.52297400  1
  C  C21  1  0.80021300  0.95474300  0.97702600  1
  C  C22  1  0.69978700  0.95474300  0.47702600  1
  C  C23  1  0.19978700  0.04525700  0.02297400  1
  C  C24  1  0.98054200  0.83893000  0.60595400  1
  C  C25  1  0.48054200  0.16107000  0.89404600  1
  C  C26  1  0.01945800  0.16107000  0.39404600  1
  C  C27  1  0.51945800  0.83893000  0.10595400  1
  C  C28  1  0.03348400  0.92070600  0.68582000  1
  C  C29  1  0.53348400  0.07929400  0.81418000  1
  C  C30  1  0.96651600  0.07929400  0.31418000  1
  C  C31  1  0.46651600  0.92070600  0.18582000  1
  C  C32  1  0.07942100  0.19636600  0.53577200  1
  C  C33  1  0.57942100  0.80363400  0.96422800  1
  C  C34  1  0.92057900  0.80363400  0.46422800  1
  C  C35  1  0.42057900  0.19636600  0.03577200  1
  C  C36  1  0.13248000  0.35432600  0.37822700  1
  C  C37  1  0.63248000  0.64567400  0.12177300  1
  C  C38  1  0.86752000  0.64567400  0.62177300  1
  C  C39  1  0.36752000  0.35432600  0.87822700  1
  C  C40  1  0.08685200  0.25337200  0.79688400  1
  C  C41  1  0.58685200  0.74662800  0.70311600  1
  C  C42  1  0.91314800  0.74662800  0.20311600  1
  C  C43  1  0.41314800  0.25337200  0.29688400  1
  C  C44  1  0.12212700  0.50192300  0.81599200  1
  C  C45  1  0.62212700  0.49807700  0.68400800  1
  C  C46  1  0.87787300  0.49807700  0.18400800  1
  C  C47  1  0.37787300  0.50192300  0.31599200  1
  C  C48  1  0.01106200  0.22157000  0.01771800  1
  C  C49  1  0.51106200  0.77843000  0.48228200  1
  C  C50  1  0.98893800  0.77843000  0.98228200  1
  C  C51  1  0.48893800  0.22157000  0.51771800  1
  C  C52  1  0.38118300  0.57001400  0.71765200  1
  C  C53  1  0.88118300  0.42998600  0.78234800  1
  C  C54  1  0.61881700  0.42998600  0.28234800  1
  C  C55  1  0.11881700  0.57001400  0.21765200  1
  C  C56  1  0.22994400  0.71306700  0.33792900  1
  C  C57  1  0.72994400  0.28693300  0.16207100  1
  C  C58  1  0.77005600  0.28693300  0.66207100  1
  C  C59  1  0.27005600  0.71306700  0.83792900  1
  C  C60  1  0.03923100  0.92241600  0.29759800  1
  C  C61  1  0.53923100  0.07758400  0.20240200  1
  C  C62  1  0.96076900  0.07758400  0.70240200  1
  C  C63  1  0.46076900  0.92241600  0.79759800  1
  C  C64  1  0.28809100  0.99783700  0.30456800  1
  C  C65  1  0.78809100  0.00216300  0.19543200  1
  C  C66  1  0.71190900  0.00216300  0.69543200  1
  C  C67  1  0.21190900  0.99783700  0.80456800  1
  C  C68  1  0.17042800  0.73299400  0.52977200  1
  C  C69  1  0.67042800  0.26700600  0.97022800  1
  C  C70  1  0.82957200  0.26700600  0.47022800  1
  C  C71  1  0.32957200  0.73299400  0.02977200  1
  C  C72  1  0.36359300  0.94542300  0.55603800  1
  C  C73  1  0.86359300  0.05457700  0.94396200  1
  C  C74  1  0.63640700  0.05457700  0.44396200  1
  C  C75  1  0.13640700  0.94542300  0.05603800  1
  C  C76  1  0.06163000  0.85221400  0.65246100  1
  C  C77  1  0.56163000  0.14778600  0.84753900  1
  C  C78  1  0.93837000  0.14778600  0.34753900  1
  C  C79  1  0.43837000  0.85221400  0.15246100  1
  C  C80  1  0.13910700  0.22389700  0.45693900  1
  C  C81  1  0.63910700  0.77610300  0.04306100  1
  C  C82  1  0.86089300  0.77610300  0.54306100  1
  C  C83  1  0.36089300  0.22389700  0.95693900  1
