# generated using pymatgen
data_Cu(NiC10)2
_symmetry_space_group_name_H-M   'P 1'
_cell_length_a   6.04528219
_cell_length_b   6.04528219
_cell_length_c   14.98879600
_cell_angle_alpha   90.00000000
_cell_angle_beta   90.00000000
_cell_angle_gamma   120.00000204
_symmetry_Int_Tables_number   1
_chemical_formula_structural   Cu(NiC10)2
_chemical_formula_sum   'Cu1 Ni2 C20'
_cell_volume   474.38454052
_cell_formula_units_Z   1
loop_
 _symmetry_equiv_pos_site_id
 _symmetry_equiv_pos_as_xyz
  1  'x, y, z'
loop_
 _atom_site_type_symbol
 _atom_site_label
 _atom_site_symmetry_multiplicity
 _atom_site_fract_x
 _atom_site_fract_y
 _atom_site_fract_z
 _atom_site_occupancy
  C  C0  1  0.33333300  0.66666700  0.36576000  1
  C  C1  1  0.33333300  0.66666700  0.79195800  1
  C  C2  1  0.66666700  0.33333300  0.63424000  1
  C  C3  1  0.66666700  0.33333300  0.92710000  1
  C  C4  1  0.33333300  0.66666700  0.07290000  1
  C  C5  1  0.66666700  0.33333300  0.20804200  1
  Ni  Ni6  1  0.00000000  0.00000000  0.81317200  1
  Ni  Ni7  1  0.00000000  0.00000000  0.18682800  1
  Cu  Cu8  1  0.00000000  0.00000000  0.00000000  1
  C  C9  1  0.66666700  0.33333300  0.42003100  1
  C  C10  1  0.33333300  0.66666700  0.57996900  1
  C  C11  1  0.15397700  0.30795500  0.91714900  1
  C  C12  1  0.32467600  0.16233800  0.75681600  1
  C  C13  1  0.16233800  0.32467600  0.24318400  1
  C  C14  1  0.83766200  0.67532400  0.75681600  1
  C  C15  1  0.83766200  0.16233800  0.75681600  1
  C  C16  1  0.84602300  0.69204500  0.08285100  1
  C  C17  1  0.16233800  0.83766200  0.24318400  1
  C  C18  1  0.30795500  0.15397700  0.08285100  1
  C  C19  1  0.84602300  0.15397700  0.08285100  1
  C  C20  1  0.69204500  0.84602300  0.91714900  1
  C  C21  1  0.67532400  0.83766200  0.24318400  1
  C  C22  1  0.15397700  0.84602300  0.91714900  1
