# generated using pymatgen
data_Cu4Ni7C12
_symmetry_space_group_name_H-M   'P 1'
_cell_length_a   8.81163000
_cell_length_b   8.81163000
_cell_length_c   12.81185600
_cell_angle_alpha   90.00000000
_cell_angle_beta   90.00000000
_cell_angle_gamma   90.00000000
_symmetry_Int_Tables_number   1
_chemical_formula_structural   Cu4Ni7C12
_chemical_formula_sum   'Cu16 Ni28 C48'
_cell_volume   994.77429471
_cell_formula_units_Z   4
loop_
 _symmetry_equiv_pos_site_id
 _symmetry_equiv_pos_as_xyz
  1  'x, y, z'
loop_
 _atom_site_type_symbol
 _atom_site_label
 _atom_site_symmetry_multiplicity
 _atom_site_fract_x
 _atom_site_fract_y
 _atom_site_fract_z
 _atom_site_occupancy
  C  C0  1  0.00000000  0.50000000  0.45936700  1
  C  C1  1  0.50000000  0.00000000  0.54063300  1
  C  C2  1  0.50000000  0.00000000  0.04063300  1
  C  C3  1  0.00000000  0.50000000  0.95936700  1
  Ni  Ni4  1  0.82097000  0.92646000  0.21311900  1
  Ni  Ni5  1  0.49267100  0.30517600  0.82869900  1
  Ni  Ni6  1  0.58957800  0.00185900  0.77625300  1
  Ni  Ni7  1  0.50000000  0.50000000  0.77708700  1
  Ni  Ni8  1  0.30517600  0.50732900  0.17130100  1
  Ni  Ni9  1  0.50732900  0.69482400  0.82869900  1
  Ni  Ni10  1  0.99267100  0.80517600  0.67130100  1
  Ni  Ni11  1  0.67903000  0.57354000  0.28688100  1
  Ni  Ni12  1  0.00732900  0.19482400  0.67130100  1
  Ni  Ni13  1  0.50000000  0.50000000  0.22291300  1
  Ni  Ni14  1  0.00000000  0.00000000  0.72291300  1
  Ni  Ni15  1  0.08957800  0.50185900  0.72374700  1
  Ni  Ni16  1  0.92646000  0.17903000  0.78688100  1
  Ni  Ni17  1  0.32097000  0.42646000  0.28688100  1
  Ni  Ni18  1  0.17903000  0.07354000  0.21311900  1
  Ni  Ni19  1  0.99814100  0.58957800  0.22374700  1
  Ni  Ni20  1  0.57354000  0.32097000  0.71311900  1
  Ni  Ni21  1  0.19482400  0.99267100  0.32869900  1
  Ni  Ni22  1  0.91042200  0.49814100  0.72374700  1
  Ni  Ni23  1  0.80517600  0.00732900  0.32869900  1
  Ni  Ni24  1  0.00185900  0.41042200  0.22374700  1
  Ni  Ni25  1  0.07354000  0.82097000  0.78688100  1
  Ni  Ni26  1  0.41042200  0.99814100  0.77625300  1
  Ni  Ni27  1  0.42646000  0.67903000  0.71311900  1
  Ni  Ni28  1  0.00000000  0.00000000  0.27708700  1
  Ni  Ni29  1  0.69482400  0.49267100  0.17130100  1
  Ni  Ni30  1  0.50185900  0.91042200  0.27625300  1
  Ni  Ni31  1  0.49814100  0.08957800  0.27625300  1
  Cu  Cu32  1  0.77373400  0.20421600  0.94705400  1
  Cu  Cu33  1  0.72601400  0.28332500  0.04956900  1
  Cu  Cu34  1  0.70421600  0.72626600  0.44705400  1
  Cu  Cu35  1  0.29578400  0.27373400  0.44705400  1
  Cu  Cu36  1  0.22626600  0.79578400  0.94705400  1
  Cu  Cu37  1  0.71667500  0.72601400  0.95043100  1
  Cu  Cu38  1  0.72626600  0.29578400  0.55294600  1
  Cu  Cu39  1  0.21667500  0.22601400  0.54956900  1
  Cu  Cu40  1  0.22601400  0.78332500  0.45043100  1
  Cu  Cu41  1  0.78332500  0.77398600  0.54956900  1
  Cu  Cu42  1  0.27398600  0.71667500  0.04956900  1
  Cu  Cu43  1  0.20421600  0.22626600  0.05294600  1
  Cu  Cu44  1  0.79578400  0.77373400  0.05294600  1
  Cu  Cu45  1  0.77398600  0.21667500  0.45043100  1
  Cu  Cu46  1  0.27373400  0.70421600  0.55294600  1
  Cu  Cu47  1  0.28332500  0.27398600  0.95043100  1
  C  C48  1  0.12474700  0.72007200  0.39646200  1
  C  C49  1  0.77992800  0.62474700  0.89646200  1
  C  C50  1  0.09159900  0.29134000  0.57138000  1
  C  C51  1  0.37339400  0.44730700  0.21836900  1
  C  C52  1  0.50000000  0.00000000  0.23125100  1
  C  C53  1  0.40840100  0.20866000  0.92862000  1
  C  C54  1  0.70866000  0.09159900  0.42862000  1
  C  C55  1  0.79134000  0.40840100  0.07138000  1
  C  C56  1  0.50000000  0.00000000  0.73125100  1
  C  C57  1  0.41306900  0.20080100  0.42108900  1
  C  C58  1  0.87525300  0.27992800  0.39646200  1
  C  C59  1  0.08693100  0.29919900  0.07891100  1
  C  C60  1  0.22007200  0.37525300  0.89646200  1
  C  C61  1  0.11695300  0.73549200  0.89692500  1
  C  C62  1  0.00000000  0.50000000  0.76874900  1
  C  C63  1  0.20866000  0.59159900  0.07138000  1
  C  C64  1  0.26450800  0.11695300  0.10307500  1
  C  C65  1  0.00000000  0.50000000  0.26874900  1
  C  C66  1  0.38304700  0.76450800  0.60307500  1
  C  C67  1  0.55269300  0.37339400  0.78163100  1
  C  C68  1  0.88304700  0.26450800  0.89692500  1
  C  C69  1  0.37525300  0.77992800  0.10353800  1
  C  C70  1  0.76450800  0.61695300  0.39692500  1
  C  C71  1  0.29919900  0.91306900  0.92108900  1
  C  C72  1  0.79919900  0.41306900  0.57891100  1
  C  C73  1  0.12660600  0.05269300  0.28163100  1
  C  C74  1  0.59159900  0.79134000  0.92862000  1
  C  C75  1  0.58693100  0.79919900  0.42108900  1
  C  C76  1  0.44730700  0.62660600  0.78163100  1
  C  C77  1  0.61695300  0.23549200  0.60307500  1
  C  C78  1  0.72007200  0.87525300  0.60353800  1
  C  C79  1  0.73549200  0.88304700  0.10307500  1
  C  C80  1  0.27992800  0.12474700  0.60353800  1
  C  C81  1  0.05269300  0.87339400  0.71836900  1
  C  C82  1  0.90840100  0.70866000  0.57138000  1
  C  C83  1  0.70080100  0.08693100  0.92108900  1
  C  C84  1  0.62474700  0.22007200  0.10353800  1
  C  C85  1  0.23549200  0.38304700  0.39692500  1
  C  C86  1  0.94730700  0.12660600  0.71836900  1
  C  C87  1  0.29134000  0.90840100  0.42862000  1
  C  C88  1  0.20080100  0.58693100  0.57891100  1
  C  C89  1  0.91306900  0.70080100  0.07891100  1
  C  C90  1  0.87339400  0.94730700  0.28163100  1
  C  C91  1  0.62660600  0.55269300  0.21836900  1
