# generated using pymatgen
data_Cu4NiC3
_symmetry_space_group_name_H-M   'P 1'
_cell_length_a   8.27594434
_cell_length_b   8.27594434
_cell_length_c   7.32636300
_cell_angle_alpha   90.00000000
_cell_angle_beta   90.00000000
_cell_angle_gamma   131.34966168
_symmetry_Int_Tables_number   1
_chemical_formula_structural   Cu4NiC3
_chemical_formula_sum   'Cu8 Ni2 C6'
_cell_volume   376.69097933
_cell_formula_units_Z   2
loop_
 _symmetry_equiv_pos_site_id
 _symmetry_equiv_pos_as_xyz
  1  'x, y, z'
loop_
 _atom_site_type_symbol
 _atom_site_label
 _atom_site_symmetry_multiplicity
 _atom_site_fract_x
 _atom_site_fract_y
 _atom_site_fract_z
 _atom_site_occupancy
  C  C0  1  0.43578900  0.56421100  0.25000000  1
  C  C1  1  0.24356500  0.75643500  0.75000000  1
  C  C2  1  0.75643500  0.24356500  0.25000000  1
  C  C3  1  0.56421100  0.43578900  0.75000000  1
  C  C4  1  0.10940400  0.89059600  0.25000000  1
  C  C5  1  0.89059600  0.10940400  0.75000000  1
  Ni  Ni6  1  0.23018100  0.76981900  0.25000000  1
  Ni  Ni7  1  0.76981900  0.23018100  0.75000000  1
  Cu  Cu8  1  0.33208100  0.11434200  0.04983000  1
  Cu  Cu9  1  0.66791900  0.88565800  0.95017000  1
  Cu  Cu10  1  0.88565800  0.66791900  0.45017000  1
  Cu  Cu11  1  0.11434200  0.33208100  0.95017000  1
  Cu  Cu12  1  0.66791900  0.88565800  0.54983000  1
  Cu  Cu13  1  0.88565800  0.66791900  0.04983000  1
  Cu  Cu14  1  0.11434200  0.33208100  0.54983000  1
  Cu  Cu15  1  0.33208100  0.11434200  0.45017000  1
