# generated using pymatgen
data_Cu3Ni2C
_symmetry_space_group_name_H-M   'P 1'
_cell_length_a   6.63263500
_cell_length_b   7.43165500
_cell_length_c   8.44381400
_cell_angle_alpha   90.00000000
_cell_angle_beta   90.00000000
_cell_angle_gamma   90.00000000
_symmetry_Int_Tables_number   1
_chemical_formula_structural   Cu3Ni2C
_chemical_formula_sum   'Cu12 Ni8 C4'
_cell_volume   416.20787832
_cell_formula_units_Z   4
loop_
 _symmetry_equiv_pos_site_id
 _symmetry_equiv_pos_as_xyz
  1  'x, y, z'
loop_
 _atom_site_type_symbol
 _atom_site_label
 _atom_site_symmetry_multiplicity
 _atom_site_fract_x
 _atom_site_fract_y
 _atom_site_fract_z
 _atom_site_occupancy
  C  C0  1  0.75000000  0.50000000  0.31788400  1
  C  C1  1  0.75000000  0.00000000  0.31788400  1
  C  C2  1  0.25000000  0.50000000  0.68211600  1
  C  C3  1  0.25000000  0.00000000  0.68211600  1
  Ni  Ni4  1  0.14327800  0.25000000  0.06322200  1
  Ni  Ni5  1  0.76464000  0.25000000  0.68061400  1
  Ni  Ni6  1  0.35672200  0.75000000  0.06322200  1
  Ni  Ni7  1  0.23536000  0.75000000  0.31938600  1
  Ni  Ni8  1  0.26464000  0.25000000  0.31938600  1
  Ni  Ni9  1  0.85672300  0.75000000  0.93677800  1
  Ni  Ni10  1  0.73536000  0.75000000  0.68061400  1
  Ni  Ni11  1  0.64327700  0.25000000  0.93677800  1
  Cu  Cu12  1  0.38251000  0.25000000  0.42509800  1
  Cu  Cu13  1  0.85478700  0.75000000  0.07652200  1
  Cu  Cu14  1  0.38073500  0.75000000  0.21661000  1
  Cu  Cu15  1  0.11749000  0.75000000  0.42509800  1
  Cu  Cu16  1  0.88073500  0.75000000  0.78339000  1
  Cu  Cu17  1  0.14521300  0.25000000  0.92347800  1
  Cu  Cu18  1  0.61749000  0.75000000  0.57490200  1
  Cu  Cu19  1  0.35478700  0.75000000  0.92347800  1
  Cu  Cu20  1  0.88251000  0.25000000  0.57490200  1
  Cu  Cu21  1  0.11926500  0.25000000  0.21661000  1
  Cu  Cu22  1  0.61926500  0.25000000  0.78339000  1
  Cu  Cu23  1  0.64521300  0.25000000  0.07652200  1
