# generated using pymatgen
data_Cu9Ni3C7
_symmetry_space_group_name_H-M   'P 1'
_cell_length_a   8.13910775
_cell_length_b   8.13910775
_cell_length_c   8.41197600
_cell_angle_alpha   90.00000000
_cell_angle_beta   90.00000000
_cell_angle_gamma   119.99999794
_symmetry_Int_Tables_number   1
_chemical_formula_structural   Cu9Ni3C7
_chemical_formula_sum   'Cu18 Ni6 C14'
_cell_volume   482.59438127
_cell_formula_units_Z   2
loop_
 _symmetry_equiv_pos_site_id
 _symmetry_equiv_pos_as_xyz
  1  'x, y, z'
loop_
 _atom_site_type_symbol
 _atom_site_label
 _atom_site_symmetry_multiplicity
 _atom_site_fract_x
 _atom_site_fract_y
 _atom_site_fract_z
 _atom_site_occupancy
  C  C0  1  0.66666700  0.33333300  0.25000000  1
  C  C1  1  0.33333300  0.66666700  0.75000000  1
  C  C2  1  0.65077800  0.54863600  0.65607000  1
  C  C3  1  0.54863600  0.65077800  0.15607000  1
  C  C4  1  0.10214200  0.45136400  0.15607000  1
  C  C5  1  0.65077800  0.54863600  0.84393000  1
  C  C6  1  0.34922200  0.89785800  0.15607000  1
  C  C7  1  0.89785800  0.34922200  0.65607000  1
  C  C8  1  0.45136400  0.10214200  0.84393000  1
  C  C9  1  0.34922200  0.89785800  0.34393000  1
  C  C10  1  0.45136400  0.10214200  0.65607000  1
  C  C11  1  0.89785800  0.34922200  0.84393000  1
  C  C12  1  0.10214200  0.45136400  0.34393000  1
  C  C13  1  0.54863600  0.65077800  0.34393000  1
  Ni  Ni14  1  0.76215200  0.00000000  0.00000000  1
  Ni  Ni15  1  0.23784800  0.23784800  0.50000000  1
  Ni  Ni16  1  0.00000000  0.76215200  0.00000000  1
  Ni  Ni17  1  0.76215200  0.00000000  0.50000000  1
  Ni  Ni18  1  0.00000000  0.76215200  0.50000000  1
  Ni  Ni19  1  0.23784800  0.23784800  0.00000000  1
  Cu  Cu20  1  0.97829200  0.41130800  0.75000000  1
  Cu  Cu21  1  0.18715300  0.74879500  0.51052900  1
  Cu  Cu22  1  0.56164200  0.81284700  0.98947100  1
  Cu  Cu23  1  0.74879500  0.18715300  0.01052900  1
  Cu  Cu24  1  0.58869200  0.56698400  0.75000000  1
  Cu  Cu25  1  0.43835800  0.25120500  0.01052900  1
  Cu  Cu26  1  0.56698400  0.58869200  0.25000000  1
  Cu  Cu27  1  0.25120500  0.43835800  0.51052900  1
  Cu  Cu28  1  0.81284700  0.56164200  0.01052900  1
  Cu  Cu29  1  0.81284700  0.56164200  0.48947100  1
  Cu  Cu30  1  0.25120500  0.43835800  0.98947100  1
  Cu  Cu31  1  0.74879500  0.18715300  0.48947100  1
  Cu  Cu32  1  0.41130800  0.97829200  0.25000000  1
  Cu  Cu33  1  0.02170800  0.43301600  0.25000000  1
  Cu  Cu34  1  0.43835800  0.25120500  0.48947100  1
  Cu  Cu35  1  0.56164200  0.81284700  0.51052900  1
  Cu  Cu36  1  0.18715300  0.74879500  0.98947100  1
  Cu  Cu37  1  0.43301600  0.02170800  0.75000000  1
