# generated using pymatgen
data_Cu3Ni4C13
_symmetry_space_group_name_H-M   'P 1'
_cell_length_a   6.46440852
_cell_length_b   6.46440852
_cell_length_c   6.46440852
_cell_angle_alpha   109.47122063
_cell_angle_beta   109.47122063
_cell_angle_gamma   109.47122063
_symmetry_Int_Tables_number   1
_chemical_formula_structural   Cu3Ni4C13
_chemical_formula_sum   'Cu3 Ni4 C13'
_cell_volume   207.95266553
_cell_formula_units_Z   1
loop_
 _symmetry_equiv_pos_site_id
 _symmetry_equiv_pos_as_xyz
  1  'x, y, z'
loop_
 _atom_site_type_symbol
 _atom_site_label
 _atom_site_symmetry_multiplicity
 _atom_site_fract_x
 _atom_site_fract_y
 _atom_site_fract_z
 _atom_site_occupancy
  C  C0  1  0.00000000  0.00000000  0.00000000  1
  Ni  Ni1  1  0.50000000  0.50000000  0.50000000  1
  Ni  Ni2  1  0.50000000  0.00000000  0.00000000  1
  Ni  Ni3  1  0.00000000  0.00000000  0.50000000  1
  Ni  Ni4  1  0.00000000  0.50000000  0.00000000  1
  Cu  Cu5  1  0.00000000  0.50000000  0.50000000  1
  Cu  Cu6  1  0.50000000  0.50000000  0.00000000  1
  Cu  Cu7  1  0.50000000  0.00000000  0.50000000  1
  C  C8  1  0.17102900  0.47789200  0.30686300  1
  C  C9  1  0.30686300  0.82897100  0.13583400  1
  C  C10  1  0.52210800  0.69313700  0.82897100  1
  C  C11  1  0.47789200  0.30686300  0.17102900  1
  C  C12  1  0.69313700  0.82897100  0.52210800  1
  C  C13  1  0.30686300  0.17102900  0.47789200  1
  C  C14  1  0.82897100  0.52210800  0.69313700  1
  C  C15  1  0.86416600  0.69313700  0.17102900  1
  C  C16  1  0.13583400  0.30686300  0.82897100  1
  C  C17  1  0.82897100  0.13583400  0.30686300  1
  C  C18  1  0.69313700  0.17102900  0.86416600  1
  C  C19  1  0.17102900  0.86416600  0.69313700  1
