# generated using pymatgen
data_Cu12Ni5
_symmetry_space_group_name_H-M   'P 1'
_cell_length_a   13.57091900
_cell_length_b   13.57091900
_cell_length_c   5.61863200
_cell_angle_alpha   90.00000000
_cell_angle_beta   90.00000000
_cell_angle_gamma   90.00000000
_symmetry_Int_Tables_number   1
_chemical_formula_structural   Cu12Ni5
_chemical_formula_sum   'Cu48 Ni20'
_cell_volume   1034.78257053
_cell_formula_units_Z   4
loop_
 _symmetry_equiv_pos_site_id
 _symmetry_equiv_pos_as_xyz
  1  'x, y, z'
loop_
 _atom_site_type_symbol
 _atom_site_label
 _atom_site_symmetry_multiplicity
 _atom_site_fract_x
 _atom_site_fract_y
 _atom_site_fract_z
 _atom_site_occupancy
  Ni  Ni0  1  0.18537400  0.88443400  0.98542000  1
  Ni  Ni1  1  0.69298100  0.88686400  0.56560900  1
  Ni  Ni2  1  0.88686400  0.30701900  0.43439100  1
  Ni  Ni3  1  0.11313600  0.69298100  0.43439100  1
  Ni  Ni4  1  0.30701900  0.11313600  0.56560900  1
  Ni  Ni5  1  0.00000000  0.00000000  0.50000000  1
  Ni  Ni6  1  0.11556600  0.18537400  0.01458000  1
  Ni  Ni7  1  0.81462600  0.11556600  0.98542000  1
  Ni  Ni8  1  0.80701900  0.61313600  0.43439100  1
  Ni  Ni9  1  0.31462600  0.61556600  0.01458000  1
  Ni  Ni10  1  0.68537400  0.38443400  0.01458000  1
  Ni  Ni11  1  0.61556600  0.68537400  0.98542000  1
  Ni  Ni12  1  0.38686400  0.80701900  0.56560900  1
  Ni  Ni13  1  0.88443400  0.81462600  0.01458000  1
  Ni  Ni14  1  0.19298100  0.38686400  0.43439100  1
  Ni  Ni15  1  0.00000000  0.50000000  0.94531300  1
  Ni  Ni16  1  0.38443400  0.31462600  0.98542000  1
  Ni  Ni17  1  0.50000000  0.00000000  0.05468700  1
  Ni  Ni18  1  0.61313600  0.19298100  0.56560900  1
  Ni  Ni19  1  0.50000000  0.50000000  0.50000000  1
  Cu  Cu20  1  0.64680600  0.01837100  0.30715400  1
  Cu  Cu21  1  0.66601800  0.20713300  0.09792500  1
  Cu  Cu22  1  0.48162900  0.14680600  0.30715400  1
  Cu  Cu23  1  0.14680600  0.51837100  0.69284600  1
  Cu  Cu24  1  0.14713100  0.53469900  0.19295800  1
  Cu  Cu25  1  0.70713300  0.83398200  0.09792500  1
  Cu  Cu26  1  0.15332000  0.21370500  0.46300400  1
  Cu  Cu27  1  0.35319400  0.98162900  0.30715400  1
  Cu  Cu28  1  0.28629500  0.65332000  0.46300400  1
  Cu  Cu29  1  0.46292000  0.65564800  0.75507200  1
  Cu  Cu30  1  0.96292000  0.15564800  0.24492800  1
  Cu  Cu31  1  0.46530100  0.14713100  0.80704200  1
  Cu  Cu32  1  0.15564800  0.03708000  0.75507200  1
  Cu  Cu33  1  0.65564800  0.53708000  0.24492800  1
  Cu  Cu34  1  0.21370500  0.84668000  0.53699600  1
  Cu  Cu35  1  0.83398200  0.29286700  0.90207500  1
  Cu  Cu36  1  0.98162900  0.64680600  0.69284600  1
  Cu  Cu37  1  0.03708000  0.84435200  0.24492800  1
  Cu  Cu38  1  0.78629500  0.15332000  0.53699600  1
  Cu  Cu39  1  0.01837100  0.35319400  0.69284600  1
  Cu  Cu40  1  0.20713300  0.33398200  0.90207500  1
  Cu  Cu41  1  0.51968400  0.35378900  0.25425600  1
  Cu  Cu42  1  0.84668000  0.78629500  0.46300400  1
  Cu  Cu43  1  0.34435200  0.46292000  0.24492800  1
  Cu  Cu44  1  0.29286700  0.16601800  0.09792500  1
  Cu  Cu45  1  0.53708000  0.34435200  0.75507200  1
  Cu  Cu46  1  0.85286900  0.46530100  0.19295800  1
  Cu  Cu47  1  0.71370500  0.34668000  0.46300400  1
  Cu  Cu48  1  0.64713100  0.03469900  0.80704200  1
  Cu  Cu49  1  0.64621100  0.51968400  0.74574400  1
  Cu  Cu50  1  0.79286700  0.66601800  0.90207500  1
  Cu  Cu51  1  0.65332000  0.71370500  0.53699600  1
  Cu  Cu52  1  0.84435200  0.96292000  0.75507200  1
  Cu  Cu53  1  0.96530100  0.64713100  0.19295800  1
  Cu  Cu54  1  0.48031600  0.64621100  0.25425600  1
  Cu  Cu55  1  0.35286900  0.96530100  0.80704200  1
  Cu  Cu56  1  0.85378900  0.98031600  0.25425600  1
  Cu  Cu57  1  0.16601800  0.70713300  0.90207500  1
  Cu  Cu58  1  0.01968400  0.85378900  0.74574400  1
  Cu  Cu59  1  0.03469900  0.35286900  0.19295800  1
  Cu  Cu60  1  0.53469900  0.85286900  0.80704200  1
  Cu  Cu61  1  0.98031600  0.14621100  0.74574400  1
  Cu  Cu62  1  0.34668000  0.28629500  0.53699600  1
  Cu  Cu63  1  0.33398200  0.79286700  0.09792500  1
  Cu  Cu64  1  0.35378900  0.48031600  0.74574400  1
  Cu  Cu65  1  0.85319400  0.48162900  0.69284600  1
  Cu  Cu66  1  0.51837100  0.85319400  0.30715400  1
  Cu  Cu67  1  0.14621100  0.01968400  0.25425600  1
