# generated using pymatgen
data_Cu2Ni6C13
_symmetry_space_group_name_H-M   'P 1'
_cell_length_a   6.70486800
_cell_length_b   9.16642500
_cell_length_c   18.25665742
_cell_angle_alpha   62.21851855
_cell_angle_beta   90.00000000
_cell_angle_gamma   90.00000000
_symmetry_Int_Tables_number   1
_chemical_formula_structural   Cu2Ni6C13
_chemical_formula_sum   'Cu8 Ni24 C52'
_cell_volume   992.71151900
_cell_formula_units_Z   4
loop_
 _symmetry_equiv_pos_site_id
 _symmetry_equiv_pos_as_xyz
  1  'x, y, z'
loop_
 _atom_site_type_symbol
 _atom_site_label
 _atom_site_symmetry_multiplicity
 _atom_site_fract_x
 _atom_site_fract_y
 _atom_site_fract_z
 _atom_site_occupancy
  C  C0  1  0.66224100  0.89019100  0.12855200  1
  C  C1  1  0.91670300  0.32959100  0.65668100  1
  C  C2  1  0.08329700  0.67040900  0.34331900  1
  C  C3  1  0.83775900  0.89019100  0.62855200  1
  C  C4  1  0.33775900  0.10980900  0.87144800  1
  C  C5  1  0.41670300  0.67040900  0.84331900  1
  C  C6  1  0.16224100  0.10980900  0.37144800  1
  C  C7  1  0.58329700  0.32959100  0.15668100  1
  Ni  Ni8  1  0.60836300  0.48074600  0.33300500  1
  Ni  Ni9  1  0.81227900  0.75225200  0.48531900  1
  Ni  Ni10  1  0.29745300  0.06997200  0.66025600  1
  Ni  Ni11  1  0.96034200  0.23540300  0.04974100  1
  Ni  Ni12  1  0.32081200  0.79376900  0.64570100  1
  Ni  Ni13  1  0.18772100  0.24774800  0.51468100  1
  Ni  Ni14  1  0.03965800  0.76459700  0.95025900  1
  Ni  Ni15  1  0.39163700  0.51925400  0.66699500  1
  Ni  Ni16  1  0.17918800  0.79376900  0.14570100  1
  Ni  Ni17  1  0.82081200  0.20623100  0.85429900  1
  Ni  Ni18  1  0.67918800  0.20623100  0.35429900  1
  Ni  Ni19  1  0.10836300  0.51925400  0.16699500  1
  Ni  Ni20  1  0.79745300  0.93002800  0.83974400  1
  Ni  Ni21  1  0.83173700  0.30501600  0.44869800  1
  Ni  Ni22  1  0.33173700  0.69498400  0.05130200  1
  Ni  Ni23  1  0.20254700  0.06997200  0.16025600  1
  Ni  Ni24  1  0.46034200  0.76459700  0.45025900  1
  Ni  Ni25  1  0.31227900  0.24774800  0.01468100  1
  Ni  Ni26  1  0.68772100  0.75225200  0.98531900  1
  Ni  Ni27  1  0.89163700  0.48074600  0.83300500  1
  Ni  Ni28  1  0.16826300  0.69498400  0.55130200  1
  Ni  Ni29  1  0.53965800  0.23540300  0.54974100  1
  Ni  Ni30  1  0.70254700  0.93002800  0.33974400  1
  Ni  Ni31  1  0.66826300  0.30501600  0.94869800  1
  Cu  Cu32  1  0.14169600  0.99055800  0.76909900  1
  Cu  Cu33  1  0.64169600  0.00944200  0.73090100  1
  Cu  Cu34  1  0.52910400  0.70161600  0.31364000  1
  Cu  Cu35  1  0.97089600  0.70161600  0.81364000  1
  Cu  Cu36  1  0.85830400  0.00944200  0.23090100  1
  Cu  Cu37  1  0.35830400  0.99055800  0.26909900  1
  Cu  Cu38  1  0.02910400  0.29838400  0.18636000  1
  Cu  Cu39  1  0.47089600  0.29838400  0.68636000  1
  C  C40  1  0.70296600  0.17738900  0.92094600  1
  C  C41  1  0.29703400  0.82261100  0.07905400  1
  C  C42  1  0.05026100  0.32290700  0.45327300  1
  C  C43  1  0.49994500  0.37521600  0.70907200  1
  C  C44  1  0.51224700  0.83288400  0.36717700  1
  C  C45  1  0.79703400  0.17738900  0.42094600  1
  C  C46  1  0.38958000  0.27968200  0.49022200  1
  C  C47  1  0.76260500  0.25180800  0.03068300  1
  C  C48  1  0.99994500  0.62478400  0.79092800  1
  C  C49  1  0.93058000  0.35397100  0.81331800  1
  C  C50  1  0.73739500  0.25180800  0.53068300  1
  C  C51  1  0.64111600  0.85551600  0.90451100  1
  C  C52  1  0.73947000  0.92498700  0.76413400  1
  C  C53  1  0.20296600  0.82261100  0.57905400  1
  C  C54  1  0.75263800  0.46721500  0.38847900  1
  C  C55  1  0.11042000  0.27968200  0.99022200  1
  C  C56  1  0.34420900  0.89903000  0.67820400  1
  C  C57  1  0.84420900  0.10097000  0.82179600  1
  C  C58  1  0.55026100  0.67709300  0.04672700  1
  C  C59  1  0.23947000  0.07501300  0.73586600  1
  C  C60  1  0.26053000  0.07501300  0.23586600  1
  C  C61  1  0.98775300  0.83288400  0.86717700  1
  C  C62  1  0.94973900  0.67709300  0.54672700  1
  C  C63  1  0.24736200  0.53278500  0.61152100  1
  C  C64  1  0.74736200  0.46721500  0.88847900  1
  C  C65  1  0.65579100  0.10097000  0.32179600  1
  C  C66  1  0.43058000  0.64602900  0.68668200  1
  C  C67  1  0.76053000  0.92498700  0.26413400  1
  C  C68  1  0.50005500  0.62478400  0.29092800  1
  C  C69  1  0.00005500  0.37521600  0.20907200  1
  C  C70  1  0.15579100  0.89903000  0.17820400  1
  C  C71  1  0.48775300  0.16711600  0.63282300  1
  C  C72  1  0.85888400  0.85551600  0.40451100  1
  C  C73  1  0.26260500  0.74819200  0.46931700  1
  C  C74  1  0.06942000  0.64602900  0.18668200  1
  C  C75  1  0.56942000  0.35397100  0.31331800  1
  C  C76  1  0.23739500  0.74819200  0.96931700  1
  C  C77  1  0.44973900  0.32290700  0.95327300  1
  C  C78  1  0.61042000  0.72031800  0.50977800  1
  C  C79  1  0.88958000  0.72031800  0.00977800  1
  C  C80  1  0.35888400  0.14448400  0.09548900  1
  C  C81  1  0.25263800  0.53278500  0.11152100  1
  C  C82  1  0.14111600  0.14448400  0.59548900  1
  C  C83  1  0.01224700  0.16711600  0.13282300  1
