# generated using pymatgen
data_Cu13Ni6C7
_symmetry_space_group_name_H-M   'P 1'
_cell_length_a   8.76688542
_cell_length_b   8.76688542
_cell_length_c   8.76688458
_cell_angle_alpha   102.36283732
_cell_angle_beta   102.36283732
_cell_angle_gamma   102.36284242
_symmetry_Int_Tables_number   1
_chemical_formula_structural   Cu13Ni6C7
_chemical_formula_sum   'Cu13 Ni6 C7'
_cell_volume   618.60261184
_cell_formula_units_Z   1
loop_
 _symmetry_equiv_pos_site_id
 _symmetry_equiv_pos_as_xyz
  1  'x, y, z'
loop_
 _atom_site_type_symbol
 _atom_site_label
 _atom_site_symmetry_multiplicity
 _atom_site_fract_x
 _atom_site_fract_y
 _atom_site_fract_z
 _atom_site_occupancy
  C  C0  1  0.93591400  0.14392500  0.20619700  1
  C  C1  1  0.14392500  0.20619700  0.93591400  1
  C  C2  1  0.20619700  0.93591400  0.14392500  1
  C  C3  1  0.37191100  0.27768500  0.58722600  1
  C  C4  1  0.27768500  0.58722600  0.37191100  1
  C  C5  1  0.58722600  0.37191100  0.27768500  1
  C  C6  1  0.75389700  0.75389700  0.75389700  1
  Ni  Ni7  1  0.98640200  0.84405700  0.49728100  1
  Ni  Ni8  1  0.84405700  0.49728100  0.98640200  1
  Ni  Ni9  1  0.49728100  0.98640200  0.84405700  1
  Ni  Ni10  1  0.64313500  0.05862100  0.52687200  1
  Ni  Ni11  1  0.05862100  0.52687200  0.64313500  1
  Ni  Ni12  1  0.52687200  0.64313500  0.05862100  1
  Cu  Cu13  1  0.28122500  0.09743700  0.74089200  1
  Cu  Cu14  1  0.09743700  0.74089200  0.28122500  1
  Cu  Cu15  1  0.74089200  0.28122500  0.09743700  1
  Cu  Cu16  1  0.95225900  0.32770400  0.78686200  1
  Cu  Cu17  1  0.32770400  0.78686200  0.95225900  1
  Cu  Cu18  1  0.78686200  0.95225900  0.32770400  1
  Cu  Cu19  1  0.14303600  0.34980300  0.44111000  1
  Cu  Cu20  1  0.34980300  0.44111000  0.14303600  1
  Cu  Cu21  1  0.44111000  0.14303600  0.34980300  1
  Cu  Cu22  1  0.57442500  0.50970000  0.79603000  1
  Cu  Cu23  1  0.50970000  0.79603000  0.57442500  1
  Cu  Cu24  1  0.79603000  0.57442500  0.50970000  1
  Cu  Cu25  1  0.96996500  0.96996500  0.96996500  1
