# generated using pymatgen
data_Cu4Ni2C17
_symmetry_space_group_name_H-M   'P 1'
_cell_length_a   7.22738300
_cell_length_b   8.31284199
_cell_length_c   10.57610483
_cell_angle_alpha   109.27090480
_cell_angle_beta   89.89258767
_cell_angle_gamma   102.19582090
_symmetry_Int_Tables_number   1
_chemical_formula_structural   Cu4Ni2C17
_chemical_formula_sum   'Cu8 Ni4 C34'
_cell_volume   584.68619557
_cell_formula_units_Z   2
loop_
 _symmetry_equiv_pos_site_id
 _symmetry_equiv_pos_as_xyz
  1  'x, y, z'
loop_
 _atom_site_type_symbol
 _atom_site_label
 _atom_site_symmetry_multiplicity
 _atom_site_fract_x
 _atom_site_fract_y
 _atom_site_fract_z
 _atom_site_occupancy
  Ni  Ni0  1  0.25196000  0.40885300  0.40862600  1
  Ni  Ni1  1  0.77125100  0.57632700  0.11220100  1
  Ni  Ni2  1  0.74804000  0.59114700  0.59137400  1
  Ni  Ni3  1  0.22874900  0.42367300  0.88779900  1
  Cu  Cu4  1  0.92459100  0.21140400  0.59865000  1
  Cu  Cu5  1  0.91710400  0.19574800  0.99724100  1
  Cu  Cu6  1  0.07540900  0.78859600  0.40135000  1
  Cu  Cu7  1  0.42909500  0.20658600  0.60708900  1
  Cu  Cu8  1  0.08289600  0.80425200  0.00275900  1
  Cu  Cu9  1  0.43011900  0.19751300  0.99440800  1
  Cu  Cu10  1  0.57090500  0.79341400  0.39291100  1
  Cu  Cu11  1  0.56988100  0.80248700  0.00559200  1
  C  C12  1  0.36201600  0.09345200  0.28046300  1
  C  C13  1  0.26717800  0.57400400  0.17804400  1
  C  C14  1  0.71637600  0.38344300  0.30343000  1
  C  C15  1  0.28362400  0.61655700  0.69657000  1
  C  C16  1  0.73282200  0.42599600  0.82195600  1
  C  C17  1  0.92496700  0.08394300  0.27799700  1
  C  C18  1  0.07503300  0.91605700  0.72200300  1
  C  C19  1  0.63798400  0.90654800  0.71953700  1
  C  C20  1  0.22732800  0.41217600  0.60081600  1
  C  C21  1  0.85847400  0.27223900  0.34639200  1
  C  C22  1  0.71581800  0.35258900  0.14304300  1
  C  C23  1  0.15812900  0.15853300  0.30190400  1
  C  C24  1  0.72853500  0.41078500  0.66097600  1
  C  C25  1  0.62046600  0.00944300  0.61577300  1
  C  C26  1  0.86627400  0.99121600  0.11907800  1
  C  C27  1  0.28418200  0.64741100  0.85695700  1
  C  C28  1  0.61839300  0.99732900  0.87788300  1
  C  C29  1  0.48869900  0.66660000  0.15953800  1
  C  C30  1  0.90193100  0.32194900  0.83547800  1
  C  C31  1  0.77267200  0.58782400  0.39918400  1
  C  C32  1  0.13372600  0.00878400  0.88092200  1
  C  C33  1  0.14152600  0.72776100  0.65360800  1
  C  C34  1  0.51130100  0.33340000  0.84046200  1
  C  C35  1  0.38160700  0.00267100  0.12211700  1
  C  C36  1  0.13531300  0.03330500  0.62620300  1
  C  C37  1  0.50328600  0.29469800  0.34281300  1
  C  C38  1  0.37953400  0.99055700  0.38422700  1
  C  C39  1  0.21388900  0.37677800  0.06498000  1
  C  C40  1  0.49671400  0.70530200  0.65718700  1
  C  C41  1  0.86468700  0.96669500  0.37379700  1
  C  C42  1  0.27146500  0.58921500  0.33902400  1
  C  C43  1  0.84187100  0.84146700  0.69809600  1
  C  C44  1  0.78611100  0.62322200  0.93502000  1
  C  C45  1  0.09806900  0.67805100  0.16452200  1
