# generated using pymatgen
data_CuNiC8
_symmetry_space_group_name_H-M   'P 1'
_cell_length_a   6.92830800
_cell_length_b   9.31627100
_cell_length_c   11.31477650
_cell_angle_alpha   71.47942085
_cell_angle_beta   90.00000000
_cell_angle_gamma   90.00000000
_symmetry_Int_Tables_number   1
_chemical_formula_structural   CuNiC8
_chemical_formula_sum   'Cu4 Ni4 C32'
_cell_volume   692.49977916
_cell_formula_units_Z   4
loop_
 _symmetry_equiv_pos_site_id
 _symmetry_equiv_pos_as_xyz
  1  'x, y, z'
loop_
 _atom_site_type_symbol
 _atom_site_label
 _atom_site_symmetry_multiplicity
 _atom_site_fract_x
 _atom_site_fract_y
 _atom_site_fract_z
 _atom_site_occupancy
  C  C0  1  0.03586700  0.35642600  0.92425300  1
  C  C1  1  0.53785600  0.99439200  0.78154100  1
  C  C2  1  0.75000000  0.62083300  0.30766400  1
  C  C3  1  0.03785600  0.00560800  0.21845900  1
  C  C4  1  0.53586700  0.64357400  0.07574700  1
  C  C5  1  0.46214400  0.00560800  0.21845900  1
  C  C6  1  0.25000000  0.37916700  0.69233600  1
  C  C7  1  0.01821600  0.29000100  0.46024000  1
  C  C8  1  0.46413300  0.35642600  0.92425300  1
  C  C9  1  0.48178400  0.29000100  0.46024000  1
  C  C10  1  0.96413300  0.64357400  0.07574700  1
  C  C11  1  0.96214400  0.99439200  0.78154100  1
  C  C12  1  0.25000000  0.31417100  0.21955100  1
  C  C13  1  0.98178400  0.70999900  0.53976000  1
  C  C14  1  0.75000000  0.68582900  0.78044900  1
  C  C15  1  0.51821600  0.70999900  0.53976000  1
  Ni  Ni16  1  0.25000000  0.63657100  0.32352100  1
  Ni  Ni17  1  0.75000000  0.36342900  0.67647900  1
  Ni  Ni18  1  0.25000000  0.69299100  0.79873100  1
  Ni  Ni19  1  0.75000000  0.30700900  0.20126900  1
  Cu  Cu20  1  0.75000000  0.94790300  0.57042700  1
  Cu  Cu21  1  0.25000000  0.09560200  0.97600100  1
  Cu  Cu22  1  0.75000000  0.90439800  0.02399900  1
  Cu  Cu23  1  0.25000000  0.05209700  0.42957300  1
  C  C24  1  0.43502800  0.62324900  0.87525100  1
  C  C25  1  0.25000000  0.49398400  0.44160600  1
  C  C26  1  0.75000000  0.35085300  0.32476600  1
  C  C27  1  0.25000000  0.86760300  0.77008200  1
  C  C28  1  0.25000000  0.64914700  0.67523400  1
  C  C29  1  0.93612900  0.26670600  0.67434500  1
  C  C30  1  0.75000000  0.13239700  0.22991800  1
  C  C31  1  0.56497200  0.37675100  0.12474900  1
  C  C32  1  0.06497200  0.62324900  0.87525100  1
  C  C33  1  0.75000000  0.40825900  0.79882200  1
  C  C34  1  0.25000000  0.59174100  0.20117800  1
  C  C35  1  0.93502800  0.37675100  0.12474900  1
  C  C36  1  0.43612900  0.73329400  0.32565500  1
  C  C37  1  0.75000000  0.50601600  0.55839400  1
  C  C38  1  0.56387100  0.26670600  0.67434500  1
  C  C39  1  0.06387100  0.73329400  0.32565500  1
