# generated using pymatgen
data_Cu2NiC4
_symmetry_space_group_name_H-M   'P 1'
_cell_length_a   5.58801900
_cell_length_b   6.97460600
_cell_length_c   9.89595300
_cell_angle_alpha   90.00000000
_cell_angle_beta   90.00000000
_cell_angle_gamma   90.00000000
_symmetry_Int_Tables_number   1
_chemical_formula_structural   Cu2NiC4
_chemical_formula_sum   'Cu8 Ni4 C16'
_cell_volume   385.68715666
_cell_formula_units_Z   4
loop_
 _symmetry_equiv_pos_site_id
 _symmetry_equiv_pos_as_xyz
  1  'x, y, z'
loop_
 _atom_site_type_symbol
 _atom_site_label
 _atom_site_symmetry_multiplicity
 _atom_site_fract_x
 _atom_site_fract_y
 _atom_site_fract_z
 _atom_site_occupancy
  Ni  Ni0  1  0.96734000  0.75000000  0.31449800  1
  Ni  Ni1  1  0.46734000  0.25000000  0.18550200  1
  Ni  Ni2  1  0.03266000  0.25000000  0.68550200  1
  Ni  Ni3  1  0.53266000  0.75000000  0.81449800  1
  Cu  Cu4  1  0.50000000  0.50000000  0.50000000  1
  Cu  Cu5  1  0.00000000  0.50000000  0.00000000  1
  Cu  Cu6  1  0.50000000  0.00000000  0.50000000  1
  Cu  Cu7  1  0.00000000  0.00000000  0.00000000  1
  Cu  Cu8  1  0.01794500  0.75000000  0.64789900  1
  Cu  Cu9  1  0.51794500  0.25000000  0.85210100  1
  Cu  Cu10  1  0.98205500  0.25000000  0.35210100  1
  Cu  Cu11  1  0.48205500  0.75000000  0.14789900  1
  C  C12  1  0.59187500  0.75000000  0.63958100  1
  C  C13  1  0.09187500  0.25000000  0.86041900  1
  C  C14  1  0.40812500  0.25000000  0.36041900  1
  C  C15  1  0.90812500  0.75000000  0.13958100  1
  C  C16  1  0.23639500  0.75000000  0.84999700  1
  C  C17  1  0.73639500  0.25000000  0.65000300  1
  C  C18  1  0.76360500  0.25000000  0.15000300  1
  C  C19  1  0.26360500  0.75000000  0.34999700  1
  C  C20  1  0.66749900  0.54950200  0.88321000  1
  C  C21  1  0.16749900  0.45049800  0.61679000  1
  C  C22  1  0.33250100  0.04950200  0.11679000  1
  C  C23  1  0.83250100  0.95049800  0.38321000  1
  C  C24  1  0.33250100  0.45049800  0.11679000  1
  C  C25  1  0.83250100  0.54950200  0.38321000  1
  C  C26  1  0.66749900  0.95049800  0.88321000  1
  C  C27  1  0.16749900  0.04950200  0.61679000  1
