# generated using pymatgen
data_CuNiC8
_symmetry_space_group_name_H-M   'P 1'
_cell_length_a   6.54375529
_cell_length_b   6.54375529
_cell_length_c   8.42406300
_cell_angle_alpha   90.00000000
_cell_angle_beta   90.00000000
_cell_angle_gamma   117.66157145
_symmetry_Int_Tables_number   1
_chemical_formula_structural   CuNiC8
_chemical_formula_sum   'Cu2 Ni2 C16'
_cell_volume   319.49561375
_cell_formula_units_Z   2
loop_
 _symmetry_equiv_pos_site_id
 _symmetry_equiv_pos_as_xyz
  1  'x, y, z'
loop_
 _atom_site_type_symbol
 _atom_site_label
 _atom_site_symmetry_multiplicity
 _atom_site_fract_x
 _atom_site_fract_y
 _atom_site_fract_z
 _atom_site_occupancy
  C  C0  1  0.50000000  0.50000000  0.50000000  1
  C  C1  1  0.50000000  0.50000000  0.00000000  1
  Ni  Ni2  1  0.80723900  0.19276100  0.25000000  1
  Ni  Ni3  1  0.19276100  0.80723900  0.75000000  1
  Cu  Cu4  1  0.18878200  0.81121800  0.25000000  1
  Cu  Cu5  1  0.81121800  0.18878200  0.75000000  1
  C  C6  1  0.84115300  0.55399600  0.75000000  1
  C  C7  1  0.15884700  0.44600400  0.25000000  1
  C  C8  1  0.16373800  0.46665900  0.75000000  1
  C  C9  1  0.79978100  0.20021900  0.49427600  1
  C  C10  1  0.44600400  0.15884700  0.75000000  1
  C  C11  1  0.79978100  0.20021900  0.00572400  1
  C  C12  1  0.20021900  0.79978100  0.99427600  1
  C  C13  1  0.83626200  0.53334100  0.25000000  1
  C  C14  1  0.55399600  0.84115300  0.25000000  1
  C  C15  1  0.99280700  0.00719300  0.25000000  1
  C  C16  1  0.00719300  0.99280700  0.75000000  1
  C  C17  1  0.20021900  0.79978100  0.50572400  1
  C  C18  1  0.53334100  0.83626200  0.75000000  1
  C  C19  1  0.46665900  0.16373800  0.25000000  1
