# generated using pymatgen
data_Cu15(NiC8)2
_symmetry_space_group_name_H-M   'P 1'
_cell_length_a   10.97567889
_cell_length_b   10.97567889
_cell_length_c   6.11672500
_cell_angle_alpha   90.00000000
_cell_angle_beta   90.00000000
_cell_angle_gamma   120.00000537
_symmetry_Int_Tables_number   1
_chemical_formula_structural   Cu15(NiC8)2
_chemical_formula_sum   'Cu15 Ni2 C16'
_cell_volume   638.13468250
_cell_formula_units_Z   1
loop_
 _symmetry_equiv_pos_site_id
 _symmetry_equiv_pos_as_xyz
  1  'x, y, z'
loop_
 _atom_site_type_symbol
 _atom_site_label
 _atom_site_symmetry_multiplicity
 _atom_site_fract_x
 _atom_site_fract_y
 _atom_site_fract_z
 _atom_site_occupancy
  C  C0  1  0.20226200  0.40452300  0.50000000  1
  C  C1  1  0.50000000  0.50000000  0.00000000  1
  C  C2  1  0.59547700  0.79773800  0.50000000  1
  C  C3  1  0.79773800  0.59547700  0.50000000  1
  C  C4  1  0.40452300  0.20226200  0.50000000  1
  C  C5  1  0.79773800  0.20226200  0.50000000  1
  C  C6  1  0.20226200  0.79773800  0.50000000  1
  C  C7  1  0.00000000  0.50000000  0.00000000  1
  C  C8  1  0.50000000  0.00000000  0.00000000  1
  C  C9  1  0.26590900  0.13295400  0.00000000  1
  C  C10  1  0.86704600  0.13295400  0.00000000  1
  C  C11  1  0.13295400  0.86704600  0.00000000  1
  C  C12  1  0.13295400  0.26590900  0.00000000  1
  C  C13  1  0.73409100  0.86704600  0.00000000  1
  C  C14  1  0.00000000  0.00000000  0.50000000  1
  C  C15  1  0.86704600  0.73409100  0.00000000  1
  Ni  Ni16  1  0.66666700  0.33333300  0.00000000  1
  Ni  Ni17  1  0.33333300  0.66666700  0.00000000  1
  Cu  Cu18  1  0.26503400  0.26503400  0.20907300  1
  Cu  Cu19  1  0.50000000  0.00000000  0.50000000  1
  Cu  Cu20  1  0.73496600  0.73496600  0.79092700  1
  Cu  Cu21  1  0.26503400  0.00000000  0.79092700  1
  Cu  Cu22  1  0.00000000  0.26503400  0.79092700  1
  Cu  Cu23  1  0.26503400  0.00000000  0.20907300  1
  Cu  Cu24  1  0.73496600  0.73496600  0.20907300  1
  Cu  Cu25  1  0.00000000  0.26503400  0.20907300  1
  Cu  Cu26  1  0.00000000  0.73496600  0.79092700  1
  Cu  Cu27  1  0.00000000  0.50000000  0.50000000  1
  Cu  Cu28  1  0.73496600  0.00000000  0.79092700  1
  Cu  Cu29  1  0.26503400  0.26503400  0.79092700  1
  Cu  Cu30  1  0.00000000  0.73496600  0.20907300  1
  Cu  Cu31  1  0.73496600  0.00000000  0.20907300  1
  Cu  Cu32  1  0.50000000  0.50000000  0.50000000  1
