# generated using pymatgen
data_CuNiC
_symmetry_space_group_name_H-M   'P 1'
_cell_length_a   5.30786308
_cell_length_b   5.30786308
_cell_length_c   9.48844600
_cell_angle_alpha   90.00000000
_cell_angle_beta   90.00000000
_cell_angle_gamma   119.99998852
_symmetry_Int_Tables_number   1
_chemical_formula_structural   CuNiC
_chemical_formula_sum   'Cu6 Ni6 C6'
_cell_volume   231.50756915
_cell_formula_units_Z   6
loop_
 _symmetry_equiv_pos_site_id
 _symmetry_equiv_pos_as_xyz
  1  'x, y, z'
loop_
 _atom_site_type_symbol
 _atom_site_label
 _atom_site_symmetry_multiplicity
 _atom_site_fract_x
 _atom_site_fract_y
 _atom_site_fract_z
 _atom_site_occupancy
  C  C0  1  0.00000000  0.50000000  0.66666700  1
  C  C1  1  0.00000000  0.00000000  0.83333300  1
  C  C2  1  0.00000000  0.00000000  0.50000000  1
  C  C3  1  0.00000000  0.00000000  0.16666700  1
  C  C4  1  0.50000000  0.50000000  0.33333300  1
  C  C5  1  0.50000000  0.00000000  0.00000000  1
  Ni  Ni6  1  0.20488500  0.60244300  0.16666700  1
  Ni  Ni7  1  0.60244300  0.20488500  0.50000000  1
  Ni  Ni8  1  0.60244300  0.39755700  0.83333300  1
  Ni  Ni9  1  0.79511500  0.39755700  0.16666700  1
  Ni  Ni10  1  0.39755700  0.60244300  0.83333300  1
  Ni  Ni11  1  0.39755700  0.79511500  0.50000000  1
  Cu  Cu12  1  0.50000000  0.50000000  0.04483500  1
  Cu  Cu13  1  0.50000000  0.00000000  0.71150200  1
  Cu  Cu14  1  0.50000000  0.50000000  0.62183100  1
  Cu  Cu15  1  0.50000000  0.00000000  0.28849800  1
  Cu  Cu16  1  0.00000000  0.50000000  0.37816900  1
  Cu  Cu17  1  0.00000000  0.50000000  0.95516500  1
