# generated using pymatgen
data_Cu6Ni3C17
_symmetry_space_group_name_H-M   'P 1'
_cell_length_a   7.18277300
_cell_length_b   8.75958700
_cell_length_c   16.48038600
_cell_angle_alpha   90.00000000
_cell_angle_beta   90.00000000
_cell_angle_gamma   90.00000000
_symmetry_Int_Tables_number   1
_chemical_formula_structural   Cu6Ni3C17
_chemical_formula_sum   'Cu24 Ni12 C68'
_cell_volume   1036.91498631
_cell_formula_units_Z   4
loop_
 _symmetry_equiv_pos_site_id
 _symmetry_equiv_pos_as_xyz
  1  'x, y, z'
loop_
 _atom_site_type_symbol
 _atom_site_label
 _atom_site_symmetry_multiplicity
 _atom_site_fract_x
 _atom_site_fract_y
 _atom_site_fract_z
 _atom_site_occupancy
  C  C0  1  0.81856300  0.17346100  0.30561000  1
  C  C1  1  0.17957400  0.30325300  0.20807500  1
  C  C2  1  0.31856300  0.32653900  0.69439000  1
  C  C3  1  0.18143700  0.67346100  0.19439000  1
  C  C4  1  0.67957400  0.19674700  0.79192500  1
  C  C5  1  0.82042600  0.80325300  0.29192500  1
  C  C6  1  0.68143700  0.82653900  0.80561000  1
  C  C7  1  0.32042600  0.69674700  0.70807500  1
  C  C8  1  0.65419800  0.58352200  0.41756000  1
  C  C9  1  0.84580200  0.41647800  0.91756000  1
  C  C10  1  0.34580200  0.08352200  0.08244000  1
  C  C11  1  0.15419800  0.91647800  0.58244000  1
  Ni  Ni12  1  0.01289100  0.49603200  0.36164100  1
  Ni  Ni13  1  0.51289100  0.00396800  0.63835900  1
  Ni  Ni14  1  0.86499800  0.47223200  0.08332700  1
  Ni  Ni15  1  0.04885300  0.00102300  0.73478300  1
  Ni  Ni16  1  0.63500200  0.52776800  0.58332700  1
  Ni  Ni17  1  0.98710900  0.99603200  0.13835900  1
  Ni  Ni18  1  0.36499800  0.02776800  0.91667300  1
  Ni  Ni19  1  0.45114700  0.99897700  0.23478300  1
  Ni  Ni20  1  0.13500200  0.97223200  0.41667300  1
  Ni  Ni21  1  0.54885300  0.49897700  0.26521700  1
  Ni  Ni22  1  0.48710900  0.50396800  0.86164100  1
  Ni  Ni23  1  0.95114700  0.50102300  0.76521700  1
  Cu  Cu24  1  0.68952000  0.10543100  0.46161500  1
  Cu  Cu25  1  0.69227200  0.33817900  0.16629100  1
  Cu  Cu26  1  0.58746700  0.80633500  0.41804700  1
  Cu  Cu27  1  0.26660900  0.77826600  0.04333900  1
  Cu  Cu28  1  0.73339100  0.27826600  0.45666100  1
  Cu  Cu29  1  0.70334100  0.01291400  0.09163400  1
  Cu  Cu30  1  0.31048000  0.60543100  0.03838500  1
  Cu  Cu31  1  0.20334100  0.48708600  0.90836600  1
  Cu  Cu32  1  0.81048000  0.89456900  0.96161500  1
  Cu  Cu33  1  0.29665900  0.51291400  0.40836600  1
  Cu  Cu34  1  0.30772800  0.83817900  0.33370900  1
  Cu  Cu35  1  0.18952000  0.39456900  0.53838500  1
  Cu  Cu36  1  0.79665900  0.98708600  0.59163400  1
  Cu  Cu37  1  0.23339100  0.22173400  0.54333900  1
  Cu  Cu38  1  0.91253300  0.19366500  0.91804700  1
  Cu  Cu39  1  0.80772800  0.66182100  0.66629100  1
  Cu  Cu40  1  0.08746700  0.69366500  0.58195300  1
  Cu  Cu41  1  0.79122000  0.34330500  0.63236200  1
  Cu  Cu42  1  0.41253300  0.30633500  0.08195300  1
  Cu  Cu43  1  0.29122000  0.15669500  0.36763800  1
  Cu  Cu44  1  0.20878000  0.84330500  0.86763800  1
  Cu  Cu45  1  0.76660900  0.72173400  0.95666100  1
  Cu  Cu46  1  0.70878000  0.65669500  0.13236200  1
  Cu  Cu47  1  0.19227200  0.16182100  0.83370900  1
  C  C48  1  0.76429000  0.63261900  0.07750100  1
  C  C49  1  0.66066200  0.63545900  0.23332600  1
  C  C50  1  0.16771900  0.50169800  0.43065300  1
  C  C51  1  0.83228100  0.00169800  0.06934700  1
  C  C52  1  0.16066200  0.86454100  0.76667400  1
  C  C53  1  0.21503500  0.15186900  0.89670400  1
  C  C54  1  0.33228100  0.49830200  0.93065300  1
  C  C55  1  0.52792200  0.86387000  0.69347000  1
  C  C56  1  0.06266400  0.94070500  0.50323600  1
  C  C57  1  0.02689900  0.34452300  0.31529500  1
  C  C58  1  0.28496500  0.84813100  0.39670400  1
  C  C59  1  0.35306700  0.49058100  0.22633300  1
  C  C60  1  0.52689900  0.15547700  0.68470500  1
  C  C61  1  0.02278100  0.47661300  0.14479100  1
  C  C62  1  0.47310100  0.65547700  0.81529500  1
  C  C63  1  0.26429000  0.86738100  0.92249900  1
  C  C64  1  0.69372300  0.74362700  0.40196200  1
  C  C65  1  0.15364200  0.15355300  0.74698600  1
  C  C66  1  0.79170400  0.81115000  0.92278100  1
  C  C67  1  0.73571000  0.36738100  0.57750100  1
  C  C68  1  0.83933800  0.36454100  0.73332600  1
  C  C69  1  0.43733600  0.05929500  0.00323600  1
  C  C70  1  0.93733600  0.44070500  0.99676400  1
  C  C71  1  0.66976300  0.50435300  0.91300800  1
  C  C72  1  0.47207800  0.36387000  0.80653000  1
  C  C73  1  0.80627700  0.25637300  0.90196200  1
  C  C74  1  0.52278100  0.02338700  0.85520900  1
  C  C75  1  0.66771900  0.99830200  0.56934700  1
  C  C76  1  0.97310100  0.84452300  0.18470500  1
  C  C77  1  0.56266400  0.55929500  0.49676400  1
  C  C78  1  0.29170400  0.68885000  0.07721900  1
  C  C79  1  0.19372300  0.75637300  0.59803800  1
  C  C80  1  0.47721900  0.52338700  0.64479100  1
  C  C81  1  0.02792200  0.63613000  0.30653000  1
  C  C82  1  0.65364200  0.34644700  0.25301400  1
  C  C83  1  0.70829600  0.18885000  0.42278100  1
  C  C84  1  0.34635800  0.84644700  0.24698600  1
  C  C85  1  0.16976300  0.99564700  0.08699200  1
  C  C86  1  0.64693300  0.99058100  0.27366700  1
  C  C87  1  0.51304800  0.52048400  0.35997000  1
  C  C88  1  0.78496500  0.65186900  0.60329600  1
  C  C89  1  0.33933800  0.13545900  0.26667400  1
  C  C90  1  0.71503500  0.34813100  0.10329600  1
  C  C91  1  0.97207800  0.13613000  0.19347000  1
  C  C92  1  0.97721900  0.97661300  0.35520900  1
  C  C93  1  0.48695200  0.02048400  0.14003000  1
  C  C94  1  0.30627700  0.24362700  0.09803800  1
  C  C95  1  0.83023700  0.49564700  0.41300800  1
  C  C96  1  0.14693300  0.50941900  0.72633300  1
  C  C97  1  0.84635800  0.65355300  0.75301400  1
  C  C98  1  0.20829600  0.31115000  0.57721900  1
  C  C99  1  0.98695200  0.47951600  0.85997000  1
  C  C100  1  0.33023700  0.00435300  0.58699200  1
  C  C101  1  0.23571000  0.13261900  0.42249900  1
  C  C102  1  0.01304800  0.97951600  0.64003000  1
  C  C103  1  0.85306700  0.00941900  0.77366700  1
