# generated using pymatgen
data_Cu2Ni2C7
_symmetry_space_group_name_H-M   'P 1'
_cell_length_a   7.75237300
_cell_length_b   7.75237300
_cell_length_c   6.39190300
_cell_angle_alpha   90.00000000
_cell_angle_beta   90.00000000
_cell_angle_gamma   90.00000000
_symmetry_Int_Tables_number   1
_chemical_formula_structural   Cu2Ni2C7
_chemical_formula_sum   'Cu4 Ni4 C14'
_cell_volume   384.14881371
_cell_formula_units_Z   2
loop_
 _symmetry_equiv_pos_site_id
 _symmetry_equiv_pos_as_xyz
  1  'x, y, z'
loop_
 _atom_site_type_symbol
 _atom_site_label
 _atom_site_symmetry_multiplicity
 _atom_site_fract_x
 _atom_site_fract_y
 _atom_site_fract_z
 _atom_site_occupancy
  Ni  Ni0  1  0.45557300  0.73212300  0.84472900  1
  Ni  Ni1  1  0.54442700  0.26787700  0.84472900  1
  Ni  Ni2  1  0.73212300  0.54442700  0.15527100  1
  Ni  Ni3  1  0.26787700  0.45557300  0.15527100  1
  Cu  Cu4  1  0.64687400  0.17347000  0.36159100  1
  Cu  Cu5  1  0.17347000  0.35312600  0.63840900  1
  Cu  Cu6  1  0.82653000  0.64687400  0.63840900  1
  Cu  Cu7  1  0.35312600  0.82653000  0.36159100  1
  C  C8  1  0.77507700  0.09667100  0.80456500  1
  C  C9  1  0.22492300  0.90332900  0.80456500  1
  C  C10  1  0.90332900  0.77507700  0.19543500  1
  C  C11  1  0.09667100  0.22492300  0.19543500  1
  C  C12  1  0.50000000  0.00000000  0.22243700  1
  C  C13  1  0.33183700  0.41390700  0.86092800  1
  C  C14  1  0.53222600  0.76988800  0.55599900  1
  C  C15  1  0.76988800  0.46777400  0.44400100  1
  C  C16  1  0.46777400  0.23011200  0.55599900  1
  C  C17  1  0.41390700  0.66816300  0.13907200  1
  C  C18  1  0.00000000  0.50000000  0.77756300  1
  C  C19  1  0.23011200  0.53222600  0.44400100  1
  C  C20  1  0.66816300  0.58609300  0.86092800  1
  C  C21  1  0.58609300  0.33183700  0.13907200  1
