# generated using pymatgen
data_CuNiC14
_symmetry_space_group_name_H-M   'P 1'
_cell_length_a   8.50327600
_cell_length_b   6.79400900
_cell_length_c   14.50371115
_cell_angle_alpha   87.00511328
_cell_angle_beta   90.00000000
_cell_angle_gamma   90.00000000
_symmetry_Int_Tables_number   1
_chemical_formula_structural   CuNiC14
_chemical_formula_sum   'Cu4 Ni4 C56'
_cell_volume   836.75433534
_cell_formula_units_Z   4
loop_
 _symmetry_equiv_pos_site_id
 _symmetry_equiv_pos_as_xyz
  1  'x, y, z'
loop_
 _atom_site_type_symbol
 _atom_site_label
 _atom_site_symmetry_multiplicity
 _atom_site_fract_x
 _atom_site_fract_y
 _atom_site_fract_z
 _atom_site_occupancy
  Ni  Ni0  1  0.85372500  0.50955600  0.59593300  1
  Ni  Ni1  1  0.35372500  0.49044400  0.90406700  1
  Ni  Ni2  1  0.14627500  0.49044400  0.40406700  1
  Ni  Ni3  1  0.64627500  0.50955600  0.09593300  1
  Cu  Cu4  1  0.53196900  0.07345600  0.72735900  1
  Cu  Cu5  1  0.46803100  0.92654400  0.27264100  1
  Cu  Cu6  1  0.03196900  0.92654400  0.77264100  1
  Cu  Cu7  1  0.96803100  0.07345600  0.22735900  1
  C  C8  1  0.72614700  0.20156800  0.39672200  1
  C  C9  1  0.19188900  0.16059500  0.57366600  1
  C  C10  1  0.69188900  0.83940500  0.92633400  1
  C  C11  1  0.69360900  0.06009300  0.05566200  1
  C  C12  1  0.77385300  0.20156800  0.89672200  1
  C  C13  1  0.02003300  0.60201000  0.19120700  1
  C  C14  1  0.19360900  0.93990700  0.44433800  1
  C  C15  1  0.97996700  0.39799000  0.80879300  1
  C  C16  1  0.79255000  0.53571300  0.31878300  1
  C  C17  1  0.80811100  0.83940500  0.42633400  1
  C  C18  1  0.30639100  0.93990700  0.94433800  1
  C  C19  1  0.22614700  0.79843200  0.10327800  1
  C  C20  1  0.27385300  0.79843200  0.60327800  1
  C  C21  1  0.52003300  0.39799000  0.30879300  1
  C  C22  1  0.80639100  0.06009300  0.55566200  1
  C  C23  1  0.47996700  0.60201000  0.69120700  1
  C  C24  1  0.70745000  0.53571300  0.81878300  1
  C  C25  1  0.29255000  0.46428700  0.18121700  1
  C  C26  1  0.20745000  0.46428700  0.68121700  1
  C  C27  1  0.30811100  0.16059500  0.07366600  1
  C  C28  1  0.15956000  0.12470700  0.48225300  1
  C  C29  1  0.55981400  0.24407100  0.37022700  1
  C  C30  1  0.88006000  0.55732300  0.79328600  1
  C  C31  1  0.25472400  0.00940300  0.13310800  1
  C  C32  1  0.74527600  0.99059700  0.86689200  1
  C  C33  1  0.33047000  0.34853900  0.09961200  1
  C  C34  1  0.84044000  0.87529300  0.51774700  1
  C  C35  1  0.82573100  0.08396400  0.64617000  1
  C  C36  1  0.16779300  0.66926100  0.65863700  1
  C  C37  1  0.05981400  0.75592900  0.12977300  1
  C  C38  1  0.24713800  0.79049800  0.00383100  1
  C  C39  1  0.16953000  0.34853900  0.59961200  1
  C  C40  1  0.94018600  0.24407100  0.87022700  1
  C  C41  1  0.24527600  0.00940300  0.63310800  1
  C  C42  1  0.37787400  0.38159400  0.26453400  1
  C  C43  1  0.83220700  0.33073900  0.34136300  1
  C  C44  1  0.75472400  0.99059700  0.36689200  1
  C  C45  1  0.83047000  0.65146100  0.40038800  1
  C  C46  1  0.17426900  0.91603600  0.35383000  1
  C  C47  1  0.74713800  0.20950200  0.49616900  1
  C  C48  1  0.61994000  0.55732300  0.29328600  1
  C  C49  1  0.38006000  0.44267700  0.70671400  1
  C  C50  1  0.87787400  0.61840600  0.23546600  1
  C  C51  1  0.67426900  0.08396400  0.14617000  1
  C  C52  1  0.33220700  0.66926100  0.15863700  1
  C  C53  1  0.75286200  0.20950200  0.99616900  1
  C  C54  1  0.62212600  0.61840600  0.73546600  1
  C  C55  1  0.34044000  0.12470700  0.98225300  1
  C  C56  1  0.44018600  0.75592900  0.62977300  1
  C  C57  1  0.25286200  0.79049800  0.50383100  1
  C  C58  1  0.65956000  0.87529300  0.01774700  1
  C  C59  1  0.66953000  0.65146100  0.90038800  1
  C  C60  1  0.12212600  0.38159400  0.76453400  1
  C  C61  1  0.66779300  0.33073900  0.84136300  1
  C  C62  1  0.32573100  0.91603600  0.85383000  1
  C  C63  1  0.11994000  0.44267700  0.20671400  1
