# generated using pymatgen
data_Cu(NiC3)3
_symmetry_space_group_name_H-M   'P 1'
_cell_length_a   9.45910729
_cell_length_b   9.45910729
_cell_length_c   13.83395300
_cell_angle_alpha   90.00000000
_cell_angle_beta   90.00000000
_cell_angle_gamma   119.99999500
_symmetry_Int_Tables_number   1
_chemical_formula_structural   Cu(NiC3)3
_chemical_formula_sum   'Cu6 Ni18 C54'
_cell_volume   1071.95672197
_cell_formula_units_Z   6
loop_
 _symmetry_equiv_pos_site_id
 _symmetry_equiv_pos_as_xyz
  1  'x, y, z'
loop_
 _atom_site_type_symbol
 _atom_site_label
 _atom_site_symmetry_multiplicity
 _atom_site_fract_x
 _atom_site_fract_y
 _atom_site_fract_z
 _atom_site_occupancy
  Ni  Ni0  1  0.33194200  0.01558500  0.39279000  1
  Ni  Ni1  1  0.66805800  0.98441500  0.89279000  1
  Ni  Ni2  1  0.00000000  0.00000000  0.48139200  1
  Ni  Ni3  1  0.31568100  0.33100200  0.56986700  1
  Ni  Ni4  1  0.68364300  0.66805800  0.39279000  1
  Ni  Ni5  1  0.98441500  0.31635700  0.39279000  1
  Ni  Ni6  1  0.66899800  0.98467900  0.56986700  1
  Ni  Ni7  1  0.66666700  0.33333300  0.23158400  1
  Ni  Ni8  1  0.31635700  0.33194200  0.89279000  1
  Ni  Ni9  1  0.98467900  0.31568100  0.06986700  1
  Ni  Ni10  1  0.01532100  0.68431900  0.56986700  1
  Ni  Ni11  1  0.01558500  0.68364300  0.89279000  1
  Ni  Ni12  1  0.68431900  0.66899800  0.06986700  1
  Ni  Ni13  1  0.00000000  0.00000000  0.98139200  1
  Ni  Ni14  1  0.33333300  0.66666700  0.73158400  1
  Ni  Ni15  1  0.66666700  0.33333300  0.71455900  1
  Ni  Ni16  1  0.33100200  0.01532100  0.06986700  1
  Ni  Ni17  1  0.33333300  0.66666700  0.21455900  1
  Cu  Cu18  1  0.66666700  0.33333300  0.46289800  1
  Cu  Cu19  1  0.00000000  0.00000000  0.23184500  1
  Cu  Cu20  1  0.00000000  0.00000000  0.73184500  1
  Cu  Cu21  1  0.66666700  0.33333300  0.99992000  1
  Cu  Cu22  1  0.33333300  0.66666700  0.96289800  1
  Cu  Cu23  1  0.33333300  0.66666700  0.49992000  1
  C  C24  1  0.01882600  0.67205000  0.34200300  1
  C  C25  1  0.65279100  0.98197600  0.12313800  1
  C  C26  1  0.67081500  0.65279100  0.62313800  1
  C  C27  1  0.34677600  0.01882600  0.84200300  1
  C  C28  1  0.32918500  0.34720900  0.12313800  1
  C  C29  1  0.98197600  0.32918500  0.62313800  1
  C  C30  1  0.32795000  0.34677600  0.34200300  1
  C  C31  1  0.98117400  0.32795000  0.84200300  1
  C  C32  1  0.01802400  0.67081500  0.12313800  1
  C  C33  1  0.67205000  0.65322400  0.84200300  1
  C  C34  1  0.34720900  0.01802400  0.62313800  1
  C  C35  1  0.65322400  0.98117400  0.34200300  1
  C  C36  1  0.15126800  0.95426100  0.62293300  1
  C  C37  1  0.55485100  0.82719200  0.04881400  1
  C  C38  1  0.27234100  0.44514900  0.04881400  1
  C  C39  1  0.72765900  0.55485100  0.54881400  1
  C  C40  1  0.90079500  0.32355300  0.73266600  1
  C  C41  1  0.82910000  0.26963700  0.91829500  1
  C  C42  1  0.80299300  0.84873200  0.62293300  1
  C  C43  1  0.04573900  0.19700700  0.62293300  1
  C  C44  1  0.48475500  0.61234600  0.60147000  1
  C  C45  1  0.09920500  0.67644700  0.23266600  1
  C  C46  1  0.87240900  0.48475500  0.10147000  1
  C  C47  1  0.87290100  0.48584800  0.36362500  1
  C  C48  1  0.80274900  0.84970500  0.84066700  1
  C  C49  1  0.51415200  0.38705300  0.36362500  1
  C  C50  1  0.84873200  0.04573900  0.12293300  1
  C  C51  1  0.73036300  0.55946300  0.91829500  1
  C  C52  1  0.61234600  0.12759100  0.10147000  1
  C  C53  1  0.42275800  0.09920500  0.73266600  1
  C  C54  1  0.61294700  0.12709900  0.36362500  1
  C  C55  1  0.44053700  0.17090000  0.91829500  1
  C  C56  1  0.04695600  0.19725100  0.84066700  1
  C  C57  1  0.67644700  0.57724200  0.73266600  1
  C  C58  1  0.38765400  0.87240900  0.60147000  1
  C  C59  1  0.84970500  0.04695600  0.34066700  1
  C  C60  1  0.17090000  0.73036300  0.41829500  1
  C  C61  1  0.82719200  0.27234100  0.54881400  1
  C  C62  1  0.38705300  0.87290100  0.86362500  1
  C  C63  1  0.12759100  0.51524500  0.60147000  1
  C  C64  1  0.19700700  0.15126800  0.12293300  1
  C  C65  1  0.17280800  0.72765900  0.04881400  1
  C  C66  1  0.51524500  0.38765400  0.10147000  1
  C  C67  1  0.26963700  0.44053700  0.41829500  1
  C  C68  1  0.55946300  0.82910000  0.41829500  1
  C  C69  1  0.95304400  0.80274900  0.34066700  1
  C  C70  1  0.57724200  0.90079500  0.23266600  1
  C  C71  1  0.44514900  0.17280800  0.54881400  1
  C  C72  1  0.48584800  0.61294700  0.86362500  1
  C  C73  1  0.19725100  0.15029500  0.34066700  1
  C  C74  1  0.12709900  0.51415200  0.86362500  1
  C  C75  1  0.32355300  0.42275800  0.23266600  1
  C  C76  1  0.95426100  0.80299300  0.12293300  1
  C  C77  1  0.15029500  0.95304400  0.84066700  1
