# generated using pymatgen
data_Cu10Ni3C5
_symmetry_space_group_name_H-M   'P 1'
_cell_length_a   7.65286500
_cell_length_b   8.03130500
_cell_length_c   21.21282100
_cell_angle_alpha   90.00000000
_cell_angle_beta   90.00000000
_cell_angle_gamma   90.00000000
_symmetry_Int_Tables_number   1
_chemical_formula_structural   Cu10Ni3C5
_chemical_formula_sum   'Cu40 Ni12 C20'
_cell_volume   1303.79286093
_cell_formula_units_Z   4
loop_
 _symmetry_equiv_pos_site_id
 _symmetry_equiv_pos_as_xyz
  1  'x, y, z'
loop_
 _atom_site_type_symbol
 _atom_site_label
 _atom_site_symmetry_multiplicity
 _atom_site_fract_x
 _atom_site_fract_y
 _atom_site_fract_z
 _atom_site_occupancy
  C  C0  1  0.36159900  0.36449600  0.55976800  1
  C  C1  1  0.13840100  0.86449600  0.44023200  1
  C  C2  1  0.63840100  0.63550400  0.44023200  1
  C  C3  1  0.86159900  0.13550400  0.55976800  1
  C  C4  1  0.63840100  0.63550400  0.05976800  1
  C  C5  1  0.86159900  0.13550400  0.94023200  1
  C  C6  1  0.13840100  0.86449600  0.05976800  1
  C  C7  1  0.36159900  0.36449600  0.94023200  1
  C  C8  1  0.72958700  0.72994900  0.82954200  1
  C  C9  1  0.05670100  0.41104600  0.75000000  1
  C  C10  1  0.77041300  0.22994900  0.17045800  1
  C  C11  1  0.44329900  0.91104600  0.25000000  1
  C  C12  1  0.27041300  0.27005100  0.32954200  1
  C  C13  1  0.22958700  0.77005100  0.82954200  1
  C  C14  1  0.27041300  0.27005100  0.17045800  1
  C  C15  1  0.77041300  0.22994900  0.32954200  1
  C  C16  1  0.55670100  0.08895400  0.75000000  1
  C  C17  1  0.22958700  0.77005100  0.67045800  1
  C  C18  1  0.72958700  0.72994900  0.67045800  1
  C  C19  1  0.94329900  0.58895400  0.25000000  1
  Ni  Ni20  1  0.99024300  0.88287400  0.25000000  1
  Ni  Ni21  1  0.86768800  0.58977400  0.91680500  1
  Ni  Ni22  1  0.13231200  0.41022600  0.08319500  1
  Ni  Ni23  1  0.63231200  0.08977400  0.41680500  1
  Ni  Ni24  1  0.86768800  0.58977400  0.58319500  1
  Ni  Ni25  1  0.13231200  0.41022600  0.41680500  1
  Ni  Ni26  1  0.63231200  0.08977400  0.08319500  1
  Ni  Ni27  1  0.36768800  0.91022600  0.58319500  1
  Ni  Ni28  1  0.50975700  0.38287400  0.75000000  1
  Ni  Ni29  1  0.00975700  0.11712600  0.75000000  1
  Ni  Ni30  1  0.36768800  0.91022600  0.91680500  1
  Ni  Ni31  1  0.49024300  0.61712600  0.25000000  1
  Cu  Cu32  1  0.08824800  0.92631100  0.19184800  1
  Cu  Cu33  1  0.47933500  0.99865000  0.10928800  1
  Cu  Cu34  1  0.58988700  0.82779300  0.75000000  1
  Cu  Cu35  1  0.91175200  0.07368900  0.80815200  1
  Cu  Cu36  1  0.08332700  0.28064900  0.03722400  1
  Cu  Cu37  1  0.26666900  0.52625900  0.05865600  1
  Cu  Cu38  1  0.41667300  0.78064900  0.96277600  1
  Cu  Cu39  1  0.91175200  0.07368900  0.69184800  1
  Cu  Cu40  1  0.58332700  0.21935100  0.46277600  1
  Cu  Cu41  1  0.08988700  0.67220700  0.75000000  1
  Cu  Cu42  1  0.97933500  0.50135000  0.10928800  1
  Cu  Cu43  1  0.08824800  0.92631100  0.30815200  1
  Cu  Cu44  1  0.91667300  0.71935100  0.53722400  1
  Cu  Cu45  1  0.52066500  0.00135000  0.89071200  1
  Cu  Cu46  1  0.41011300  0.17220700  0.25000000  1
  Cu  Cu47  1  0.23333100  0.02625900  0.55865600  1
  Cu  Cu48  1  0.58824800  0.57368900  0.19184800  1
  Cu  Cu49  1  0.73333100  0.47374100  0.55865600  1
  Cu  Cu50  1  0.02066500  0.49865000  0.89071200  1
  Cu  Cu51  1  0.52066500  0.00135000  0.60928800  1
  Cu  Cu52  1  0.68806000  0.45702500  0.75000000  1
  Cu  Cu53  1  0.41175200  0.42631100  0.80815200  1
  Cu  Cu54  1  0.47933500  0.99865000  0.39071200  1
  Cu  Cu55  1  0.73333100  0.47374100  0.94134400  1
  Cu  Cu56  1  0.76666900  0.97374100  0.05865600  1
  Cu  Cu57  1  0.02066500  0.49865000  0.60928800  1
  Cu  Cu58  1  0.18806000  0.04297500  0.75000000  1
  Cu  Cu59  1  0.41175200  0.42631100  0.69184800  1
  Cu  Cu60  1  0.58332700  0.21935100  0.03722400  1
  Cu  Cu61  1  0.91667300  0.71935100  0.96277600  1
  Cu  Cu62  1  0.91011300  0.32779300  0.25000000  1
  Cu  Cu63  1  0.26666900  0.52625900  0.44134400  1
  Cu  Cu64  1  0.08332700  0.28064900  0.46277600  1
  Cu  Cu65  1  0.41667300  0.78064900  0.53722400  1
  Cu  Cu66  1  0.58824800  0.57368900  0.30815200  1
  Cu  Cu67  1  0.81194000  0.95702500  0.25000000  1
  Cu  Cu68  1  0.23333100  0.02625900  0.94134400  1
  Cu  Cu69  1  0.76666900  0.97374100  0.44134400  1
  Cu  Cu70  1  0.97933500  0.50135000  0.39071200  1
  Cu  Cu71  1  0.31194000  0.54297500  0.25000000  1
