# generated using pymatgen
data_Cu3(Ni8C9)7
_symmetry_space_group_name_H-M   'P 1'
_cell_length_a   10.61206300
_cell_length_b   12.49080486
_cell_length_c   16.09527539
_cell_angle_alpha   102.82375582
_cell_angle_beta   95.08103629
_cell_angle_gamma   109.86654530
_symmetry_Int_Tables_number   1
_chemical_formula_structural   Cu3(Ni8C9)7
_chemical_formula_sum   'Cu3 Ni56 C63'
_cell_volume   1924.92470162
_cell_formula_units_Z   1
loop_
 _symmetry_equiv_pos_site_id
 _symmetry_equiv_pos_as_xyz
  1  'x, y, z'
loop_
 _atom_site_type_symbol
 _atom_site_label
 _atom_site_symmetry_multiplicity
 _atom_site_fract_x
 _atom_site_fract_y
 _atom_site_fract_z
 _atom_site_occupancy
  C  C0  1  0.47179800  0.52296400  0.40134700  1
  C  C1  1  0.93087600  0.17398200  0.16216200  1
  C  C2  1  0.40621700  0.76489300  0.37210700  1
  C  C3  1  0.54122700  0.39365900  0.02157700  1
  C  C4  1  0.43742300  0.67829300  0.78479300  1
  C  C5  1  0.45877300  0.60634100  0.97842300  1
  C  C6  1  0.28760600  0.13577300  0.71699700  1
  C  C7  1  0.69317500  0.95759500  0.87805800  1
  C  C8  1  0.36152000  0.90449400  0.74793900  1
  C  C9  1  0.76686000  0.72119700  0.90381100  1
  C  C10  1  0.63848000  0.09550600  0.25206100  1
  C  C11  1  0.30682500  0.04240500  0.12194200  1
  C  C12  1  0.35560400  0.85627200  0.94588700  1
  C  C13  1  0.52820200  0.47703600  0.59865300  1
  C  C14  1  0.08844200  0.69432600  0.25406700  1
  C  C15  1  0.75395400  0.77338600  0.70712800  1
  C  C16  1  0.01334900  0.94929700  0.20056100  1
  C  C17  1  0.23314000  0.27880300  0.09618900  1
  C  C18  1  0.03050800  0.88016000  0.41475700  1
  C  C19  1  0.89964700  0.36849100  0.33116300  1
  C  C20  1  0.64430000  0.03582900  0.45570800  1
  C  C21  1  0.64439600  0.14372800  0.05411300  1
  C  C22  1  0.21995800  0.32962600  0.90291300  1
  C  C23  1  0.67773800  0.02106900  0.67167500  1
  C  C24  1  0.39861500  0.80579300  0.16899300  1
  C  C25  1  0.51970400  0.43040700  0.82015800  1
  C  C26  1  0.26312400  0.19326500  0.50588500  1
  C  C27  1  0.60138500  0.19420700  0.83100700  1
  C  C28  1  0.85620800  0.41891100  0.14269000  1
  C  C29  1  0.48029600  0.56959300  0.17984200  1
  C  C30  1  0.24604600  0.22661400  0.29287200  1
  C  C31  1  0.88139100  0.34020300  0.54256300  1
  C  C32  1  0.15845500  0.51216800  0.06533200  1
  C  C33  1  0.35570000  0.96417100  0.54429200  1
  C  C34  1  0.91155800  0.30567400  0.74593300  1
  C  C35  1  0.84154500  0.48783200  0.93466800  1
  C  C36  1  0.14379200  0.58108900  0.85731000  1
  C  C37  1  0.11860900  0.65979700  0.45743700  1
  C  C38  1  0.73687600  0.80673500  0.49411500  1
  C  C39  1  0.59378300  0.23510700  0.62789300  1
  C  C40  1  0.18670100  0.45665600  0.51532700  1
  C  C41  1  0.96949200  0.11984000  0.58524300  1
  C  C42  1  0.98665100  0.05070300  0.79943900  1
  C  C43  1  0.06912400  0.82601800  0.83783800  1
  C  C44  1  0.71239400  0.86422700  0.28300300  1
  C  C45  1  0.56257700  0.32170700  0.21520700  1
  C  C46  1  0.32226200  0.97893100  0.32832500  1
  C  C47  1  0.00000000  0.00000000  0.00000000  1
  C  C48  1  0.81329900  0.54334400  0.48467300  1
  C  C49  1  0.78004200  0.67037400  0.09708700  1
  C  C50  1  0.10035300  0.63150900  0.66883700  1
  C  C51  1  0.90904200  0.25670400  0.92814600  1
  C  C52  1  0.96820700  0.09742900  0.38435500  1
  C  C53  1  0.22759500  0.48672300  0.26482900  1
  C  C54  1  0.37254700  0.11750100  0.94364300  1
  C  C55  1  0.47785600  0.75624600  0.59078400  1
  C  C56  1  0.77240500  0.51327700  0.73517100  1
  C  C57  1  0.22053100  0.37583000  0.71446300  1
  C  C58  1  0.09095800  0.74329600  0.07185400  1
  C  C59  1  0.77946900  0.62417000  0.28553700  1
  C  C60  1  0.03179300  0.90257100  0.61564500  1
  C  C61  1  0.62745300  0.88249900  0.05635700  1
  C  C62  1  0.52214400  0.24375400  0.40921600  1
  Ni  Ni63  1  0.55573000  0.79251200  0.93761800  1
  Ni  Ni64  1  0.14541100  0.01871200  0.56580300  1
  Ni  Ni65  1  0.49380000  0.04276800  0.90513700  1
  Ni  Ni66  1  0.05765100  0.38664400  0.19592500  1
  Ni  Ni67  1  0.98640800  0.60293500  0.09943800  1
  Ni  Ni68  1  0.76106300  0.46696700  0.61287100  1
  Ni  Ni69  1  0.23893700  0.53303300  0.38712900  1
  Ni  Ni70  1  0.09504900  0.43341800  0.66576600  1
  Ni  Ni71  1  0.80880600  0.14445900  0.81911800  1
  Ni  Ni72  1  0.64242700  0.58755700  0.75212700  1
  Ni  Ni73  1  0.78084800  0.30158200  0.99078600  1
  Ni  Ni74  1  0.70785300  0.37168200  0.77342400  1
  Ni  Ni75  1  0.53501800  0.87317000  0.52618200  1
  Ni  Ni76  1  0.34795900  0.33811300  0.64661600  1
  Ni  Ni77  1  0.65188800  0.54373000  0.95751300  1
  Ni  Ni78  1  0.44427000  0.20748800  0.06238200  1
  Ni  Ni79  1  0.86740500  0.88620400  0.84568000  1
  Ni  Ni80  1  0.55891200  0.83469200  0.71008600  1
  Ni  Ni81  1  0.43317100  0.35076400  0.44851600  1
  Ni  Ni82  1  0.04018100  0.20226900  0.97302300  1
  Ni  Ni83  1  0.61397500  0.76941100  0.12485900  1
  Ni  Ni84  1  0.67981900  0.51437700  0.17609000  1
  Ni  Ni85  1  0.12142100  0.05490800  0.36029000  1
  Ni  Ni86  1  0.56682900  0.64923600  0.55148400  1
  Ni  Ni87  1  0.29214700  0.62831800  0.22657600  1
  Ni  Ni88  1  0.52195500  0.91846100  0.31506800  1
  Ni  Ni89  1  0.21442500  0.99409900  0.95152800  1
  Ni  Ni90  1  0.44108800  0.16530800  0.28991400  1
  Ni  Ni91  1  0.50620000  0.95723200  0.09486300  1
  Ni  Ni92  1  0.78557500  0.00590100  0.04847200  1
  Ni  Ni93  1  0.65204100  0.66188700  0.35338400  1
  Ni  Ni94  1  0.95867400  0.75395000  0.52947000  1
  Ni  Ni95  1  0.21915200  0.69841800  0.00921400  1
  Ni  Ni96  1  0.35757300  0.41244300  0.24787300  1
  Ni  Ni97  1  0.88733900  0.76571600  0.26064700  1
  Ni  Ni98  1  0.01359200  0.39706500  0.90056200  1
  Ni  Ni99  1  0.74232600  0.25879000  0.19729900  1
  Ni  Ni100  1  0.87857900  0.94509200  0.63971000  1
  Ni  Ni101  1  0.32018100  0.48562300  0.82391000  1
  Ni  Ni102  1  0.38602500  0.23058900  0.87514100  1
  Ni  Ni103  1  0.47804500  0.08153900  0.68493200  1
  Ni  Ni104  1  0.46498200  0.12683000  0.47381800  1
  Ni  Ni105  1  0.90495100  0.56658200  0.33423400  1
  Ni  Ni106  1  0.25767400  0.74121000  0.80270100  1
  Ni  Ni107  1  0.19119400  0.85554100  0.18088200  1
  Ni  Ni108  1  0.34811200  0.45627000  0.04248700  1
  Ni  Ni109  1  0.94234900  0.61335600  0.80407500  1
  Ni  Ni110  1  0.11266100  0.23428400  0.73935300  1
  Ni  Ni111  1  0.71244100  0.30689900  0.41406400  1
  Ni  Ni112  1  0.13259500  0.11379600  0.15432000  1
  Ni  Ni113  1  0.95981900  0.79773100  0.02697700  1
  Ni  Ni114  1  0.28755900  0.69310100  0.58593600  1
  Ni  Ni115  1  0.13533700  0.92072500  0.72292800  1
  Ni  Ni116  1  0.86466300  0.07927500  0.27707200  1
  Ni  Ni117  1  0.85458900  0.98128800  0.43419700  1
  Ni  Ni118  1  0.04132600  0.24605000  0.47053000  1
  Cu  Cu119  1  0.78209300  0.17729700  0.60507000  1
  Cu  Cu120  1  0.00000000  0.50000000  0.50000000  1
  Cu  Cu121  1  0.21790700  0.82270300  0.39493000  1
