# generated using pymatgen
data_Cu2Ni3C4
_symmetry_space_group_name_H-M   'P 1'
_cell_length_a   9.73990684
_cell_length_b   9.73990684
_cell_length_c   12.51596465
_cell_angle_alpha   67.41357007
_cell_angle_beta   67.41357007
_cell_angle_gamma   42.16539367
_symmetry_Int_Tables_number   1
_chemical_formula_structural   Cu2Ni3C4
_chemical_formula_sum   'Cu8 Ni12 C16'
_cell_volume   726.37145529
_cell_formula_units_Z   4
loop_
 _symmetry_equiv_pos_site_id
 _symmetry_equiv_pos_as_xyz
  1  'x, y, z'
loop_
 _atom_site_type_symbol
 _atom_site_label
 _atom_site_symmetry_multiplicity
 _atom_site_fract_x
 _atom_site_fract_y
 _atom_site_fract_z
 _atom_site_occupancy
  C  C0  1  0.91128400  0.28420800  0.79766900  1
  C  C1  1  0.49943600  0.83754000  0.44430700  1
  C  C2  1  0.71579200  0.08871600  0.70233100  1
  C  C3  1  0.16246000  0.50056400  0.05569300  1
  C  C4  1  0.08988000  0.22612100  0.41881300  1
  C  C5  1  0.77387900  0.91012000  0.08118700  1
  C  C6  1  0.83754000  0.49943600  0.94430700  1
  C  C7  1  0.50056400  0.16246000  0.55569300  1
  C  C8  1  0.91012000  0.77387900  0.58118700  1
  C  C9  1  0.08871600  0.71579200  0.20233100  1
  C  C10  1  0.28420800  0.91128400  0.29766900  1
  C  C11  1  0.22612100  0.08988000  0.91881300  1
  Ni  Ni12  1  0.75664900  0.46795500  0.86766300  1
  Ni  Ni13  1  0.24335100  0.53204500  0.13233700  1
  Ni  Ni14  1  0.33137100  0.08046300  0.42795700  1
  Ni  Ni15  1  0.10129200  0.13933100  0.32049000  1
  Ni  Ni16  1  0.89870800  0.86066900  0.67951000  1
  Ni  Ni17  1  0.66862900  0.91953700  0.57204300  1
  Ni  Ni18  1  0.46795500  0.75664900  0.36766300  1
  Ni  Ni19  1  0.13933100  0.10129200  0.82049000  1
  Ni  Ni20  1  0.53204500  0.24335100  0.63233700  1
  Ni  Ni21  1  0.08046300  0.33137100  0.92795700  1
  Ni  Ni22  1  0.86066900  0.89870800  0.17951000  1
  Ni  Ni23  1  0.91953700  0.66862900  0.07204300  1
  C  C24  1  0.43646200  0.70494500  0.61373200  1
  C  C25  1  0.70494500  0.43646200  0.11373200  1
  C  C26  1  0.29505500  0.56353800  0.88626800  1
  C  C27  1  0.56353800  0.29505500  0.38626800  1
  Cu  Cu28  1  0.99523300  0.56874300  0.63269600  1
  Cu  Cu29  1  0.80403900  0.01587400  0.97160200  1
  Cu  Cu30  1  0.19596100  0.98412600  0.02839800  1
  Cu  Cu31  1  0.43125700  0.00476700  0.86730400  1
  Cu  Cu32  1  0.98412600  0.19596100  0.52839800  1
  Cu  Cu33  1  0.01587400  0.80403900  0.47160200  1
  Cu  Cu34  1  0.56874300  0.99523300  0.13269600  1
  Cu  Cu35  1  0.00476700  0.43125700  0.36730400  1
