# generated using pymatgen
data_Cu5(NiC)2
_symmetry_space_group_name_H-M   'P 1'
_cell_length_a   10.15007988
_cell_length_b   10.15007988
_cell_length_c   14.22456086
_cell_angle_alpha   66.68835748
_cell_angle_beta   66.68835748
_cell_angle_gamma   57.67814830
_symmetry_Int_Tables_number   1
_chemical_formula_structural   Cu5(NiC)2
_chemical_formula_sum   'Cu20 Ni8 C8'
_cell_volume   1104.83385455
_cell_formula_units_Z   4
loop_
 _symmetry_equiv_pos_site_id
 _symmetry_equiv_pos_as_xyz
  1  'x, y, z'
loop_
 _atom_site_type_symbol
 _atom_site_label
 _atom_site_symmetry_multiplicity
 _atom_site_fract_x
 _atom_site_fract_y
 _atom_site_fract_z
 _atom_site_occupancy
  C  C0  1  0.61189500  0.23964800  0.23765600  1
  C  C1  1  0.38810500  0.76035200  0.76234400  1
  C  C2  1  0.23964800  0.61189500  0.73765600  1
  C  C3  1  0.76035200  0.38810500  0.26234400  1
  C  C4  1  0.22805800  0.07504700  0.76243300  1
  C  C5  1  0.77194200  0.92495300  0.23756700  1
  C  C6  1  0.07504700  0.22805800  0.26243300  1
  C  C7  1  0.92495300  0.77194200  0.73756700  1
  Ni  Ni8  1  0.86095800  0.25121200  0.12294300  1
  Ni  Ni9  1  0.25121200  0.86095800  0.62294300  1
  Ni  Ni10  1  0.13904200  0.74878800  0.87705700  1
  Ni  Ni11  1  0.33859500  0.53879600  0.89100300  1
  Ni  Ni12  1  0.46120400  0.66140500  0.60899700  1
  Ni  Ni13  1  0.74878800  0.13904200  0.37705700  1
  Ni  Ni14  1  0.66140500  0.46120400  0.10899700  1
  Ni  Ni15  1  0.53879600  0.33859500  0.39100300  1
  Cu  Cu16  1  0.43812800  0.34233000  0.72517300  1
  Cu  Cu17  1  0.22829500  0.14437300  0.11332800  1
  Cu  Cu18  1  0.97907700  0.13208300  0.86519100  1
  Cu  Cu19  1  0.06523300  0.47912700  0.84947600  1
  Cu  Cu20  1  0.16021400  0.62036400  0.59069400  1
  Cu  Cu21  1  0.47912700  0.06523300  0.34947600  1
  Cu  Cu22  1  0.02092300  0.86791700  0.13480900  1
  Cu  Cu23  1  0.56187200  0.65767000  0.27482700  1
  Cu  Cu24  1  0.34233000  0.43812800  0.22517300  1
  Cu  Cu25  1  0.85562700  0.77170500  0.38667200  1
  Cu  Cu26  1  0.14437300  0.22829500  0.61332800  1
  Cu  Cu27  1  0.52087300  0.93476700  0.65052400  1
  Cu  Cu28  1  0.77170500  0.85562700  0.88667200  1
  Cu  Cu29  1  0.37963600  0.83978600  0.90930600  1
  Cu  Cu30  1  0.83978600  0.37963600  0.40930600  1
  Cu  Cu31  1  0.93476700  0.52087300  0.15052400  1
  Cu  Cu32  1  0.62036400  0.16021400  0.09069400  1
  Cu  Cu33  1  0.86791700  0.02092300  0.63480900  1
  Cu  Cu34  1  0.13208300  0.97907700  0.36519100  1
  Cu  Cu35  1  0.65767000  0.56187200  0.77482700  1
