# generated using pymatgen
data_Cu(NiC2)2
_symmetry_space_group_name_H-M   'P 1'
_cell_length_a   5.99243821
_cell_length_b   5.99243821
_cell_length_c   5.99243821
_cell_angle_alpha   107.39011467
_cell_angle_beta   107.39011467
_cell_angle_gamma   113.71876830
_symmetry_Int_Tables_number   1
_chemical_formula_structural   Cu(NiC2)2
_chemical_formula_sum   'Cu2 Ni4 C8'
_cell_volume   164.96091650
_cell_formula_units_Z   2
loop_
 _symmetry_equiv_pos_site_id
 _symmetry_equiv_pos_as_xyz
  1  'x, y, z'
loop_
 _atom_site_type_symbol
 _atom_site_label
 _atom_site_symmetry_multiplicity
 _atom_site_fract_x
 _atom_site_fract_y
 _atom_site_fract_z
 _atom_site_occupancy
  Ni  Ni0  1  0.96725700  0.87500000  0.59225700  1
  Ni  Ni1  1  0.28274300  0.37500000  0.40774300  1
  Ni  Ni2  1  0.62500000  0.03274300  0.90774300  1
  Ni  Ni3  1  0.12500000  0.71725700  0.09225700  1
  Cu  Cu4  1  0.50000000  0.50000000  0.00000000  1
  Cu  Cu5  1  0.75000000  0.25000000  0.50000000  1
  C  C6  1  0.41605300  0.12187800  0.31897300  1
  C  C7  1  0.87812200  0.19709500  0.29417500  1
  C  C8  1  0.44709500  0.62812200  0.79417500  1
  C  C9  1  0.37187800  0.16605300  0.81897300  1
  C  C10  1  0.34708000  0.55290500  0.18102700  1
  C  C11  1  0.90292000  0.58394700  0.70582500  1
  C  C12  1  0.80290500  0.09708000  0.68102700  1
  C  C13  1  0.83394700  0.65292000  0.20582500  1
