# generated using pymatgen
data_Cu7Ni44
_symmetry_space_group_name_H-M   'P 1'
_cell_length_a   14.21168523
_cell_length_b   14.21168523
_cell_length_c   14.21168523
_cell_angle_alpha   60.00000000
_cell_angle_beta   60.00000000
_cell_angle_gamma   60.00000000
_symmetry_Int_Tables_number   1
_chemical_formula_structural   Cu7Ni44
_chemical_formula_sum   'Cu14 Ni88'
_cell_volume   2029.65275233
_cell_formula_units_Z   2
loop_
 _symmetry_equiv_pos_site_id
 _symmetry_equiv_pos_as_xyz
  1  'x, y, z'
loop_
 _atom_site_type_symbol
 _atom_site_label
 _atom_site_symmetry_multiplicity
 _atom_site_fract_x
 _atom_site_fract_y
 _atom_site_fract_z
 _atom_site_occupancy
  Ni  Ni0  1  0.90777100  0.13186500  0.48018200  1
  Ni  Ni1  1  0.76597000  0.33829000  0.55744900  1
  Ni  Ni2  1  0.35583000  0.35583000  0.14417000  1
  Ni  Ni3  1  0.99990400  0.21551200  0.21551200  1
  Ni  Ni4  1  0.33829000  0.76597000  0.33829000  1
  Ni  Ni5  1  0.90777100  0.48018200  0.48018200  1
  Ni  Ni6  1  0.76597000  0.55744900  0.33829000  1
  Ni  Ni7  1  0.33829000  0.55744900  0.76597000  1
  Ni  Ni8  1  0.56173900  0.31478300  0.56173900  1
  Ni  Ni9  1  0.71942400  0.08624100  0.71942400  1
  Ni  Ni10  1  0.94810700  0.94810700  0.94810700  1
  Ni  Ni11  1  0.18044900  0.18044900  0.81955100  1
  Ni  Ni12  1  0.69641400  0.69641400  0.91075800  1
  Ni  Ni13  1  0.48018200  0.48018200  0.13186500  1
  Ni  Ni14  1  0.33829000  0.33829000  0.76597000  1
  Ni  Ni15  1  0.70625800  0.97957200  0.33459700  1
  Ni  Ni16  1  0.71942400  0.08624100  0.47491100  1
  Ni  Ni17  1  0.33829000  0.55744900  0.33829000  1
  Ni  Ni18  1  0.48018200  0.48018200  0.90777100  1
  Ni  Ni19  1  0.97957200  0.33459700  0.70625800  1
  Ni  Ni20  1  0.99990400  0.56907100  0.21551200  1
  Ni  Ni21  1  0.56173900  0.56173900  0.31478300  1
  Ni  Ni22  1  0.94810700  0.94810700  0.15567900  1
  Ni  Ni23  1  0.13186500  0.48018200  0.48018200  1
  Ni  Ni24  1  0.81955100  0.18044900  0.81955100  1
  Ni  Ni25  1  0.55744900  0.33829000  0.76597000  1
  Ni  Ni26  1  0.94810700  0.15567900  0.94810700  1
  Ni  Ni27  1  0.56173900  0.56173900  0.56173900  1
  Ni  Ni28  1  0.13186500  0.48018200  0.90777100  1
  Ni  Ni29  1  0.48018200  0.90777100  0.13186500  1
  Ni  Ni30  1  0.55744900  0.33829000  0.33829000  1
  Ni  Ni31  1  0.97957200  0.33459700  0.97957200  1
  Ni  Ni32  1  0.31478300  0.56173900  0.56173900  1
  Ni  Ni33  1  0.33459700  0.97957200  0.70625800  1
  Ni  Ni34  1  0.97957200  0.70625800  0.33459700  1
  Ni  Ni35  1  0.83282300  0.83282300  0.50153200  1
  Ni  Ni36  1  0.21551200  0.99990400  0.21551200  1
  Ni  Ni37  1  0.21551200  0.21551200  0.56907100  1
  Ni  Ni38  1  0.21551200  0.56907100  0.99990400  1
  Ni  Ni39  1  0.69641400  0.91075800  0.69641400  1
  Ni  Ni40  1  0.56907100  0.21551200  0.21551200  1
  Ni  Ni41  1  0.47491100  0.08624100  0.71942400  1
  Ni  Ni42  1  0.81955100  0.81955100  0.18044900  1
  Ni  Ni43  1  0.35583000  0.14417000  0.14417000  1
  Ni  Ni44  1  0.99990400  0.21551200  0.56907100  1
  Ni  Ni45  1  0.81955100  0.18044900  0.18044900  1
  Ni  Ni46  1  0.83282300  0.83282300  0.83282300  1
  Ni  Ni47  1  0.14417000  0.35583000  0.35583000  1
  Ni  Ni48  1  0.91075800  0.69641400  0.69641400  1
  Ni  Ni49  1  0.71942400  0.47491100  0.71942400  1
  Ni  Ni50  1  0.56907100  0.99990400  0.21551200  1
  Ni  Ni51  1  0.48018200  0.90777100  0.48018200  1
  Ni  Ni52  1  0.83282300  0.50153200  0.83282300  1
  Ni  Ni53  1  0.97957200  0.97957200  0.70625800  1
  Ni  Ni54  1  0.70625800  0.97957200  0.97957200  1
  Ni  Ni55  1  0.08624100  0.71942400  0.47491100  1
  Ni  Ni56  1  0.18044900  0.81955100  0.18044900  1
  Ni  Ni57  1  0.97957200  0.70625800  0.97957200  1
  Ni  Ni58  1  0.55744900  0.76597000  0.33829000  1
  Ni  Ni59  1  0.97957200  0.97957200  0.33459700  1
  Ni  Ni60  1  0.33459700  0.97957200  0.97957200  1
  Ni  Ni61  1  0.08624100  0.47491100  0.71942400  1
  Ni  Ni62  1  0.90777100  0.48018200  0.13186500  1
  Ni  Ni63  1  0.14417000  0.14417000  0.35583000  1
  Ni  Ni64  1  0.13186500  0.90777100  0.48018200  1
  Ni  Ni65  1  0.08624100  0.71942400  0.71942400  1
  Ni  Ni66  1  0.71942400  0.71942400  0.08624100  1
  Ni  Ni67  1  0.47491100  0.71942400  0.08624100  1
  Ni  Ni68  1  0.71942400  0.71942400  0.47491100  1
  Ni  Ni69  1  0.50153200  0.83282300  0.83282300  1
  Ni  Ni70  1  0.33459700  0.70625800  0.97957200  1
  Ni  Ni71  1  0.33829000  0.33829000  0.55744900  1
  Ni  Ni72  1  0.70625800  0.33459700  0.97957200  1
  Ni  Ni73  1  0.14417000  0.35583000  0.14417000  1
  Ni  Ni74  1  0.21551200  0.56907100  0.21551200  1
  Ni  Ni75  1  0.21551200  0.21551200  0.99990400  1
  Ni  Ni76  1  0.35583000  0.14417000  0.35583000  1
  Ni  Ni77  1  0.18044900  0.81955100  0.81955100  1
  Ni  Ni78  1  0.15567900  0.94810700  0.94810700  1
  Ni  Ni79  1  0.21551200  0.99990400  0.56907100  1
  Ni  Ni80  1  0.47491100  0.71942400  0.71942400  1
  Ni  Ni81  1  0.48018200  0.13186500  0.90777100  1
  Ni  Ni82  1  0.76597000  0.33829000  0.33829000  1
  Ni  Ni83  1  0.71942400  0.47491100  0.08624100  1
  Ni  Ni84  1  0.33829000  0.76597000  0.55744900  1
  Ni  Ni85  1  0.48018200  0.13186500  0.48018200  1
  Ni  Ni86  1  0.56907100  0.21551200  0.99990400  1
  Ni  Ni87  1  0.69641400  0.69641400  0.69641400  1
  Cu  Cu88  1  0.58632700  0.91367300  0.58632700  1
  Cu  Cu89  1  0.08318800  0.08318800  0.75043500  1
  Cu  Cu90  1  0.95345500  0.34884800  0.34884800  1
  Cu  Cu91  1  0.34884800  0.95345500  0.34884800  1
  Cu  Cu92  1  0.75043500  0.08318800  0.08318800  1
  Cu  Cu93  1  0.08318800  0.08318800  0.08318800  1
  Cu  Cu94  1  0.08318800  0.75043500  0.08318800  1
  Cu  Cu95  1  0.58632700  0.91367300  0.91367300  1
  Cu  Cu96  1  0.91367300  0.58632700  0.91367300  1
  Cu  Cu97  1  0.34884800  0.34884800  0.95345500  1
  Cu  Cu98  1  0.34884800  0.34884800  0.34884800  1
  Cu  Cu99  1  0.91367300  0.58632700  0.58632700  1
  Cu  Cu100  1  0.91367300  0.91367300  0.58632700  1
  Cu  Cu101  1  0.58632700  0.58632700  0.91367300  1
