# generated using pymatgen
data_Cu2Ni3C4
_symmetry_space_group_name_H-M   'P 1'
_cell_length_a   13.56855398
_cell_length_b   13.56855398
_cell_length_c   15.38589358
_cell_angle_alpha   58.10932855
_cell_angle_beta   58.10932855
_cell_angle_gamma   41.11103180
_symmetry_Int_Tables_number   1
_chemical_formula_structural   Cu2Ni3C4
_chemical_formula_sum   'Cu12 Ni18 C24'
_cell_volume   1537.73180454
_cell_formula_units_Z   6
loop_
 _symmetry_equiv_pos_site_id
 _symmetry_equiv_pos_as_xyz
  1  'x, y, z'
loop_
 _atom_site_type_symbol
 _atom_site_label
 _atom_site_symmetry_multiplicity
 _atom_site_fract_x
 _atom_site_fract_y
 _atom_site_fract_z
 _atom_site_occupancy
  C  C0  1  0.38656400  0.61343600  0.25000000  1
  C  C1  1  0.61343600  0.38656400  0.75000000  1
  C  C2  1  0.93583200  0.40371400  0.21008500  1
  C  C3  1  0.06416800  0.59628600  0.78991500  1
  C  C4  1  0.40371400  0.93583200  0.71008500  1
  C  C5  1  0.59628600  0.06416800  0.28991500  1
  Ni  Ni6  1  0.12861400  0.53455600  0.24920800  1
  Ni  Ni7  1  0.82120100  0.17879900  0.25000000  1
  Ni  Ni8  1  0.66140500  0.66859000  0.99878100  1
  Ni  Ni9  1  0.83540000  0.82704900  0.50228900  1
  Ni  Ni10  1  0.33859500  0.33141000  0.00121900  1
  Ni  Ni11  1  0.46544400  0.87138600  0.25079200  1
  Ni  Ni12  1  0.87138600  0.46544400  0.75079200  1
  Ni  Ni13  1  0.82704900  0.83540000  0.00228900  1
  Ni  Ni14  1  0.66859000  0.66140500  0.49878100  1
  Ni  Ni15  1  0.53455600  0.12861400  0.74920800  1
  Ni  Ni16  1  0.50000000  0.50000000  0.50000000  1
  Ni  Ni17  1  0.33141000  0.33859500  0.50121900  1
  Ni  Ni18  1  0.17295100  0.16460000  0.99771100  1
  Ni  Ni19  1  0.17879900  0.82120100  0.75000000  1
  Ni  Ni20  1  0.16460000  0.17295100  0.49771100  1
  Ni  Ni21  1  0.00000000  0.00000000  0.00000000  1
  Ni  Ni22  1  0.00000000  0.00000000  0.50000000  1
  Ni  Ni23  1  0.50000000  0.50000000  0.00000000  1
  Cu  Cu24  1  0.06518600  0.79956000  0.95121800  1
  Cu  Cu25  1  0.20044000  0.93481400  0.54878200  1
  Cu  Cu26  1  0.87323300  0.58824500  0.55188400  1
  Cu  Cu27  1  0.12676700  0.41175500  0.44811600  1
  Cu  Cu28  1  0.25526000  0.54507300  0.05010800  1
  Cu  Cu29  1  0.41175500  0.12676700  0.94811600  1
  Cu  Cu30  1  0.74474000  0.45492700  0.94989200  1
  Cu  Cu31  1  0.45492700  0.74474000  0.44989200  1
  Cu  Cu32  1  0.54507300  0.25526000  0.55010800  1
  Cu  Cu33  1  0.93481400  0.20044000  0.04878200  1
  Cu  Cu34  1  0.58824500  0.87323300  0.05188400  1
  Cu  Cu35  1  0.79956000  0.06518600  0.45121800  1
  C  C36  1  0.14093600  0.40639700  0.73861000  1
  C  C37  1  0.78854400  0.31966800  0.58480500  1
  C  C38  1  0.86808600  0.89081000  0.25407400  1
  C  C39  1  0.00000000  0.50000000  0.00000000  1
  C  C40  1  0.68033200  0.21145600  0.91519500  1
  C  C41  1  0.40639700  0.14093600  0.23861000  1
  C  C42  1  0.49967200  0.65477400  0.74898400  1
  C  C43  1  0.50032800  0.34522600  0.25101600  1
  C  C44  1  0.85906400  0.59360300  0.26139000  1
  C  C45  1  0.59360300  0.85906400  0.76139000  1
  C  C46  1  0.34522600  0.50032800  0.75101600  1
  C  C47  1  0.10919000  0.13191400  0.24592600  1
  C  C48  1  0.13191400  0.10919000  0.74592600  1
  C  C49  1  0.21145600  0.68033200  0.41519500  1
  C  C50  1  0.50000000  0.00000000  0.50000000  1
  C  C51  1  0.89081000  0.86808600  0.75407400  1
  C  C52  1  0.65477400  0.49967200  0.24898400  1
  C  C53  1  0.31966800  0.78854400  0.08480500  1
