# generated using pymatgen
data_Cu9Ni3C
_symmetry_space_group_name_H-M   'P 1'
_cell_length_a   9.24005580
_cell_length_b   9.24005580
_cell_length_c   5.40635000
_cell_angle_alpha   90.00000000
_cell_angle_beta   90.00000000
_cell_angle_gamma   119.99999858
_symmetry_Int_Tables_number   1
_chemical_formula_structural   Cu9Ni3C
_chemical_formula_sum   'Cu18 Ni6 C2'
_cell_volume   399.74586846
_cell_formula_units_Z   2
loop_
 _symmetry_equiv_pos_site_id
 _symmetry_equiv_pos_as_xyz
  1  'x, y, z'
loop_
 _atom_site_type_symbol
 _atom_site_label
 _atom_site_symmetry_multiplicity
 _atom_site_fract_x
 _atom_site_fract_y
 _atom_site_fract_z
 _atom_site_occupancy
  C  C0  1  0.66666700  0.33333300  0.39507100  1
  C  C1  1  0.33333300  0.66666700  0.89507100  1
  Ni  Ni2  1  0.68460100  0.66216200  0.75338200  1
  Ni  Ni3  1  0.31539900  0.33783800  0.25338200  1
  Ni  Ni4  1  0.02243800  0.68460100  0.25338200  1
  Ni  Ni5  1  0.33783800  0.02243800  0.75338200  1
  Ni  Ni6  1  0.66216200  0.97756200  0.25338200  1
  Ni  Ni7  1  0.97756200  0.31539900  0.75338200  1
  Cu  Cu8  1  0.83010600  0.77874100  0.51013200  1
  Cu  Cu9  1  0.57495200  0.44917000  0.60423400  1
  Cu  Cu10  1  0.87421800  0.42504800  0.60423400  1
  Cu  Cu11  1  0.77874100  0.94863500  0.01013200  1
  Cu  Cu12  1  0.22125900  0.05136500  0.51013200  1
  Cu  Cu13  1  0.05136500  0.83010600  0.01013200  1
  Cu  Cu14  1  0.71499100  0.19261100  0.16563800  1
  Cu  Cu15  1  0.55083000  0.12578200  0.60423400  1
  Cu  Cu16  1  0.47762000  0.28500900  0.16563800  1
  Cu  Cu17  1  0.94863500  0.16989400  0.51013200  1
  Cu  Cu18  1  0.42504800  0.55083000  0.10423400  1
  Cu  Cu19  1  0.12578200  0.57495200  0.10423400  1
  Cu  Cu20  1  0.28500900  0.80738900  0.66563800  1
  Cu  Cu21  1  0.52238000  0.71499100  0.66563800  1
  Cu  Cu22  1  0.44917000  0.87421800  0.10423400  1
  Cu  Cu23  1  0.80738900  0.52238000  0.16563800  1
  Cu  Cu24  1  0.16989400  0.22125900  0.01013200  1
  Cu  Cu25  1  0.19261100  0.47762000  0.66563800  1
