# generated using pymatgen
data_Cu16Ni3C11
_symmetry_space_group_name_H-M   'P 1'
_cell_length_a   9.77423171
_cell_length_b   9.77423171
_cell_length_c   9.91399300
_cell_angle_alpha   90.00000000
_cell_angle_beta   90.00000000
_cell_angle_gamma   133.60482791
_symmetry_Int_Tables_number   1
_chemical_formula_structural   Cu16Ni3C11
_chemical_formula_sum   'Cu32 Ni6 C22'
_cell_volume   685.83660792
_cell_formula_units_Z   2
loop_
 _symmetry_equiv_pos_site_id
 _symmetry_equiv_pos_as_xyz
  1  'x, y, z'
loop_
 _atom_site_type_symbol
 _atom_site_label
 _atom_site_symmetry_multiplicity
 _atom_site_fract_x
 _atom_site_fract_y
 _atom_site_fract_z
 _atom_site_occupancy
  C  C0  1  0.84935200  0.23489200  0.23029200  1
  C  C1  1  0.15064800  0.76510800  0.73029200  1
  C  C2  1  0.76510800  0.15064800  0.73029200  1
  C  C3  1  0.23489200  0.84935200  0.23029200  1
  C  C4  1  0.19807900  0.19807900  0.97084300  1
  C  C5  1  0.80192100  0.80192100  0.47084300  1
  C  C6  1  0.61883100  0.44793300  0.18574600  1
  C  C7  1  0.38116900  0.55206700  0.68574600  1
  C  C8  1  0.55206700  0.38116900  0.68574600  1
  C  C9  1  0.44793300  0.61883100  0.18574600  1
  C  C10  1  0.90067100  0.57076700  0.02104400  1
  C  C11  1  0.09932900  0.42923300  0.52104400  1
  C  C12  1  0.42923300  0.09932900  0.52104400  1
  C  C13  1  0.57076700  0.90067100  0.02104400  1
  C  C14  1  0.90504100  0.73606400  0.02453900  1
  C  C15  1  0.09495900  0.26393600  0.52453900  1
  C  C16  1  0.26393600  0.09495900  0.52453900  1
  C  C17  1  0.73606400  0.90504100  0.02453900  1
  C  C18  1  0.20316000  0.20316000  0.72313300  1
  C  C19  1  0.79684000  0.79684000  0.22313300  1
  C  C20  1  0.52434000  0.52434000  0.97133300  1
  C  C21  1  0.47566000  0.47566000  0.47133300  1
  Ni  Ni22  1  0.48097500  0.13126700  0.95636400  1
  Ni  Ni23  1  0.51902500  0.86873300  0.45636400  1
  Ni  Ni24  1  0.86873300  0.51902500  0.45636400  1
  Ni  Ni25  1  0.13126700  0.48097500  0.95636400  1
  Ni  Ni26  1  0.81662400  0.81662400  0.79029500  1
  Ni  Ni27  1  0.18337600  0.18337600  0.29029500  1
  Cu  Cu28  1  0.88430000  0.64019600  0.08106900  1
  Cu  Cu29  1  0.11570000  0.35980400  0.58106900  1
  Cu  Cu30  1  0.35980400  0.11570000  0.58106900  1
  Cu  Cu31  1  0.64019600  0.88430000  0.08106900  1
  Cu  Cu32  1  0.31331500  0.31331500  0.77273600  1
  Cu  Cu33  1  0.68668500  0.68668500  0.27273600  1
  Cu  Cu34  1  0.45092000  0.45092000  0.05151400  1
  Cu  Cu35  1  0.54908000  0.54908000  0.55151400  1
  Cu  Cu36  1  0.28224000  0.04867200  0.96345800  1
  Cu  Cu37  1  0.71776000  0.95132800  0.46345800  1
  Cu  Cu38  1  0.95132800  0.71776000  0.46345800  1
  Cu  Cu39  1  0.04867200  0.28224000  0.96345800  1
  Cu  Cu40  1  0.57932100  0.22756600  0.08704400  1
  Cu  Cu41  1  0.42067900  0.77243400  0.58704400  1
  Cu  Cu42  1  0.77243400  0.42067900  0.58704400  1
  Cu  Cu43  1  0.22756600  0.57932100  0.08704400  1
  Cu  Cu44  1  0.47193200  0.97516400  0.93503000  1
  Cu  Cu45  1  0.52806800  0.02483600  0.43503000  1
  Cu  Cu46  1  0.02483600  0.52806800  0.43503000  1
  Cu  Cu47  1  0.97516400  0.47193200  0.93503000  1
  Cu  Cu48  1  0.58495000  0.26596000  0.84207800  1
  Cu  Cu49  1  0.41505000  0.73404000  0.34207800  1
  Cu  Cu50  1  0.73404000  0.41505000  0.34207800  1
  Cu  Cu51  1  0.26596000  0.58495000  0.84207800  1
  Cu  Cu52  1  0.91992500  0.91992500  0.91889600  1
  Cu  Cu53  1  0.08007500  0.08007500  0.41889600  1
  Cu  Cu54  1  0.93606200  0.93606200  0.67166600  1
  Cu  Cu55  1  0.06393800  0.06393800  0.17166600  1
  Cu  Cu56  1  0.63834300  0.77438300  0.79020900  1
  Cu  Cu57  1  0.36165700  0.22561700  0.29020900  1
  Cu  Cu58  1  0.22561700  0.36165700  0.29020900  1
  Cu  Cu59  1  0.77438300  0.63834300  0.79020900  1
