# generated using pymatgen
data_Cu4Ni2C21
_symmetry_space_group_name_H-M   'P 1'
_cell_length_a   13.21465700
_cell_length_b   7.69046000
_cell_length_c   9.19780048
_cell_angle_alpha   74.84796737
_cell_angle_beta   90.00000000
_cell_angle_gamma   90.00000000
_symmetry_Int_Tables_number   1
_chemical_formula_structural   Cu4Ni2C21
_chemical_formula_sum   'Cu8 Ni4 C42'
_cell_volume   902.24722434
_cell_formula_units_Z   2
loop_
 _symmetry_equiv_pos_site_id
 _symmetry_equiv_pos_as_xyz
  1  'x, y, z'
loop_
 _atom_site_type_symbol
 _atom_site_label
 _atom_site_symmetry_multiplicity
 _atom_site_fract_x
 _atom_site_fract_y
 _atom_site_fract_z
 _atom_site_occupancy
  C  C0  1  0.50000000  0.00000000  0.50000000  1
  C  C1  1  0.00000000  0.00000000  0.00000000  1
  Ni  Ni2  1  0.86496700  0.68592600  0.78488200  1
  Ni  Ni3  1  0.63503300  0.68592600  0.28488200  1
  Ni  Ni4  1  0.13503300  0.31407400  0.21511800  1
  Ni  Ni5  1  0.36496700  0.31407400  0.71511800  1
  Cu  Cu6  1  0.70706600  0.20412800  0.54852200  1
  Cu  Cu7  1  0.45775400  0.27234700  0.16880300  1
  Cu  Cu8  1  0.95775400  0.72765300  0.33119700  1
  Cu  Cu9  1  0.79293400  0.20412800  0.04852200  1
  Cu  Cu10  1  0.20706600  0.79587200  0.95147800  1
  Cu  Cu11  1  0.54224600  0.72765300  0.83119700  1
  Cu  Cu12  1  0.04224600  0.27234700  0.66880300  1
  Cu  Cu13  1  0.29293400  0.79587200  0.45147800  1
  C  C14  1  0.93649500  0.81961400  0.17195400  1
  C  C15  1  0.30902000  0.82901000  0.29221400  1
  C  C16  1  0.56350500  0.81961400  0.67195400  1
  C  C17  1  0.06350500  0.18038600  0.82804600  1
  C  C18  1  0.43649500  0.18038600  0.32804600  1
  C  C19  1  0.55053900  0.22701300  0.10609600  1
  C  C20  1  0.44946100  0.77298700  0.89390400  1
  C  C21  1  0.19098000  0.82901000  0.79221400  1
  C  C22  1  0.86872100  0.13018700  0.96226400  1
  C  C23  1  0.05053900  0.77298700  0.39390400  1
  C  C24  1  0.69098000  0.17099000  0.70778600  1
  C  C25  1  0.36872100  0.86981300  0.53773600  1
  C  C26  1  0.63127900  0.13018700  0.46226400  1
  C  C27  1  0.94946100  0.22701300  0.60609600  1
  C  C28  1  0.80902000  0.17099000  0.20778600  1
  C  C29  1  0.13127900  0.86981300  0.03773600  1
  C  C30  1  0.53983600  0.82607200  0.33719700  1
  C  C31  1  0.77425200  0.54299200  0.73601300  1
  C  C32  1  0.64756400  0.84624300  0.10879300  1
  C  C33  1  0.14756400  0.15375700  0.39120700  1
  C  C34  1  0.85243600  0.84624300  0.60879300  1
  C  C35  1  0.53650900  0.57788800  0.20786200  1
  C  C36  1  0.38240900  0.47269200  0.53687100  1
  C  C37  1  0.03650900  0.42211200  0.29213800  1
  C  C38  1  0.35243600  0.15375700  0.89120700  1
  C  C39  1  0.72574800  0.54299200  0.23601300  1
  C  C40  1  0.11759100  0.47269200  0.03687100  1
  C  C41  1  0.22574800  0.45700800  0.26398700  1
  C  C42  1  0.96016400  0.82607200  0.83719700  1
  C  C43  1  0.96349100  0.57788800  0.70786200  1
  C  C44  1  0.22894200  0.20302400  0.13722000  1
  C  C45  1  0.27425200  0.45700800  0.76398700  1
  C  C46  1  0.46016400  0.17392800  0.66280300  1
  C  C47  1  0.77105800  0.79697600  0.86278000  1
  C  C48  1  0.03983600  0.17392800  0.16280300  1
  C  C49  1  0.61759100  0.52730800  0.46312900  1
  C  C50  1  0.88240900  0.52730800  0.96312900  1
  C  C51  1  0.72894200  0.79697600  0.36278000  1
  C  C52  1  0.27105800  0.20302400  0.63722000  1
  C  C53  1  0.46349100  0.42211200  0.79213800  1
