# generated using pymatgen
data_CuNi3
_symmetry_space_group_name_H-M   'P 1'
_cell_length_a   7.96743379
_cell_length_b   7.96743379
_cell_length_c   8.23975400
_cell_angle_alpha   90.00000000
_cell_angle_beta   90.00000000
_cell_angle_gamma   119.99999822
_symmetry_Int_Tables_number   1
_chemical_formula_structural   CuNi3
_chemical_formula_sum   'Cu6 Ni18'
_cell_volume   452.98290358
_cell_formula_units_Z   6
loop_
 _symmetry_equiv_pos_site_id
 _symmetry_equiv_pos_as_xyz
  1  'x, y, z'
loop_
 _atom_site_type_symbol
 _atom_site_label
 _atom_site_symmetry_multiplicity
 _atom_site_fract_x
 _atom_site_fract_y
 _atom_site_fract_z
 _atom_site_occupancy
  Ni  Ni0  1  0.00000000  0.00000000  0.31362500  1
  Ni  Ni1  1  0.00000000  0.00000000  0.81362500  1
  Ni  Ni2  1  0.33333300  0.66666700  0.20444600  1
  Ni  Ni3  1  0.66666700  0.33333300  0.70444600  1
  Ni  Ni4  1  0.33333300  0.66666700  0.70444600  1
  Ni  Ni5  1  0.66666700  0.33333300  0.20444600  1
  Ni  Ni6  1  0.28603300  0.28603300  0.57678900  1
  Ni  Ni7  1  0.00000000  0.28603300  0.07678900  1
  Ni  Ni8  1  0.28603300  0.00000000  0.07678900  1
  Ni  Ni9  1  0.71396700  0.00000000  0.57678900  1
  Ni  Ni10  1  0.00000000  0.71396700  0.57678900  1
  Ni  Ni11  1  0.71396700  0.71396700  0.07678900  1
  Ni  Ni12  1  0.62669000  0.62669000  0.41950600  1
  Ni  Ni13  1  0.00000000  0.62669000  0.91950600  1
  Ni  Ni14  1  0.62669000  0.00000000  0.91950600  1
  Ni  Ni15  1  0.37331000  0.00000000  0.41950600  1
  Ni  Ni16  1  0.00000000  0.37331000  0.41950600  1
  Ni  Ni17  1  0.37331000  0.37331000  0.91950600  1
  Cu  Cu18  1  0.32777700  0.32777700  0.24769900  1
  Cu  Cu19  1  0.00000000  0.32777700  0.74769900  1
  Cu  Cu20  1  0.32777700  0.00000000  0.74769900  1
  Cu  Cu21  1  0.67222300  0.00000000  0.24769900  1
  Cu  Cu22  1  0.00000000  0.67222300  0.24769900  1
  Cu  Cu23  1  0.67222300  0.67222300  0.74769900  1
