# generated using pymatgen
data_Cu2Ni2C7
_symmetry_space_group_name_H-M   'P 1'
_cell_length_a   7.67600300
_cell_length_b   8.01783900
_cell_length_c   9.22066100
_cell_angle_alpha   90.00000000
_cell_angle_beta   90.00000000
_cell_angle_gamma   90.00000000
_symmetry_Int_Tables_number   1
_chemical_formula_structural   Cu2Ni2C7
_chemical_formula_sum   'Cu8 Ni8 C28'
_cell_volume   567.48517754
_cell_formula_units_Z   4
loop_
 _symmetry_equiv_pos_site_id
 _symmetry_equiv_pos_as_xyz
  1  'x, y, z'
loop_
 _atom_site_type_symbol
 _atom_site_label
 _atom_site_symmetry_multiplicity
 _atom_site_fract_x
 _atom_site_fract_y
 _atom_site_fract_z
 _atom_site_occupancy
  Ni  Ni0  1  0.09710600  0.95089000  0.85288300  1
  Ni  Ni1  1  0.07313200  0.98255200  0.35655900  1
  Ni  Ni2  1  0.90289400  0.45089000  0.64711700  1
  Ni  Ni3  1  0.59710600  0.54911000  0.14711700  1
  Ni  Ni4  1  0.42686800  0.01744800  0.85655900  1
  Ni  Ni5  1  0.92686800  0.48255200  0.14344100  1
  Ni  Ni6  1  0.57313200  0.51744800  0.64344100  1
  Ni  Ni7  1  0.40289400  0.04911000  0.35288300  1
  Cu  Cu8  1  0.59246400  0.89416000  0.12308800  1
  Cu  Cu9  1  0.07376700  0.16606300  0.09821100  1
  Cu  Cu10  1  0.92623300  0.66606300  0.40178900  1
  Cu  Cu11  1  0.42623300  0.83393700  0.59821100  1
  Cu  Cu12  1  0.40753600  0.39416000  0.37691200  1
  Cu  Cu13  1  0.90753600  0.10584000  0.62308800  1
  Cu  Cu14  1  0.57376700  0.33393700  0.90178900  1
  Cu  Cu15  1  0.09246400  0.60584000  0.87691200  1
  C  C16  1  0.99566700  0.49785100  0.29708100  1
  C  C17  1  0.51071800  0.20089800  0.38838100  1
  C  C18  1  0.91613500  0.03521400  0.44587100  1
  C  C19  1  0.41900100  0.01071700  0.19313900  1
  C  C20  1  0.91900100  0.48928300  0.80686100  1
  C  C21  1  0.22448000  0.07723200  0.38690600  1
  C  C22  1  0.08386500  0.53521400  0.05412900  1
  C  C23  1  0.98928200  0.79910200  0.88838100  1
  C  C24  1  0.41613500  0.46478600  0.55412900  1
  C  C25  1  0.00579400  0.09176100  0.93016800  1
  C  C26  1  0.48928200  0.70089800  0.11161900  1
  C  C27  1  0.50579400  0.40823900  0.06983200  1
  C  C28  1  0.99420600  0.59176100  0.56983200  1
  C  C29  1  0.08099900  0.98928300  0.69313900  1
  C  C30  1  0.01071800  0.29910200  0.61161900  1
  C  C31  1  0.10549700  0.79929700  0.38083300  1
  C  C32  1  0.58386500  0.96478600  0.94587100  1
  C  C33  1  0.49420600  0.90823900  0.43016800  1
  C  C34  1  0.58099900  0.51071700  0.30686100  1
  C  C35  1  0.00433300  0.99785100  0.20291900  1
  C  C36  1  0.27552000  0.92276800  0.88690600  1
  C  C37  1  0.89450300  0.29929700  0.11916700  1
  C  C38  1  0.72448000  0.42276800  0.61309400  1
  C  C39  1  0.50433300  0.50214900  0.79708100  1
  C  C40  1  0.77552000  0.57723200  0.11309400  1
  C  C41  1  0.49566700  0.00214900  0.70291900  1
  C  C42  1  0.60549700  0.70070300  0.61916700  1
  C  C43  1  0.39450300  0.20070300  0.88083300  1
