# generated using pymatgen
data_CuNiC10
_symmetry_space_group_name_H-M   'P 1'
_cell_length_a   10.35529342
_cell_length_b   10.35529342
_cell_length_c   6.10528300
_cell_angle_alpha   90.00000000
_cell_angle_beta   90.00000000
_cell_angle_gamma   119.99999631
_symmetry_Int_Tables_number   1
_chemical_formula_structural   CuNiC10
_chemical_formula_sum   'Cu2 Ni2 C20'
_cell_volume   566.97154898
_cell_formula_units_Z   2
loop_
 _symmetry_equiv_pos_site_id
 _symmetry_equiv_pos_as_xyz
  1  'x, y, z'
loop_
 _atom_site_type_symbol
 _atom_site_label
 _atom_site_symmetry_multiplicity
 _atom_site_fract_x
 _atom_site_fract_y
 _atom_site_fract_z
 _atom_site_occupancy
  C  C0  1  0.22285900  0.35614500  0.75669000  1
  C  C1  1  0.86671400  0.22285900  0.25669000  1
  C  C2  1  0.35614500  0.13328600  0.25669000  1
  C  C3  1  0.64385500  0.86671400  0.75669000  1
  C  C4  1  0.13328600  0.77714100  0.75669000  1
  C  C5  1  0.77714100  0.64385500  0.25669000  1
  Ni  Ni6  1  0.00000000  0.00000000  0.71871200  1
  Ni  Ni7  1  0.00000000  0.00000000  0.21871200  1
  Cu  Cu8  1  0.33333300  0.66666700  0.33185400  1
  Cu  Cu9  1  0.66666700  0.33333300  0.83185400  1
  C  C10  1  0.33333300  0.66666700  0.94257300  1
  C  C11  1  0.66666700  0.33333300  0.44257300  1
  C  C12  1  0.90496100  0.15486600  0.73143200  1
  C  C13  1  0.75009400  0.90496100  0.23143200  1
  C  C14  1  0.15486600  0.24990600  0.23143200  1
  C  C15  1  0.84513400  0.75009400  0.73143200  1
  C  C16  1  0.24990600  0.09503900  0.73143200  1
  C  C17  1  0.09503900  0.84513400  0.23143200  1
  C  C18  1  0.42512700  0.90943200  0.49916500  1
  C  C19  1  0.51569400  0.42512700  0.99916500  1
  C  C20  1  0.90943200  0.48430600  0.99916500  1
  C  C21  1  0.09056800  0.51569400  0.49916500  1
  C  C22  1  0.48430600  0.57487300  0.49916500  1
  C  C23  1  0.57487300  0.09056800  0.99916500  1
