# generated using pymatgen
data_CuNi2C3
_symmetry_space_group_name_H-M   'P 1'
_cell_length_a   3.89374200
_cell_length_b   3.89374200
_cell_length_c   5.93394650
_cell_angle_alpha   109.15291269
_cell_angle_beta   109.15291269
_cell_angle_gamma   90.00000000
_symmetry_Int_Tables_number   1
_chemical_formula_structural   CuNi2C3
_chemical_formula_sum   'Cu1 Ni2 C3'
_cell_volume   79.69544331
_cell_formula_units_Z   1
loop_
 _symmetry_equiv_pos_site_id
 _symmetry_equiv_pos_as_xyz
  1  'x, y, z'
loop_
 _atom_site_type_symbol
 _atom_site_label
 _atom_site_symmetry_multiplicity
 _atom_site_fract_x
 _atom_site_fract_y
 _atom_site_fract_z
 _atom_site_occupancy
  C  C0  1  0.00000000  0.00000000  0.00000000  1
  Ni  Ni1  1  0.35567300  0.35567300  0.71134600  1
  Ni  Ni2  1  0.64432700  0.64432700  0.28865400  1
  C  C3  1  0.25000000  0.75000000  0.50000000  1
  C  C4  1  0.75000000  0.25000000  0.50000000  1
  Cu  Cu5  1  0.50000000  0.50000000  0.00000000  1
