# generated using pymatgen
data_CuNi2C13
_symmetry_space_group_name_H-M   'P 1'
_cell_length_a   7.22198535
_cell_length_b   9.93927085
_cell_length_c   23.42685527
_cell_angle_alpha   90.00000000
_cell_angle_beta   90.00000000
_cell_angle_gamma   90.00000000
_symmetry_Int_Tables_number   1
_chemical_formula_structural   CuNi2C13
_chemical_formula_sum   'Cu8 Ni16 C104'
_cell_volume   1681.60938751
_cell_formula_units_Z   8
loop_
 _symmetry_equiv_pos_site_id
 _symmetry_equiv_pos_as_xyz
  1  'x, y, z'
loop_
 _atom_site_type_symbol
 _atom_site_label
 _atom_site_symmetry_multiplicity
 _atom_site_fract_x
 _atom_site_fract_y
 _atom_site_fract_z
 _atom_site_occupancy
  C  C0  1  0.90734604  0.73217262  0.81719485  1
  C  C1  1  0.82322329  0.36516270  0.33646316  1
  C  C2  1  0.09265396  0.76782738  0.31719485  1
  C  C3  1  0.67677671  0.86516270  0.66353684  1
  C  C4  1  0.09265396  0.26782738  0.18280515  1
  C  C5  1  0.67677671  0.36516270  0.83646316  1
  C  C6  1  0.13738198  0.99078223  0.57215219  1
  C  C7  1  0.40734604  0.76782738  0.81719485  1
  C  C8  1  0.82322329  0.86516270  0.16353684  1
  C  C9  1  0.59265396  0.23217262  0.18280515  1
  C  C10  1  0.17677671  0.63483730  0.66353684  1
  C  C11  1  0.40734604  0.26782738  0.68280515  1
  C  C12  1  0.36261802  0.99078223  0.07215219  1
  C  C13  1  0.32322329  0.63483730  0.16353684  1
  C  C14  1  0.63738198  0.00921777  0.92784781  1
  C  C15  1  0.90734604  0.23217262  0.68280515  1
  C  C16  1  0.63738198  0.50921777  0.57215219  1
  C  C17  1  0.13738198  0.49078223  0.92784781  1
  C  C18  1  0.17677671  0.13483730  0.83646316  1
  C  C19  1  0.86261802  0.00921777  0.42784781  1
  C  C20  1  0.86261802  0.50921777  0.07215219  1
  C  C21  1  0.36261802  0.49078223  0.42784781  1
  C  C22  1  0.59265396  0.73217262  0.31719485  1
  C  C23  1  0.32322329  0.13483730  0.33646316  1
  Ni  Ni24  1  0.14271983  0.87624985  0.92147823  1
  Ni  Ni25  1  0.68568286  0.56135069  0.72056384  1
  Ni  Ni26  1  0.85728017  0.12375015  0.07852177  1
  Ni  Ni27  1  0.81431714  0.06135069  0.27943616  1
  Ni  Ni28  1  0.14271983  0.37624985  0.57852177  1
  Ni  Ni29  1  0.31431714  0.93864931  0.22056384  1
  Ni  Ni30  1  0.85728017  0.62375015  0.42147823  1
  Ni  Ni31  1  0.81431714  0.56135069  0.22056384  1
  Ni  Ni32  1  0.64271983  0.62375015  0.92147823  1
  Ni  Ni33  1  0.31431714  0.43864931  0.27943616  1
  Ni  Ni34  1  0.35728017  0.37624985  0.07852177  1
  Ni  Ni35  1  0.18568286  0.93864931  0.72056384  1
  Ni  Ni36  1  0.64271983  0.12375015  0.57852177  1
  Ni  Ni37  1  0.18568286  0.43864931  0.77943616  1
  Ni  Ni38  1  0.35728017  0.87624985  0.42147823  1
  Ni  Ni39  1  0.68568286  0.06135069  0.77943616  1
  Cu  Cu40  1  0.65751120  0.25620827  0.47244886  1
  Cu  Cu41  1  0.34248880  0.24379173  0.97244886  1
  Cu  Cu42  1  0.15751120  0.74379173  0.02755114  1
  Cu  Cu43  1  0.34248880  0.74379173  0.52755114  1
  Cu  Cu44  1  0.84248880  0.75620827  0.52755114  1
  Cu  Cu45  1  0.15751120  0.24379173  0.47244886  1
  Cu  Cu46  1  0.84248880  0.25620827  0.97244886  1
  Cu  Cu47  1  0.65751120  0.75620827  0.02755114  1
  C  C48  1  0.53714543  0.10801325  0.82821871  1
  C  C49  1  0.29454782  0.10390750  0.22116133  1
  C  C50  1  0.33734960  0.86041107  0.49194537  1
  C  C51  1  0.03771222  0.03838891  0.09925104  1
  C  C52  1  0.03714543  0.89198675  0.67178129  1
  C  C53  1  0.79454782  0.39609250  0.22116133  1
  C  C54  1  0.82479882  0.54837407  0.89420711  1
  C  C55  1  0.96228778  0.96161109  0.90074896  1
  C  C56  1  0.73551255  0.73867761  0.08041375  1
  C  C57  1  0.03771222  0.53838891  0.40074896  1
  C  C58  1  0.16265040  0.36041107  0.50805463  1
  C  C59  1  0.12754945  0.34642942  0.28933803  1
  C  C60  1  0.35423352  0.72661468  0.39044299  1
  C  C61  1  0.37245055  0.84642942  0.71066197  1
  C  C62  1  0.76448745  0.73867761  0.58041375  1
  C  C63  1  0.63049739  0.09786635  0.71249863  1
  C  C64  1  0.85423352  0.77338532  0.39044299  1
  C  C65  1  0.26448745  0.76132239  0.58041375  1
  C  C66  1  0.20545218  0.10390750  0.72116133  1
  C  C67  1  0.46228778  0.53838891  0.90074896  1
  C  C68  1  0.53771222  0.46161109  0.09925104  1
  C  C69  1  0.16265040  0.86041107  0.99194537  1
  C  C70  1  0.79454782  0.89609250  0.27883867  1
  C  C71  1  0.46228778  0.03838891  0.59925104  1
  C  C72  1  0.36950261  0.40213365  0.21249863  1
  C  C73  1  0.57990195  0.87222460  0.00860495  1
  C  C74  1  0.42009805  0.62777540  0.50860495  1
  C  C75  1  0.37245055  0.34642942  0.78933803  1
  C  C76  1  0.14576648  0.72661468  0.89044299  1
  C  C77  1  0.73551255  0.23867761  0.41958625  1
  C  C78  1  0.63049739  0.59786635  0.78750137  1
  C  C79  1  0.53771222  0.96161109  0.40074896  1
  C  C80  1  0.46285457  0.89198675  0.17178129  1
  C  C81  1  0.64576648  0.77338532  0.89044299  1
  C  C82  1  0.96285457  0.10801325  0.32821871  1
  C  C83  1  0.96228778  0.46161109  0.59925104  1
  C  C84  1  0.82479882  0.04837407  0.60579289  1
  C  C85  1  0.92009805  0.37222460  0.99139505  1
  C  C86  1  0.14576648  0.22661468  0.60955701  1
  C  C87  1  0.86950261  0.09786635  0.21249863  1
  C  C88  1  0.87245055  0.65357058  0.71066197  1
  C  C89  1  0.29454782  0.60390750  0.27883867  1
  C  C90  1  0.67520118  0.04837407  0.10579289  1
  C  C91  1  0.35423352  0.22661468  0.10955701  1
  C  C92  1  0.87245055  0.15357058  0.78933803  1
  C  C93  1  0.70545218  0.39609250  0.72116133  1
  C  C94  1  0.92009805  0.87222460  0.50860495  1
  C  C95  1  0.17520118  0.95162593  0.39420711  1
  C  C96  1  0.67520118  0.54837407  0.39420711  1
  C  C97  1  0.64576648  0.27338532  0.60955701  1
  C  C98  1  0.96285457  0.60801325  0.17178129  1
  C  C99  1  0.13049739  0.40213365  0.71249863  1
  C  C100  1  0.23551255  0.26132239  0.41958625  1
  C  C101  1  0.76448745  0.23867761  0.91958625  1
  C  C102  1  0.42009805  0.12777540  0.99139505  1
  C  C103  1  0.26448745  0.26132239  0.91958625  1
  C  C104  1  0.85423352  0.27338532  0.10955701  1
  C  C105  1  0.36950261  0.90213365  0.28750137  1
  C  C106  1  0.70545218  0.89609250  0.77883867  1
  C  C107  1  0.03714543  0.39198675  0.82821871  1
  C  C108  1  0.57990195  0.37222460  0.49139505  1
  C  C109  1  0.46285457  0.39198675  0.32821871  1
  C  C110  1  0.32479882  0.45162593  0.60579289  1
  C  C111  1  0.83734960  0.13958893  0.00805463  1
  C  C112  1  0.07990195  0.12777540  0.49139505  1
  C  C113  1  0.13049739  0.90213365  0.78750137  1
  C  C114  1  0.53714543  0.60801325  0.67178129  1
  C  C115  1  0.86950261  0.59786635  0.28750137  1
  C  C116  1  0.20545218  0.60390750  0.77883867  1
  C  C117  1  0.66265040  0.13958893  0.50805463  1
  C  C118  1  0.17520118  0.45162593  0.10579289  1
  C  C119  1  0.62754945  0.65357058  0.21066197  1
  C  C120  1  0.12754945  0.84642942  0.21066197  1
  C  C121  1  0.33734960  0.36041107  0.00805463  1
  C  C122  1  0.23551255  0.76132239  0.08041375  1
  C  C123  1  0.62754945  0.15357058  0.28933803  1
  C  C124  1  0.32479882  0.95162593  0.89420711  1
  C  C125  1  0.83734960  0.63958893  0.49194537  1
  C  C126  1  0.66265040  0.63958893  0.99194537  1
  C  C127  1  0.07990195  0.62777540  0.00860495  1
