# generated using pymatgen
data_CuNi8C5
_symmetry_space_group_name_H-M   'P 1'
_cell_length_a   8.80605580
_cell_length_b   8.80605580
_cell_length_c   11.05109666
_cell_angle_alpha   83.11777061
_cell_angle_beta   83.11777061
_cell_angle_gamma   52.13035657
_symmetry_Int_Tables_number   1
_chemical_formula_structural   CuNi8C5
_chemical_formula_sum   'Cu2 Ni16 C10'
_cell_volume   670.45825167
_cell_formula_units_Z   2
loop_
 _symmetry_equiv_pos_site_id
 _symmetry_equiv_pos_as_xyz
  1  'x, y, z'
loop_
 _atom_site_type_symbol
 _atom_site_label
 _atom_site_symmetry_multiplicity
 _atom_site_fract_x
 _atom_site_fract_y
 _atom_site_fract_z
 _atom_site_occupancy
  C  C0  1  0.92695600  0.68187200  0.18550400  1
  C  C1  1  0.62197000  0.37803000  0.25000000  1
  C  C2  1  0.68187200  0.92695600  0.68550400  1
  C  C3  1  0.31812800  0.07304400  0.31449600  1
  C  C4  1  0.37803000  0.62197000  0.75000000  1
  C  C5  1  0.07304400  0.31812800  0.81449600  1
  C  C6  1  0.62745100  0.69212400  0.97076700  1
  C  C7  1  0.30787600  0.37254900  0.52923300  1
  C  C8  1  0.37254900  0.30787600  0.02923300  1
  C  C9  1  0.69212400  0.62745100  0.47076700  1
  Ni  Ni10  1  0.59157800  0.27665300  0.54896500  1
  Ni  Ni11  1  0.10378900  0.60371400  0.64208100  1
  Ni  Ni12  1  0.14339200  0.28894700  0.08541900  1
  Ni  Ni13  1  0.55785900  0.73697500  0.16055800  1
  Ni  Ni14  1  0.39628600  0.89621100  0.85791900  1
  Ni  Ni15  1  0.85660800  0.71105300  0.91458100  1
  Ni  Ni16  1  0.72334800  0.40842200  0.95103500  1
  Ni  Ni17  1  0.44214100  0.26302500  0.83944200  1
  Ni  Ni18  1  0.28894700  0.14339200  0.58541900  1
  Ni  Ni19  1  0.26302500  0.44214100  0.33944200  1
  Ni  Ni20  1  0.60371400  0.10378900  0.14208100  1
  Ni  Ni21  1  0.71105300  0.85660800  0.41458100  1
  Ni  Ni22  1  0.89621100  0.39628600  0.35791900  1
  Ni  Ni23  1  0.73697500  0.55785900  0.66055800  1
  Ni  Ni24  1  0.27665300  0.59157800  0.04896500  1
  Ni  Ni25  1  0.40842200  0.72334800  0.45103500  1
  Cu  Cu26  1  0.99324700  0.00675300  0.25000000  1
  Cu  Cu27  1  0.00675300  0.99324700  0.75000000  1
