# generated using pymatgen
data_Cu6Ni2C3
_symmetry_space_group_name_H-M   'P 1'
_cell_length_a   7.33928566
_cell_length_b   7.33928569
_cell_length_c   18.65597110
_cell_angle_alpha   90.00000000
_cell_angle_beta   90.00000000
_cell_angle_gamma   119.99999987
_symmetry_Int_Tables_number   1
_chemical_formula_structural   Cu6Ni2C3
_chemical_formula_sum   'Cu36 Ni12 C18'
_cell_volume   870.27413762
_cell_formula_units_Z   6
loop_
 _symmetry_equiv_pos_site_id
 _symmetry_equiv_pos_as_xyz
  1  'x, y, z'
loop_
 _atom_site_type_symbol
 _atom_site_label
 _atom_site_symmetry_multiplicity
 _atom_site_fract_x
 _atom_site_fract_y
 _atom_site_fract_z
 _atom_site_occupancy
  C  C0  1  0.66666700  0.33333300  0.55268713  1
  C  C1  1  0.66666700  0.33333300  0.05268713  1
  C  C2  1  0.00000000  0.00000000  0.00000000  1
  C  C3  1  0.33333300  0.66666700  0.44731287  1
  C  C4  1  0.33333300  0.66666700  0.94731287  1
  C  C5  1  0.00000000  0.00000000  0.50000000  1
  C  C6  1  0.00000000  0.65556004  0.75000000  1
  C  C7  1  0.34443996  0.34443996  0.75000000  1
  C  C8  1  1.00000000  0.34443996  0.25000000  1
  C  C9  1  0.65556004  0.00000000  0.75000000  1
  C  C10  1  0.34443996  0.00000000  0.25000000  1
  C  C11  1  0.65556004  0.65556004  0.25000000  1
  Ni  Ni12  1  0.14185725  0.35935772  0.61756163  1
  Ni  Ni13  1  0.78249953  0.14185725  0.38243837  1
  Ni  Ni14  1  0.21750047  0.35935772  0.11756163  1
  Ni  Ni15  1  0.21750047  0.85814275  0.61756163  1
  Ni  Ni16  1  0.85814275  0.21750047  0.88243837  1
  Ni  Ni17  1  0.14185725  0.78249953  0.11756163  1
  Ni  Ni18  1  0.64064228  0.85814275  0.11756163  1
  Ni  Ni19  1  0.35935772  0.14185725  0.88243837  1
  Ni  Ni20  1  0.85814275  0.64064228  0.38243837  1
  Ni  Ni21  1  0.78249953  0.64064228  0.88243837  1
  Ni  Ni22  1  0.35935772  0.21750047  0.38243837  1
  Ni  Ni23  1  0.64064228  0.78249953  0.61756163  1
  Cu  Cu24  1  0.07621865  0.39164658  0.55780053  1
  Cu  Cu25  1  0.90451897  0.58781073  0.32059718  1
  Cu  Cu26  1  0.90451897  0.31670824  0.82059718  1
  Cu  Cu27  1  0.31670824  0.41218927  0.17940282  1
  Cu  Cu28  1  0.92378135  0.60835342  0.44219947  1
  Cu  Cu29  1  0.09548103  0.68329176  0.17940282  1
  Cu  Cu30  1  0.07621865  0.68457207  0.05780053  1
  Cu  Cu31  1  0.68329176  0.09548103  0.32059718  1
  Cu  Cu32  1  0.31670824  0.90451897  0.67940282  1
  Cu  Cu33  1  0.60835342  0.92378135  0.05780053  1
  Cu  Cu34  1  0.58781073  0.90451897  0.17940282  1
  Cu  Cu35  1  0.09548103  0.41218927  0.67940282  1
  Cu  Cu36  1  0.41218927  0.31670824  0.32059718  1
  Cu  Cu37  1  0.31542793  0.39164658  0.05780053  1
  Cu  Cu38  1  0.39164658  0.31542793  0.44219947  1
  Cu  Cu39  1  0.98697806  0.25471784  0.38020765  1
  Cu  Cu40  1  0.26773978  0.25471784  0.88020765  1
  Cu  Cu41  1  0.74528216  0.73226022  0.38020765  1
  Cu  Cu42  1  0.68457207  0.07621865  0.44219947  1
  Cu  Cu43  1  0.68329176  0.58781073  0.82059718  1
  Cu  Cu44  1  0.25471784  0.98697806  0.11979235  1
  Cu  Cu45  1  0.01302194  0.74528216  0.61979235  1
  Cu  Cu46  1  0.92378135  0.31542793  0.94219947  1
  Cu  Cu47  1  0.25471784  0.26773978  0.61979235  1
  Cu  Cu48  1  0.68457207  0.60835342  0.94219947  1
  Cu  Cu49  1  0.39164658  0.07621865  0.94219947  1
  Cu  Cu50  1  0.74528216  0.01302194  0.88020765  1
  Cu  Cu51  1  0.73226022  0.74528216  0.11979235  1
  Cu  Cu52  1  0.60835342  0.68457207  0.55780053  1
  Cu  Cu53  1  0.01302194  0.26773978  0.11979235  1
  Cu  Cu54  1  0.58781073  0.68329176  0.67940282  1
  Cu  Cu55  1  0.73226022  0.98697806  0.61979235  1
  Cu  Cu56  1  0.98697806  0.73226022  0.88020765  1
  Cu  Cu57  1  0.26773978  0.01302194  0.38020765  1
  Cu  Cu58  1  0.31542793  0.92378135  0.55780053  1
  Cu  Cu59  1  0.41218927  0.09548103  0.82059718  1
  C  C60  1  0.33333300  0.66666700  0.79767635  1
  C  C61  1  0.66666700  0.33333300  0.70232365  1
  C  C62  1  0.33333300  0.66666700  0.29767635  1
  C  C63  1  0.66666700  0.33333300  0.20232365  1
  C  C64  1  0.00000000  0.00000000  0.25000000  1
  C  C65  1  0.00000000  0.00000000  0.75000000  1
