# generated using pymatgen
data_Cu5(Ni2C3)2
_symmetry_space_group_name_H-M   'P 1'
_cell_length_a   7.81374500
_cell_length_b   5.07103400
_cell_length_c   20.93472082
_cell_angle_alpha   83.55893277
_cell_angle_beta   90.00000000
_cell_angle_gamma   90.00000000
_symmetry_Int_Tables_number   1
_chemical_formula_structural   Cu5(Ni2C3)2
_chemical_formula_sum   'Cu20 Ni16 C24'
_cell_volume   824.27641532
_cell_formula_units_Z   4
loop_
 _symmetry_equiv_pos_site_id
 _symmetry_equiv_pos_as_xyz
  1  'x, y, z'
loop_
 _atom_site_type_symbol
 _atom_site_label
 _atom_site_symmetry_multiplicity
 _atom_site_fract_x
 _atom_site_fract_y
 _atom_site_fract_z
 _atom_site_occupancy
  Ni  Ni0  1  0.81166400  0.75114800  0.74421000  1
  Ni  Ni1  1  0.75564200  0.03151400  0.14934100  1
  Ni  Ni2  1  0.75070800  0.32771800  0.45391100  1
  Ni  Ni3  1  0.21438400  0.52006700  0.15651900  1
  Ni  Ni4  1  0.25070800  0.67228200  0.04608900  1
  Ni  Ni5  1  0.25564200  0.96848600  0.35065900  1
  Ni  Ni6  1  0.24929200  0.67228200  0.54608900  1
  Ni  Ni7  1  0.31166400  0.24885200  0.75579000  1
  Ni  Ni8  1  0.18833600  0.24885200  0.25579000  1
  Ni  Ni9  1  0.78561600  0.47993300  0.84348100  1
  Ni  Ni10  1  0.74435800  0.03151400  0.64934100  1
  Ni  Ni11  1  0.71438400  0.47993300  0.34348100  1
  Ni  Ni12  1  0.68833600  0.75114800  0.24421000  1
  Ni  Ni13  1  0.24435800  0.96848600  0.85065900  1
  Ni  Ni14  1  0.28561600  0.52006700  0.65651900  1
  Ni  Ni15  1  0.74929200  0.32771800  0.95391100  1
  Cu  Cu16  1  0.29481500  0.06215000  0.28712100  1
  Cu  Cu17  1  0.20518500  0.06215000  0.78712100  1
  Cu  Cu18  1  0.14860900  0.71738600  0.17141600  1
  Cu  Cu19  1  0.25705700  0.29172800  0.19505100  1
  Cu  Cu20  1  0.56277800  0.65423000  0.22370500  1
  Cu  Cu21  1  0.64860900  0.28261400  0.32858400  1
  Cu  Cu22  1  0.85139100  0.28261400  0.82858400  1
  Cu  Cu23  1  0.35139100  0.71738600  0.67141600  1
  Cu  Cu24  1  0.75705700  0.70827200  0.30494900  1
  Cu  Cu25  1  0.93722200  0.65423000  0.72370500  1
  Cu  Cu26  1  0.26892600  0.47017100  0.09669700  1
  Cu  Cu27  1  0.76892600  0.52982900  0.40330300  1
  Cu  Cu28  1  0.73107400  0.52982900  0.90330300  1
  Cu  Cu29  1  0.06277800  0.34577000  0.27629500  1
  Cu  Cu30  1  0.74294300  0.70827200  0.80494900  1
  Cu  Cu31  1  0.43722200  0.34577000  0.77629500  1
  Cu  Cu32  1  0.24294300  0.29172800  0.69505100  1
  Cu  Cu33  1  0.70518500  0.93785000  0.71287900  1
  Cu  Cu34  1  0.23107400  0.47017100  0.59669700  1
  Cu  Cu35  1  0.79481500  0.93785000  0.21287900  1
  C  C36  1  0.10249100  0.84706300  0.35587200  1
  C  C37  1  0.25824300  0.16348300  0.38944200  1
  C  C38  1  0.74175700  0.83651700  0.61055800  1
  C  C39  1  0.34233100  0.88935000  0.05569800  1
  C  C40  1  0.62138700  0.20972400  0.63038700  1
  C  C41  1  0.68953300  0.42812400  0.00633000  1
  C  C42  1  0.87861300  0.20972400  0.13038700  1
  C  C43  1  0.08549100  0.74294900  0.03610600  1
  C  C44  1  0.65766900  0.11065000  0.94430200  1
  C  C45  1  0.24175700  0.16348300  0.88944200  1
  C  C46  1  0.81046700  0.42812400  0.50633000  1
  C  C47  1  0.75824300  0.83651700  0.11055800  1
  C  C48  1  0.37861300  0.79027600  0.36961300  1
  C  C49  1  0.60249100  0.15293700  0.14412800  1
  C  C50  1  0.31046700  0.57187600  0.99367000  1
  C  C51  1  0.89750900  0.15293700  0.64412800  1
  C  C52  1  0.58549100  0.25705100  0.46389400  1
  C  C53  1  0.18953300  0.57187600  0.49367000  1
  C  C54  1  0.39750900  0.84706300  0.85587200  1
  C  C55  1  0.12138700  0.79027600  0.86961300  1
  C  C56  1  0.91450900  0.25705100  0.96389400  1
  C  C57  1  0.41450900  0.74294900  0.53610600  1
  C  C58  1  0.84233100  0.11065000  0.44430200  1
  C  C59  1  0.15766900  0.88935000  0.55569800  1
