# generated using pymatgen
data_CuNiC4
_symmetry_space_group_name_H-M   'P 1'
_cell_length_a   9.46431511
_cell_length_b   9.46431511
_cell_length_c   9.46431496
_cell_angle_alpha   94.60599657
_cell_angle_beta   94.60599657
_cell_angle_gamma   94.60599361
_symmetry_Int_Tables_number   1
_chemical_formula_structural   CuNiC4
_chemical_formula_sum   'Cu6 Ni6 C24'
_cell_volume   839.06586444
_cell_formula_units_Z   6
loop_
 _symmetry_equiv_pos_site_id
 _symmetry_equiv_pos_as_xyz
  1  'x, y, z'
loop_
 _atom_site_type_symbol
 _atom_site_label
 _atom_site_symmetry_multiplicity
 _atom_site_fract_x
 _atom_site_fract_y
 _atom_site_fract_z
 _atom_site_occupancy
  Ni  Ni0  1  0.12317600  0.66680700  0.89946800  1
  Ni  Ni1  1  0.89946800  0.12317600  0.66680700  1
  Ni  Ni2  1  0.87682400  0.33319300  0.10053200  1
  Ni  Ni3  1  0.66680700  0.89946800  0.12317600  1
  Ni  Ni4  1  0.33319300  0.10053200  0.87682400  1
  Ni  Ni5  1  0.10053200  0.87682400  0.33319300  1
  Cu  Cu6  1  0.87864800  0.11108900  0.33353900  1
  Cu  Cu7  1  0.88891100  0.66646100  0.12135200  1
  Cu  Cu8  1  0.33353900  0.87864800  0.11108900  1
  Cu  Cu9  1  0.66646100  0.12135200  0.88891100  1
  Cu  Cu10  1  0.11108900  0.33353900  0.87864800  1
  Cu  Cu11  1  0.12135200  0.88891100  0.66646100  1
  C  C12  1  0.48957100  0.85649500  0.15322600  1
  C  C13  1  0.15322600  0.48957100  0.85649500  1
  C  C14  1  0.98681000  0.73299200  0.25149100  1
  C  C15  1  0.89403900  0.24721800  0.25651100  1
  C  C16  1  0.32318400  0.01558300  0.03431900  1
  C  C17  1  0.10596100  0.75278200  0.74348900  1
  C  C18  1  0.26700800  0.74850900  0.01319000  1
  C  C19  1  0.25149100  0.98681000  0.73299200  1
  C  C20  1  0.03431900  0.32318400  0.01558300  1
  C  C21  1  0.01558300  0.03431900  0.32318400  1
  C  C22  1  0.84677400  0.51042900  0.14350500  1
  C  C23  1  0.98441700  0.96568100  0.67681600  1
  C  C24  1  0.74348900  0.10596100  0.75278200  1
  C  C25  1  0.14350500  0.84677400  0.51042900  1
  C  C26  1  0.01319000  0.26700800  0.74850900  1
  C  C27  1  0.25651100  0.89403900  0.24721800  1
  C  C28  1  0.74850900  0.01319000  0.26700800  1
  C  C29  1  0.24721800  0.25651100  0.89403900  1
  C  C30  1  0.96568100  0.67681600  0.98441700  1
  C  C31  1  0.67681600  0.98441700  0.96568100  1
  C  C32  1  0.73299200  0.25149100  0.98681000  1
  C  C33  1  0.85649500  0.15322600  0.48957100  1
  C  C34  1  0.51042900  0.14350500  0.84677400  1
  C  C35  1  0.75278200  0.74348900  0.10596100  1
