# generated using pymatgen
data_CuNi2C9
_symmetry_space_group_name_H-M   'P 1'
_cell_length_a   12.32220600
_cell_length_b   12.32220600
_cell_length_c   5.67074700
_cell_angle_alpha   90.00000000
_cell_angle_beta   90.00000000
_cell_angle_gamma   90.00000000
_symmetry_Int_Tables_number   1
_chemical_formula_structural   CuNi2C9
_chemical_formula_sum   'Cu4 Ni8 C36'
_cell_volume   861.02785527
_cell_formula_units_Z   4
loop_
 _symmetry_equiv_pos_site_id
 _symmetry_equiv_pos_as_xyz
  1  'x, y, z'
loop_
 _atom_site_type_symbol
 _atom_site_label
 _atom_site_symmetry_multiplicity
 _atom_site_fract_x
 _atom_site_fract_y
 _atom_site_fract_z
 _atom_site_occupancy
  Ni  Ni0  1  0.05537400  0.25015100  0.48260700  1
  Ni  Ni1  1  0.75015100  0.44462600  0.48260700  1
  Ni  Ni2  1  0.44462600  0.24984900  0.51739300  1
  Ni  Ni3  1  0.94462600  0.74984900  0.48260700  1
  Ni  Ni4  1  0.24984900  0.55537400  0.48260700  1
  Ni  Ni5  1  0.25015100  0.94462600  0.51739300  1
  Ni  Ni6  1  0.55537400  0.75015100  0.51739300  1
  Ni  Ni7  1  0.74984900  0.05537400  0.51739300  1
  Cu  Cu8  1  0.50000000  0.00000000  0.94722400  1
  Cu  Cu9  1  0.00000000  0.00000000  0.00000000  1
  Cu  Cu10  1  0.00000000  0.50000000  0.05277600  1
  Cu  Cu11  1  0.50000000  0.50000000  0.00000000  1
  C  C12  1  0.75912200  0.83771700  0.02449000  1
  C  C13  1  0.66228300  0.25912200  0.02449000  1
  C  C14  1  0.83771700  0.24087800  0.97551000  1
  C  C15  1  0.25912200  0.33771700  0.97551000  1
  C  C16  1  0.74087800  0.66228300  0.97551000  1
  C  C17  1  0.24087800  0.16228300  0.02449000  1
  C  C18  1  0.33771700  0.74087800  0.02449000  1
  C  C19  1  0.16228300  0.75912200  0.97551000  1
  C  C20  1  0.50000000  0.00000000  0.43848200  1
  C  C21  1  0.00000000  0.00000000  0.50000000  1
  C  C22  1  0.00000000  0.50000000  0.56151800  1
  C  C23  1  0.50000000  0.50000000  0.50000000  1
  C  C24  1  0.86751200  0.86044700  0.92818800  1
  C  C25  1  0.13955300  0.86751200  0.07181200  1
  C  C26  1  0.38704600  0.83001500  0.88856400  1
  C  C27  1  0.74945900  0.64719600  0.71893000  1
  C  C28  1  0.16998500  0.38704600  0.11143600  1
  C  C29  1  0.11295400  0.66998500  0.11143600  1
  C  C30  1  0.63955300  0.36751200  0.92818800  1
  C  C31  1  0.64719600  0.25054100  0.28107000  1
  C  C32  1  0.14719600  0.75054100  0.71893000  1
  C  C33  1  0.24945900  0.14719600  0.28107000  1
  C  C34  1  0.36751200  0.36044700  0.07181200  1
  C  C35  1  0.33001500  0.11295400  0.88856400  1
  C  C36  1  0.63248800  0.63955300  0.07181200  1
  C  C37  1  0.13248800  0.13955300  0.92818800  1
  C  C38  1  0.35280400  0.74945900  0.28107000  1
  C  C39  1  0.36044700  0.63248800  0.92818800  1
  C  C40  1  0.86044700  0.13248800  0.07181200  1
  C  C41  1  0.75054100  0.85280400  0.28107000  1
  C  C42  1  0.85280400  0.24945900  0.71893000  1
  C  C43  1  0.61295400  0.16998500  0.88856400  1
  C  C44  1  0.88704600  0.33001500  0.11143600  1
  C  C45  1  0.25054100  0.35280400  0.71893000  1
  C  C46  1  0.66998500  0.88704600  0.88856400  1
  C  C47  1  0.83001500  0.61295400  0.11143600  1
