# generated using pymatgen
data_CuNi2C9
_symmetry_space_group_name_H-M   'P 1'
_cell_length_a   5.34574600
_cell_length_b   6.46303300
_cell_length_c   11.46913954
_cell_angle_alpha   84.10333450
_cell_angle_beta   90.00000000
_cell_angle_gamma   90.00000000
_symmetry_Int_Tables_number   1
_chemical_formula_structural   CuNi2C9
_chemical_formula_sum   'Cu2 Ni4 C18'
_cell_volume   394.15903745
_cell_formula_units_Z   2
loop_
 _symmetry_equiv_pos_site_id
 _symmetry_equiv_pos_as_xyz
  1  'x, y, z'
loop_
 _atom_site_type_symbol
 _atom_site_label
 _atom_site_symmetry_multiplicity
 _atom_site_fract_x
 _atom_site_fract_y
 _atom_site_fract_z
 _atom_site_occupancy
  Ni  Ni0  1  0.25000000  0.90647800  0.70590300  1
  Ni  Ni1  1  0.25000000  0.65871300  0.07583100  1
  Ni  Ni2  1  0.75000000  0.34128700  0.92416900  1
  Ni  Ni3  1  0.75000000  0.09352200  0.29409700  1
  Cu  Cu4  1  0.25000000  0.65275000  0.41325200  1
  Cu  Cu5  1  0.75000000  0.34725000  0.58674800  1
  C  C6  1  0.75000000  0.79013400  0.57205000  1
  C  C7  1  0.75000000  0.62238900  0.22639600  1
  C  C8  1  0.25000000  0.37761100  0.77360400  1
  C  C9  1  0.25000000  0.20986600  0.42795000  1
  C  C10  1  0.75000000  0.85039400  0.91534400  1
  C  C11  1  0.25000000  0.14960600  0.08465600  1
  C  C12  1  0.47282800  0.29372700  0.73590600  1
  C  C13  1  0.53042400  0.67528400  0.56380800  1
  C  C14  1  0.46957600  0.32471600  0.43619200  1
  C  C15  1  0.75000000  0.47586200  0.14654200  1
  C  C16  1  0.96957600  0.67528400  0.56380800  1
  C  C17  1  0.03042400  0.32471600  0.43619200  1
  C  C18  1  0.25000000  0.52413800  0.85345800  1
  C  C19  1  0.75000000  0.99299700  0.59480000  1
  C  C20  1  0.02717200  0.29372700  0.73590600  1
  C  C21  1  0.25000000  0.00700300  0.40520000  1
  C  C22  1  0.97282800  0.70627300  0.26409400  1
  C  C23  1  0.52717200  0.70627300  0.26409400  1
