# generated using pymatgen
data_Cu(NiC3)3
_symmetry_space_group_name_H-M   'P 1'
_cell_length_a   5.76515552
_cell_length_b   5.76515552
_cell_length_c   14.06423000
_cell_angle_alpha   90.00000000
_cell_angle_beta   90.00000000
_cell_angle_gamma   119.99999451
_symmetry_Int_Tables_number   1
_chemical_formula_structural   Cu(NiC3)3
_chemical_formula_sum   'Cu2 Ni6 C18'
_cell_volume   404.82625460
_cell_formula_units_Z   2
loop_
 _symmetry_equiv_pos_site_id
 _symmetry_equiv_pos_as_xyz
  1  'x, y, z'
loop_
 _atom_site_type_symbol
 _atom_site_label
 _atom_site_symmetry_multiplicity
 _atom_site_fract_x
 _atom_site_fract_y
 _atom_site_fract_z
 _atom_site_occupancy
  Ni  Ni0  1  0.66666700  0.33333300  0.90837800  1
  Ni  Ni1  1  0.33333300  0.66666700  0.09162200  1
  Ni  Ni2  1  0.66666700  0.33333300  0.59162200  1
  Ni  Ni3  1  0.33333300  0.66666700  0.40837800  1
  Ni  Ni4  1  0.00000000  0.00000000  0.75000000  1
  Ni  Ni5  1  0.00000000  0.00000000  0.25000000  1
  Cu  Cu6  1  0.00000000  0.00000000  0.00000000  1
  Cu  Cu7  1  0.00000000  0.00000000  0.50000000  1
  C  C8  1  0.66666700  0.33333300  0.36874700  1
  C  C9  1  0.66666700  0.33333300  0.13125300  1
  C  C10  1  0.33333300  0.66666700  0.86874700  1
  C  C11  1  0.33333300  0.66666700  0.63125300  1
  C  C12  1  0.17745900  0.35491900  0.59476800  1
  C  C13  1  0.82254100  0.17745900  0.09476800  1
  C  C14  1  0.64508100  0.82254100  0.90523200  1
  C  C15  1  0.82254100  0.64508100  0.09476800  1
  C  C16  1  0.17745900  0.82254100  0.90523200  1
  C  C17  1  0.82254100  0.64508100  0.40523200  1
  C  C18  1  0.82254100  0.17745900  0.40523200  1
  C  C19  1  0.17745900  0.82254100  0.59476800  1
  C  C20  1  0.64508100  0.82254100  0.59476800  1
  C  C21  1  0.35491900  0.17745900  0.09476800  1
  C  C22  1  0.66666700  0.33333300  0.25000000  1
  C  C23  1  0.17745900  0.35491900  0.90523200  1
  C  C24  1  0.35491900  0.17745900  0.40523200  1
  C  C25  1  0.33333300  0.66666700  0.75000000  1
