# generated using pymatgen
data_Cu4NiC3
_symmetry_space_group_name_H-M   'P 1'
_cell_length_a   5.40911100
_cell_length_b   5.42051900
_cell_length_c   13.82632900
_cell_angle_alpha   90.00000000
_cell_angle_beta   90.00000000
_cell_angle_gamma   90.00000000
_symmetry_Int_Tables_number   1
_chemical_formula_structural   Cu4NiC3
_chemical_formula_sum   'Cu16 Ni4 C12'
_cell_volume   405.39057875
_cell_formula_units_Z   4
loop_
 _symmetry_equiv_pos_site_id
 _symmetry_equiv_pos_as_xyz
  1  'x, y, z'
loop_
 _atom_site_type_symbol
 _atom_site_label
 _atom_site_symmetry_multiplicity
 _atom_site_fract_x
 _atom_site_fract_y
 _atom_site_fract_z
 _atom_site_occupancy
  C  C0  1  0.00000000  0.75000000  0.40075300  1
  C  C1  1  0.00000000  0.25000000  0.59924700  1
  C  C2  1  0.50000000  0.25000000  0.40075300  1
  C  C3  1  0.50000000  0.75000000  0.59924700  1
  C  C4  1  0.50000000  0.25000000  0.09399900  1
  C  C5  1  0.00000000  0.25000000  0.90600100  1
  C  C6  1  0.00000000  0.75000000  0.09399900  1
  C  C7  1  0.50000000  0.75000000  0.90600100  1
  Ni  Ni8  1  0.00000000  0.25000000  0.25692500  1
  Ni  Ni9  1  0.50000000  0.75000000  0.25692500  1
  Ni  Ni10  1  0.00000000  0.75000000  0.74307500  1
  Ni  Ni11  1  0.50000000  0.25000000  0.74307500  1
  Cu  Cu12  1  0.64918900  0.10405200  0.69875800  1
  Cu  Cu13  1  0.14918900  0.89594800  0.69875800  1
  Cu  Cu14  1  0.75000000  0.49770600  0.00000000  1
  Cu  Cu15  1  0.14918900  0.39594800  0.30124200  1
  Cu  Cu16  1  0.35081100  0.89594800  0.30124200  1
  Cu  Cu17  1  0.85081100  0.10405200  0.30124200  1
  Cu  Cu18  1  0.35081100  0.39594800  0.69875800  1
  Cu  Cu19  1  0.25000000  0.00229400  0.00000000  1
  Cu  Cu20  1  0.25000000  0.50229400  0.00000000  1
  Cu  Cu21  1  0.00000000  0.25000000  0.16076600  1
  Cu  Cu22  1  0.64918900  0.60405200  0.30124200  1
  Cu  Cu23  1  0.50000000  0.25000000  0.83923400  1
  Cu  Cu24  1  0.00000000  0.75000000  0.83923400  1
  Cu  Cu25  1  0.85081100  0.60405200  0.69875800  1
  Cu  Cu26  1  0.50000000  0.75000000  0.16076600  1
  Cu  Cu27  1  0.75000000  0.99770600  0.00000000  1
  C  C28  1  0.25000000  0.51326500  0.50000000  1
  C  C29  1  0.25000000  0.01326500  0.50000000  1
  C  C30  1  0.75000000  0.98673500  0.50000000  1
  C  C31  1  0.75000000  0.48673500  0.50000000  1
