# generated using pymatgen
data_Cu2Ni2C
_symmetry_space_group_name_H-M   'P 1'
_cell_length_a   8.39837937
_cell_length_b   8.39837937
_cell_length_c   8.39837937
_cell_angle_alpha   60.00000000
_cell_angle_beta   60.00000000
_cell_angle_gamma   60.00000000
_symmetry_Int_Tables_number   1
_chemical_formula_structural   Cu2Ni2C
_chemical_formula_sum   'Cu8 Ni8 C4'
_cell_volume   418.86248721
_cell_formula_units_Z   4
loop_
 _symmetry_equiv_pos_site_id
 _symmetry_equiv_pos_as_xyz
  1  'x, y, z'
loop_
 _atom_site_type_symbol
 _atom_site_label
 _atom_site_symmetry_multiplicity
 _atom_site_fract_x
 _atom_site_fract_y
 _atom_site_fract_z
 _atom_site_occupancy
  C  C0  1  0.25000000  0.25000000  0.25000000  1
  C  C1  1  0.00000000  0.00000000  0.00000000  1
  C  C2  1  0.50000000  0.50000000  0.50000000  1
  C  C3  1  0.75000000  0.75000000  0.75000000  1
  Ni  Ni4  1  0.73160900  0.42279700  0.42279700  1
  Ni  Ni5  1  0.51839100  0.82720300  0.82720300  1
  Ni  Ni6  1  0.82720300  0.82720300  0.51839100  1
  Ni  Ni7  1  0.82720300  0.51839100  0.82720300  1
  Ni  Ni8  1  0.42279700  0.42279700  0.73160900  1
  Ni  Ni9  1  0.82720300  0.82720300  0.82720300  1
  Ni  Ni10  1  0.42279700  0.42279700  0.42279700  1
  Ni  Ni11  1  0.42279700  0.73160900  0.42279700  1
  Cu  Cu12  1  0.88376700  0.88376700  0.34870000  1
  Cu  Cu13  1  0.88376700  0.88376700  0.88376700  1
  Cu  Cu14  1  0.36623300  0.90130000  0.36623300  1
  Cu  Cu15  1  0.36623300  0.36623300  0.36623300  1
  Cu  Cu16  1  0.88376700  0.34870000  0.88376700  1
  Cu  Cu17  1  0.90130000  0.36623300  0.36623300  1
  Cu  Cu18  1  0.36623300  0.36623300  0.90130000  1
  Cu  Cu19  1  0.34870000  0.88376700  0.88376700  1
