# generated using pymatgen
data_Cu4NiC4
_symmetry_space_group_name_H-M   'P 1'
_cell_length_a   10.39943500
_cell_length_b   13.91837200
_cell_length_c   18.88824700
_cell_angle_alpha   90.00000000
_cell_angle_beta   90.00000000
_cell_angle_gamma   90.00000000
_symmetry_Int_Tables_number   1
_chemical_formula_structural   Cu4NiC4
_chemical_formula_sum   'Cu32 Ni8 C32'
_cell_volume   2733.94540610
_cell_formula_units_Z   8
loop_
 _symmetry_equiv_pos_site_id
 _symmetry_equiv_pos_as_xyz
  1  'x, y, z'
loop_
 _atom_site_type_symbol
 _atom_site_label
 _atom_site_symmetry_multiplicity
 _atom_site_fract_x
 _atom_site_fract_y
 _atom_site_fract_z
 _atom_site_occupancy
  Ni  Ni0  1  0.02243700  0.80335300  0.67662200  1
  Ni  Ni1  1  0.47756300  0.80335300  0.17662200  1
  Ni  Ni2  1  0.97756300  0.30335300  0.32337800  1
  Ni  Ni3  1  0.00773200  0.48765600  0.99806700  1
  Ni  Ni4  1  0.49226800  0.48765600  0.49806700  1
  Ni  Ni5  1  0.52243700  0.30335300  0.82337800  1
  Ni  Ni6  1  0.50773200  0.98765600  0.50193300  1
  Ni  Ni7  1  0.99226800  0.98765600  0.00193300  1
  Cu  Cu8  1  0.38540400  0.59787200  0.82322800  1
  Cu  Cu9  1  0.20323100  0.75455200  0.41512800  1
  Cu  Cu10  1  0.83488400  0.64704000  0.29975200  1
  Cu  Cu11  1  0.15045000  0.35608700  0.71592200  1
  Cu  Cu12  1  0.05685400  0.16169600  0.55746400  1
  Cu  Cu13  1  0.95838700  0.87179400  0.42727900  1
  Cu  Cu14  1  0.94314600  0.66169600  0.44253600  1
  Cu  Cu15  1  0.45272500  0.73432600  0.71019700  1
  Cu  Cu16  1  0.54161300  0.87179400  0.92727900  1
  Cu  Cu17  1  0.04727500  0.73432600  0.21019700  1
  Cu  Cu18  1  0.55685400  0.66169600  0.94253600  1
  Cu  Cu19  1  0.16511600  0.14704000  0.70024800  1
  Cu  Cu20  1  0.63694800  0.39073100  0.19732300  1
  Cu  Cu21  1  0.45838700  0.37179400  0.07272100  1
  Cu  Cu22  1  0.04161300  0.37179400  0.57272100  1
  Cu  Cu23  1  0.29676900  0.75455200  0.91512800  1
  Cu  Cu24  1  0.70323100  0.25455200  0.08487200  1
  Cu  Cu25  1  0.34955000  0.35608700  0.21592200  1
  Cu  Cu26  1  0.66511600  0.64704000  0.79975200  1
  Cu  Cu27  1  0.61459600  0.09787200  0.17677200  1
  Cu  Cu28  1  0.13694800  0.89073100  0.30267700  1
  Cu  Cu29  1  0.65045000  0.85608700  0.78407800  1
  Cu  Cu30  1  0.33488400  0.14704000  0.20024800  1
  Cu  Cu31  1  0.11459600  0.59787200  0.32322800  1
  Cu  Cu32  1  0.95272500  0.23432600  0.78980300  1
  Cu  Cu33  1  0.44314600  0.16169600  0.05746400  1
  Cu  Cu34  1  0.84955000  0.85608700  0.28407800  1
  Cu  Cu35  1  0.54727500  0.23432600  0.28980300  1
  Cu  Cu36  1  0.36305200  0.89073100  0.80267700  1
  Cu  Cu37  1  0.79676900  0.25455200  0.58487200  1
  Cu  Cu38  1  0.86305200  0.39073100  0.69732300  1
  Cu  Cu39  1  0.88540400  0.09787200  0.67677200  1
  C  C40  1  0.52321400  0.81875800  0.49909500  1
  C  C41  1  0.81750400  0.53716800  0.05808400  1
  C  C42  1  0.31530600  0.88773300  0.11466700  1
  C  C43  1  0.17235400  0.31210100  0.38737600  1
  C  C44  1  0.18249600  0.03716800  0.94191600  1
  C  C45  1  0.18853600  0.55681500  0.05592400  1
  C  C46  1  0.18469400  0.88773300  0.61466700  1
  C  C47  1  0.92066700  0.14077400  0.30722700  1
  C  C48  1  0.50529400  0.04640500  0.61971300  1
  C  C49  1  0.50368300  0.87575900  0.28956400  1
  C  C50  1  0.57933300  0.14077400  0.80722700  1
  C  C51  1  0.31146400  0.55681500  0.55592400  1
  C  C52  1  0.00368300  0.37575900  0.21043600  1
  C  C53  1  0.68469400  0.38773300  0.88533300  1
  C  C54  1  0.82764600  0.81210100  0.61262400  1
  C  C55  1  0.81530600  0.38773300  0.38533300  1
  C  C56  1  0.00529400  0.54640500  0.88028700  1
  C  C57  1  0.07933300  0.64077400  0.69277300  1
  C  C58  1  0.67235400  0.81210100  0.11262400  1
  C  C59  1  0.81146400  0.05681500  0.94407600  1
  C  C60  1  0.31750400  0.03716800  0.44191600  1
  C  C61  1  0.42066700  0.64077400  0.19277300  1
  C  C62  1  0.97678600  0.81875800  0.99909500  1
  C  C63  1  0.47678600  0.31875800  0.50090500  1
  C  C64  1  0.68249600  0.53716800  0.55808400  1
  C  C65  1  0.02321400  0.31875800  0.00090500  1
  C  C66  1  0.99631700  0.87575900  0.78956400  1
  C  C67  1  0.49470600  0.54640500  0.38028700  1
  C  C68  1  0.49631700  0.37575900  0.71043600  1
  C  C69  1  0.68853600  0.05681500  0.44407600  1
  C  C70  1  0.99470600  0.04640500  0.11971300  1
  C  C71  1  0.32764600  0.31210100  0.88737600  1
