# generated using pymatgen
data_Cu6(NiC3)7
_symmetry_space_group_name_H-M   'P 1'
_cell_length_a   5.85715523
_cell_length_b   5.85715523
_cell_length_c   35.67451700
_cell_angle_alpha   90.00000000
_cell_angle_beta   90.00000000
_cell_angle_gamma   119.99999129
_symmetry_Int_Tables_number   1
_chemical_formula_structural   Cu6(NiC3)7
_chemical_formula_sum   'Cu12 Ni14 C42'
_cell_volume   1059.89352697
_cell_formula_units_Z   2
loop_
 _symmetry_equiv_pos_site_id
 _symmetry_equiv_pos_as_xyz
  1  'x, y, z'
loop_
 _atom_site_type_symbol
 _atom_site_label
 _atom_site_symmetry_multiplicity
 _atom_site_fract_x
 _atom_site_fract_y
 _atom_site_fract_z
 _atom_site_occupancy
  Ni  Ni0  1  0.00000000  0.00000000  0.05361800  1
  Ni  Ni1  1  0.33333300  0.66666700  0.89255300  1
  Ni  Ni2  1  0.33333300  0.66666700  0.32765000  1
  Ni  Ni3  1  0.00000000  0.00000000  0.94638200  1
  Ni  Ni4  1  0.00000000  0.00000000  0.44638200  1
  Ni  Ni5  1  0.66666700  0.33333300  0.39255300  1
  Ni  Ni6  1  0.33333300  0.66666700  0.17235000  1
  Ni  Ni7  1  0.00000000  0.00000000  0.75000000  1
  Ni  Ni8  1  0.33333300  0.66666700  0.60744700  1
  Ni  Ni9  1  0.66666700  0.33333300  0.10744700  1
  Ni  Ni10  1  0.00000000  0.00000000  0.55361800  1
  Ni  Ni11  1  0.66666700  0.33333300  0.82765000  1
  Ni  Ni12  1  0.00000000  0.00000000  0.25000000  1
  Ni  Ni13  1  0.66666700  0.33333300  0.67235000  1
  Cu  Cu14  1  0.00000000  0.00000000  0.85164300  1
  Cu  Cu15  1  0.33333300  0.66666700  0.50552000  1
  Cu  Cu16  1  0.66666700  0.33333300  0.49448000  1
  Cu  Cu17  1  0.66666700  0.33333300  0.92126800  1
  Cu  Cu18  1  0.33333300  0.66666700  0.99448000  1
  Cu  Cu19  1  0.33333300  0.66666700  0.42126800  1
  Cu  Cu20  1  0.66666700  0.33333300  0.00552000  1
  Cu  Cu21  1  0.66666700  0.33333300  0.57873200  1
  Cu  Cu22  1  0.00000000  0.00000000  0.35164300  1
  Cu  Cu23  1  0.00000000  0.00000000  0.14835700  1
  Cu  Cu24  1  0.33333300  0.66666700  0.07873200  1
  Cu  Cu25  1  0.00000000  0.00000000  0.64835700  1
  C  C26  1  0.33333300  0.66666700  0.79879400  1
  C  C27  1  0.66666700  0.33333300  0.29879400  1
  C  C28  1  0.33333300  0.66666700  0.70120600  1
  C  C29  1  0.66666700  0.33333300  0.20120600  1
  C  C30  1  0.33221300  0.16610700  0.88758200  1
  C  C31  1  0.16834100  0.33668300  0.68494900  1
  C  C32  1  0.33668300  0.16834100  0.18494900  1
  C  C33  1  0.16610700  0.33221300  0.11241800  1
  C  C34  1  0.33333300  0.66666700  0.75000000  1
  C  C35  1  0.99028100  0.49514000  0.53806200  1
  C  C36  1  0.66778700  0.83389300  0.38758200  1
  C  C37  1  0.66331700  0.83165900  0.81505100  1
  C  C38  1  0.00971900  0.50486000  0.03806200  1
  C  C39  1  0.16834100  0.33668300  0.81505100  1
  C  C40  1  0.16834100  0.83165900  0.81505100  1
  C  C41  1  0.50486000  0.00971900  0.96193800  1
  C  C42  1  0.83165900  0.16834100  0.31505100  1
  C  C43  1  0.16610700  0.83389300  0.38758200  1
  C  C44  1  0.00971900  0.50486000  0.46193800  1
  C  C45  1  0.66666700  0.33333300  0.25000000  1
  C  C46  1  0.83389300  0.66778700  0.88758200  1
  C  C47  1  0.16834100  0.83165900  0.68494900  1
  C  C48  1  0.50486000  0.49514000  0.96193800  1
  C  C49  1  0.83389300  0.16610700  0.88758200  1
  C  C50  1  0.16610700  0.33221300  0.38758200  1
  C  C51  1  0.50486000  0.49514000  0.53806200  1
  C  C52  1  0.66331700  0.83165900  0.68494900  1
  C  C53  1  0.33668300  0.16834100  0.31505100  1
  C  C54  1  0.83165900  0.16834100  0.18494900  1
  C  C55  1  0.66778700  0.83389300  0.11241800  1
  C  C56  1  0.99028100  0.49514000  0.96193800  1
  C  C57  1  0.83389300  0.66778700  0.61241800  1
  C  C58  1  0.83165900  0.66331700  0.31505100  1
  C  C59  1  0.50486000  0.00971900  0.53806200  1
  C  C60  1  0.83389300  0.16610700  0.61241800  1
  C  C61  1  0.49514000  0.50486000  0.46193800  1
  C  C62  1  0.16610700  0.83389300  0.11241800  1
  C  C63  1  0.49514000  0.99028100  0.46193800  1
  C  C64  1  0.49514000  0.50486000  0.03806200  1
  C  C65  1  0.49514000  0.99028100  0.03806200  1
  C  C66  1  0.83165900  0.66331700  0.18494900  1
  C  C67  1  0.33221300  0.16610700  0.61241800  1
