# generated using pymatgen
data_Cu(NiC)2
_symmetry_space_group_name_H-M   'P 1'
_cell_length_a   4.76019800
_cell_length_b   8.84190200
_cell_length_c   10.39113700
_cell_angle_alpha   90.00000000
_cell_angle_beta   90.00000000
_cell_angle_gamma   90.00000000
_symmetry_Int_Tables_number   1
_chemical_formula_structural   Cu(NiC)2
_chemical_formula_sum   'Cu8 Ni16 C16'
_cell_volume   437.35468724
_cell_formula_units_Z   8
loop_
 _symmetry_equiv_pos_site_id
 _symmetry_equiv_pos_as_xyz
  1  'x, y, z'
loop_
 _atom_site_type_symbol
 _atom_site_label
 _atom_site_symmetry_multiplicity
 _atom_site_fract_x
 _atom_site_fract_y
 _atom_site_fract_z
 _atom_site_occupancy
  C  C0  1  0.98997200  0.43036700  0.36676000  1
  C  C1  1  0.99399900  0.25000000  0.09294100  1
  C  C2  1  0.51002800  0.06963300  0.86676000  1
  C  C3  1  0.98997200  0.06963300  0.36676000  1
  C  C4  1  0.00600100  0.75000000  0.90705900  1
  C  C5  1  0.50600100  0.25000000  0.59294100  1
  C  C6  1  0.01002800  0.93036700  0.63324000  1
  C  C7  1  0.51002800  0.43036700  0.86676000  1
  C  C8  1  0.49399900  0.75000000  0.40705900  1
  C  C9  1  0.01002800  0.56963300  0.63324000  1
  C  C10  1  0.48997200  0.56963300  0.13324000  1
  C  C11  1  0.48997200  0.93036700  0.13324000  1
  C  C12  1  0.08030600  0.25000000  0.78046100  1
  C  C13  1  0.41969400  0.25000000  0.28046100  1
  C  C14  1  0.91969400  0.75000000  0.21953900  1
  C  C15  1  0.58030600  0.75000000  0.71953900  1
  Ni  Ni16  1  0.73162800  0.89650800  0.79111000  1
  Ni  Ni17  1  0.26837200  0.10349200  0.20889000  1
  Ni  Ni18  1  0.23770500  0.75000000  0.72108300  1
  Ni  Ni19  1  0.77772600  0.75000000  0.07423300  1
  Ni  Ni20  1  0.27772600  0.25000000  0.42576700  1
  Ni  Ni21  1  0.72227400  0.75000000  0.57423300  1
  Ni  Ni22  1  0.76837200  0.89650800  0.29111000  1
  Ni  Ni23  1  0.76229500  0.25000000  0.27891700  1
  Ni  Ni24  1  0.26837200  0.39650800  0.20889000  1
  Ni  Ni25  1  0.73162800  0.60349200  0.79111000  1
  Ni  Ni26  1  0.26229500  0.75000000  0.22108300  1
  Ni  Ni27  1  0.23162800  0.10349200  0.70889000  1
  Ni  Ni28  1  0.22227400  0.25000000  0.92576700  1
  Ni  Ni29  1  0.76837200  0.60349200  0.29111000  1
  Ni  Ni30  1  0.73770500  0.25000000  0.77891700  1
  Ni  Ni31  1  0.23162800  0.39650800  0.70889000  1
  Cu  Cu32  1  0.27236400  0.91591600  0.96738800  1
  Cu  Cu33  1  0.22763600  0.58408400  0.46738800  1
  Cu  Cu34  1  0.72763600  0.08408400  0.03261200  1
  Cu  Cu35  1  0.72763600  0.41591600  0.03261200  1
  Cu  Cu36  1  0.77236400  0.41591600  0.53261200  1
  Cu  Cu37  1  0.22763600  0.91591600  0.46738800  1
  Cu  Cu38  1  0.77236400  0.08408400  0.53261200  1
  Cu  Cu39  1  0.27236400  0.58408400  0.96738800  1
