# generated using pymatgen
data_CuNiC5
_symmetry_space_group_name_H-M   'P 1'
_cell_length_a   14.05524146
_cell_length_b   14.05524146
_cell_length_c   7.78989100
_cell_angle_alpha   90.00000000
_cell_angle_beta   90.00000000
_cell_angle_gamma   119.99999744
_symmetry_Int_Tables_number   1
_chemical_formula_structural   CuNiC5
_chemical_formula_sum   'Cu18 Ni18 C90'
_cell_volume   1332.71917185
_cell_formula_units_Z   18
loop_
 _symmetry_equiv_pos_site_id
 _symmetry_equiv_pos_as_xyz
  1  'x, y, z'
loop_
 _atom_site_type_symbol
 _atom_site_label
 _atom_site_symmetry_multiplicity
 _atom_site_fract_x
 _atom_site_fract_y
 _atom_site_fract_z
 _atom_site_occupancy
  C  C0  1  0.31143400  0.32576700  0.50269800  1
  C  C1  1  0.01433300  0.68856600  0.50269800  1
  C  C2  1  0.98730400  0.65404200  0.06724500  1
  C  C3  1  0.66673800  0.01269600  0.06724500  1
  C  C4  1  0.33326200  0.98730400  0.56724500  1
  C  C5  1  0.66666700  0.33333300  0.52317500  1
  C  C6  1  0.00000000  0.00000000  0.05288400  1
  C  C7  1  0.98566700  0.31143400  0.00269800  1
  C  C8  1  0.34595800  0.33326200  0.06724500  1
  C  C9  1  0.66666700  0.33333300  0.02497800  1
  C  C10  1  0.33333300  0.66666700  0.52497800  1
  C  C11  1  0.67423300  0.98566700  0.50269800  1
  C  C12  1  0.00000000  0.00000000  0.55288400  1
  C  C13  1  0.33333300  0.66666700  0.02317500  1
  C  C14  1  0.68856600  0.67423300  0.00269800  1
  C  C15  1  0.32576700  0.01433300  0.00269800  1
  C  C16  1  0.01269600  0.34595800  0.56724500  1
  C  C17  1  0.65404200  0.66673800  0.56724500  1
  Ni  Ni18  1  0.55109500  0.76323600  0.23968500  1
  Ni  Ni19  1  0.23676400  0.78785900  0.23968500  1
  Ni  Ni20  1  0.87877000  0.78249500  0.33388500  1
  Ni  Ni21  1  0.21214100  0.44890500  0.23968500  1
  Ni  Ni22  1  0.43137300  0.54557900  0.74599400  1
  Ni  Ni23  1  0.54557900  0.11420700  0.24599400  1
  Ni  Ni24  1  0.78785900  0.55109500  0.73968500  1
  Ni  Ni25  1  0.90372500  0.12123000  0.33388500  1
  Ni  Ni26  1  0.44890500  0.23676400  0.73968500  1
  Ni  Ni27  1  0.11420700  0.56862700  0.74599400  1
  Ni  Ni28  1  0.09627500  0.87877000  0.83388500  1
  Ni  Ni29  1  0.88579300  0.43137300  0.24599400  1
  Ni  Ni30  1  0.12123000  0.21750500  0.83388500  1
  Ni  Ni31  1  0.78249500  0.90372500  0.83388500  1
  Ni  Ni32  1  0.56862700  0.45442100  0.24599400  1
  Ni  Ni33  1  0.21750500  0.09627500  0.33388500  1
  Ni  Ni34  1  0.45442100  0.88579300  0.74599400  1
  Ni  Ni35  1  0.76323600  0.21214100  0.73968500  1
  Cu  Cu36  1  0.56682900  0.45357600  0.86513500  1
  Cu  Cu37  1  0.55243700  0.76596000  0.86453600  1
  Cu  Cu38  1  0.21858900  0.09855900  0.71029600  1
  Cu  Cu39  1  0.09855900  0.87996900  0.21029600  1
  Cu  Cu40  1  0.87996900  0.78141100  0.71029600  1
  Cu  Cu41  1  0.54642400  0.11325300  0.86513500  1
  Cu  Cu42  1  0.78647600  0.55243700  0.36453600  1
  Cu  Cu43  1  0.12003100  0.21858900  0.21029600  1
  Cu  Cu44  1  0.11325300  0.56682900  0.36513500  1
  Cu  Cu45  1  0.45357600  0.88674700  0.36513500  1
  Cu  Cu46  1  0.23404000  0.78647600  0.86453600  1
  Cu  Cu47  1  0.76596000  0.21352400  0.36453600  1
  Cu  Cu48  1  0.90144100  0.12003100  0.71029600  1
  Cu  Cu49  1  0.21352400  0.44756300  0.86453600  1
  Cu  Cu50  1  0.88674700  0.43317100  0.86513500  1
  Cu  Cu51  1  0.44756300  0.23404000  0.36453600  1
  Cu  Cu52  1  0.78141100  0.90144100  0.21029600  1
  Cu  Cu53  1  0.43317100  0.54642400  0.36513500  1
  C  C54  1  0.65884800  0.45651600  0.76753500  1
  C  C55  1  0.34062900  0.86906600  0.36372500  1
  C  C56  1  0.20258400  0.86466500  0.78784600  1
  C  C57  1  0.87698700  0.86839900  0.81236700  1
  C  C58  1  0.51222400  0.11807600  0.04540800  1
  C  C59  1  0.53899400  0.53436900  0.79222100  1
  C  C60  1  0.47156300  0.34062900  0.86372500  1
  C  C61  1  0.84358200  0.78749300  0.53256100  1
  C  C62  1  0.53436900  0.99537500  0.29222100  1
  C  C63  1  0.86963800  0.19761500  0.78497300  1
  C  C64  1  0.05608900  0.84358200  0.03256100  1
  C  C65  1  0.65937100  0.13093400  0.86372500  1
  C  C66  1  0.27595300  0.82362100  0.04134800  1
  C  C67  1  0.00462500  0.53899400  0.29222100  1
  C  C68  1  0.60585200  0.48777600  0.04540800  1
  C  C69  1  0.86175800  0.32665100  0.36856700  1
  C  C70  1  0.53456700  0.32434800  0.26329300  1
  C  C71  1  0.20013200  0.19350400  0.70707100  1
  C  C72  1  0.78749300  0.94391100  0.03256100  1
  C  C73  1  0.00662800  0.20013200  0.20707100  1
  C  C74  1  0.13036200  0.80238500  0.28497300  1
  C  C75  1  0.19761500  0.32797600  0.28497300  1
  C  C76  1  0.94391100  0.15641800  0.53256100  1
  C  C77  1  0.00858700  0.87698700  0.31236700  1
  C  C78  1  0.46100600  0.46563100  0.29222100  1
  C  C79  1  0.17637900  0.45233200  0.04134800  1
  C  C80  1  0.45233200  0.27595300  0.54134800  1
  C  C81  1  0.82362100  0.54766800  0.54134800  1
  C  C82  1  0.78978000  0.46543300  0.26329300  1
  C  C83  1  0.80649600  0.00662800  0.70707100  1
  C  C84  1  0.15641800  0.21250700  0.03256100  1
  C  C85  1  0.80238500  0.67202400  0.78497300  1
  C  C86  1  0.32797600  0.13036200  0.78497300  1
  C  C87  1  0.86839900  0.99141300  0.31236700  1
  C  C88  1  0.21250700  0.05608900  0.53256100  1
  C  C89  1  0.99141300  0.12301300  0.81236700  1
  C  C90  1  0.67202400  0.86963800  0.28497300  1
  C  C91  1  0.13160100  0.00858700  0.81236700  1
  C  C92  1  0.53510700  0.86175800  0.86856700  1
  C  C93  1  0.54348400  0.20233200  0.76753500  1
  C  C94  1  0.19350400  0.99337200  0.20707100  1
  C  C95  1  0.67334900  0.53510700  0.36856700  1
  C  C96  1  0.46563100  0.00462500  0.79222100  1
  C  C97  1  0.79766800  0.34115200  0.76753500  1
  C  C98  1  0.13093400  0.47156300  0.36372500  1
  C  C99  1  0.52843700  0.65937100  0.36372500  1
  C  C100  1  0.48777600  0.88192400  0.54540800  1
  C  C101  1  0.99537500  0.46100600  0.79222100  1
  C  C102  1  0.21022000  0.53456700  0.76329300  1
  C  C103  1  0.66208000  0.79741600  0.78784600  1
  C  C104  1  0.33792000  0.20258400  0.28784600  1
  C  C105  1  0.99337200  0.79986800  0.70707100  1
  C  C106  1  0.32665100  0.46489300  0.86856700  1
  C  C107  1  0.45651600  0.79766800  0.26753500  1
  C  C108  1  0.12301300  0.13160100  0.31236700  1
  C  C109  1  0.34115200  0.54348400  0.26753500  1
  C  C110  1  0.46543300  0.67565200  0.76329300  1
  C  C111  1  0.32434800  0.78978000  0.76329300  1
  C  C112  1  0.20233200  0.65884800  0.26753500  1
  C  C113  1  0.72404700  0.17637900  0.54134800  1
  C  C114  1  0.54766800  0.72404700  0.04134800  1
  C  C115  1  0.39414800  0.51222400  0.54540800  1
  C  C116  1  0.86906600  0.52843700  0.86372500  1
  C  C117  1  0.86466500  0.66208000  0.28784600  1
  C  C118  1  0.67565200  0.21022000  0.26329300  1
  C  C119  1  0.11807600  0.60585200  0.54540800  1
  C  C120  1  0.88192400  0.39414800  0.04540800  1
  C  C121  1  0.79741600  0.13533500  0.28784600  1
  C  C122  1  0.13824200  0.67334900  0.86856700  1
  C  C123  1  0.13533500  0.33792000  0.78784600  1
  C  C124  1  0.46489300  0.13824200  0.36856700  1
  C  C125  1  0.79986800  0.80649600  0.20707100  1
