# generated using pymatgen
data_Cu3Ni6C5
_symmetry_space_group_name_H-M   'P 1'
_cell_length_a   6.51839418
_cell_length_b   6.51839418
_cell_length_c   15.78607200
_cell_angle_alpha   90.00000000
_cell_angle_beta   90.00000000
_cell_angle_gamma   120.00000179
_symmetry_Int_Tables_number   1
_chemical_formula_structural   Cu3Ni6C5
_chemical_formula_sum   'Cu6 Ni12 C10'
_cell_volume   580.87935540
_cell_formula_units_Z   2
loop_
 _symmetry_equiv_pos_site_id
 _symmetry_equiv_pos_as_xyz
  1  'x, y, z'
loop_
 _atom_site_type_symbol
 _atom_site_label
 _atom_site_symmetry_multiplicity
 _atom_site_fract_x
 _atom_site_fract_y
 _atom_site_fract_z
 _atom_site_occupancy
  C  C0  1  0.66666700  0.33333300  0.94061100  1
  C  C1  1  0.33333300  0.66666700  0.05938900  1
  C  C2  1  0.33333300  0.66666700  0.44061100  1
  C  C3  1  0.66666700  0.33333300  0.25000000  1
  C  C4  1  0.66666700  0.33333300  0.55938900  1
  C  C5  1  0.33333300  0.66666700  0.75000000  1
  C  C6  1  0.00000000  0.00000000  0.85746100  1
  C  C7  1  0.00000000  0.00000000  0.35746100  1
  C  C8  1  0.00000000  0.00000000  0.64253900  1
  C  C9  1  0.00000000  0.00000000  0.14253900  1
  Ni  Ni10  1  0.85641500  0.14358500  0.09773500  1
  Ni  Ni11  1  0.71282900  0.85641500  0.59773500  1
  Ni  Ni12  1  0.14358500  0.28717100  0.90226500  1
  Ni  Ni13  1  0.85641500  0.71282900  0.09773500  1
  Ni  Ni14  1  0.14358500  0.85641500  0.59773500  1
  Ni  Ni15  1  0.28717100  0.14358500  0.09773500  1
  Ni  Ni16  1  0.28717100  0.14358500  0.40226500  1
  Ni  Ni17  1  0.14358500  0.85641500  0.90226500  1
  Ni  Ni18  1  0.85641500  0.71282900  0.40226500  1
  Ni  Ni19  1  0.71282900  0.85641500  0.90226500  1
  Ni  Ni20  1  0.14358500  0.28717100  0.59773500  1
  Ni  Ni21  1  0.85641500  0.14358500  0.40226500  1
  Cu  Cu22  1  0.74378000  0.87189000  0.25000000  1
  Cu  Cu23  1  0.12811000  0.87189000  0.25000000  1
  Cu  Cu24  1  0.12811000  0.25622000  0.25000000  1
  Cu  Cu25  1  0.87189000  0.74378000  0.75000000  1
  Cu  Cu26  1  0.87189000  0.12811000  0.75000000  1
  Cu  Cu27  1  0.25622000  0.12811000  0.75000000  1
