# generated using pymatgen
data_Cu4Ni4C9
_symmetry_space_group_name_H-M   'P 1'
_cell_length_a   10.73776164
_cell_length_b   10.73776164
_cell_length_c   10.73776164
_cell_angle_alpha   149.07586498
_cell_angle_beta   115.50264327
_cell_angle_gamma   73.23773499
_symmetry_Int_Tables_number   1
_chemical_formula_structural   Cu4Ni4C9
_chemical_formula_sum   'Cu8 Ni8 C18'
_cell_volume   565.43711144
_cell_formula_units_Z   2
loop_
 _symmetry_equiv_pos_site_id
 _symmetry_equiv_pos_as_xyz
  1  'x, y, z'
loop_
 _atom_site_type_symbol
 _atom_site_label
 _atom_site_symmetry_multiplicity
 _atom_site_fract_x
 _atom_site_fract_y
 _atom_site_fract_z
 _atom_site_occupancy
  C  C0  1  0.02359400  0.64349400  0.86778200  1
  C  C1  1  0.97640600  0.35650600  0.13221800  1
  C  C2  1  0.52359400  0.65581200  0.38010000  1
  C  C3  1  0.22428800  0.84418800  0.86778200  1
  C  C4  1  0.77571200  0.15581200  0.13221800  1
  C  C5  1  0.72428800  0.85650600  0.38010000  1
  C  C6  1  0.47640600  0.34418800  0.61990000  1
  C  C7  1  0.27571200  0.14349400  0.61990000  1
  C  C8  1  0.62580200  0.25456800  0.88037000  1
  C  C9  1  0.87419800  0.75456800  0.62876600  1
  C  C10  1  0.12580200  0.24543200  0.37123400  1
  C  C11  1  0.37419800  0.74543200  0.11963000  1
  C  C12  1  0.99543300  0.25000000  0.74543300  1
  C  C13  1  0.25000000  0.25000000  0.00000000  1
  C  C14  1  0.49543300  0.75000000  0.74543300  1
  C  C15  1  0.50456700  0.25000000  0.25456700  1
  C  C16  1  0.75000000  0.75000000  0.00000000  1
  C  C17  1  0.00456700  0.75000000  0.25456700  1
  Ni  Ni18  1  0.95514400  0.06932000  0.36880000  1
  Ni  Ni19  1  0.45514400  0.08634400  0.88582400  1
  Ni  Ni20  1  0.54485600  0.91365600  0.11417600  1
  Ni  Ni21  1  0.20052000  0.56932000  0.11417600  1
  Ni  Ni22  1  0.79948000  0.43068000  0.88582400  1
  Ni  Ni23  1  0.04485600  0.93068000  0.63120000  1
  Ni  Ni24  1  0.70052000  0.58634400  0.63120000  1
  Ni  Ni25  1  0.29948000  0.41365600  0.36880000  1
  Cu  Cu26  1  0.25026700  0.49317500  0.74344200  1
  Cu  Cu27  1  0.74973300  0.50682500  0.25655800  1
  Cu  Cu28  1  0.24973300  0.99317500  0.24290900  1
  Cu  Cu29  1  0.75026700  0.00682500  0.75709100  1
  Cu  Cu30  1  0.00000000  0.50000000  0.50000000  1
  Cu  Cu31  1  0.50000000  0.00000000  0.50000000  1
  Cu  Cu32  1  0.50000000  0.50000000  0.00000000  1
  Cu  Cu33  1  0.00000000  0.00000000  0.00000000  1
