# generated using pymatgen
data_Cu3NiC5
_symmetry_space_group_name_H-M   'P 1'
_cell_length_a   9.75931413
_cell_length_b   9.75931413
_cell_length_c   7.50932400
_cell_angle_alpha   90.00000000
_cell_angle_beta   90.00000000
_cell_angle_gamma   120.00000090
_symmetry_Int_Tables_number   1
_chemical_formula_structural   Cu3NiC5
_chemical_formula_sum   'Cu9 Ni3 C15'
_cell_volume   619.39838016
_cell_formula_units_Z   3
loop_
 _symmetry_equiv_pos_site_id
 _symmetry_equiv_pos_as_xyz
  1  'x, y, z'
loop_
 _atom_site_type_symbol
 _atom_site_label
 _atom_site_symmetry_multiplicity
 _atom_site_fract_x
 _atom_site_fract_y
 _atom_site_fract_z
 _atom_site_occupancy
  Ni  Ni0  1  0.33333300  0.66666700  0.50000000  1
  Ni  Ni1  1  0.00000000  0.00000000  0.00000000  1
  Ni  Ni2  1  0.00000000  0.00000000  0.50000000  1
  Cu  Cu3  1  0.80467500  0.55795100  0.26446300  1
  Cu  Cu4  1  0.07166200  0.45539100  0.00000000  1
  Cu  Cu5  1  0.80467500  0.55795100  0.73553700  1
  Cu  Cu6  1  0.75327600  0.19532500  0.73553700  1
  Cu  Cu7  1  0.54460900  0.61627100  0.00000000  1
  Cu  Cu8  1  0.44204900  0.24672400  0.26446300  1
  Cu  Cu9  1  0.44204900  0.24672400  0.73553700  1
  Cu  Cu10  1  0.38372900  0.92833800  0.00000000  1
  Cu  Cu11  1  0.75327600  0.19532500  0.26446300  1
  C  C12  1  0.68389500  0.70445900  0.25461500  1
  C  C13  1  0.35997000  0.33250800  0.50000000  1
  C  C14  1  0.95600200  0.61575100  0.00000000  1
  C  C15  1  0.97253800  0.64003000  0.50000000  1
  C  C16  1  0.02056300  0.31610500  0.25461500  1
  C  C17  1  0.38424900  0.34025100  0.00000000  1
  C  C18  1  0.66749200  0.02746200  0.50000000  1
  C  C19  1  0.68389500  0.70445900  0.74538500  1
  C  C20  1  0.02056300  0.31610500  0.74538500  1
  C  C21  1  0.29554100  0.97943700  0.25461500  1
  C  C22  1  0.65974900  0.04399800  0.00000000  1
  C  C23  1  0.29554100  0.97943700  0.74538500  1
  C  C24  1  0.33333300  0.66666700  0.00000000  1
  C  C25  1  0.66666700  0.33333300  0.73671200  1
  C  C26  1  0.66666700  0.33333300  0.26328800  1
