# generated using pymatgen
data_CuNi2C7
_symmetry_space_group_name_H-M   'P 1'
_cell_length_a   4.86859600
_cell_length_b   10.33975300
_cell_length_c   10.86767000
_cell_angle_alpha   90.00000000
_cell_angle_beta   90.00000000
_cell_angle_gamma   90.00000000
_symmetry_Int_Tables_number   1
_chemical_formula_structural   CuNi2C7
_chemical_formula_sum   'Cu4 Ni8 C28'
_cell_volume   547.07937827
_cell_formula_units_Z   4
loop_
 _symmetry_equiv_pos_site_id
 _symmetry_equiv_pos_as_xyz
  1  'x, y, z'
loop_
 _atom_site_type_symbol
 _atom_site_label
 _atom_site_symmetry_multiplicity
 _atom_site_fract_x
 _atom_site_fract_y
 _atom_site_fract_z
 _atom_site_occupancy
  C  C0  1  0.30662300  0.53064000  0.18657300  1
  C  C1  1  0.19337700  0.46936000  0.68657300  1
  C  C2  1  0.69337700  0.03064000  0.31342700  1
  C  C3  1  0.80662300  0.96936000  0.81342700  1
  Ni  Ni4  1  0.73015700  0.30168500  0.91956200  1
  Ni  Ni5  1  0.23015700  0.19831500  0.08043800  1
  Ni  Ni6  1  0.76984300  0.69831500  0.41956200  1
  Ni  Ni7  1  0.79951200  0.61516600  0.93326600  1
  Ni  Ni8  1  0.26984300  0.80168500  0.58043800  1
  Ni  Ni9  1  0.70048800  0.38483400  0.43326600  1
  Ni  Ni10  1  0.29951200  0.88483400  0.06673400  1
  Ni  Ni11  1  0.20048800  0.11516600  0.56673400  1
  Cu  Cu12  1  0.19502100  0.26568500  0.34249800  1
  Cu  Cu13  1  0.30497900  0.73431500  0.84249800  1
  Cu  Cu14  1  0.69502100  0.23431500  0.65750200  1
  Cu  Cu15  1  0.80497900  0.76568500  0.15750200  1
  C  C16  1  0.07754800  0.25075700  0.21645200  1
  C  C17  1  0.52809200  0.81872600  0.46580000  1
  C  C18  1  0.35707700  0.85897100  0.90792300  1
  C  C19  1  0.00535900  0.70781600  0.83312400  1
  C  C20  1  0.94411900  0.87677100  0.09825000  1
  C  C21  1  0.64292300  0.35897100  0.59207700  1
  C  C22  1  0.99464100  0.20781600  0.66687600  1
  C  C23  1  0.92245200  0.75075700  0.28354800  1
  C  C24  1  0.42245200  0.74924300  0.71645200  1
  C  C25  1  0.55588100  0.12322900  0.59825000  1
  C  C26  1  0.02809200  0.68127400  0.53420000  1
  C  C27  1  0.50535900  0.79218400  0.16687600  1
  C  C28  1  0.09407700  0.95078200  0.59210000  1
  C  C29  1  0.44411900  0.62322900  0.90175000  1
  C  C30  1  0.05588100  0.37677100  0.40175000  1
  C  C31  1  0.14292300  0.14102900  0.40792300  1
  C  C32  1  0.49464100  0.29218400  0.33312400  1
  C  C33  1  0.97190800  0.18127400  0.96580000  1
  C  C34  1  0.90592300  0.45078200  0.90790000  1
  C  C35  1  0.85707700  0.64102900  0.09207700  1
  C  C36  1  0.40592300  0.04921800  0.09210000  1
  C  C37  1  0.59407700  0.54921800  0.40790000  1
  C  C38  1  0.57754800  0.24924300  0.78354800  1
  C  C39  1  0.47190800  0.31872600  0.03420000  1
