# generated using pymatgen
data_CuNi8C5
_symmetry_space_group_name_H-M   'P 1'
_cell_length_a   8.97082761
_cell_length_b   8.97082761
_cell_length_c   10.93602657
_cell_angle_alpha   82.77270844
_cell_angle_beta   82.77270844
_cell_angle_gamma   52.35291198
_symmetry_Int_Tables_number   1
_chemical_formula_structural   CuNi8C5
_chemical_formula_sum   'Cu2 Ni16 C10'
_cell_volume   689.95974457
_cell_formula_units_Z   2
loop_
 _symmetry_equiv_pos_site_id
 _symmetry_equiv_pos_as_xyz
  1  'x, y, z'
loop_
 _atom_site_type_symbol
 _atom_site_label
 _atom_site_symmetry_multiplicity
 _atom_site_fract_x
 _atom_site_fract_y
 _atom_site_fract_z
 _atom_site_occupancy
  C  C0  1  0.92375900  0.67853000  0.18138900  1
  C  C1  1  0.59785900  0.40214100  0.25000000  1
  C  C2  1  0.07624100  0.32147000  0.81861100  1
  C  C3  1  0.32147000  0.07624100  0.31861100  1
  C  C4  1  0.67853000  0.92375900  0.68138900  1
  C  C5  1  0.40214100  0.59785900  0.75000000  1
  C  C6  1  0.69667700  0.62274800  0.47059600  1
  C  C7  1  0.37725200  0.30332300  0.02940400  1
  C  C8  1  0.30332300  0.37725200  0.52940400  1
  C  C9  1  0.62274800  0.69667700  0.97059600  1
  Ni  Ni10  1  0.14956900  0.28783500  0.08582700  1
  Ni  Ni11  1  0.72196100  0.41508300  0.95725700  1
  Ni  Ni12  1  0.71216500  0.85043100  0.41417300  1
  Ni  Ni13  1  0.55072300  0.74849100  0.16131400  1
  Ni  Ni14  1  0.11052300  0.59950200  0.64740600  1
  Ni  Ni15  1  0.40049800  0.88947700  0.85259400  1
  Ni  Ni16  1  0.27803900  0.58491700  0.04274300  1
  Ni  Ni17  1  0.85043100  0.71216500  0.91417300  1
  Ni  Ni18  1  0.74849100  0.55072300  0.66131400  1
  Ni  Ni19  1  0.25150900  0.44927700  0.33868600  1
  Ni  Ni20  1  0.88947700  0.40049800  0.35259400  1
  Ni  Ni21  1  0.41508300  0.72196100  0.45725700  1
  Ni  Ni22  1  0.44927700  0.25150900  0.83868600  1
  Ni  Ni23  1  0.59950200  0.11052300  0.14740600  1
  Ni  Ni24  1  0.58491700  0.27803900  0.54274300  1
  Ni  Ni25  1  0.28783500  0.14956900  0.58582700  1
  Cu  Cu26  1  0.98661600  0.01338400  0.75000000  1
  Cu  Cu27  1  0.01338400  0.98661600  0.25000000  1
