# generated using pymatgen
data_Cu7NiC5
_symmetry_space_group_name_H-M   'P 1'
_cell_length_a   8.67560410
_cell_length_b   8.67560410
_cell_length_c   23.77379100
_cell_angle_alpha   90.00000000
_cell_angle_beta   90.00000000
_cell_angle_gamma   143.43798119
_symmetry_Int_Tables_number   1
_chemical_formula_structural   Cu7NiC5
_chemical_formula_sum   'Cu28 Ni4 C20'
_cell_volume   1065.90884427
_cell_formula_units_Z   4
loop_
 _symmetry_equiv_pos_site_id
 _symmetry_equiv_pos_as_xyz
  1  'x, y, z'
loop_
 _atom_site_type_symbol
 _atom_site_label
 _atom_site_symmetry_multiplicity
 _atom_site_fract_x
 _atom_site_fract_y
 _atom_site_fract_z
 _atom_site_occupancy
  C  C0  1  0.38576900  0.04259000  0.06082900  1
  C  C1  1  0.28415000  0.28415000  0.20169400  1
  C  C2  1  0.78415000  0.78415000  0.29830600  1
  C  C3  1  0.98516900  0.63430000  0.19073600  1
  C  C4  1  0.01483100  0.36570000  0.80926400  1
  C  C5  1  0.13430000  0.48516900  0.30926400  1
  C  C6  1  0.51483100  0.86570000  0.69073600  1
  C  C7  1  0.88576900  0.54259000  0.43917100  1
  C  C8  1  0.11423100  0.45741000  0.56082900  1
  C  C9  1  0.63430000  0.98516900  0.19073600  1
  C  C10  1  0.86570000  0.51483100  0.69073600  1
  C  C11  1  0.61423100  0.95741000  0.93917100  1
  C  C12  1  0.21585000  0.21585000  0.70169400  1
  C  C13  1  0.45741000  0.11423100  0.56082900  1
  C  C14  1  0.95741000  0.61423100  0.93917100  1
  C  C15  1  0.04259000  0.38576900  0.06082900  1
  C  C16  1  0.54259000  0.88576900  0.43917100  1
  C  C17  1  0.36570000  0.01483100  0.80926400  1
  C  C18  1  0.71585000  0.71585000  0.79830600  1
  C  C19  1  0.48516900  0.13430000  0.30926400  1
  Ni  Ni20  1  0.31887900  0.31887900  0.39478400  1
  Ni  Ni21  1  0.81887900  0.81887900  0.10521600  1
  Ni  Ni22  1  0.68112100  0.68112100  0.60521600  1
  Ni  Ni23  1  0.18112100  0.18112100  0.89478400  1
  Cu  Cu24  1  0.99284000  0.61150100  0.85023500  1
  Cu  Cu25  1  0.27011500  0.77011500  0.25000000  1
  Cu  Cu26  1  0.61150100  0.99284000  0.85023500  1
  Cu  Cu27  1  0.72988500  0.22988500  0.75000000  1
  Cu  Cu28  1  0.55397700  0.39086000  0.74696300  1
  Cu  Cu29  1  0.39086000  0.55397700  0.74696300  1
  Cu  Cu30  1  0.11150100  0.49284000  0.64976500  1
  Cu  Cu31  1  0.62993000  0.03880400  0.04996600  1
  Cu  Cu32  1  0.49284000  0.11150100  0.64976500  1
  Cu  Cu33  1  0.53880400  0.12993000  0.45003400  1
  Cu  Cu34  1  0.37007000  0.96119600  0.95003400  1
  Cu  Cu35  1  0.77011500  0.27011500  0.25000000  1
  Cu  Cu36  1  0.60914000  0.44602300  0.25303700  1
  Cu  Cu37  1  0.05397700  0.89086000  0.75303700  1
  Cu  Cu38  1  0.03880400  0.62993000  0.04996600  1
  Cu  Cu39  1  0.50716000  0.88849900  0.35023500  1
  Cu  Cu40  1  0.96119600  0.37007000  0.95003400  1
  Cu  Cu41  1  0.10914000  0.94602300  0.24696300  1
  Cu  Cu42  1  0.94602300  0.10914000  0.24696300  1
  Cu  Cu43  1  0.22988500  0.72988500  0.75000000  1
  Cu  Cu44  1  0.38849900  0.00716000  0.14976500  1
  Cu  Cu45  1  0.89086000  0.05397700  0.75303700  1
  Cu  Cu46  1  0.00716000  0.38849900  0.14976500  1
  Cu  Cu47  1  0.44602300  0.60914000  0.25303700  1
  Cu  Cu48  1  0.88849900  0.50716000  0.35023500  1
  Cu  Cu49  1  0.12993000  0.53880400  0.45003400  1
  Cu  Cu50  1  0.87007000  0.46119600  0.54996600  1
  Cu  Cu51  1  0.46119600  0.87007000  0.54996600  1
