# generated using pymatgen
data_Cu(NiC8)2
_symmetry_space_group_name_H-M   'P 1'
_cell_length_a   6.89846700
_cell_length_b   7.92149329
_cell_length_c   11.61710741
_cell_angle_alpha   72.69012595
_cell_angle_beta   75.43485695
_cell_angle_gamma   68.59283721
_symmetry_Int_Tables_number   1
_chemical_formula_structural   Cu(NiC8)2
_chemical_formula_sum   'Cu2 Ni4 C32'
_cell_volume   556.92723000
_cell_formula_units_Z   2
loop_
 _symmetry_equiv_pos_site_id
 _symmetry_equiv_pos_as_xyz
  1  'x, y, z'
loop_
 _atom_site_type_symbol
 _atom_site_label
 _atom_site_symmetry_multiplicity
 _atom_site_fract_x
 _atom_site_fract_y
 _atom_site_fract_z
 _atom_site_occupancy
  C  C0  1  0.19982900  0.24578400  0.59764900  1
  C  C1  1  0.73388600  0.26685100  0.07902500  1
  C  C2  1  0.26611400  0.73314900  0.92097500  1
  C  C3  1  0.80017100  0.75421600  0.40235100  1
  Ni  Ni4  1  0.73251200  0.77173900  0.08604300  1
  Ni  Ni5  1  0.73142200  0.22934200  0.42400500  1
  Ni  Ni6  1  0.26748800  0.22826100  0.91395700  1
  Ni  Ni7  1  0.26857800  0.77065800  0.57599500  1
  Cu  Cu8  1  0.75014300  0.97019800  0.74681000  1
  Cu  Cu9  1  0.24985700  0.02980200  0.25319000  1
  C  C10  1  0.63658100  0.31045200  0.80081900  1
  C  C11  1  0.65775500  0.65602500  0.71224200  1
  C  C12  1  0.31185900  0.63321100  0.34126200  1
  C  C13  1  0.84627600  0.57002500  0.79369200  1
  C  C14  1  0.34224500  0.34397500  0.28775800  1
  C  C15  1  0.15372400  0.42997500  0.20630800  1
  C  C16  1  0.68814100  0.36678900  0.65873800  1
  C  C17  1  0.36341900  0.68954800  0.19918100  1
  C  C18  1  0.74853100  0.27727700  0.73001700  1
  C  C19  1  0.84354300  0.35540200  0.45759200  1
  C  C20  1  0.56760900  0.66601800  0.08041200  1
  C  C21  1  0.89197700  0.11934200  0.31458500  1
  C  C22  1  0.38953800  0.08285500  0.81886900  1
  C  C23  1  0.19188100  0.10731900  0.05288500  1
  C  C24  1  0.43239100  0.33398200  0.91958800  1
  C  C25  1  0.61046200  0.91714500  0.18113100  1
  C  C26  1  0.94498200  0.61590800  0.13922200  1
  C  C27  1  0.71902400  0.67733100  0.77367700  1
  C  C28  1  0.49621500  0.63737900  0.62487400  1
  C  C29  1  0.50378500  0.36262100  0.37512600  1
  C  C30  1  0.05501800  0.38409200  0.86077800  1
  C  C31  1  0.67936900  0.06924400  0.54944400  1
  C  C32  1  0.28097600  0.32266900  0.22632300  1
  C  C33  1  0.15645700  0.64459800  0.54240800  1
  C  C34  1  0.80811900  0.89268100  0.94711500  1
  C  C35  1  0.25146900  0.72272300  0.26998300  1
  C  C36  1  0.32063100  0.93075600  0.45055600  1
  C  C37  1  0.10802300  0.88065800  0.68541500  1
