# generated using pymatgen
data_Cu5(NiC6)3
_symmetry_space_group_name_H-M   'P 1'
_cell_length_a   6.43318700
_cell_length_b   6.56491838
_cell_length_c   13.14081578
_cell_angle_alpha   96.51153468
_cell_angle_beta   92.39494107
_cell_angle_gamma   95.17420484
_symmetry_Int_Tables_number   1
_chemical_formula_structural   Cu5(NiC6)3
_chemical_formula_sum   'Cu10 Ni6 C36'
_cell_volume   548.39433750
_cell_formula_units_Z   2
loop_
 _symmetry_equiv_pos_site_id
 _symmetry_equiv_pos_as_xyz
  1  'x, y, z'
loop_
 _atom_site_type_symbol
 _atom_site_label
 _atom_site_symmetry_multiplicity
 _atom_site_fract_x
 _atom_site_fract_y
 _atom_site_fract_z
 _atom_site_occupancy
  C  C0  1  0.11434900  0.68444400  0.19328500  1
  C  C1  1  0.88565100  0.31555600  0.80671500  1
  C  C2  1  0.71109400  0.82814200  0.30368700  1
  C  C3  1  0.76866500  0.53866600  0.95931700  1
  C  C4  1  0.28890600  0.17185800  0.69631300  1
  C  C5  1  0.89483000  0.04093200  0.12834700  1
  C  C6  1  0.57506300  0.47325600  0.86788100  1
  C  C7  1  0.22315100  0.73464200  0.87468200  1
  C  C8  1  0.37284300  0.96464600  0.87127400  1
  C  C9  1  0.62715700  0.03535400  0.12872600  1
  C  C10  1  0.23133500  0.46133400  0.04068300  1
  C  C11  1  0.29360600  0.13355100  0.56466200  1
  C  C12  1  0.64234800  0.06069600  0.36191100  1
  C  C13  1  0.83914800  0.96851700  0.60406500  1
  C  C14  1  0.48035100  0.83304900  0.35742500  1
  C  C15  1  0.10517000  0.95906800  0.87165300  1
  C  C16  1  0.77565000  0.42405100  0.34413200  1
  C  C17  1  0.67171800  0.38828500  0.45301300  1
  C  C18  1  0.24359300  0.91788300  0.97859800  1
  C  C19  1  0.81316200  0.71323700  0.59427300  1
  C  C20  1  0.16085200  0.03148300  0.39593500  1
  C  C21  1  0.18683800  0.28676300  0.40572700  1
  C  C22  1  0.35765200  0.93930400  0.63808900  1
  C  C23  1  0.22435000  0.57594900  0.65586800  1
  C  C24  1  0.01234400  0.16977800  0.47059000  1
  C  C25  1  0.75640700  0.08211700  0.02140200  1
  C  C26  1  0.23887800  0.34015500  0.14627100  1
  C  C27  1  0.32828200  0.61171500  0.54698700  1
  C  C28  1  0.76112200  0.65984500  0.85372900  1
  C  C29  1  0.42493700  0.52674400  0.13211900  1
  C  C30  1  0.70639400  0.86644900  0.43533800  1
  C  C31  1  0.48027700  0.60143000  0.64912300  1
  C  C32  1  0.77684900  0.26535800  0.12531800  1
  C  C33  1  0.51972300  0.39857000  0.35087700  1
  C  C34  1  0.98765600  0.83022200  0.52941000  1
  C  C35  1  0.51964900  0.16695100  0.64257500  1
  Ni  Ni36  1  0.80215800  0.60433800  0.13765400  1
  Ni  Ni37  1  0.17325300  0.64116600  0.34567400  1
  Ni  Ni38  1  0.75240200  0.03663900  0.85221900  1
  Ni  Ni39  1  0.19784200  0.39566200  0.86234600  1
  Ni  Ni40  1  0.24759800  0.96336100  0.14778100  1
  Ni  Ni41  1  0.82674700  0.35883400  0.65432600  1
  Cu  Cu42  1  0.26638100  0.48259200  0.12001100  1
  Cu  Cu43  1  0.16104400  0.16311600  0.44658300  1
  Cu  Cu44  1  0.23735900  0.89476300  0.89755300  1
  Cu  Cu45  1  0.34502900  0.65660400  0.62440500  1
  Cu  Cu46  1  0.36407100  0.10148900  0.63580100  1
  Cu  Cu47  1  0.76264100  0.10523700  0.10244700  1
  Cu  Cu48  1  0.65497100  0.34339600  0.37559500  1
  Cu  Cu49  1  0.73361900  0.51740800  0.87998900  1
  Cu  Cu50  1  0.63592900  0.89851100  0.36419900  1
  Cu  Cu51  1  0.83895600  0.83688400  0.55341700  1
