# generated using pymatgen
data_Cu2NiC
_symmetry_space_group_name_H-M   'P 1'
_cell_length_a   7.75557366
_cell_length_b   6.95018417
_cell_length_c   6.76678897
_cell_angle_alpha   68.84517087
_cell_angle_beta   56.69510269
_cell_angle_gamma   54.45972645
_symmetry_Int_Tables_number   1
_chemical_formula_structural   Cu2NiC
_chemical_formula_sum   'Cu8 Ni4 C4'
_cell_volume   247.58495199
_cell_formula_units_Z   4
loop_
 _symmetry_equiv_pos_site_id
 _symmetry_equiv_pos_as_xyz
  1  'x, y, z'
loop_
 _atom_site_type_symbol
 _atom_site_label
 _atom_site_symmetry_multiplicity
 _atom_site_fract_x
 _atom_site_fract_y
 _atom_site_fract_z
 _atom_site_occupancy
  C  C0  1  0.25000000  0.25000000  0.25000000  1
  C  C1  1  0.50000000  0.50000000  0.50000000  1
  C  C2  1  0.75000000  0.75000000  0.75000000  1
  C  C3  1  0.00000000  0.00000000  0.00000000  1
  Ni  Ni4  1  0.48047100  0.01952900  0.48047100  1
  Ni  Ni5  1  0.01953000  0.48047100  0.01952900  1
  Ni  Ni6  1  0.20197300  0.79802700  0.20197300  1
  Ni  Ni7  1  0.79802700  0.20197300  0.79802700  1
  Cu  Cu8  1  0.22319000  0.59881600  0.30336600  1
  Cu  Cu9  1  0.48973300  0.82741700  0.59880600  1
  Cu  Cu10  1  0.87462800  0.30336600  0.59881600  1
  Cu  Cu11  1  0.82741700  0.48973300  0.08404400  1
  Cu  Cu12  1  0.08404400  0.59880600  0.82741700  1
  Cu  Cu13  1  0.30336600  0.87462800  0.22319000  1
  Cu  Cu14  1  0.59881600  0.22319000  0.87462800  1
  Cu  Cu15  1  0.59880600  0.08404400  0.48973300  1
