# generated using pymatgen
data_CuNiC4
_symmetry_space_group_name_H-M   'P 1'
_cell_length_a   16.42923922
_cell_length_b   16.42923922
_cell_length_c   16.42923905
_cell_angle_alpha   17.34501733
_cell_angle_beta   17.34501733
_cell_angle_gamma   17.34501991
_symmetry_Int_Tables_number   1
_chemical_formula_structural   CuNiC4
_chemical_formula_sum   'Cu4 Ni4 C16'
_cell_volume   343.94043708
_cell_formula_units_Z   4
loop_
 _symmetry_equiv_pos_site_id
 _symmetry_equiv_pos_as_xyz
  1  'x, y, z'
loop_
 _atom_site_type_symbol
 _atom_site_label
 _atom_site_symmetry_multiplicity
 _atom_site_fract_x
 _atom_site_fract_y
 _atom_site_fract_z
 _atom_site_occupancy
  C  C0  1  0.00000000  0.00000000  0.00000000  1
  C  C1  1  0.50000000  0.50000000  0.50000000  1
  Ni  Ni2  1  0.21516200  0.21516200  0.21516200  1
  Ni  Ni3  1  0.28483800  0.28483800  0.28483800  1
  Ni  Ni4  1  0.78483800  0.78483800  0.78483800  1
  Ni  Ni5  1  0.71516200  0.71516200  0.71516200  1
  Cu  Cu6  1  0.13257300  0.13257300  0.13257300  1
  Cu  Cu7  1  0.63257300  0.63257300  0.63257300  1
  Cu  Cu8  1  0.86742700  0.86742700  0.86742700  1
  Cu  Cu9  1  0.36742700  0.36742700  0.36742700  1
  C  C10  1  0.43744700  0.88980100  0.07418000  1
  C  C11  1  0.88980100  0.07418000  0.43744700  1
  C  C12  1  0.57418000  0.38980100  0.93744700  1
  C  C13  1  0.75000000  0.75000000  0.75000000  1
  C  C14  1  0.38980100  0.93744700  0.57418000  1
  C  C15  1  0.42582000  0.61019900  0.06255300  1
  C  C16  1  0.93744700  0.57418000  0.38980100  1
  C  C17  1  0.11019900  0.92582000  0.56255300  1
  C  C18  1  0.56255300  0.11019900  0.92582000  1
  C  C19  1  0.07418000  0.43744700  0.88980100  1
  C  C20  1  0.92582000  0.56255300  0.11019900  1
  C  C21  1  0.06255300  0.42582000  0.61019900  1
  C  C22  1  0.61019900  0.06255300  0.42582000  1
  C  C23  1  0.25000000  0.25000000  0.25000000  1
