# generated using pymatgen
data_Cu4Ni5C21
_symmetry_space_group_name_H-M   'P 1'
_cell_length_a   8.70725956
_cell_length_b   8.70725956
_cell_length_c   8.70725956
_cell_angle_alpha   95.63453991
_cell_angle_beta   95.63453991
_cell_angle_gamma   143.47856937
_symmetry_Int_Tables_number   1
_chemical_formula_structural   Cu4Ni5C21
_chemical_formula_sum   'Cu4 Ni5 C21'
_cell_volume   373.08755125
_cell_formula_units_Z   1
loop_
 _symmetry_equiv_pos_site_id
 _symmetry_equiv_pos_as_xyz
  1  'x, y, z'
loop_
 _atom_site_type_symbol
 _atom_site_label
 _atom_site_symmetry_multiplicity
 _atom_site_fract_x
 _atom_site_fract_y
 _atom_site_fract_z
 _atom_site_occupancy
  Ni  Ni0  1  0.90102600  0.59536300  0.51545700  1
  Ni  Ni1  1  0.50000000  0.50000000  0.00000000  1
  Ni  Ni2  1  0.40463700  0.92009400  0.30566300  1
  Ni  Ni3  1  0.61443100  0.09897400  0.69433700  1
  Ni  Ni4  1  0.07990600  0.38556900  0.48454300  1
  Cu  Cu5  1  0.86044000  0.15879600  0.06663700  1
  Cu  Cu6  1  0.20619700  0.13956000  0.29835600  1
  Cu  Cu7  1  0.84120400  0.90784100  0.70164400  1
  Cu  Cu8  1  0.09215900  0.79380300  0.93336300  1
  C  C9  1  0.59263900  0.73633100  0.35067300  1
  C  C10  1  0.75803400  0.40736100  0.14369200  1
  C  C11  1  0.26366900  0.61434200  0.85630800  1
  C  C12  1  0.38565800  0.24196600  0.64932700  1
  C  C13  1  0.87074300  0.37413300  0.27789100  1
  C  C14  1  0.55110000  0.79109400  0.82701400  1
  C  C15  1  0.07912600  0.31462500  0.86173200  1
  C  C16  1  0.77003100  0.33061200  0.96812100  1
  C  C17  1  0.27591400  0.44890000  0.23999400  1
  C  C18  1  0.40714800  0.12925700  0.50339000  1
  C  C19  1  0.68537500  0.54710700  0.76450100  1
  C  C20  1  0.78260600  0.92087400  0.23549900  1
  C  C21  1  0.62586700  0.90375800  0.49661000  1
  C  C22  1  0.09624200  0.59285200  0.72210900  1
  C  C23  1  0.96408000  0.72408600  0.17298600  1
  C  C24  1  0.45289300  0.21739400  0.13826800  1
  C  C25  1  0.20890600  0.03592000  0.76000600  1
  C  C26  1  0.36249100  0.80191000  0.03187900  1
  C  C27  1  0.19809000  0.22996900  0.56058100  1
  C  C28  1  0.66938800  0.63750900  0.43941900  1
  C  C29  1  0.00000000  0.00000000  0.00000000  1
