# generated using pymatgen
data_Cu5NiC4
_symmetry_space_group_name_H-M   'P 1'
_cell_length_a   15.49338700
_cell_length_b   8.90008700
_cell_length_c   16.70290203
_cell_angle_alpha   64.03531422
_cell_angle_beta   90.00000000
_cell_angle_gamma   90.00000000
_symmetry_Int_Tables_number   1
_chemical_formula_structural   Cu5NiC4
_chemical_formula_sum   'Cu40 Ni8 C32'
_cell_volume   2070.72866000
_cell_formula_units_Z   8
loop_
 _symmetry_equiv_pos_site_id
 _symmetry_equiv_pos_as_xyz
  1  'x, y, z'
loop_
 _atom_site_type_symbol
 _atom_site_label
 _atom_site_symmetry_multiplicity
 _atom_site_fract_x
 _atom_site_fract_y
 _atom_site_fract_z
 _atom_site_occupancy
  C  C0  1  0.44541400  0.98379900  0.75546900  1
  C  C1  1  0.30382400  0.95883500  0.26075500  1
  C  C2  1  0.94541400  0.01620100  0.74453100  1
  C  C3  1  0.80382400  0.04116500  0.23924500  1
  C  C4  1  0.19617600  0.95883500  0.76075500  1
  C  C5  1  0.69617600  0.04116500  0.73924500  1
  C  C6  1  0.05458600  0.98379900  0.25546900  1
  C  C7  1  0.55458600  0.01620100  0.24453100  1
  Ni  Ni8  1  0.17214800  0.36312800  0.55459200  1
  Ni  Ni9  1  0.43459600  0.45654800  0.66813000  1
  Ni  Ni10  1  0.06540400  0.45654800  0.16813000  1
  Ni  Ni11  1  0.32785200  0.36312800  0.05459200  1
  Ni  Ni12  1  0.56540400  0.54345200  0.33187000  1
  Ni  Ni13  1  0.67214800  0.63687200  0.94540800  1
  Ni  Ni14  1  0.93459600  0.54345200  0.83187000  1
  Ni  Ni15  1  0.82785200  0.63687200  0.44540800  1
  Cu  Cu16  1  0.67825900  0.08404800  0.86756100  1
  Cu  Cu17  1  0.17409200  0.08019200  0.85817600  1
  Cu  Cu18  1  0.96059100  0.50101200  0.22364800  1
  Cu  Cu19  1  0.06943400  0.00391300  0.11186100  1
  Cu  Cu20  1  0.07059500  0.33210300  0.49048400  1
  Cu  Cu21  1  0.82174100  0.08404800  0.36756100  1
  Cu  Cu22  1  0.17825900  0.91595200  0.63243900  1
  Cu  Cu23  1  0.46059100  0.49898800  0.27635200  1
  Cu  Cu24  1  0.22604900  0.34517100  0.98683600  1
  Cu  Cu25  1  0.43235400  0.63844300  0.54432800  1
  Cu  Cu26  1  0.33528200  0.50332100  0.72962900  1
  Cu  Cu27  1  0.42940500  0.33210300  0.99048400  1
  Cu  Cu28  1  0.06764600  0.63844300  0.04432800  1
  Cu  Cu29  1  0.27395100  0.34517100  0.48683600  1
  Cu  Cu30  1  0.43056600  0.00391300  0.61186100  1
  Cu  Cu31  1  0.57809100  0.94631900  0.12610000  1
  Cu  Cu32  1  0.93056600  0.99608700  0.88813900  1
  Cu  Cu33  1  0.83188700  0.39818900  0.46669300  1
  Cu  Cu34  1  0.83528200  0.49667900  0.77037100  1
  Cu  Cu35  1  0.33188700  0.60181100  0.03330700  1
  Cu  Cu36  1  0.82590800  0.91980800  0.14182400  1
  Cu  Cu37  1  0.07809100  0.05368100  0.37390000  1
  Cu  Cu38  1  0.32590800  0.08019200  0.35817600  1
  Cu  Cu39  1  0.77395100  0.65482900  0.01316400  1
  Cu  Cu40  1  0.66471800  0.49667900  0.27037100  1
  Cu  Cu41  1  0.92940500  0.66789700  0.50951600  1
  Cu  Cu42  1  0.32174100  0.91595200  0.13243900  1
  Cu  Cu43  1  0.03940900  0.49898800  0.77635200  1
  Cu  Cu44  1  0.57059500  0.66789700  0.00951600  1
  Cu  Cu45  1  0.66811300  0.39818900  0.96669300  1
  Cu  Cu46  1  0.92190900  0.94631900  0.62610000  1
  Cu  Cu47  1  0.16811300  0.60181100  0.53330700  1
  Cu  Cu48  1  0.56764600  0.36155700  0.45567200  1
  Cu  Cu49  1  0.93235400  0.36155700  0.95567200  1
  Cu  Cu50  1  0.67409200  0.91980800  0.64182400  1
  Cu  Cu51  1  0.72604900  0.65482900  0.51316400  1
  Cu  Cu52  1  0.53940900  0.50101200  0.72364800  1
  Cu  Cu53  1  0.56943400  0.99608700  0.38813900  1
  Cu  Cu54  1  0.16471800  0.50332100  0.22962900  1
  Cu  Cu55  1  0.42190900  0.05368100  0.87390000  1
  C  C56  1  0.19952700  0.75421500  0.83655300  1
  C  C57  1  0.30894800  0.01057200  0.74378300  1
  C  C58  1  0.67433400  0.75106200  0.84888300  1
  C  C59  1  0.56737300  0.71140800  0.32986400  1
  C  C60  1  0.69105200  0.98942800  0.25621700  1
  C  C61  1  0.55662700  0.22809400  0.18555400  1
  C  C62  1  0.69952700  0.24578500  0.66344700  1
  C  C63  1  0.32566600  0.24893800  0.15111700  1
  C  C64  1  0.05662700  0.77190600  0.31444600  1
  C  C65  1  0.80894800  0.98942800  0.75621700  1
  C  C66  1  0.06737300  0.28859200  0.17013600  1
  C  C67  1  0.80047300  0.24578500  0.16344700  1
  C  C68  1  0.43262700  0.28859200  0.67013600  1
  C  C69  1  0.05941000  0.97439300  0.75332100  1
  C  C70  1  0.19105200  0.01057200  0.24378300  1
  C  C71  1  0.17433400  0.24893800  0.65111700  1
  C  C72  1  0.93262700  0.71140800  0.82986400  1
  C  C73  1  0.94337300  0.22809400  0.68555400  1
  C  C74  1  0.44337300  0.77190600  0.81444600  1
  C  C75  1  0.82566600  0.75106200  0.34888300  1
  C  C76  1  0.94059000  0.02560700  0.24667900  1
  C  C77  1  0.44059000  0.97439300  0.25332100  1
  C  C78  1  0.30047300  0.75421500  0.33655300  1
  C  C79  1  0.55941000  0.02560700  0.74667900  1
