# generated using pymatgen
data_Cu2NiC6
_symmetry_space_group_name_H-M   'P 1'
_cell_length_a   6.86601741
_cell_length_b   6.86601741
_cell_length_c   6.86601741
_cell_angle_alpha   148.10929579
_cell_angle_beta   128.40074715
_cell_angle_gamma   61.95171975
_symmetry_Int_Tables_number   1
_chemical_formula_structural   Cu2NiC6
_chemical_formula_sum   'Cu2 Ni1 C6'
_cell_volume   132.72573564
_cell_formula_units_Z   1
loop_
 _symmetry_equiv_pos_site_id
 _symmetry_equiv_pos_as_xyz
  1  'x, y, z'
loop_
 _atom_site_type_symbol
 _atom_site_label
 _atom_site_symmetry_multiplicity
 _atom_site_fract_x
 _atom_site_fract_y
 _atom_site_fract_z
 _atom_site_occupancy
  Ni  Ni0  1  0.00000000  0.00000000  0.00000000  1
  Cu  Cu1  1  0.70654400  0.20654400  0.50000000  1
  Cu  Cu2  1  0.29345600  0.79345600  0.50000000  1
  C  C3  1  0.50000000  0.50000000  0.00000000  1
  C  C4  1  0.11891200  0.35927500  0.75963700  1
  C  C5  1  0.88108800  0.64072500  0.24036300  1
  C  C6  1  0.40036300  0.64072500  0.75963700  1
  C  C7  1  0.59963700  0.35927500  0.24036300  1
  C  C8  1  0.50000000  0.00000000  0.50000000  1
