# generated using pymatgen
data_Cu5NiC3
_symmetry_space_group_name_H-M   'P 1'
_cell_length_a   6.69946100
_cell_length_b   13.35427100
_cell_length_c   14.41736465
_cell_angle_alpha   71.71063044
_cell_angle_beta   90.00000000
_cell_angle_gamma   90.00000000
_symmetry_Int_Tables_number   1
_chemical_formula_structural   Cu5NiC3
_chemical_formula_sum   'Cu40 Ni8 C24'
_cell_volume   1224.71053427
_cell_formula_units_Z   8
loop_
 _symmetry_equiv_pos_site_id
 _symmetry_equiv_pos_as_xyz
  1  'x, y, z'
loop_
 _atom_site_type_symbol
 _atom_site_label
 _atom_site_symmetry_multiplicity
 _atom_site_fract_x
 _atom_site_fract_y
 _atom_site_fract_z
 _atom_site_occupancy
  C  C0  1  0.99568000  0.11935700  0.02139000  1
  C  C1  1  0.49568000  0.88064300  0.47861000  1
  C  C2  1  0.00432000  0.88064300  0.97861000  1
  C  C3  1  0.79028200  0.93524600  0.64454000  1
  C  C4  1  0.70971800  0.93524600  0.14454000  1
  C  C5  1  0.29028200  0.06475400  0.85546000  1
  C  C6  1  0.50432000  0.11935700  0.52139000  1
  C  C7  1  0.20971800  0.06475400  0.35546000  1
  C  C8  1  0.80678000  0.11114800  0.78499200  1
  C  C9  1  0.02277000  0.37079000  0.85844800  1
  C  C10  1  0.69322000  0.11114800  0.28499200  1
  C  C11  1  0.01461000  0.79987600  0.52148900  1
  C  C12  1  0.97723000  0.62921000  0.14155200  1
  C  C13  1  0.30678000  0.88885200  0.71500800  1
  C  C14  1  0.79584200  0.71426100  0.86124400  1
  C  C15  1  0.20415800  0.28573900  0.13875600  1
  C  C16  1  0.98539000  0.20012400  0.47851100  1
  C  C17  1  0.51461000  0.20012400  0.97851100  1
  C  C18  1  0.70415800  0.71426100  0.36124400  1
  C  C19  1  0.29584200  0.28573900  0.63875600  1
  C  C20  1  0.52277000  0.62921000  0.64155200  1
  C  C21  1  0.19322000  0.88885200  0.21500800  1
  C  C22  1  0.47723000  0.37079000  0.35844800  1
  C  C23  1  0.48539000  0.79987600  0.02148900  1
  Ni  Ni24  1  0.12814200  0.61124700  0.78176300  1
  Ni  Ni25  1  0.87185800  0.38875300  0.21823700  1
  Ni  Ni26  1  0.37185800  0.61124700  0.28176300  1
  Ni  Ni27  1  0.62814200  0.38875300  0.71823700  1
  Ni  Ni28  1  0.21592900  0.56330700  0.05040100  1
  Ni  Ni29  1  0.71592900  0.43669300  0.44959900  1
  Ni  Ni30  1  0.28407100  0.56330700  0.55040100  1
  Ni  Ni31  1  0.78407100  0.43669300  0.94959900  1
  Cu  Cu32  1  0.22875900  0.21518200  0.77278300  1
  Cu  Cu33  1  0.01180500  0.18905500  0.12100300  1
  Cu  Cu34  1  0.24829700  0.01278200  0.24525100  1
  Cu  Cu35  1  0.25170300  0.01278200  0.74525100  1
  Cu  Cu36  1  0.28265200  0.11397900  0.97977400  1
  Cu  Cu37  1  0.48819500  0.18905500  0.62100300  1
  Cu  Cu38  1  0.55352400  0.78333500  0.89428500  1
  Cu  Cu39  1  0.75170300  0.98721800  0.75474900  1
  Cu  Cu40  1  0.07379500  0.89876400  0.63700800  1
  Cu  Cu41  1  0.98568600  0.03841100  0.89694700  1
  Cu  Cu42  1  0.98819500  0.81094500  0.87899700  1
  Cu  Cu43  1  0.51180500  0.81094500  0.37899700  1
  Cu  Cu44  1  0.27124100  0.21518200  0.27278200  1
  Cu  Cu45  1  0.42620500  0.89876400  0.13700800  1
  Cu  Cu46  1  0.22772000  0.34271500  0.95085600  1
  Cu  Cu47  1  0.92620500  0.10123600  0.36299200  1
  Cu  Cu48  1  0.57379500  0.10123600  0.86299200  1
  Cu  Cu49  1  0.90088900  0.23364700  0.90604700  1
  Cu  Cu50  1  0.72772000  0.65728500  0.54914400  1
  Cu  Cu51  1  0.30130600  0.90947700  0.94817800  1
  Cu  Cu52  1  0.21734800  0.11397900  0.47977400  1
  Cu  Cu53  1  0.48568600  0.96158900  0.60305300  1
  Cu  Cu54  1  0.71734800  0.88602100  0.02022600  1
  Cu  Cu55  1  0.69869400  0.09052300  0.05182200  1
  Cu  Cu56  1  0.44647600  0.21666500  0.10571500  1
  Cu  Cu57  1  0.74829700  0.98721800  0.25474900  1
  Cu  Cu58  1  0.19869400  0.90947700  0.44817800  1
  Cu  Cu59  1  0.51431400  0.03841100  0.39694700  1
  Cu  Cu60  1  0.05352400  0.21666500  0.60571500  1
  Cu  Cu61  1  0.59911100  0.23364700  0.40604700  1
  Cu  Cu62  1  0.77124100  0.78481800  0.22721700  1
  Cu  Cu63  1  0.78265200  0.88602100  0.52022600  1
  Cu  Cu64  1  0.72875900  0.78481800  0.72721700  1
  Cu  Cu65  1  0.80130600  0.09052300  0.55182200  1
  Cu  Cu66  1  0.09911100  0.76635300  0.09395300  1
  Cu  Cu67  1  0.27228000  0.34271500  0.45085600  1
  Cu  Cu68  1  0.94647600  0.78333500  0.39428500  1
  Cu  Cu69  1  0.77228000  0.65728500  0.04914400  1
  Cu  Cu70  1  0.01431400  0.96158900  0.10305300  1
  Cu  Cu71  1  0.40088900  0.76635300  0.59395300  1
