# generated using pymatgen
data_Cu4Ni5C3
_symmetry_space_group_name_H-M   'P 1'
_cell_length_a   10.96161500
_cell_length_b   7.44404300
_cell_length_c   12.82644068
_cell_angle_alpha   60.32761299
_cell_angle_beta   90.00000000
_cell_angle_gamma   90.00000000
_symmetry_Int_Tables_number   1
_chemical_formula_structural   Cu4Ni5C3
_chemical_formula_sum   'Cu16 Ni20 C12'
_cell_volume   909.37806367
_cell_formula_units_Z   4
loop_
 _symmetry_equiv_pos_site_id
 _symmetry_equiv_pos_as_xyz
  1  'x, y, z'
loop_
 _atom_site_type_symbol
 _atom_site_label
 _atom_site_symmetry_multiplicity
 _atom_site_fract_x
 _atom_site_fract_y
 _atom_site_fract_z
 _atom_site_occupancy
  Ni  Ni0  1  0.43077800  0.87668500  0.90532000  1
  Ni  Ni1  1  0.93077800  0.12331500  0.59468000  1
  Ni  Ni2  1  0.56922200  0.12331500  0.09468000  1
  Ni  Ni3  1  0.06922200  0.87668500  0.40532000  1
  Ni  Ni4  1  0.45859300  0.26958800  0.67596000  1
  Ni  Ni5  1  0.95859300  0.73041200  0.82404000  1
  Ni  Ni6  1  0.54140700  0.73041200  0.32404000  1
  Ni  Ni7  1  0.04140700  0.26958800  0.17596000  1
  Ni  Ni8  1  0.34047600  0.06132500  0.55346400  1
  Ni  Ni9  1  0.84047600  0.93867500  0.94653600  1
  Ni  Ni10  1  0.65952400  0.93867500  0.44653600  1
  Ni  Ni11  1  0.15952400  0.06132500  0.05346400  1
  Ni  Ni12  1  0.33294900  0.67229100  0.78742900  1
  Ni  Ni13  1  0.83294900  0.32770900  0.71257100  1
  Ni  Ni14  1  0.66705100  0.32770900  0.21257100  1
  Ni  Ni15  1  0.16705100  0.67229100  0.28742900  1
  Ni  Ni16  1  0.61231600  0.69976600  0.80164400  1
  Ni  Ni17  1  0.11231600  0.30023400  0.69835600  1
  Ni  Ni18  1  0.38768400  0.30023400  0.19835600  1
  Ni  Ni19  1  0.88768400  0.69976600  0.30164400  1
  Cu  Cu20  1  0.45611400  0.74410900  0.83411500  1
  Cu  Cu21  1  0.95611400  0.25589100  0.66588500  1
  Cu  Cu22  1  0.54388600  0.25589100  0.16588500  1
  Cu  Cu23  1  0.04388600  0.74410900  0.33411500  1
  Cu  Cu24  1  0.44550700  0.11883400  0.81365800  1
  Cu  Cu25  1  0.94550700  0.88116600  0.68634200  1
  Cu  Cu26  1  0.55449300  0.88116600  0.18634200  1
  Cu  Cu27  1  0.05449300  0.11883400  0.31365800  1
  Cu  Cu28  1  0.43691600  0.18848300  0.58382800  1
  Cu  Cu29  1  0.93691600  0.81151700  0.91617200  1
  Cu  Cu30  1  0.56308400  0.81151700  0.41617200  1
  Cu  Cu31  1  0.06308400  0.18848300  0.08382800  1
  Cu  Cu32  1  0.29964300  0.84183200  0.65328100  1
  Cu  Cu33  1  0.79964300  0.15816800  0.84671900  1
  Cu  Cu34  1  0.70035700  0.15816800  0.34671900  1
  Cu  Cu35  1  0.20035700  0.84183200  0.15328100  1
  C  C36  1  0.66328400  0.57324300  0.92108000  1
  C  C37  1  0.16328400  0.42675700  0.57892000  1
  C  C38  1  0.33671600  0.42675700  0.07892000  1
  C  C39  1  0.83671600  0.57324300  0.42108000  1
  C  C40  1  0.66214800  0.90806700  0.73550900  1
  C  C41  1  0.16214800  0.09193300  0.76449100  1
  C  C42  1  0.33785200  0.09193300  0.26449100  1
  C  C43  1  0.83785200  0.90806700  0.23550900  1
  C  C44  1  0.58810400  0.59658100  0.73274900  1
  C  C45  1  0.08810400  0.40341900  0.76725100  1
  C  C46  1  0.41189600  0.40341900  0.26725100  1
  C  C47  1  0.91189600  0.59658100  0.23274900  1
