# generated using pymatgen
data_Cu6Ni7C8
_symmetry_space_group_name_H-M   'P 1'
_cell_length_a   3.93272500
_cell_length_b   12.14015200
_cell_length_c   16.68130846
_cell_angle_alpha   82.27334884
_cell_angle_beta   90.00000000
_cell_angle_gamma   90.00000000
_symmetry_Int_Tables_number   1
_chemical_formula_structural   Cu6Ni7C8
_chemical_formula_sum   'Cu12 Ni14 C16'
_cell_volume   789.19940154
_cell_formula_units_Z   2
loop_
 _symmetry_equiv_pos_site_id
 _symmetry_equiv_pos_as_xyz
  1  'x, y, z'
loop_
 _atom_site_type_symbol
 _atom_site_label
 _atom_site_symmetry_multiplicity
 _atom_site_fract_x
 _atom_site_fract_y
 _atom_site_fract_z
 _atom_site_occupancy
  C  C0  1  0.75000000  0.40634700  0.11920600  1
  C  C1  1  0.25000000  0.93582300  0.89157000  1
  C  C2  1  0.25000000  0.59365300  0.88079400  1
  C  C3  1  0.25000000  0.28114600  0.87652400  1
  C  C4  1  0.75000000  0.02399500  0.37585000  1
  C  C5  1  0.25000000  0.52594500  0.29092100  1
  C  C6  1  0.25000000  0.32206800  0.52719500  1
  C  C7  1  0.75000000  0.71885400  0.12347600  1
  C  C8  1  0.75000000  0.67793200  0.47280500  1
  C  C9  1  0.75000000  0.06417700  0.10843000  1
  C  C10  1  0.75000000  0.47405500  0.70907900  1
  C  C11  1  0.25000000  0.97600500  0.62415000  1
  C  C12  1  0.25000000  0.22186500  0.23553800  1
  C  C13  1  0.75000000  0.20333200  0.68728300  1
  C  C14  1  0.25000000  0.79666800  0.31271700  1
  C  C15  1  0.75000000  0.77813500  0.76446200  1
  Ni  Ni16  1  0.25000000  0.20273600  0.37427300  1
  Ni  Ni17  1  0.75000000  0.44751400  0.42006800  1
  Ni  Ni18  1  0.75000000  0.11584200  0.53708500  1
  Ni  Ni19  1  0.25000000  0.00311500  0.24481000  1
  Ni  Ni20  1  0.25000000  0.55248600  0.57993200  1
  Ni  Ni21  1  0.75000000  0.09887000  0.93246700  1
  Ni  Ni22  1  0.25000000  0.57870600  0.05873700  1
  Ni  Ni23  1  0.25000000  0.90113000  0.06753300  1
  Ni  Ni24  1  0.75000000  0.76637100  0.92902000  1
  Ni  Ni25  1  0.75000000  0.79726400  0.62572700  1
  Ni  Ni26  1  0.75000000  0.99688500  0.75519000  1
  Ni  Ni27  1  0.25000000  0.88415800  0.46291500  1
  Ni  Ni28  1  0.75000000  0.42129400  0.94126300  1
  Ni  Ni29  1  0.25000000  0.23362900  0.07098000  1
  Cu  Cu30  1  0.25000000  0.18059000  0.67125400  1
  Cu  Cu31  1  0.75000000  0.62813500  0.78917200  1
  Cu  Cu32  1  0.25000000  0.79427800  0.78286800  1
  Cu  Cu33  1  0.25000000  0.45172000  0.78613100  1
  Cu  Cu34  1  0.75000000  0.33288100  0.61429100  1
  Cu  Cu35  1  0.75000000  0.54828000  0.21386900  1
  Cu  Cu36  1  0.25000000  0.66711900  0.38570900  1
  Cu  Cu37  1  0.75000000  0.27293200  0.77704700  1
  Cu  Cu38  1  0.25000000  0.72706800  0.22295300  1
  Cu  Cu39  1  0.25000000  0.37186500  0.21082800  1
  Cu  Cu40  1  0.75000000  0.81941000  0.32874600  1
  Cu  Cu41  1  0.75000000  0.20572200  0.21713200  1
