# generated using pymatgen
data_CuNi2C15
_symmetry_space_group_name_H-M   'P 1'
_cell_length_a   13.76184300
_cell_length_b   9.83325100
_cell_length_c   17.32591200
_cell_angle_alpha   61.39743875
_cell_angle_beta   90.00000000
_cell_angle_gamma   90.00000000
_symmetry_Int_Tables_number   1
_chemical_formula_structural   CuNi2C15
_chemical_formula_sum   'Cu4 Ni8 C60'
_cell_volume   2058.47377011
_cell_formula_units_Z   4
loop_
 _symmetry_equiv_pos_site_id
 _symmetry_equiv_pos_as_xyz
  1  'x, y, z'
loop_
 _atom_site_type_symbol
 _atom_site_label
 _atom_site_symmetry_multiplicity
 _atom_site_fract_x
 _atom_site_fract_y
 _atom_site_fract_z
 _atom_site_occupancy
  Ni  Ni0  1  0.22212800  0.40823700  0.91718600  1
  Ni  Ni1  1  0.72212800  0.59176300  0.58281400  1
  Ni  Ni2  1  0.77787200  0.59176300  0.08281400  1
  Ni  Ni3  1  0.27787200  0.40823700  0.41718600  1
  Ni  Ni4  1  0.72442700  0.21543900  0.27861300  1
  Ni  Ni5  1  0.22442700  0.78456100  0.22138700  1
  Ni  Ni6  1  0.27557300  0.78456100  0.72138700  1
  Ni  Ni7  1  0.77557300  0.21543900  0.77861300  1
  C  C8  1  0.59235600  0.89814900  0.23472200  1
  C  C9  1  0.57982900  0.24297600  0.49921500  1
  C  C10  1  0.62332100  0.66776700  0.85708400  1
  C  C11  1  0.07982900  0.75702400  0.00078500  1
  C  C12  1  0.90764400  0.89814900  0.73472200  1
  C  C13  1  0.42017100  0.75702400  0.50078500  1
  C  C14  1  0.12332100  0.33223300  0.64291600  1
  C  C15  1  0.09235600  0.10185100  0.26527800  1
  C  C16  1  0.40764400  0.10185100  0.76527800  1
  C  C17  1  0.87667900  0.66776700  0.35708400  1
  C  C18  1  0.92017100  0.24297600  0.99921500  1
  C  C19  1  0.37667900  0.33223300  0.14291600  1
  Cu  Cu20  1  0.18805500  0.10682200  0.07232600  1
  Cu  Cu21  1  0.31194500  0.10682200  0.57232600  1
  Cu  Cu22  1  0.68805500  0.89317800  0.42767400  1
  Cu  Cu23  1  0.81194500  0.89317800  0.92767400  1
  C  C24  1  0.60562000  0.36271000  0.67687700  1
  C  C25  1  0.39438000  0.63729000  0.32312300  1
  C  C26  1  0.43043000  0.39062100  0.33147900  1
  C  C27  1  0.22427400  0.66966400  0.62120700  1
  C  C28  1  0.93043000  0.60937900  0.16852100  1
  C  C29  1  0.29170400  0.93030200  0.30144100  1
  C  C30  1  0.93218200  0.08320600  0.84087900  1
  C  C31  1  0.11407700  0.00728200  0.48632100  1
  C  C32  1  0.32112100  0.50691300  0.74933500  1
  C  C33  1  0.64375300  0.00452400  0.86727700  1
  C  C34  1  0.90926600  0.60473800  0.56344500  1
  C  C35  1  0.88592300  0.99271800  0.51367900  1
  C  C36  1  0.43218200  0.91679400  0.65912100  1
  C  C37  1  0.59073400  0.60473800  0.06344500  1
  C  C38  1  0.56781800  0.08320600  0.34087900  1
  C  C39  1  0.23100900  0.13331900  0.92709300  1
  C  C40  1  0.38592300  0.00728200  0.98632100  1
  C  C41  1  0.56957000  0.60937900  0.66852100  1
  C  C42  1  0.83493300  0.35156500  0.60692200  1
  C  C43  1  0.72427400  0.33033600  0.87879300  1
  C  C44  1  0.85624700  0.00452400  0.36727700  1
  C  C45  1  0.83972600  0.64306600  0.93709500  1
  C  C46  1  0.66027400  0.64306600  0.43709500  1
  C  C47  1  0.33972600  0.35693400  0.56290500  1
  C  C48  1  0.09073400  0.39526200  0.43655500  1
  C  C49  1  0.17887900  0.50691300  0.24933500  1
  C  C50  1  0.06781800  0.91679400  0.15912100  1
  C  C51  1  0.10562000  0.63729000  0.82312300  1
  C  C52  1  0.14375300  0.99547600  0.63272300  1
  C  C53  1  0.66506700  0.35156500  0.10692200  1
  C  C54  1  0.67887900  0.49308700  0.25066500  1
  C  C55  1  0.26899100  0.13331900  0.42709300  1
  C  C56  1  0.77572600  0.33033600  0.37879300  1
  C  C57  1  0.76899100  0.86668100  0.07290700  1
  C  C58  1  0.61407700  0.99271800  0.01367900  1
  C  C59  1  0.82112100  0.49308700  0.75066500  1
  C  C60  1  0.27572600  0.66966400  0.12120700  1
  C  C61  1  0.20829600  0.93030200  0.80144100  1
  C  C62  1  0.89438000  0.36271000  0.17687700  1
  C  C63  1  0.35624700  0.99547600  0.13272300  1
  C  C64  1  0.06957000  0.39062100  0.83147900  1
  C  C65  1  0.73100900  0.86668100  0.57290700  1
  C  C66  1  0.16506700  0.64843500  0.39307800  1
  C  C67  1  0.70829600  0.06969800  0.69855900  1
  C  C68  1  0.16027400  0.35693400  0.06290500  1
  C  C69  1  0.33493300  0.64843500  0.89307800  1
  C  C70  1  0.40926600  0.39526200  0.93655500  1
  C  C71  1  0.79170400  0.06969800  0.19855900  1
