# generated using pymatgen
data_Cu16Ni4C9
_symmetry_space_group_name_H-M   'P 1'
_cell_length_a   11.53424695
_cell_length_b   11.53424695
_cell_length_c   11.53424709
_cell_angle_alpha   116.81847953
_cell_angle_beta   116.81847953
_cell_angle_gamma   116.81847363
_symmetry_Int_Tables_number   1
_chemical_formula_structural   Cu16Ni4C9
_chemical_formula_sum   'Cu16 Ni4 C9'
_cell_volume   695.92684852
_cell_formula_units_Z   1
loop_
 _symmetry_equiv_pos_site_id
 _symmetry_equiv_pos_as_xyz
  1  'x, y, z'
loop_
 _atom_site_type_symbol
 _atom_site_label
 _atom_site_symmetry_multiplicity
 _atom_site_fract_x
 _atom_site_fract_y
 _atom_site_fract_z
 _atom_site_occupancy
  C  C0  1  0.39811900  0.84950600  0.65513500  1
  C  C1  1  0.84950600  0.39811900  0.65513500  1
  C  C2  1  0.65513400  0.84950600  0.39811900  1
  C  C3  1  0.39811900  0.65513500  0.84950600  1
  C  C4  1  0.65513400  0.39811900  0.84950600  1
  C  C5  1  0.84950600  0.65513500  0.39811900  1
  Ni  Ni6  1  0.23467300  0.23467300  0.76085200  1
  Ni  Ni7  1  0.23467300  0.76085200  0.23467300  1
  Ni  Ni8  1  0.76085200  0.23467300  0.23467300  1
  Ni  Ni9  1  0.41913500  0.41913500  0.41913500  1
  C  C10  1  0.01178000  0.01178000  0.27766500  1
  C  C11  1  0.27766500  0.01178000  0.01178000  1
  C  C12  1  0.01178000  0.27766500  0.01178000  1
  Cu  Cu13  1  0.03367500  0.20459700  0.57124800  1
  Cu  Cu14  1  0.64048300  0.46746100  0.46746100  1
  Cu  Cu15  1  0.57124800  0.03367500  0.20459700  1
  Cu  Cu16  1  0.08973600  0.08973600  0.08973600  1
  Cu  Cu17  1  0.46746100  0.46746100  0.64048300  1
  Cu  Cu18  1  0.56967600  0.06163100  0.56967600  1
  Cu  Cu19  1  0.10387100  0.10387100  0.80686500  1
  Cu  Cu20  1  0.56967600  0.56967600  0.06163100  1
  Cu  Cu21  1  0.06163100  0.56967600  0.56967600  1
  Cu  Cu22  1  0.20459700  0.03367500  0.57124800  1
  Cu  Cu23  1  0.46746100  0.64048300  0.46746100  1
  Cu  Cu24  1  0.57124800  0.20459700  0.03367500  1
  Cu  Cu25  1  0.03367500  0.57124800  0.20459700  1
  Cu  Cu26  1  0.20459700  0.57124800  0.03367500  1
  Cu  Cu27  1  0.10387100  0.80686500  0.10387100  1
  Cu  Cu28  1  0.80686500  0.10387100  0.10387100  1
