# generated using pymatgen
data_Cu2Ni3C11
_symmetry_space_group_name_H-M   'P 1'
_cell_length_a   5.60104600
_cell_length_b   11.74125400
_cell_length_c   17.75078200
_cell_angle_alpha   90.00000000
_cell_angle_beta   90.00000000
_cell_angle_gamma   90.00000000
_symmetry_Int_Tables_number   1
_chemical_formula_structural   Cu2Ni3C11
_chemical_formula_sum   'Cu8 Ni12 C44'
_cell_volume   1167.35006850
_cell_formula_units_Z   4
loop_
 _symmetry_equiv_pos_site_id
 _symmetry_equiv_pos_as_xyz
  1  'x, y, z'
loop_
 _atom_site_type_symbol
 _atom_site_label
 _atom_site_symmetry_multiplicity
 _atom_site_fract_x
 _atom_site_fract_y
 _atom_site_fract_z
 _atom_site_occupancy
  C  C0  1  0.75000000  0.03923400  0.80105800  1
  C  C1  1  0.75000000  0.53923400  0.69894200  1
  C  C2  1  0.75000000  0.37121200  0.92374900  1
  C  C3  1  0.25000000  0.96076600  0.19894200  1
  C  C4  1  0.75000000  0.87121200  0.57625100  1
  C  C5  1  0.25000000  0.13218000  0.98648800  1
  C  C6  1  0.25000000  0.12878800  0.42374900  1
  C  C7  1  0.25000000  0.62878800  0.07625100  1
  C  C8  1  0.25000000  0.46076600  0.30105800  1
  C  C9  1  0.75000000  0.86782000  0.01351200  1
  C  C10  1  0.25000000  0.63218000  0.51351200  1
  C  C11  1  0.75000000  0.36782000  0.48648800  1
  Ni  Ni12  1  0.75000000  0.62932400  0.39687200  1
  Ni  Ni13  1  0.75000000  0.12932400  0.10312800  1
  Ni  Ni14  1  0.75000000  0.25546700  0.30731400  1
  Ni  Ni15  1  0.25000000  0.55486300  0.83482800  1
  Ni  Ni16  1  0.75000000  0.44513700  0.16517200  1
  Ni  Ni17  1  0.25000000  0.05486300  0.66517200  1
  Ni  Ni18  1  0.25000000  0.87067600  0.89687200  1
  Ni  Ni19  1  0.25000000  0.24453300  0.80731400  1
  Ni  Ni20  1  0.75000000  0.94513700  0.33482800  1
  Ni  Ni21  1  0.75000000  0.75546700  0.19268600  1
  Ni  Ni22  1  0.25000000  0.37067600  0.60312800  1
  Ni  Ni23  1  0.25000000  0.74453300  0.69268600  1
  Cu  Cu24  1  0.75000000  0.10261000  0.49953800  1
  Cu  Cu25  1  0.75000000  0.25579300  0.69584400  1
  Cu  Cu26  1  0.25000000  0.74420700  0.30415600  1
  Cu  Cu27  1  0.25000000  0.89739000  0.50046200  1
  Cu  Cu28  1  0.75000000  0.75579300  0.80415600  1
  Cu  Cu29  1  0.25000000  0.39739000  0.99953800  1
  Cu  Cu30  1  0.75000000  0.60261000  0.00046200  1
  Cu  Cu31  1  0.25000000  0.24420700  0.19584400  1
  C  C32  1  0.48272200  0.21639100  0.86632000  1
  C  C33  1  0.99016800  0.53084500  0.17584500  1
  C  C34  1  0.99016800  0.03084500  0.32415500  1
  C  C35  1  0.51727800  0.78360900  0.13368000  1
  C  C36  1  0.51727800  0.28360900  0.36632000  1
  C  C37  1  0.98272200  0.28360900  0.36632000  1
  C  C38  1  0.00983200  0.46915500  0.82415500  1
  C  C39  1  0.01727800  0.21639100  0.86632000  1
  C  C40  1  0.98531900  0.03544200  0.08752700  1
  C  C41  1  0.98272200  0.78360900  0.13368000  1
  C  C42  1  0.01727800  0.71639100  0.63368000  1
  C  C43  1  0.51468100  0.03544200  0.08752700  1
  C  C44  1  0.01468100  0.96455800  0.91247300  1
  C  C45  1  0.25000000  0.79655200  0.98063000  1
  C  C46  1  0.25000000  0.09695500  0.76667000  1
  C  C47  1  0.98531900  0.53544200  0.41247300  1
  C  C48  1  0.01468100  0.46455800  0.58752700  1
  C  C49  1  0.25000000  0.59695500  0.73333000  1
  C  C50  1  0.51468100  0.53544200  0.41247300  1
  C  C51  1  0.75000000  0.90304500  0.23333000  1
  C  C52  1  0.50983200  0.53084500  0.17584500  1
  C  C53  1  0.49016800  0.96915500  0.67584500  1
  C  C54  1  0.75000000  0.20344800  0.01937000  1
  C  C55  1  0.48272200  0.71639100  0.63368000  1
  C  C56  1  0.75000000  0.40304500  0.26667000  1
  C  C57  1  0.00983200  0.96915500  0.67584500  1
  C  C58  1  0.48531900  0.46455800  0.58752700  1
  C  C59  1  0.48531900  0.96455800  0.91247300  1
  C  C60  1  0.49016800  0.46915500  0.82415500  1
  C  C61  1  0.50983200  0.03084500  0.32415500  1
  C  C62  1  0.25000000  0.29655200  0.51937000  1
  C  C63  1  0.75000000  0.70344800  0.48063000  1
