# generated using pymatgen
data_CuNiC5
_symmetry_space_group_name_H-M   'P 1'
_cell_length_a   8.21086600
_cell_length_b   7.80018600
_cell_length_c   8.04394634
_cell_angle_alpha   73.68396187
_cell_angle_beta   90.00000000
_cell_angle_gamma   90.00000000
_symmetry_Int_Tables_number   1
_chemical_formula_structural   CuNiC5
_chemical_formula_sum   'Cu4 Ni4 C20'
_cell_volume   494.43665674
_cell_formula_units_Z   4
loop_
 _symmetry_equiv_pos_site_id
 _symmetry_equiv_pos_as_xyz
  1  'x, y, z'
loop_
 _atom_site_type_symbol
 _atom_site_label
 _atom_site_symmetry_multiplicity
 _atom_site_fract_x
 _atom_site_fract_y
 _atom_site_fract_z
 _atom_site_occupancy
  C  C0  1  0.12581000  0.22904500  0.81471600  1
  C  C1  1  0.62581000  0.77095500  0.68528400  1
  C  C2  1  0.87419000  0.77095500  0.18528400  1
  C  C3  1  0.37419000  0.22904500  0.31471600  1
  Ni  Ni4  1  0.84723600  0.33433900  0.50857500  1
  Ni  Ni5  1  0.34723600  0.66566100  0.99142500  1
  Ni  Ni6  1  0.15276400  0.66566100  0.49142500  1
  Ni  Ni7  1  0.65276400  0.33433900  0.00857500  1
  Cu  Cu8  1  0.63518200  0.23286200  0.78105200  1
  Cu  Cu9  1  0.13518200  0.76713800  0.71894800  1
  Cu  Cu10  1  0.36481800  0.76713800  0.21894800  1
  Cu  Cu11  1  0.86481800  0.23286200  0.28105200  1
  C  C12  1  0.56705200  0.33064900  0.91733200  1
  C  C13  1  0.06705200  0.66935100  0.58266800  1
  C  C14  1  0.43294800  0.66935100  0.08266800  1
  C  C15  1  0.93294800  0.33064900  0.41733200  1
  C  C16  1  0.74441700  0.36650000  0.66486100  1
  C  C17  1  0.24441700  0.63350000  0.83513900  1
  C  C18  1  0.25558300  0.63350000  0.33513900  1
  C  C19  1  0.75558300  0.36650000  0.16486100  1
  C  C20  1  0.48913800  0.19718500  0.69300800  1
  C  C21  1  0.98913800  0.80281500  0.80699200  1
  C  C22  1  0.51086200  0.80281500  0.30699200  1
  C  C23  1  0.01086200  0.19718500  0.19300800  1
  C  C24  1  0.72391000  0.07370000  0.87827600  1
  C  C25  1  0.22391000  0.92630000  0.62172400  1
  C  C26  1  0.27609000  0.92630000  0.12172400  1
  C  C27  1  0.77609000  0.07370000  0.37827600  1
