# generated using pymatgen
data_Cu9NiC13
_symmetry_space_group_name_H-M   'P 1'
_cell_length_a   8.14261200
_cell_length_b   8.99456840
_cell_length_c   12.54992556
_cell_angle_alpha   86.77054647
_cell_angle_beta   82.60124831
_cell_angle_gamma   67.99222003
_symmetry_Int_Tables_number   1
_chemical_formula_structural   Cu9NiC13
_chemical_formula_sum   'Cu18 Ni2 C26'
_cell_volume   845.04414146
_cell_formula_units_Z   2
loop_
 _symmetry_equiv_pos_site_id
 _symmetry_equiv_pos_as_xyz
  1  'x, y, z'
loop_
 _atom_site_type_symbol
 _atom_site_label
 _atom_site_symmetry_multiplicity
 _atom_site_fract_x
 _atom_site_fract_y
 _atom_site_fract_z
 _atom_site_occupancy
  C  C0  1  0.13914300  0.37263000  0.75137500  1
  C  C1  1  0.33283100  0.08554000  0.73069900  1
  C  C2  1  0.56623400  0.73090300  0.18013300  1
  C  C3  1  0.86085700  0.62737000  0.24862500  1
  C  C4  1  0.43376600  0.26909700  0.81986700  1
  C  C5  1  0.66716900  0.91446000  0.26930100  1
  C  C6  1  0.46391400  0.45177000  0.82541900  1
  C  C7  1  0.66259400  0.15099200  0.80112300  1
  C  C8  1  0.99906600  0.63606000  0.12584500  1
  C  C9  1  0.77348000  0.95589700  0.37113700  1
  C  C10  1  0.53608600  0.54823000  0.17458100  1
  C  C11  1  0.45848300  0.06706100  0.30525100  1
  C  C12  1  0.24714300  0.00193000  0.84939400  1
  C  C13  1  0.00093400  0.36394000  0.87415500  1
  C  C14  1  0.33740600  0.84900800  0.19887700  1
  C  C15  1  0.00044700  0.38337700  0.65234100  1
  C  C16  1  0.63556900  0.76717100  0.04203900  1
  C  C17  1  0.37039200  0.27211000  0.68000100  1
  C  C18  1  0.75285700  0.99807000  0.15060600  1
  C  C19  1  0.62960800  0.72789000  0.31999900  1
  C  C20  1  0.11720500  0.57501200  0.74022300  1
  C  C21  1  0.22652000  0.04410300  0.62886300  1
  C  C22  1  0.88279500  0.42498800  0.25977700  1
  C  C23  1  0.99955300  0.61662300  0.34765900  1
  C  C24  1  0.36443100  0.23282900  0.95796100  1
  C  C25  1  0.54151700  0.93293900  0.69474900  1
  Ni  Ni26  1  0.46678700  0.31657900  0.55941900  1
  Ni  Ni27  1  0.53321300  0.68342100  0.44058100  1
  Cu  Cu28  1  0.09385600  0.60413300  0.41206000  1
  Cu  Cu29  1  0.90805200  0.36277900  0.95204000  1
  Cu  Cu30  1  0.81491200  0.07951200  0.78812300  1
  Cu  Cu31  1  0.50851200  0.43136400  0.17068700  1
  Cu  Cu32  1  0.90614400  0.39586700  0.58794000  1
  Cu  Cu33  1  0.18508800  0.92048800  0.21187700  1
  Cu  Cu34  1  0.67559000  0.82983000  0.66913200  1
  Cu  Cu35  1  0.32286800  0.21031500  0.04734200  1
  Cu  Cu36  1  0.67713200  0.78968500  0.95265800  1
  Cu  Cu37  1  0.19695400  0.94442500  0.92493500  1
  Cu  Cu38  1  0.16160700  0.01260300  0.56113900  1
  Cu  Cu39  1  0.89764200  0.29210400  0.27021600  1
  Cu  Cu40  1  0.80304600  0.05557500  0.07506500  1
  Cu  Cu41  1  0.83839300  0.98739700  0.43886100  1
  Cu  Cu42  1  0.09194800  0.63722100  0.04796000  1
  Cu  Cu43  1  0.49148800  0.56863600  0.82931300  1
  Cu  Cu44  1  0.10235800  0.70789600  0.72978400  1
  Cu  Cu45  1  0.32441000  0.17017000  0.33086800  1
