# generated using pymatgen
data_Cu2NiC5
_symmetry_space_group_name_H-M   'P 1'
_cell_length_a   10.42076555
_cell_length_b   10.42076555
_cell_length_c   8.37579900
_cell_angle_alpha   90.00000000
_cell_angle_beta   90.00000000
_cell_angle_gamma   145.59204863
_symmetry_Int_Tables_number   1
_chemical_formula_structural   Cu2NiC5
_chemical_formula_sum   'Cu4 Ni2 C10'
_cell_volume   513.96860338
_cell_formula_units_Z   2
loop_
 _symmetry_equiv_pos_site_id
 _symmetry_equiv_pos_as_xyz
  1  'x, y, z'
loop_
 _atom_site_type_symbol
 _atom_site_label
 _atom_site_symmetry_multiplicity
 _atom_site_fract_x
 _atom_site_fract_y
 _atom_site_fract_z
 _atom_site_occupancy
  C  C0  1  0.45354100  0.82195900  0.75000000  1
  C  C1  1  0.82195900  0.45354100  0.25000000  1
  Ni  Ni2  1  0.52260100  0.29715400  0.75000000  1
  Ni  Ni3  1  0.29715400  0.52260100  0.25000000  1
  Cu  Cu4  1  0.37357100  0.37357100  0.00000000  1
  Cu  Cu5  1  0.37357100  0.37357100  0.50000000  1
  Cu  Cu6  1  0.02463800  0.79551600  0.75000000  1
  Cu  Cu7  1  0.79551600  0.02463800  0.25000000  1
  C  C8  1  0.65082400  0.63091200  0.75000000  1
  C  C9  1  0.63091200  0.65082400  0.25000000  1
  C  C10  1  0.30665800  0.06793300  0.99356100  1
  C  C11  1  0.06793300  0.30665800  0.49356100  1
  C  C12  1  0.41057800  0.83937200  0.25000000  1
  C  C13  1  0.06793300  0.30665800  0.00643900  1
  C  C14  1  0.30665800  0.06793300  0.50643900  1
  C  C15  1  0.83937200  0.41057800  0.75000000  1
