# generated using pymatgen
data_Cu3(Ni5C11)2
_symmetry_space_group_name_H-M   'P 1'
_cell_length_a   5.23150800
_cell_length_b   8.98686000
_cell_length_c   14.34582700
_cell_angle_alpha   90.00000000
_cell_angle_beta   90.00000000
_cell_angle_gamma   90.00000000
_symmetry_Int_Tables_number   1
_chemical_formula_structural   Cu3(Ni5C11)2
_chemical_formula_sum   'Cu6 Ni20 C44'
_cell_volume   674.46661740
_cell_formula_units_Z   2
loop_
 _symmetry_equiv_pos_site_id
 _symmetry_equiv_pos_as_xyz
  1  'x, y, z'
loop_
 _atom_site_type_symbol
 _atom_site_label
 _atom_site_symmetry_multiplicity
 _atom_site_fract_x
 _atom_site_fract_y
 _atom_site_fract_z
 _atom_site_occupancy
  Ni  Ni0  1  0.50000000  0.17541900  0.00000000  1
  Ni  Ni1  1  0.33957300  0.00000000  0.17387700  1
  Ni  Ni2  1  0.83957300  0.50000000  0.32612300  1
  Ni  Ni3  1  0.34389800  0.67540500  0.32209600  1
  Ni  Ni4  1  0.00000000  0.32458100  0.50000000  1
  Ni  Ni5  1  0.16042700  0.50000000  0.67387700  1
  Ni  Ni6  1  0.00000000  0.65989400  0.00000000  1
  Ni  Ni7  1  0.65610200  0.32459500  0.67790400  1
  Ni  Ni8  1  0.15610200  0.17540500  0.82209600  1
  Ni  Ni9  1  0.50000000  0.82458100  0.00000000  1
  Ni  Ni10  1  0.00000000  0.34010600  0.00000000  1
  Ni  Ni11  1  0.15610200  0.82459500  0.82209600  1
  Ni  Ni12  1  0.00000000  0.67541900  0.50000000  1
  Ni  Ni13  1  0.84389800  0.82459500  0.17790400  1
  Ni  Ni14  1  0.66042700  0.00000000  0.82612300  1
  Ni  Ni15  1  0.50000000  0.15989400  0.50000000  1
  Ni  Ni16  1  0.34389800  0.32459500  0.32209600  1
  Ni  Ni17  1  0.50000000  0.84010600  0.50000000  1
  Ni  Ni18  1  0.84389800  0.17540500  0.17790400  1
  Ni  Ni19  1  0.65610200  0.67540500  0.67790400  1
  Cu  Cu20  1  0.50000000  0.50000000  0.50000000  1
  Cu  Cu21  1  0.48398800  0.50000000  0.87694400  1
  Cu  Cu22  1  0.00000000  0.00000000  0.00000000  1
  Cu  Cu23  1  0.01601200  0.00000000  0.37694400  1
  Cu  Cu24  1  0.98398800  0.00000000  0.62305600  1
  Cu  Cu25  1  0.51601200  0.50000000  0.12305600  1
  C  C26  1  0.42377100  0.10048400  0.69027400  1
  C  C27  1  0.92377100  0.39951600  0.80972600  1
  C  C28  1  0.92377100  0.60048400  0.80972600  1
  C  C29  1  0.07622900  0.60048400  0.19027400  1
  C  C30  1  0.57622900  0.89951600  0.30972600  1
  C  C31  1  0.07622900  0.39951600  0.19027400  1
  C  C32  1  0.57622900  0.10048400  0.30972600  1
  C  C33  1  0.42377100  0.89951600  0.69027400  1
  C  C34  1  0.68258400  0.00000000  0.08175800  1
  C  C35  1  0.82390400  0.83364200  0.58442900  1
  C  C36  1  0.68866000  0.00000000  0.41475400  1
  C  C37  1  0.82390400  0.16635800  0.58442900  1
  C  C38  1  0.52124300  0.15639400  0.25378300  1
  C  C39  1  0.97875700  0.34360600  0.75378300  1
  C  C40  1  0.01048900  0.00000000  0.25246800  1
  C  C41  1  0.65134600  0.34948300  0.42382000  1
  C  C42  1  0.47875700  0.15639400  0.74621700  1
  C  C43  1  0.32390400  0.66635800  0.91557100  1
  C  C44  1  0.67609600  0.66635800  0.08442900  1
  C  C45  1  0.15134600  0.15051700  0.07618000  1
  C  C46  1  0.31134000  0.00000000  0.58524600  1
  C  C47  1  0.32390400  0.33364200  0.91557100  1
  C  C48  1  0.47875700  0.84360600  0.74621700  1
  C  C49  1  0.02124300  0.65639400  0.24621700  1
  C  C50  1  0.31741600  0.00000000  0.91824200  1
  C  C51  1  0.65134600  0.65051700  0.42382000  1
  C  C52  1  0.34865400  0.65051700  0.57618000  1
  C  C53  1  0.98951100  0.00000000  0.74753200  1
  C  C54  1  0.48951100  0.50000000  0.75246800  1
  C  C55  1  0.18866000  0.50000000  0.08524600  1
  C  C56  1  0.84865400  0.84948300  0.92382000  1
  C  C57  1  0.81741600  0.50000000  0.58175800  1
  C  C58  1  0.81134000  0.50000000  0.91475400  1
  C  C59  1  0.34865400  0.34948300  0.57618000  1
  C  C60  1  0.17609600  0.16635800  0.41557100  1
  C  C61  1  0.18258400  0.50000000  0.41824200  1
  C  C62  1  0.02124300  0.34360600  0.24621700  1
  C  C63  1  0.15134600  0.84948300  0.07618000  1
  C  C64  1  0.17609600  0.83364200  0.41557100  1
  C  C65  1  0.84865400  0.15051700  0.92382000  1
  C  C66  1  0.97875700  0.65639400  0.75378300  1
  C  C67  1  0.52124300  0.84360600  0.25378300  1
  C  C68  1  0.51048900  0.50000000  0.24753200  1
  C  C69  1  0.67609600  0.33364200  0.08442900  1
