# generated using pymatgen
data_Cu2Ni2C7
_symmetry_space_group_name_H-M   'P 1'
_cell_length_a   13.93557504
_cell_length_b   13.93557504
_cell_length_c   7.57796400
_cell_angle_alpha   90.00000000
_cell_angle_beta   90.00000000
_cell_angle_gamma   119.83218495
_symmetry_Int_Tables_number   1
_chemical_formula_structural   Cu2Ni2C7
_chemical_formula_sum   'Cu16 Ni16 C56'
_cell_volume   1276.62950016
_cell_formula_units_Z   8
loop_
 _symmetry_equiv_pos_site_id
 _symmetry_equiv_pos_as_xyz
  1  'x, y, z'
loop_
 _atom_site_type_symbol
 _atom_site_label
 _atom_site_symmetry_multiplicity
 _atom_site_fract_x
 _atom_site_fract_y
 _atom_site_fract_z
 _atom_site_occupancy
  Ni  Ni0  1  0.23582700  0.72690000  0.52025500  1
  Ni  Ni1  1  0.49493600  0.75426300  0.95357600  1
  Ni  Ni2  1  0.75426300  0.49493600  0.04642400  1
  Ni  Ni3  1  0.72690000  0.23582700  0.47974500  1
  Ni  Ni4  1  0.25184400  0.01167300  0.95167600  1
  Ni  Ni5  1  0.28361500  0.28361500  0.00000000  1
  Ni  Ni6  1  0.29170400  0.29170400  0.50000000  1
  Ni  Ni7  1  0.79170400  0.79170400  0.00000000  1
  Ni  Ni8  1  0.73582700  0.22690000  0.97974500  1
  Ni  Ni9  1  0.25426300  0.99493600  0.45357600  1
  Ni  Ni10  1  0.99493600  0.25426300  0.54642400  1
  Ni  Ni11  1  0.01167300  0.25184400  0.04832400  1
  Ni  Ni12  1  0.51167300  0.75184400  0.45167600  1
  Ni  Ni13  1  0.78361500  0.78361500  0.50000000  1
  Ni  Ni14  1  0.75184400  0.51167300  0.54832400  1
  Ni  Ni15  1  0.22690000  0.73582700  0.02025500  1
  Cu  Cu16  1  0.46470100  0.96754600  0.73953000  1
  Cu  Cu17  1  0.04250500  0.04102800  0.25002800  1
  Cu  Cu18  1  0.96754600  0.46470100  0.26047000  1
  Cu  Cu19  1  0.54102800  0.54250500  0.75002800  1
  Cu  Cu20  1  0.75543300  0.03107300  0.24966000  1
  Cu  Cu21  1  0.96470100  0.46754600  0.76047000  1
  Cu  Cu22  1  0.24994100  0.47974000  0.75685700  1
  Cu  Cu23  1  0.03107300  0.75543300  0.75034000  1
  Cu  Cu24  1  0.74994100  0.97974000  0.74314300  1
  Cu  Cu25  1  0.97974000  0.74994100  0.25685700  1
  Cu  Cu26  1  0.25543300  0.53107300  0.25034000  1
  Cu  Cu27  1  0.47974000  0.24994100  0.24314300  1
  Cu  Cu28  1  0.53107300  0.25543300  0.74966000  1
  Cu  Cu29  1  0.54250500  0.54102800  0.24997200  1
  Cu  Cu30  1  0.04102800  0.04250500  0.74997200  1
  Cu  Cu31  1  0.46754600  0.96470100  0.23953000  1
  C  C32  1  0.06485200  0.91793300  0.70960800  1
  C  C33  1  0.56485200  0.41793300  0.79039200  1
  C  C34  1  0.69575900  0.63133300  0.69484900  1
  C  C35  1  0.95070000  0.59065400  0.19014600  1
  C  C36  1  0.37710500  0.20943900  0.44106500  1
  C  C37  1  0.19575900  0.13133300  0.80515100  1
  C  C38  1  0.66291600  0.50741800  0.27329300  1
  C  C39  1  0.09065400  0.45070000  0.69014600  1
  C  C40  1  0.86735600  0.31071700  0.73306900  1
  C  C41  1  0.13603800  0.82028100  0.94512600  1
  C  C42  1  0.20943900  0.37710500  0.55893500  1
  C  C43  1  0.87710500  0.70943900  0.05893500  1
  C  C44  1  0.07168800  0.62809000  0.78244800  1
  C  C45  1  0.38317500  0.19059300  0.04417400  1
  C  C46  1  0.50741800  0.66291600  0.72670700  1
  C  C47  1  0.58712500  0.58712500  0.00000000  1
  C  C48  1  0.44343800  0.38172100  0.19586200  1
  C  C49  1  0.70943900  0.87710500  0.94106500  1
  C  C50  1  0.44031900  0.99317600  0.99227700  1
  C  C51  1  0.50003500  0.84545200  0.19520200  1
  C  C52  1  0.59065400  0.95070000  0.80985400  1
  C  C53  1  0.32028100  0.63603800  0.44512600  1
  C  C54  1  0.57168800  0.12809000  0.71755200  1
  C  C55  1  0.49527500  0.49527500  0.50000000  1
  C  C56  1  0.69059300  0.88317500  0.54417400  1
  C  C57  1  0.94343800  0.88172100  0.30413800  1
  C  C58  1  0.84545200  0.50003500  0.80479800  1
  C  C59  1  0.79307400  0.12475100  0.45493300  1
  C  C60  1  0.34545200  0.00003500  0.69520200  1
  C  C61  1  0.49317600  0.94031900  0.49227700  1
  C  C62  1  0.99317600  0.44031900  0.00772300  1
  C  C63  1  0.82028100  0.13603800  0.05487400  1
  C  C64  1  0.12475100  0.79307400  0.54506700  1
  C  C65  1  0.63133300  0.69575900  0.30515100  1
  C  C66  1  0.29307400  0.62475100  0.04506700  1
  C  C67  1  0.91793300  0.06485200  0.29039200  1
  C  C68  1  0.08712500  0.08712500  0.50000000  1
  C  C69  1  0.45070000  0.09065400  0.30985400  1
  C  C70  1  0.88172100  0.94343800  0.69586200  1
  C  C71  1  0.94031900  0.49317600  0.50772300  1
  C  C72  1  0.00003500  0.34545200  0.30479800  1
  C  C73  1  0.62809000  0.07168800  0.21755200  1
  C  C74  1  0.88317500  0.69059300  0.45582600  1
  C  C75  1  0.00741800  0.16291600  0.77329300  1
  C  C76  1  0.16291600  0.00741800  0.22670700  1
  C  C77  1  0.62475100  0.29307400  0.95493300  1
  C  C78  1  0.31071700  0.86735600  0.26693100  1
  C  C79  1  0.81071700  0.36735600  0.23306900  1
  C  C80  1  0.12809000  0.57168800  0.28244800  1
  C  C81  1  0.36735600  0.81071700  0.76693100  1
  C  C82  1  0.63603800  0.32028100  0.55487400  1
  C  C83  1  0.38172100  0.44343800  0.80413800  1
  C  C84  1  0.99527500  0.99527500  0.00000000  1
  C  C85  1  0.13133300  0.19575900  0.19484900  1
  C  C86  1  0.19059300  0.38317500  0.95582600  1
  C  C87  1  0.41793300  0.56485200  0.20960800  1
