# generated using pymatgen
data_Cu12Ni3C
_symmetry_space_group_name_H-M   'P 1'
_cell_length_a   6.37663100
_cell_length_b   6.47226200
_cell_length_c   18.61154000
_cell_angle_alpha   90.00000000
_cell_angle_beta   90.00000000
_cell_angle_gamma   90.00000000
_symmetry_Int_Tables_number   1
_chemical_formula_structural   Cu12Ni3C
_chemical_formula_sum   'Cu48 Ni12 C4'
_cell_volume   768.12108303
_cell_formula_units_Z   4
loop_
 _symmetry_equiv_pos_site_id
 _symmetry_equiv_pos_as_xyz
  1  'x, y, z'
loop_
 _atom_site_type_symbol
 _atom_site_label
 _atom_site_symmetry_multiplicity
 _atom_site_fract_x
 _atom_site_fract_y
 _atom_site_fract_z
 _atom_site_occupancy
  C  C0  1  0.79043100  0.84428600  0.87029500  1
  C  C1  1  0.29043100  0.15571400  0.12970500  1
  C  C2  1  0.79043100  0.65571400  0.37029500  1
  C  C3  1  0.29043100  0.34428600  0.62970500  1
  Ni  Ni4  1  0.51528500  0.51889900  0.41655400  1
  Ni  Ni5  1  0.93625400  0.50605700  0.28023400  1
  Ni  Ni6  1  0.01528500  0.48110100  0.58344600  1
  Ni  Ni7  1  0.51528500  0.98110100  0.91655400  1
  Ni  Ni8  1  0.01528500  0.01889900  0.08344600  1
  Ni  Ni9  1  0.93625400  0.99394300  0.78023400  1
  Ni  Ni10  1  0.42735200  0.43413500  0.08853200  1
  Ni  Ni11  1  0.92735200  0.56586500  0.91146800  1
  Ni  Ni12  1  0.92735200  0.93413500  0.41146800  1
  Ni  Ni13  1  0.42735200  0.06586500  0.58853200  1
  Ni  Ni14  1  0.43625400  0.00605700  0.21976600  1
  Ni  Ni15  1  0.43625400  0.49394300  0.71976600  1
  Cu  Cu16  1  0.01102700  0.16553700  0.12869700  1
  Cu  Cu17  1  0.08362400  0.00037300  0.38382800  1
  Cu  Cu18  1  0.20100800  0.97493200  0.06464500  1
  Cu  Cu19  1  0.47906400  0.53433400  0.65476400  1
  Cu  Cu20  1  0.86730700  0.34898500  0.25533200  1
  Cu  Cu21  1  0.70100800  0.02506800  0.93535500  1
  Cu  Cu22  1  0.78931900  0.86231200  0.77489500  1
  Cu  Cu23  1  0.01102700  0.33446300  0.62869700  1
  Cu  Cu24  1  0.28931900  0.36231200  0.72510500  1
  Cu  Cu25  1  0.34824900  0.52103200  0.03842700  1
  Cu  Cu26  1  0.36730700  0.65101500  0.74466800  1
  Cu  Cu27  1  0.44564900  0.13123500  0.88708800  1
  Cu  Cu28  1  0.93307700  0.08674100  0.03040100  1
  Cu  Cu29  1  0.58362400  0.99962700  0.61617200  1
  Cu  Cu30  1  0.58979600  0.08571500  0.24484200  1
  Cu  Cu31  1  0.94565000  0.86876500  0.11291200  1
  Cu  Cu32  1  0.08979600  0.58571500  0.25515800  1
  Cu  Cu33  1  0.94565000  0.63123500  0.61291200  1
  Cu  Cu34  1  0.34824900  0.97896800  0.53842700  1
  Cu  Cu35  1  0.84824900  0.02103200  0.46157300  1
  Cu  Cu36  1  0.58362400  0.50037300  0.11617200  1
  Cu  Cu37  1  0.36730700  0.84898500  0.24466800  1
  Cu  Cu38  1  0.47906400  0.96566600  0.15476400  1
  Cu  Cu39  1  0.08979600  0.91428500  0.75515800  1
  Cu  Cu40  1  0.28931900  0.13768800  0.22510500  1
  Cu  Cu41  1  0.47238400  0.24620000  0.56622300  1
  Cu  Cu42  1  0.47238400  0.25380000  0.06622300  1
  Cu  Cu43  1  0.58979600  0.41428500  0.74484200  1
  Cu  Cu44  1  0.44564900  0.36876500  0.38708800  1
  Cu  Cu45  1  0.43307700  0.91325900  0.96959900  1
  Cu  Cu46  1  0.70100800  0.47493200  0.43535500  1
  Cu  Cu47  1  0.93307700  0.41325900  0.53040100  1
  Cu  Cu48  1  0.43307700  0.58674100  0.46959900  1
  Cu  Cu49  1  0.97906400  0.03433400  0.84523600  1
  Cu  Cu50  1  0.84824900  0.47896800  0.96157300  1
  Cu  Cu51  1  0.86730700  0.15101500  0.75533200  1
  Cu  Cu52  1  0.97238400  0.75380000  0.43377700  1
  Cu  Cu53  1  0.51102700  0.83446300  0.87130300  1
  Cu  Cu54  1  0.78931900  0.63768800  0.27489500  1
  Cu  Cu55  1  0.51102700  0.66553700  0.37130300  1
  Cu  Cu56  1  0.78847500  0.92891500  0.36247100  1
  Cu  Cu57  1  0.28847500  0.42891500  0.13752900  1
  Cu  Cu58  1  0.97906400  0.46566600  0.34523600  1
  Cu  Cu59  1  0.78847500  0.57108500  0.86247100  1
  Cu  Cu60  1  0.20100800  0.52506800  0.56464500  1
  Cu  Cu61  1  0.08362400  0.49962700  0.88382800  1
  Cu  Cu62  1  0.28847500  0.07108500  0.63752900  1
  Cu  Cu63  1  0.97238400  0.74620000  0.93377700  1
