# generated using pymatgen
data_Cu2Ni2C9
_symmetry_space_group_name_H-M   'P 1'
_cell_length_a   5.74799552
_cell_length_b   5.74799552
_cell_length_c   8.58503800
_cell_angle_alpha   90.00000000
_cell_angle_beta   90.00000000
_cell_angle_gamma   119.99999445
_symmetry_Int_Tables_number   1
_chemical_formula_structural   Cu2Ni2C9
_chemical_formula_sum   'Cu2 Ni2 C9'
_cell_volume   245.64375040
_cell_formula_units_Z   1
loop_
 _symmetry_equiv_pos_site_id
 _symmetry_equiv_pos_as_xyz
  1  'x, y, z'
loop_
 _atom_site_type_symbol
 _atom_site_label
 _atom_site_symmetry_multiplicity
 _atom_site_fract_x
 _atom_site_fract_y
 _atom_site_fract_z
 _atom_site_occupancy
  C  C0  1  0.66666700  0.33333300  0.40736700  1
  C  C1  1  0.33333300  0.66666700  0.59263300  1
  Ni  Ni2  1  0.00000000  0.00000000  0.79853800  1
  Ni  Ni3  1  0.00000000  0.00000000  0.20146200  1
  Cu  Cu4  1  0.33333300  0.66666700  0.15264900  1
  Cu  Cu5  1  0.66666700  0.33333300  0.84735100  1
  C  C6  1  0.33443000  0.16721500  0.72131000  1
  C  C7  1  0.16721500  0.83278500  0.27869000  1
  C  C8  1  0.83278500  0.16721500  0.72131000  1
  C  C9  1  0.83278500  0.66557000  0.72131000  1
  C  C10  1  0.66557000  0.83278500  0.27869000  1
  C  C11  1  0.00000000  0.00000000  0.00000000  1
  C  C12  1  0.16721500  0.33443000  0.27869000  1
