# generated using pymatgen
data_CuNiC7
_symmetry_space_group_name_H-M   'P 1'
_cell_length_a   8.08289600
_cell_length_b   10.12700900
_cell_length_c   13.40851000
_cell_angle_alpha   90.00000000
_cell_angle_beta   90.00000000
_cell_angle_gamma   90.00000000
_symmetry_Int_Tables_number   1
_chemical_formula_structural   CuNiC7
_chemical_formula_sum   'Cu4 Ni4 C28'
_cell_volume   1097.56110203
_cell_formula_units_Z   4
loop_
 _symmetry_equiv_pos_site_id
 _symmetry_equiv_pos_as_xyz
  1  'x, y, z'
loop_
 _atom_site_type_symbol
 _atom_site_label
 _atom_site_symmetry_multiplicity
 _atom_site_fract_x
 _atom_site_fract_y
 _atom_site_fract_z
 _atom_site_occupancy
  C  C0  1  0.79130600  0.25000000  0.58307200  1
  C  C1  1  0.29130600  0.75000000  0.91692800  1
  C  C2  1  0.20869400  0.75000000  0.41692800  1
  C  C3  1  0.70869400  0.25000000  0.08307200  1
  Ni  Ni4  1  0.65538500  0.75000000  0.05520200  1
  Ni  Ni5  1  0.15538500  0.25000000  0.44479800  1
  Ni  Ni6  1  0.34461500  0.25000000  0.94479800  1
  Ni  Ni7  1  0.84461500  0.75000000  0.55520200  1
  Cu  Cu8  1  0.46032200  0.25000000  0.99666300  1
  Cu  Cu9  1  0.03967800  0.25000000  0.49666300  1
  Cu  Cu10  1  0.53967800  0.75000000  0.00333700  1
  Cu  Cu11  1  0.96032200  0.75000000  0.50333700  1
  C  C12  1  0.71476400  0.41537700  0.46624500  1
  C  C13  1  0.46596800  0.75000000  0.33232700  1
  C  C14  1  0.08271100  0.58515200  0.31557600  1
  C  C15  1  0.03403200  0.75000000  0.83232700  1
  C  C16  1  0.31397100  0.25000000  0.37407000  1
  C  C17  1  0.96596800  0.25000000  0.16767300  1
  C  C18  1  0.81397100  0.75000000  0.12593000  1
  C  C19  1  0.08271100  0.91484800  0.31557600  1
  C  C20  1  0.28523600  0.58462300  0.53375500  1
  C  C21  1  0.21476400  0.91537700  0.03375500  1
  C  C22  1  0.91728900  0.08515200  0.68442400  1
  C  C23  1  0.21476400  0.58462300  0.03375500  1
  C  C24  1  0.53403200  0.25000000  0.66767300  1
  C  C25  1  0.71476400  0.08462300  0.46624500  1
  C  C26  1  0.91728900  0.41484800  0.68442400  1
  C  C27  1  0.68602900  0.75000000  0.62593000  1
  C  C28  1  0.28523600  0.91537700  0.53375500  1
  C  C29  1  0.18602900  0.25000000  0.87407000  1
  C  C30  1  0.58271100  0.41484800  0.18442400  1
  C  C31  1  0.41728900  0.91484800  0.81557600  1
  C  C32  1  0.58271100  0.08515200  0.18442400  1
  C  C33  1  0.78523600  0.41537700  0.96624500  1
  C  C34  1  0.78523600  0.08462300  0.96624500  1
  C  C35  1  0.41728900  0.58515200  0.81557600  1
