# generated using pymatgen
data_CuNiC7
_symmetry_space_group_name_H-M   'P 1'
_cell_length_a   8.81769759
_cell_length_b   8.81769759
_cell_length_c   4.79596400
_cell_angle_alpha   90.00000000
_cell_angle_beta   90.00000000
_cell_angle_gamma   119.99999694
_symmetry_Int_Tables_number   1
_chemical_formula_structural   CuNiC7
_chemical_formula_sum   'Cu3 Ni3 C21'
_cell_volume   322.93637081
_cell_formula_units_Z   3
loop_
 _symmetry_equiv_pos_site_id
 _symmetry_equiv_pos_as_xyz
  1  'x, y, z'
loop_
 _atom_site_type_symbol
 _atom_site_label
 _atom_site_symmetry_multiplicity
 _atom_site_fract_x
 _atom_site_fract_y
 _atom_site_fract_z
 _atom_site_occupancy
  C  C0  1  0.29841700  0.00000000  0.50000000  1
  C  C1  1  0.00000000  0.29841700  0.50000000  1
  C  C2  1  0.70158300  0.70158300  0.50000000  1
  Ni  Ni3  1  0.63942500  0.00000000  0.00000000  1
  Ni  Ni4  1  0.00000000  0.63942500  0.00000000  1
  Ni  Ni5  1  0.36057500  0.36057500  0.00000000  1
  Cu  Cu6  1  0.00000000  0.00000000  0.00000000  1
  Cu  Cu7  1  0.33333300  0.66666700  0.50306300  1
  Cu  Cu8  1  0.66666700  0.33333300  0.49693700  1
  C  C9  1  0.09901500  0.88885600  0.77788800  1
  C  C10  1  0.11114400  0.21015900  0.77788800  1
  C  C11  1  0.78984100  0.90098500  0.77788800  1
  C  C12  1  0.21015900  0.11114400  0.22211200  1
  C  C13  1  0.90098500  0.78984100  0.22211200  1
  C  C14  1  0.88885600  0.09901500  0.22211200  1
  C  C15  1  0.45346800  0.57901400  0.72885600  1
  C  C16  1  0.42098600  0.87445400  0.72885600  1
  C  C17  1  0.12554600  0.54653200  0.72885600  1
  C  C18  1  0.87445400  0.42098600  0.27114400  1
  C  C19  1  0.54653200  0.12554600  0.27114400  1
  C  C20  1  0.57901400  0.45346800  0.27114400  1
  C  C21  1  0.22359900  0.76708000  0.28190400  1
  C  C22  1  0.23292000  0.45651900  0.28190400  1
  C  C23  1  0.54348100  0.77640100  0.28190400  1
  C  C24  1  0.45651900  0.23292000  0.71809600  1
  C  C25  1  0.77640100  0.54348100  0.71809600  1
  C  C26  1  0.76708000  0.22359900  0.71809600  1
