# generated using pymatgen
data_Cu2NiC5
_symmetry_space_group_name_H-M   'P 1'
_cell_length_a   7.83107900
_cell_length_b   10.42750100
_cell_length_c   15.73808700
_cell_angle_alpha   90.00000000
_cell_angle_beta   90.00000000
_cell_angle_gamma   90.00000000
_symmetry_Int_Tables_number   1
_chemical_formula_structural   Cu2NiC5
_chemical_formula_sum   'Cu16 Ni8 C40'
_cell_volume   1285.14990092
_cell_formula_units_Z   8
loop_
 _symmetry_equiv_pos_site_id
 _symmetry_equiv_pos_as_xyz
  1  'x, y, z'
loop_
 _atom_site_type_symbol
 _atom_site_label
 _atom_site_symmetry_multiplicity
 _atom_site_fract_x
 _atom_site_fract_y
 _atom_site_fract_z
 _atom_site_occupancy
  C  C0  1  0.39563700  0.22170200  0.53650200  1
  C  C1  1  0.35126300  0.49167800  0.38918500  1
  C  C2  1  0.89563700  0.27829800  0.53650200  1
  C  C3  1  0.85126300  0.49167800  0.11081500  1
  C  C4  1  0.60436300  0.72170200  0.03650200  1
  C  C5  1  0.14873700  0.50832200  0.88918500  1
  C  C6  1  0.64873700  0.99167800  0.88918500  1
  C  C7  1  0.35126300  0.00832200  0.11081500  1
  C  C8  1  0.89563700  0.22170200  0.96349800  1
  C  C9  1  0.10436300  0.72170200  0.46349800  1
  C  C10  1  0.85126300  0.00832200  0.38918500  1
  C  C11  1  0.14873700  0.99167800  0.61081500  1
  C  C12  1  0.60436300  0.77829800  0.46349800  1
  C  C13  1  0.64873700  0.50832200  0.61081500  1
  C  C14  1  0.10436300  0.77829800  0.03650200  1
  C  C15  1  0.39563700  0.27829800  0.96349800  1
  Ni  Ni16  1  0.22311700  0.46489500  0.59143800  1
  Ni  Ni17  1  0.77688300  0.96489500  0.09143800  1
  Ni  Ni18  1  0.72311700  0.03510500  0.59143800  1
  Ni  Ni19  1  0.77688300  0.53510500  0.40856200  1
  Ni  Ni20  1  0.27688300  0.53510500  0.09143800  1
  Ni  Ni21  1  0.72311700  0.46489500  0.90856200  1
  Ni  Ni22  1  0.27688300  0.96489500  0.40856200  1
  Ni  Ni23  1  0.22311700  0.03510500  0.90856200  1
  Cu  Cu24  1  0.33216800  0.40704500  0.80522600  1
  Cu  Cu25  1  0.92927600  0.28401200  0.11365400  1
  Cu  Cu26  1  0.16783200  0.59295500  0.30522600  1
  Cu  Cu27  1  0.16783200  0.90704500  0.19477400  1
  Cu  Cu28  1  0.42927600  0.21598800  0.11365400  1
  Cu  Cu29  1  0.57072400  0.78401200  0.88634600  1
  Cu  Cu30  1  0.66783200  0.59295500  0.19477400  1
  Cu  Cu31  1  0.42927600  0.28401200  0.38634600  1
  Cu  Cu32  1  0.66783200  0.90704500  0.30522600  1
  Cu  Cu33  1  0.92927600  0.21598800  0.38634600  1
  Cu  Cu34  1  0.57072400  0.71598800  0.61365400  1
  Cu  Cu35  1  0.07072400  0.71598800  0.88634600  1
  Cu  Cu36  1  0.07072400  0.78401200  0.61365400  1
  Cu  Cu37  1  0.33216800  0.09295500  0.69477400  1
  Cu  Cu38  1  0.83216800  0.40704500  0.69477400  1
  Cu  Cu39  1  0.83216800  0.09295500  0.80522600  1
  C  C40  1  0.64693600  0.31648700  0.94084000  1
  C  C41  1  0.85306400  0.68351300  0.44084000  1
  C  C42  1  0.78505800  0.04847400  0.99465500  1
  C  C43  1  0.06768800  0.90818900  0.41130400  1
  C  C44  1  0.28505800  0.45152600  0.99465500  1
  C  C45  1  0.78505800  0.45152600  0.50534500  1
  C  C46  1  0.06768800  0.59181100  0.08869600  1
  C  C47  1  0.21494200  0.54847400  0.49465500  1
  C  C48  1  0.35306400  0.68351300  0.05916000  1
  C  C49  1  0.85306400  0.81648700  0.05916000  1
  C  C50  1  0.28505800  0.04847400  0.50534500  1
  C  C51  1  0.71494200  0.54847400  0.00534500  1
  C  C52  1  0.14693600  0.18351300  0.94084000  1
  C  C53  1  0.43231200  0.40818900  0.58869600  1
  C  C54  1  0.21494200  0.95152600  0.00534500  1
  C  C55  1  0.93231200  0.40818900  0.91130400  1
  C  C56  1  0.56768800  0.59181100  0.41130400  1
  C  C57  1  0.71494200  0.95152600  0.49465500  1
  C  C58  1  0.93231200  0.09181100  0.58869600  1
  C  C59  1  0.43231200  0.09181100  0.91130400  1
  C  C60  1  0.64693600  0.18351300  0.55916000  1
  C  C61  1  0.14693600  0.31648700  0.55916000  1
  C  C62  1  0.35306400  0.81648700  0.44084000  1
  C  C63  1  0.56768800  0.90818900  0.08869600  1
