# generated using pymatgen
data_Cu2NiC7
_symmetry_space_group_name_H-M   'P 1'
_cell_length_a   7.02288500
_cell_length_b   7.35483560
_cell_length_c   7.69477917
_cell_angle_alpha   74.42970602
_cell_angle_beta   68.54983371
_cell_angle_gamma   64.29397634
_symmetry_Int_Tables_number   1
_chemical_formula_structural   Cu2NiC7
_chemical_formula_sum   'Cu4 Ni2 C14'
_cell_volume   330.44289350
_cell_formula_units_Z   2
loop_
 _symmetry_equiv_pos_site_id
 _symmetry_equiv_pos_as_xyz
  1  'x, y, z'
loop_
 _atom_site_type_symbol
 _atom_site_label
 _atom_site_symmetry_multiplicity
 _atom_site_fract_x
 _atom_site_fract_y
 _atom_site_fract_z
 _atom_site_occupancy
  Ni  Ni0  1  0.33393900  0.13670000  0.21224700  1
  Ni  Ni1  1  0.66606100  0.86330000  0.78775300  1
  Cu  Cu2  1  0.84446000  0.64350300  0.20941100  1
  Cu  Cu3  1  0.15554000  0.35649700  0.79058900  1
  Cu  Cu4  1  0.65753600  0.35853000  0.79196900  1
  Cu  Cu5  1  0.34246400  0.64147000  0.20803100  1
  C  C6  1  0.79749000  0.13397800  0.31305200  1
  C  C7  1  0.20251000  0.86602200  0.68694800  1
  C  C8  1  0.63636200  0.20610800  0.17017500  1
  C  C9  1  0.44970600  0.19688300  0.86185400  1
  C  C10  1  0.94189900  0.92056400  0.83051600  1
  C  C11  1  0.77860700  0.92070300  0.45525000  1
  C  C12  1  0.27805300  0.67426200  0.57005700  1
  C  C13  1  0.15287500  0.47705500  0.24348500  1
  C  C14  1  0.22139300  0.07929700  0.54475000  1
  C  C15  1  0.55029400  0.80311700  0.13814600  1
  C  C16  1  0.36363800  0.79389200  0.82982500  1
  C  C17  1  0.84712500  0.52294500  0.75651500  1
  C  C18  1  0.72194700  0.32573800  0.42994300  1
  C  C19  1  0.05810100  0.07943600  0.16948400  1
