# generated using pymatgen
data_Cu2Ni
_symmetry_space_group_name_H-M   'P 1'
_cell_length_a   5.37157667
_cell_length_b   5.37157667
_cell_length_c   8.29665200
_cell_angle_alpha   90.00000000
_cell_angle_beta   90.00000000
_cell_angle_gamma   113.92134096
_symmetry_Int_Tables_number   1
_chemical_formula_structural   Cu2Ni
_chemical_formula_sum   'Cu8 Ni4'
_cell_volume   218.82732999
_cell_formula_units_Z   4
loop_
 _symmetry_equiv_pos_site_id
 _symmetry_equiv_pos_as_xyz
  1  'x, y, z'
loop_
 _atom_site_type_symbol
 _atom_site_label
 _atom_site_symmetry_multiplicity
 _atom_site_fract_x
 _atom_site_fract_y
 _atom_site_fract_z
 _atom_site_occupancy
  Ni  Ni0  1  0.33804600  0.66195400  0.58559400  1
  Ni  Ni1  1  0.66195400  0.33804600  0.08559400  1
  Ni  Ni2  1  0.66195400  0.33804600  0.41440600  1
  Ni  Ni3  1  0.33804600  0.66195400  0.91440600  1
  Cu  Cu4  1  0.17466500  0.82533500  0.25000000  1
  Cu  Cu5  1  0.16639300  0.34148100  0.25000000  1
  Cu  Cu6  1  0.83360700  0.65851900  0.75000000  1
  Cu  Cu7  1  0.00000000  0.00000000  0.00000000  1
  Cu  Cu8  1  0.65851900  0.83360700  0.25000000  1
  Cu  Cu9  1  0.34148100  0.16639300  0.75000000  1
  Cu  Cu10  1  0.82533500  0.17466500  0.75000000  1
  Cu  Cu11  1  0.00000000  0.00000000  0.50000000  1
