# generated using pymatgen
data_CuNi3C11
_symmetry_space_group_name_H-M   'P 1'
_cell_length_a   6.17291100
_cell_length_b   6.18029569
_cell_length_c   15.37468885
_cell_angle_alpha   91.14029064
_cell_angle_beta   91.88897973
_cell_angle_gamma   119.41923729
_symmetry_Int_Tables_number   1
_chemical_formula_structural   CuNi3C11
_chemical_formula_sum   'Cu2 Ni6 C22'
_cell_volume   510.19776812
_cell_formula_units_Z   2
loop_
 _symmetry_equiv_pos_site_id
 _symmetry_equiv_pos_as_xyz
  1  'x, y, z'
loop_
 _atom_site_type_symbol
 _atom_site_label
 _atom_site_symmetry_multiplicity
 _atom_site_fract_x
 _atom_site_fract_y
 _atom_site_fract_z
 _atom_site_occupancy
  Ni  Ni0  1  0.31900200  0.64740500  0.40679200  1
  Ni  Ni1  1  0.68099800  0.35259500  0.59320800  1
  Ni  Ni2  1  0.65596200  0.33084100  0.90279400  1
  Ni  Ni3  1  0.97958200  0.00202700  0.25044700  1
  Ni  Ni4  1  0.02041800  0.99797300  0.74955300  1
  Ni  Ni5  1  0.34403800  0.66915900  0.09720600  1
  Cu  Cu6  1  0.00000000  0.00000000  0.00000000  1
  Cu  Cu7  1  0.00000000  0.00000000  0.50000000  1
  C  C8  1  0.30086500  0.63957900  0.84392800  1
  C  C9  1  0.63678800  0.30515800  0.34324600  1
  C  C10  1  0.36321200  0.69484200  0.65675400  1
  C  C11  1  0.69913500  0.36042100  0.15607200  1
  C  C12  1  0.22392200  0.41971900  0.56868200  1
  C  C13  1  0.89405400  0.22628800  0.10240300  1
  C  C14  1  0.25950600  0.90718600  0.59580100  1
  C  C15  1  0.77607800  0.58028100  0.43131800  1
  C  C16  1  0.56941000  0.75524200  0.93447600  1
  C  C17  1  0.46417500  0.50819400  0.75297700  1
  C  C18  1  0.90114700  0.69338700  0.11132700  1
  C  C19  1  0.43059000  0.24475800  0.06552400  1
  C  C20  1  0.09885300  0.30661300  0.88867300  1
  C  C21  1  0.69913700  0.85305900  0.61294700  1
  C  C22  1  0.10594600  0.77371200  0.89759700  1
  C  C23  1  0.05092300  0.53606400  0.72918400  1
  C  C24  1  0.53582500  0.49180600  0.24702300  1
  C  C25  1  0.94907700  0.46393600  0.27081600  1
  C  C26  1  0.74049400  0.09281400  0.40419900  1
  C  C27  1  0.30086300  0.14694100  0.38705300  1
  C  C28  1  0.51648700  0.05323100  0.23172400  1
  C  C29  1  0.48351300  0.94676900  0.76827600  1
