# generated using pymatgen
data_Cu5(NiC)3
_symmetry_space_group_name_H-M   'P 1'
_cell_length_a   11.52852389
_cell_length_b   11.52852389
_cell_length_c   11.52852400
_cell_angle_alpha   117.55470367
_cell_angle_beta   117.55470367
_cell_angle_gamma   117.55470632
_symmetry_Int_Tables_number   1
_chemical_formula_structural   Cu5(NiC)3
_chemical_formula_sum   'Cu15 Ni9 C9'
_cell_volume   612.94765277
_cell_formula_units_Z   3
loop_
 _symmetry_equiv_pos_site_id
 _symmetry_equiv_pos_as_xyz
  1  'x, y, z'
loop_
 _atom_site_type_symbol
 _atom_site_label
 _atom_site_symmetry_multiplicity
 _atom_site_fract_x
 _atom_site_fract_y
 _atom_site_fract_z
 _atom_site_occupancy
  C  C0  1  0.42513600  0.42513600  0.70294700  1
  C  C1  1  0.70294700  0.42513600  0.42513600  1
  C  C2  1  0.42513600  0.70294700  0.42513600  1
  Ni  Ni3  1  0.13258100  0.13258100  0.74465100  1
  Ni  Ni4  1  0.13258100  0.74465100  0.13258100  1
  Ni  Ni5  1  0.00852800  0.60716900  0.46615600  1
  Ni  Ni6  1  0.74465100  0.13258100  0.13258100  1
  Ni  Ni7  1  0.46615600  0.00852800  0.60716900  1
  Ni  Ni8  1  0.00852800  0.46615600  0.60716900  1
  Ni  Ni9  1  0.60716900  0.00852800  0.46615600  1
  Ni  Ni10  1  0.60716900  0.46615600  0.00852800  1
  Ni  Ni11  1  0.46615600  0.60716900  0.00852800  1
  Cu  Cu12  1  0.80477900  0.53401000  0.39426600  1
  Cu  Cu13  1  0.80477900  0.39426600  0.53401000  1
  Cu  Cu14  1  0.67408800  0.17312000  0.67408800  1
  Cu  Cu15  1  0.81342200  0.31845900  0.18167600  1
  Cu  Cu16  1  0.39426600  0.80477900  0.53401000  1
  Cu  Cu17  1  0.18167600  0.31845900  0.81342200  1
  Cu  Cu18  1  0.67408800  0.67408800  0.17312000  1
  Cu  Cu19  1  0.31845900  0.81342200  0.18167600  1
  Cu  Cu20  1  0.53401000  0.39426600  0.80477900  1
  Cu  Cu21  1  0.31845900  0.18167600  0.81342200  1
  Cu  Cu22  1  0.53401000  0.80477900  0.39426600  1
  Cu  Cu23  1  0.18167600  0.81342200  0.31845900  1
  Cu  Cu24  1  0.39426600  0.53401000  0.80477900  1
  Cu  Cu25  1  0.81342200  0.18167600  0.31845900  1
  Cu  Cu26  1  0.17312000  0.67408800  0.67408800  1
  C  C27  1  0.74767100  0.59288800  0.59288800  1
  C  C28  1  0.40132900  0.16913400  0.16913400  1
  C  C29  1  0.59288800  0.59288800  0.74767100  1
  C  C30  1  0.16913400  0.16913400  0.40132900  1
  C  C31  1  0.16913400  0.40132900  0.16913400  1
  C  C32  1  0.59288800  0.74767100  0.59288800  1
