# generated using pymatgen
data_Cu4Ni4C19
_symmetry_space_group_name_H-M   'P 1'
_cell_length_a   9.06655975
_cell_length_b   9.06655975
_cell_length_c   7.18644900
_cell_angle_alpha   90.00000000
_cell_angle_beta   90.00000000
_cell_angle_gamma   119.99999820
_symmetry_Int_Tables_number   1
_chemical_formula_structural   Cu4Ni4C19
_chemical_formula_sum   'Cu8 Ni8 C38'
_cell_volume   511.59942028
_cell_formula_units_Z   2
loop_
 _symmetry_equiv_pos_site_id
 _symmetry_equiv_pos_as_xyz
  1  'x, y, z'
loop_
 _atom_site_type_symbol
 _atom_site_label
 _atom_site_symmetry_multiplicity
 _atom_site_fract_x
 _atom_site_fract_y
 _atom_site_fract_z
 _atom_site_occupancy
  C  C0  1  0.00000000  0.00000000  0.50000000  1
  C  C1  1  0.00000000  0.00000000  0.00000000  1
  C  C2  1  0.35574100  0.91053800  0.65886000  1
  C  C3  1  0.26722800  0.73277200  0.38231900  1
  C  C4  1  0.55479700  0.91053800  0.65886000  1
  C  C5  1  0.57714100  0.42285900  0.13748000  1
  C  C6  1  0.44520300  0.08946200  0.34114000  1
  C  C7  1  0.91053800  0.55479700  0.34114000  1
  C  C8  1  0.55479700  0.64425900  0.65886000  1
  C  C9  1  0.35574100  0.44520300  0.65886000  1
  C  C10  1  0.91053800  0.35574100  0.34114000  1
  C  C11  1  0.73277200  0.26722800  0.61768100  1
  C  C12  1  0.84571900  0.42285900  0.13748000  1
  C  C13  1  0.44520300  0.35574100  0.34114000  1
  C  C14  1  0.08946200  0.64425900  0.65886000  1
  C  C15  1  0.64425900  0.55479700  0.34114000  1
  C  C16  1  0.42285900  0.57714100  0.86252000  1
  C  C17  1  0.15428100  0.57714100  0.86252000  1
  C  C18  1  0.08946200  0.44520300  0.65886000  1
  C  C19  1  0.26722800  0.53445700  0.38231900  1
  C  C20  1  0.57714100  0.15428100  0.13748000  1
  C  C21  1  0.46554300  0.73277200  0.38231900  1
  C  C22  1  0.73277200  0.46554300  0.61768100  1
  C  C23  1  0.53445700  0.26722800  0.61768100  1
  C  C24  1  0.42285900  0.84571900  0.86252000  1
  C  C25  1  0.64425900  0.08946200  0.34114000  1
  Ni  Ni26  1  0.84701800  0.42350900  0.28956000  1
  Ni  Ni27  1  0.57649100  0.42350900  0.28956000  1
  Ni  Ni28  1  0.57649100  0.15298200  0.28956000  1
  Ni  Ni29  1  0.15298200  0.57649100  0.71044000  1
  Ni  Ni30  1  0.42350900  0.57649100  0.71044000  1
  Ni  Ni31  1  0.42350900  0.84701800  0.71044000  1
  Ni  Ni32  1  0.66666700  0.33333300  0.56836700  1
  Ni  Ni33  1  0.33333300  0.66666700  0.43163300  1
  Cu  Cu34  1  0.66666700  0.33333300  0.35930700  1
  Cu  Cu35  1  0.89345100  0.78690200  0.84923300  1
  Cu  Cu36  1  0.89345100  0.10654900  0.84923300  1
  Cu  Cu37  1  0.78690200  0.89345100  0.15076700  1
  Cu  Cu38  1  0.10654900  0.21309800  0.15076700  1
  Cu  Cu39  1  0.33333300  0.66666700  0.64069300  1
  Cu  Cu40  1  0.10654900  0.89345100  0.15076700  1
  Cu  Cu41  1  0.21309800  0.10654900  0.84923300  1
  C  C42  1  0.17592300  0.35184500  0.06785200  1
  C  C43  1  0.89425900  0.78851900  0.67427300  1
  C  C44  1  0.64815500  0.82407700  0.06785200  1
  C  C45  1  0.17592300  0.82407700  0.06785200  1
  C  C46  1  0.89425900  0.10574100  0.67427300  1
  C  C47  1  0.10574100  0.89425900  0.32572700  1
  C  C48  1  0.21148100  0.10574100  0.67427300  1
  C  C49  1  0.78851900  0.89425900  0.32572700  1
  C  C50  1  0.82407700  0.17592300  0.93214800  1
  C  C51  1  0.82407700  0.64815500  0.93214800  1
  C  C52  1  0.10574100  0.21148100  0.32572700  1
  C  C53  1  0.35184500  0.17592300  0.93214800  1
