# generated using pymatgen
data_Cu(Ni2C9)2
_symmetry_space_group_name_H-M   'P 1'
_cell_length_a   11.00105800
_cell_length_b   11.00105800
_cell_length_c   10.41413100
_cell_angle_alpha   90.00000000
_cell_angle_beta   90.00000000
_cell_angle_gamma   90.00000000
_symmetry_Int_Tables_number   1
_chemical_formula_structural   Cu(Ni2C9)2
_chemical_formula_sum   'Cu4 Ni16 C72'
_cell_volume   1260.35226197
_cell_formula_units_Z   4
loop_
 _symmetry_equiv_pos_site_id
 _symmetry_equiv_pos_as_xyz
  1  'x, y, z'
loop_
 _atom_site_type_symbol
 _atom_site_label
 _atom_site_symmetry_multiplicity
 _atom_site_fract_x
 _atom_site_fract_y
 _atom_site_fract_z
 _atom_site_occupancy
  Ni  Ni0  1  0.35113800  0.42511300  0.39563200  1
  Ni  Ni1  1  0.07488700  0.14886200  0.89563200  1
  Ni  Ni2  1  0.42511300  0.64886200  0.60436800  1
  Ni  Ni3  1  0.64886200  0.57488700  0.39563200  1
  Ni  Ni4  1  0.07488700  0.85113800  0.39563200  1
  Ni  Ni5  1  0.64886200  0.42511300  0.89563200  1
  Ni  Ni6  1  0.14886200  0.92511300  0.10436800  1
  Ni  Ni7  1  0.35113800  0.57488700  0.89563200  1
  Ni  Ni8  1  0.85113800  0.92511300  0.60436800  1
  Ni  Ni9  1  0.92511300  0.14886200  0.39563200  1
  Ni  Ni10  1  0.92511300  0.85113800  0.89563200  1
  Ni  Ni11  1  0.85113800  0.07488700  0.10436800  1
  Ni  Ni12  1  0.14886200  0.07488700  0.60436800  1
  Ni  Ni13  1  0.57488700  0.64886200  0.10436800  1
  Ni  Ni14  1  0.57488700  0.35113800  0.60436800  1
  Ni  Ni15  1  0.42511300  0.35113800  0.10436800  1
  Cu  Cu16  1  0.00000000  0.50000000  0.93065800  1
  Cu  Cu17  1  0.50000000  0.00000000  0.06934200  1
  Cu  Cu18  1  0.00000000  0.50000000  0.43065800  1
  Cu  Cu19  1  0.50000000  0.00000000  0.56934200  1
  C  C20  1  0.60061500  0.77355200  0.82272200  1
  C  C21  1  0.77355200  0.60061500  0.67727800  1
  C  C22  1  0.39938500  0.77355200  0.32272200  1
  C  C23  1  0.22644800  0.39938500  0.67727800  1
  C  C24  1  0.22644800  0.60061500  0.17727800  1
  C  C25  1  0.60061500  0.22644800  0.32272200  1
  C  C26  1  0.39938500  0.22644800  0.82272200  1
  C  C27  1  0.27355200  0.10061500  0.32272200  1
  C  C28  1  0.77355200  0.39938500  0.17727800  1
  C  C29  1  0.72644800  0.89938500  0.32272200  1
  C  C30  1  0.10061500  0.27355200  0.17727800  1
  C  C31  1  0.89938500  0.72644800  0.17727800  1
  C  C32  1  0.27355200  0.89938500  0.82272200  1
  C  C33  1  0.72644800  0.10061500  0.82272200  1
  C  C34  1  0.10061500  0.72644800  0.67727800  1
  C  C35  1  0.89938500  0.27355200  0.67727800  1
  C  C36  1  0.13829300  0.94726100  0.88114300  1
  C  C37  1  0.24981700  0.75018300  0.25000000  1
  C  C38  1  0.82147600  0.48847100  0.30249800  1
  C  C39  1  0.98847100  0.32147600  0.80249800  1
  C  C40  1  0.67852400  0.01152900  0.69750200  1
  C  C41  1  0.62563600  0.86693500  0.44296300  1
  C  C42  1  0.62563600  0.13306500  0.94296300  1
  C  C43  1  0.05273900  0.13829300  0.11885700  1
  C  C44  1  0.36693500  0.87436400  0.44296300  1
  C  C45  1  0.86693500  0.62563600  0.05703700  1
  C  C46  1  0.36170700  0.55273900  0.11885700  1
  C  C47  1  0.86693500  0.37436400  0.55703700  1
  C  C48  1  0.98847100  0.67852400  0.30249800  1
  C  C49  1  0.74981700  0.74981700  0.25000000  1
  C  C50  1  0.87436400  0.36693500  0.05703700  1
  C  C51  1  0.17852400  0.48847100  0.80249800  1
  C  C52  1  0.55273900  0.36170700  0.38114300  1
  C  C53  1  0.01152900  0.32147600  0.30249800  1
  C  C54  1  0.63306500  0.12563600  0.44296300  1
  C  C55  1  0.87436400  0.63306500  0.55703700  1
  C  C56  1  0.63306500  0.87436400  0.94296300  1
  C  C57  1  0.51152900  0.82147600  0.69750200  1
  C  C58  1  0.48847100  0.17852400  0.69750200  1
  C  C59  1  0.44726100  0.63829300  0.38114300  1
  C  C60  1  0.82147600  0.51152900  0.80249800  1
  C  C61  1  0.25018300  0.25018300  0.25000000  1
  C  C62  1  0.51152900  0.17852400  0.19750200  1
  C  C63  1  0.24981700  0.24981700  0.75000000  1
  C  C64  1  0.01152900  0.67852400  0.80249800  1
  C  C65  1  0.63829300  0.55273900  0.61885700  1
  C  C66  1  0.67852400  0.98847100  0.19750200  1
  C  C67  1  0.13306500  0.37436400  0.05703700  1
  C  C68  1  0.75018300  0.24981700  0.25000000  1
  C  C69  1  0.48847100  0.82147600  0.19750200  1
  C  C70  1  0.12563600  0.36693500  0.55703700  1
  C  C71  1  0.94726100  0.86170700  0.11885700  1
  C  C72  1  0.44726100  0.36170700  0.88114300  1
  C  C73  1  0.17852400  0.51152900  0.30249800  1
  C  C74  1  0.37436400  0.86693500  0.94296300  1
  C  C75  1  0.36170700  0.44726100  0.61885700  1
  C  C76  1  0.55273900  0.63829300  0.88114300  1
  C  C77  1  0.86170700  0.05273900  0.88114300  1
  C  C78  1  0.86170700  0.94726100  0.38114300  1
  C  C79  1  0.13306500  0.62563600  0.55703700  1
  C  C80  1  0.25018300  0.74981700  0.75000000  1
  C  C81  1  0.32147600  0.01152900  0.19750200  1
  C  C82  1  0.32147600  0.98847100  0.69750200  1
  C  C83  1  0.05273900  0.86170700  0.61885700  1
  C  C84  1  0.63829300  0.44726100  0.11885700  1
  C  C85  1  0.75018300  0.75018300  0.75000000  1
  C  C86  1  0.13829300  0.05273900  0.38114300  1
  C  C87  1  0.12563600  0.63306500  0.05703700  1
  C  C88  1  0.36693500  0.12563600  0.94296300  1
  C  C89  1  0.37436400  0.13306500  0.44296300  1
  C  C90  1  0.74981700  0.25018300  0.75000000  1
  C  C91  1  0.94726100  0.13829300  0.61885700  1
