# generated using pymatgen
data_Cu7Ni4C7
_symmetry_space_group_name_H-M   'P 1'
_cell_length_a   12.61122500
_cell_length_b   12.61122500
_cell_length_c   12.61122500
_cell_angle_alpha   90.00000000
_cell_angle_beta   90.00000000
_cell_angle_gamma   90.00000000
_symmetry_Int_Tables_number   1
_chemical_formula_structural   Cu7Ni4C7
_chemical_formula_sum   'Cu28 Ni16 C28'
_cell_volume   2005.72700724
_cell_formula_units_Z   4
loop_
 _symmetry_equiv_pos_site_id
 _symmetry_equiv_pos_as_xyz
  1  'x, y, z'
loop_
 _atom_site_type_symbol
 _atom_site_label
 _atom_site_symmetry_multiplicity
 _atom_site_fract_x
 _atom_site_fract_y
 _atom_site_fract_z
 _atom_site_occupancy
  C  C0  1  0.00000000  0.00000000  0.50000000  1
  C  C1  1  0.50000000  0.00000000  0.00000000  1
  C  C2  1  0.00000000  0.50000000  0.00000000  1
  C  C3  1  0.50000000  0.50000000  0.50000000  1
  C  C4  1  0.79921400  0.45966800  0.30675100  1
  C  C5  1  0.20078600  0.54033200  0.69324900  1
  C  C6  1  0.54033200  0.80675100  0.70078600  1
  C  C7  1  0.69324900  0.20078600  0.54033200  1
  C  C8  1  0.30675100  0.70078600  0.95966800  1
  C  C9  1  0.69324900  0.29921400  0.04033200  1
  C  C10  1  0.19324900  0.20078600  0.95966800  1
  C  C11  1  0.70078600  0.54033200  0.80675100  1
  C  C12  1  0.80675100  0.70078600  0.54033200  1
  C  C13  1  0.30675100  0.79921400  0.45966800  1
  C  C14  1  0.80675100  0.79921400  0.04033200  1
  C  C15  1  0.29921400  0.04033200  0.69324900  1
  C  C16  1  0.20078600  0.95966800  0.19324900  1
  C  C17  1  0.45966800  0.30675100  0.79921400  1
  C  C18  1  0.04033200  0.80675100  0.79921400  1
  C  C19  1  0.04033200  0.69324900  0.29921400  1
  C  C20  1  0.70078600  0.95966800  0.30675100  1
  C  C21  1  0.95966800  0.19324900  0.20078600  1
  C  C22  1  0.95966800  0.30675100  0.70078600  1
  C  C23  1  0.45966800  0.19324900  0.29921400  1
  C  C24  1  0.79921400  0.04033200  0.80675100  1
  C  C25  1  0.29921400  0.45966800  0.19324900  1
  C  C26  1  0.54033200  0.69324900  0.20078600  1
  C  C27  1  0.19324900  0.29921400  0.45966800  1
  Ni  Ni28  1  0.22877800  0.72877800  0.77122200  1
  Ni  Ni29  1  0.72877800  0.77122200  0.22877800  1
  Ni  Ni30  1  0.15708600  0.15708600  0.15708600  1
  Ni  Ni31  1  0.15708600  0.34291400  0.65708600  1
  Ni  Ni32  1  0.27122200  0.27122200  0.27122200  1
  Ni  Ni33  1  0.22877800  0.77122200  0.27122200  1
  Ni  Ni34  1  0.77122200  0.27122200  0.22877800  1
  Ni  Ni35  1  0.65708600  0.34291400  0.84291400  1
  Ni  Ni36  1  0.84291400  0.84291400  0.84291400  1
  Ni  Ni37  1  0.34291400  0.84291400  0.65708600  1
  Ni  Ni38  1  0.34291400  0.65708600  0.15708600  1
  Ni  Ni39  1  0.27122200  0.22877800  0.77122200  1
  Ni  Ni40  1  0.72877800  0.72877800  0.72877800  1
  Ni  Ni41  1  0.77122200  0.22877800  0.72877800  1
  Ni  Ni42  1  0.65708600  0.15708600  0.34291400  1
  Ni  Ni43  1  0.84291400  0.65708600  0.34291400  1
  Cu  Cu44  1  0.95652700  0.30817600  0.96198700  1
  Cu  Cu45  1  0.53801300  0.04347300  0.80817600  1
  Cu  Cu46  1  0.96198700  0.54347300  0.80817600  1
  Cu  Cu47  1  0.00000000  0.50000000  0.50000000  1
  Cu  Cu48  1  0.96198700  0.95652700  0.30817600  1
  Cu  Cu49  1  0.80817600  0.53801300  0.04347300  1
  Cu  Cu50  1  0.46198700  0.54347300  0.69182400  1
  Cu  Cu51  1  0.54347300  0.80817600  0.96198700  1
  Cu  Cu52  1  0.45652700  0.19182400  0.03801300  1
  Cu  Cu53  1  0.69182400  0.46198700  0.54347300  1
  Cu  Cu54  1  0.45652700  0.30817600  0.53801300  1
  Cu  Cu55  1  0.03801300  0.04347300  0.69182400  1
  Cu  Cu56  1  0.19182400  0.46198700  0.95652700  1
  Cu  Cu57  1  0.53801300  0.45652700  0.30817600  1
  Cu  Cu58  1  0.95652700  0.19182400  0.46198700  1
  Cu  Cu59  1  0.19182400  0.03801300  0.45652700  1
  Cu  Cu60  1  0.46198700  0.95652700  0.19182400  1
  Cu  Cu61  1  0.00000000  0.00000000  0.00000000  1
  Cu  Cu62  1  0.04347300  0.80817600  0.53801300  1
  Cu  Cu63  1  0.80817600  0.96198700  0.54347300  1
  Cu  Cu64  1  0.69182400  0.03801300  0.04347300  1
  Cu  Cu65  1  0.30817600  0.96198700  0.95652700  1
  Cu  Cu66  1  0.30817600  0.53801300  0.45652700  1
  Cu  Cu67  1  0.50000000  0.00000000  0.50000000  1
  Cu  Cu68  1  0.54347300  0.69182400  0.46198700  1
  Cu  Cu69  1  0.04347300  0.69182400  0.03801300  1
  Cu  Cu70  1  0.03801300  0.45652700  0.19182400  1
  Cu  Cu71  1  0.50000000  0.50000000  0.00000000  1
