# generated using pymatgen
data_Cu7NiC4
_symmetry_space_group_name_H-M   'P 1'
_cell_length_a   10.09574866
_cell_length_b   10.09574866
_cell_length_c   5.75516700
_cell_angle_alpha   90.00000000
_cell_angle_beta   90.00000000
_cell_angle_gamma   120.00000432
_symmetry_Int_Tables_number   1
_chemical_formula_structural   Cu7NiC4
_chemical_formula_sum   'Cu14 Ni2 C8'
_cell_volume   508.00221160
_cell_formula_units_Z   2
loop_
 _symmetry_equiv_pos_site_id
 _symmetry_equiv_pos_as_xyz
  1  'x, y, z'
loop_
 _atom_site_type_symbol
 _atom_site_label
 _atom_site_symmetry_multiplicity
 _atom_site_fract_x
 _atom_site_fract_y
 _atom_site_fract_z
 _atom_site_occupancy
  C  C0  1  0.12477500  0.35645200  0.75011000  1
  C  C1  1  0.64354800  0.76832300  0.75011000  1
  C  C2  1  0.87522500  0.64354800  0.25011000  1
  C  C3  1  0.35645200  0.23167700  0.25011000  1
  C  C4  1  0.23167700  0.87522500  0.75011000  1
  C  C5  1  0.76832300  0.12477500  0.25011000  1
  C  C6  1  0.00000000  0.00000000  0.72010200  1
  C  C7  1  0.00000000  0.00000000  0.22010200  1
  Ni  Ni8  1  0.66666700  0.33333300  0.83740800  1
  Ni  Ni9  1  0.33333300  0.66666700  0.33740800  1
  Cu  Cu10  1  0.25389600  0.16503600  0.73222800  1
  Cu  Cu11  1  0.52344400  0.11040300  0.98351100  1
  Cu  Cu12  1  0.11040300  0.58695900  0.48351100  1
  Cu  Cu13  1  0.88959700  0.41304100  0.98351100  1
  Cu  Cu14  1  0.41304100  0.52344400  0.48351100  1
  Cu  Cu15  1  0.74610400  0.83496400  0.23222800  1
  Cu  Cu16  1  0.66666700  0.33333300  0.47023000  1
  Cu  Cu17  1  0.16503600  0.91114000  0.23222800  1
  Cu  Cu18  1  0.33333300  0.66666700  0.97023000  1
  Cu  Cu19  1  0.58695900  0.47655600  0.98351100  1
  Cu  Cu20  1  0.83496400  0.08886000  0.73222800  1
  Cu  Cu21  1  0.91114000  0.74610400  0.73222800  1
  Cu  Cu22  1  0.47655600  0.88959700  0.48351100  1
  Cu  Cu23  1  0.08886000  0.25389600  0.23222800  1
