# generated using pymatgen
data_Cu(NiC)3
_symmetry_space_group_name_H-M   'P 1'
_cell_length_a   7.41705370
_cell_length_b   7.41705370
_cell_length_c   7.41705418
_cell_angle_alpha   84.55323787
_cell_angle_beta   84.55323787
_cell_angle_gamma   84.55324049
_symmetry_Int_Tables_number   1
_chemical_formula_structural   Cu(NiC)3
_chemical_formula_sum   'Cu4 Ni12 C12'
_cell_volume   402.83338608
_cell_formula_units_Z   4
loop_
 _symmetry_equiv_pos_site_id
 _symmetry_equiv_pos_as_xyz
  1  'x, y, z'
loop_
 _atom_site_type_symbol
 _atom_site_label
 _atom_site_symmetry_multiplicity
 _atom_site_fract_x
 _atom_site_fract_y
 _atom_site_fract_z
 _atom_site_occupancy
  Ni  Ni0  1  0.87437000  0.37201600  0.38055400  1
  Ni  Ni1  1  0.37437000  0.88055400  0.87201600  1
  Ni  Ni2  1  0.88055400  0.87201600  0.37437000  1
  Ni  Ni3  1  0.62798400  0.61944600  0.12563000  1
  Ni  Ni4  1  0.12798400  0.62563000  0.11944600  1
  Ni  Ni5  1  0.38055400  0.87437000  0.37201600  1
  Ni  Ni6  1  0.61944600  0.12563000  0.62798400  1
  Ni  Ni7  1  0.12563000  0.62798400  0.61944600  1
  Ni  Ni8  1  0.62563000  0.11944600  0.12798400  1
  Ni  Ni9  1  0.87201600  0.37437000  0.88055400  1
  Ni  Ni10  1  0.11944600  0.12798400  0.62563000  1
  Ni  Ni11  1  0.37201600  0.38055400  0.87437000  1
  Cu  Cu12  1  0.62429200  0.62429200  0.62429200  1
  Cu  Cu13  1  0.37570800  0.37570800  0.37570800  1
  Cu  Cu14  1  0.12429200  0.12429200  0.12429200  1
  Cu  Cu15  1  0.87570800  0.87570800  0.87570800  1
  C  C16  1  0.13015300  0.98180900  0.25984700  1
  C  C17  1  0.98180900  0.25984700  0.13015300  1
  C  C18  1  0.63015300  0.75984700  0.48180900  1
  C  C19  1  0.36984700  0.24015300  0.51819100  1
  C  C20  1  0.01819100  0.74015300  0.86984700  1
  C  C21  1  0.24015300  0.51819100  0.36984700  1
  C  C22  1  0.75984700  0.48180900  0.63015300  1
  C  C23  1  0.74015300  0.86984700  0.01819100  1
  C  C24  1  0.51819100  0.36984700  0.24015300  1
  C  C25  1  0.86984700  0.01819100  0.74015300  1
  C  C26  1  0.48180900  0.63015300  0.75984700  1
  C  C27  1  0.25984700  0.13015300  0.98180900  1
