# generated using pymatgen
data_Cu3NiC8
_symmetry_space_group_name_H-M   'P 1'
_cell_length_a   7.14232107
_cell_length_b   7.14232107
_cell_length_c   4.41193800
_cell_angle_alpha   90.00000000
_cell_angle_beta   90.00000000
_cell_angle_gamma   111.53086852
_symmetry_Int_Tables_number   1
_chemical_formula_structural   Cu3NiC8
_chemical_formula_sum   'Cu6 Ni2 C16'
_cell_volume   209.36004449
_cell_formula_units_Z   2
loop_
 _symmetry_equiv_pos_site_id
 _symmetry_equiv_pos_as_xyz
  1  'x, y, z'
loop_
 _atom_site_type_symbol
 _atom_site_label
 _atom_site_symmetry_multiplicity
 _atom_site_fract_x
 _atom_site_fract_y
 _atom_site_fract_z
 _atom_site_occupancy
  C  C0  1  0.00000000  0.50000000  0.00000000  1
  C  C1  1  0.50000000  0.00000000  0.00000000  1
  Ni  Ni2  1  0.50000000  0.50000000  0.00000000  1
  Ni  Ni3  1  0.00000000  0.00000000  0.00000000  1
  Cu  Cu4  1  0.86326100  0.13673900  0.45903900  1
  Cu  Cu5  1  0.36326100  0.63673900  0.54096100  1
  Cu  Cu6  1  0.25000000  0.25000000  0.50000000  1
  Cu  Cu7  1  0.63673900  0.36326100  0.45903900  1
  Cu  Cu8  1  0.13673900  0.86326100  0.54096100  1
  Cu  Cu9  1  0.75000000  0.75000000  0.50000000  1
  C  C10  1  0.13146900  0.86853100  0.22365000  1
  C  C11  1  0.63146900  0.36853100  0.77635000  1
  C  C12  1  0.28054200  0.42667100  0.69914700  1
  C  C13  1  0.57332900  0.71945800  0.69914700  1
  C  C14  1  0.21945800  0.07332900  0.69914700  1
  C  C15  1  0.71945800  0.57332900  0.30085300  1
  C  C16  1  0.92667100  0.78054200  0.69914700  1
  C  C17  1  0.86853100  0.13146900  0.77635000  1
  C  C18  1  0.42667100  0.28054200  0.30085300  1
  C  C19  1  0.75000000  0.25000000  0.32983000  1
  C  C20  1  0.25000000  0.75000000  0.67017000  1
  C  C21  1  0.78054200  0.92667100  0.30085300  1
  C  C22  1  0.07332900  0.21945800  0.30085300  1
  C  C23  1  0.36853100  0.63146900  0.22365000  1
