# generated using pymatgen
data_Cu4NiC2
_symmetry_space_group_name_H-M   'P 1'
_cell_length_a   6.82581000
_cell_length_b   8.99828100
_cell_length_c   12.40971900
_cell_angle_alpha   90.00000000
_cell_angle_beta   90.00000000
_cell_angle_gamma   90.00000000
_symmetry_Int_Tables_number   1
_chemical_formula_structural   Cu4NiC2
_chemical_formula_sum   'Cu16 Ni4 C8'
_cell_volume   762.21184615
_cell_formula_units_Z   4
loop_
 _symmetry_equiv_pos_site_id
 _symmetry_equiv_pos_as_xyz
  1  'x, y, z'
loop_
 _atom_site_type_symbol
 _atom_site_label
 _atom_site_symmetry_multiplicity
 _atom_site_fract_x
 _atom_site_fract_y
 _atom_site_fract_z
 _atom_site_occupancy
  C  C0  1  0.25000000  0.98180000  0.32968100  1
  C  C1  1  0.75000000  0.01820000  0.67031900  1
  C  C2  1  0.25000000  0.48180000  0.17031900  1
  C  C3  1  0.75000000  0.51820000  0.82968100  1
  C  C4  1  0.25000000  0.63022900  0.57877400  1
  C  C5  1  0.75000000  0.36977100  0.42122600  1
  C  C6  1  0.25000000  0.13022900  0.92122600  1
  C  C7  1  0.75000000  0.86977100  0.07877400  1
  Ni  Ni8  1  0.25000000  0.73053100  0.92434600  1
  Ni  Ni9  1  0.25000000  0.23053100  0.57565400  1
  Ni  Ni10  1  0.75000000  0.76946900  0.42434600  1
  Ni  Ni11  1  0.75000000  0.26946900  0.07565400  1
  Cu  Cu12  1  0.50490200  0.32380900  0.64624000  1
  Cu  Cu13  1  0.00490200  0.67619100  0.35376000  1
  Cu  Cu14  1  0.99509800  0.82380900  0.85376000  1
  Cu  Cu15  1  0.49509800  0.17619100  0.14624000  1
  Cu  Cu16  1  0.50490200  0.82380900  0.85376000  1
  Cu  Cu17  1  0.49509800  0.67619100  0.35376000  1
  Cu  Cu18  1  0.00490200  0.17619100  0.14624000  1
  Cu  Cu19  1  0.99509800  0.32380900  0.64624000  1
  Cu  Cu20  1  0.75000000  0.50425400  0.09311400  1
  Cu  Cu21  1  0.25000000  0.49574600  0.90688600  1
  Cu  Cu22  1  0.75000000  0.00425400  0.40688600  1
  Cu  Cu23  1  0.25000000  0.99574600  0.59311400  1
  Cu  Cu24  1  0.75000000  0.19020300  0.91270900  1
  Cu  Cu25  1  0.25000000  0.80979700  0.08729100  1
  Cu  Cu26  1  0.75000000  0.69020300  0.58729100  1
  Cu  Cu27  1  0.25000000  0.30979700  0.41270900  1
