# generated using pymatgen
data_Cu3(Ni2C3)2
_symmetry_space_group_name_H-M   'P 1'
_cell_length_a   6.28927700
_cell_length_b   9.68011900
_cell_length_c   9.81336103
_cell_angle_alpha   77.15003307
_cell_angle_beta   90.00000000
_cell_angle_gamma   90.00000000
_symmetry_Int_Tables_number   1
_chemical_formula_structural   Cu3(Ni2C3)2
_chemical_formula_sum   'Cu12 Ni16 C24'
_cell_volume   582.48414899
_cell_formula_units_Z   4
loop_
 _symmetry_equiv_pos_site_id
 _symmetry_equiv_pos_as_xyz
  1  'x, y, z'
loop_
 _atom_site_type_symbol
 _atom_site_label
 _atom_site_symmetry_multiplicity
 _atom_site_fract_x
 _atom_site_fract_y
 _atom_site_fract_z
 _atom_site_occupancy
  C  C0  1  0.22290700  0.66204300  0.63616800  1
  C  C1  1  0.27655900  0.22318800  0.36598100  1
  C  C2  1  0.72344100  0.72318800  0.36598100  1
  C  C3  1  0.77709300  0.16204300  0.63616800  1
  Ni  Ni4  1  0.68258900  0.52352600  0.93351800  1
  Ni  Ni5  1  0.10903700  0.84550500  0.07809100  1
  Ni  Ni6  1  0.10626800  0.61806500  0.28427300  1
  Ni  Ni7  1  0.88064100  0.16638600  0.05760600  1
  Ni  Ni8  1  0.59937900  0.51854900  0.71395700  1
  Ni  Ni9  1  0.89373200  0.11806500  0.28427300  1
  Ni  Ni10  1  0.59125900  0.96747300  0.94542200  1
  Ni  Ni11  1  0.40874100  0.46747300  0.94542200  1
  Ni  Ni12  1  0.47365000  0.64953900  0.93384000  1
  Ni  Ni13  1  0.52635000  0.14953900  0.93384000  1
  Ni  Ni14  1  0.13155800  0.25526300  0.05324700  1
  Ni  Ni15  1  0.31741100  0.02352600  0.93351800  1
  Ni  Ni16  1  0.86844200  0.75526300  0.05324700  1
  Ni  Ni17  1  0.89096300  0.34550500  0.07809100  1
  Ni  Ni18  1  0.11935900  0.66638600  0.05760600  1
  Ni  Ni19  1  0.40062100  0.01854900  0.71395700  1
  Cu  Cu20  1  0.39947100  0.92583200  0.42406200  1
  Cu  Cu21  1  0.47247800  0.49845400  0.29197400  1
  Cu  Cu22  1  0.60052900  0.42583200  0.42406200  1
  Cu  Cu23  1  0.02719300  0.74277500  0.10052000  1
  Cu  Cu24  1  0.51933100  0.55326600  0.90005400  1
  Cu  Cu25  1  0.48066900  0.05326600  0.90005400  1
  Cu  Cu26  1  0.02628900  0.90302000  0.71116400  1
  Cu  Cu27  1  0.89935200  0.89054200  0.57849500  1
  Cu  Cu28  1  0.97371100  0.40302000  0.71116400  1
  Cu  Cu29  1  0.97280700  0.24277500  0.10052000  1
  Cu  Cu30  1  0.10064800  0.39054200  0.57849500  1
  Cu  Cu31  1  0.52752200  0.99845400  0.29197400  1
  C  C32  1  0.50914700  0.58528600  0.74877600  1
  C  C33  1  0.49085300  0.08528600  0.74877600  1
  C  C34  1  0.97659400  0.00606200  0.76424300  1
  C  C35  1  0.21967400  0.49418100  0.52678500  1
  C  C36  1  0.28093700  0.00605800  0.47623500  1
  C  C37  1  0.99804900  0.19220600  0.25001700  1
  C  C38  1  0.71906300  0.50605800  0.47623500  1
  C  C39  1  0.67301800  0.92865600  0.24780600  1
  C  C40  1  0.47984300  0.12601100  0.23974300  1
  C  C41  1  0.92418100  0.77917300  0.53067500  1
  C  C42  1  0.00195100  0.69220600  0.25001700  1
  C  C43  1  0.02340600  0.50606200  0.76424300  1
  C  C44  1  0.52015700  0.62601100  0.23974300  1
  C  C45  1  0.42342700  0.79272900  0.47118500  1
  C  C46  1  0.57657300  0.29272900  0.47118500  1
  C  C47  1  0.07581900  0.27917300  0.53067500  1
  C  C48  1  0.78032600  0.99418100  0.52678500  1
  C  C49  1  0.82777200  0.31352300  0.75499200  1
  C  C50  1  0.17222800  0.81352300  0.75499200  1
  C  C51  1  0.32698200  0.42865600  0.24780600  1
