# generated using pymatgen
data_CuNiC7
_symmetry_space_group_name_H-M   'P 1'
_cell_length_a   5.93292185
_cell_length_b   5.93292185
_cell_length_c   19.98246000
_cell_angle_alpha   90.00000000
_cell_angle_beta   90.00000000
_cell_angle_gamma   119.99999835
_symmetry_Int_Tables_number   1
_chemical_formula_structural   CuNiC7
_chemical_formula_sum   'Cu4 Ni4 C28'
_cell_volume   609.13961852
_cell_formula_units_Z   4
loop_
 _symmetry_equiv_pos_site_id
 _symmetry_equiv_pos_as_xyz
  1  'x, y, z'
loop_
 _atom_site_type_symbol
 _atom_site_label
 _atom_site_symmetry_multiplicity
 _atom_site_fract_x
 _atom_site_fract_y
 _atom_site_fract_z
 _atom_site_occupancy
  C  C0  1  0.66666700  0.33333300  0.89408700  1
  C  C1  1  0.33333300  0.66666700  0.10591300  1
  C  C2  1  0.33333300  0.66666700  0.39408700  1
  C  C3  1  0.00000000  0.00000000  0.00000000  1
  C  C4  1  0.00000000  0.00000000  0.50000000  1
  C  C5  1  0.66666700  0.33333300  0.25000000  1
  C  C6  1  0.66666700  0.33333300  0.60591300  1
  C  C7  1  0.33333300  0.66666700  0.75000000  1
  Ni  Ni8  1  0.00000000  0.00000000  0.83668700  1
  Ni  Ni9  1  0.00000000  0.00000000  0.16331300  1
  Ni  Ni10  1  0.00000000  0.00000000  0.66331300  1
  Ni  Ni11  1  0.00000000  0.00000000  0.33668700  1
  Cu  Cu12  1  0.33333300  0.66666700  0.56675200  1
  Cu  Cu13  1  0.66666700  0.33333300  0.06675200  1
  Cu  Cu14  1  0.33333300  0.66666700  0.93324800  1
  Cu  Cu15  1  0.66666700  0.33333300  0.43324800  1
  C  C16  1  0.67361100  0.83680600  0.63433300  1
  C  C17  1  0.00000000  0.50000000  0.50000000  1
  C  C18  1  0.00000000  0.00000000  0.25000000  1
  C  C19  1  0.83680600  0.67361100  0.36566700  1
  C  C20  1  0.83680600  0.16319400  0.13433300  1
  C  C21  1  0.16319400  0.32638900  0.63433300  1
  C  C22  1  0.67361100  0.83680600  0.86566700  1
  C  C23  1  0.32638900  0.16319400  0.13433300  1
  C  C24  1  0.00000000  0.00000000  0.75000000  1
  C  C25  1  0.83680600  0.16319400  0.36566700  1
  C  C26  1  0.16319400  0.32638900  0.86566700  1
  C  C27  1  0.50000000  0.00000000  0.00000000  1
  C  C28  1  0.32638900  0.16319400  0.36566700  1
  C  C29  1  0.50000000  0.00000000  0.50000000  1
  C  C30  1  0.83680600  0.67361100  0.13433300  1
  C  C31  1  0.16319400  0.83680600  0.63433300  1
  C  C32  1  0.50000000  0.50000000  0.00000000  1
  C  C33  1  0.00000000  0.50000000  0.00000000  1
  C  C34  1  0.50000000  0.50000000  0.50000000  1
  C  C35  1  0.16319400  0.83680600  0.86566700  1
