# generated using pymatgen
data_CuNi2C5
_symmetry_space_group_name_H-M   'P 1'
_cell_length_a   7.54125000
_cell_length_b   7.54125000
_cell_length_c   7.54125000
_cell_angle_alpha   90.00000000
_cell_angle_beta   90.00000000
_cell_angle_gamma   90.00000000
_symmetry_Int_Tables_number   1
_chemical_formula_structural   CuNi2C5
_chemical_formula_sum   'Cu4 Ni8 C20'
_cell_volume   428.87429285
_cell_formula_units_Z   4
loop_
 _symmetry_equiv_pos_site_id
 _symmetry_equiv_pos_as_xyz
  1  'x, y, z'
loop_
 _atom_site_type_symbol
 _atom_site_label
 _atom_site_symmetry_multiplicity
 _atom_site_fract_x
 _atom_site_fract_y
 _atom_site_fract_z
 _atom_site_occupancy
  Ni  Ni0  1  0.99263600  0.00736400  0.50736400  1
  Ni  Ni1  1  0.22513600  0.77486400  0.27486400  1
  Ni  Ni2  1  0.72513600  0.72513600  0.72513600  1
  Ni  Ni3  1  0.00736400  0.50736400  0.99263600  1
  Ni  Ni4  1  0.49263600  0.49263600  0.49263600  1
  Ni  Ni5  1  0.77486400  0.27486400  0.22513600  1
  Ni  Ni6  1  0.50736400  0.99263600  0.00736400  1
  Ni  Ni7  1  0.27486400  0.22513600  0.77486400  1
  Cu  Cu8  1  0.03778600  0.46221400  0.53778600  1
  Cu  Cu9  1  0.96221400  0.96221400  0.96221400  1
  Cu  Cu10  1  0.46221400  0.53778600  0.03778600  1
  Cu  Cu11  1  0.53778600  0.03778600  0.46221400  1
  C  C12  1  0.25792200  0.25792200  0.25792200  1
  C  C13  1  0.74207800  0.75792200  0.24207800  1
  C  C14  1  0.24207800  0.74207800  0.75792200  1
  C  C15  1  0.75792200  0.24207800  0.74207800  1
  C  C16  1  0.86645300  0.63354700  0.36645300  1
  C  C17  1  0.47094000  0.23498900  0.20951000  1
  C  C18  1  0.76501100  0.70951000  0.02906000  1
  C  C19  1  0.23498900  0.20951000  0.47094000  1
  C  C20  1  0.13354700  0.13354700  0.13354700  1
  C  C21  1  0.97094000  0.26501100  0.79049000  1
  C  C22  1  0.02906000  0.76501100  0.70951000  1
  C  C23  1  0.52906000  0.73498900  0.29049000  1
  C  C24  1  0.63354700  0.36645300  0.86645300  1
  C  C25  1  0.79049000  0.97094000  0.26501100  1
  C  C26  1  0.29049000  0.52906000  0.73498900  1
  C  C27  1  0.70951000  0.02906000  0.76501100  1
  C  C28  1  0.36645300  0.86645300  0.63354700  1
  C  C29  1  0.26501100  0.79049000  0.97094000  1
  C  C30  1  0.20951000  0.47094000  0.23498900  1
  C  C31  1  0.73498900  0.29049000  0.52906000  1
