# generated using pymatgen
data_CuNi2C3
_symmetry_space_group_name_H-M   'P 1'
_cell_length_a   6.68485400
_cell_length_b   9.83892700
_cell_length_c   10.65498000
_cell_angle_alpha   90.00000000
_cell_angle_beta   90.00000000
_cell_angle_gamma   90.00000000
_symmetry_Int_Tables_number   1
_chemical_formula_structural   CuNi2C3
_chemical_formula_sum   'Cu8 Ni16 C24'
_cell_volume   700.79711247
_cell_formula_units_Z   8
loop_
 _symmetry_equiv_pos_site_id
 _symmetry_equiv_pos_as_xyz
  1  'x, y, z'
loop_
 _atom_site_type_symbol
 _atom_site_label
 _atom_site_symmetry_multiplicity
 _atom_site_fract_x
 _atom_site_fract_y
 _atom_site_fract_z
 _atom_site_occupancy
  C  C0  1  0.69708000  0.95179100  0.05774800  1
  C  C1  1  0.94185100  0.24916700  0.80718100  1
  C  C2  1  0.94185100  0.25083300  0.30718100  1
  C  C3  1  0.44185100  0.24916700  0.69281900  1
  C  C4  1  0.44185100  0.25083300  0.19281900  1
  C  C5  1  0.19708000  0.95179100  0.44225200  1
  C  C6  1  0.30292000  0.45179100  0.44225200  1
  C  C7  1  0.55814900  0.75083300  0.30718100  1
  C  C8  1  0.55814900  0.74916700  0.80718100  1
  C  C9  1  0.30292000  0.04820900  0.94225200  1
  C  C10  1  0.69708000  0.54820900  0.55774800  1
  C  C11  1  0.80292000  0.04820900  0.55774800  1
  C  C12  1  0.05814900  0.74916700  0.69281900  1
  C  C13  1  0.05814900  0.75083300  0.19281900  1
  C  C14  1  0.19708000  0.54820900  0.94225200  1
  C  C15  1  0.80292000  0.45179100  0.05774800  1
  C  C16  1  0.64340800  0.03922400  0.80136700  1
  C  C17  1  0.64340800  0.46077600  0.30136700  1
  C  C18  1  0.85659200  0.96077600  0.30136700  1
  C  C19  1  0.35659200  0.96077600  0.19863300  1
  C  C20  1  0.35659200  0.53922400  0.69863300  1
  C  C21  1  0.14340800  0.46077600  0.19863300  1
  C  C22  1  0.85659200  0.53922400  0.80136700  1
  C  C23  1  0.14340800  0.03922400  0.69863300  1
  Ni  Ni24  1  0.07103100  0.94319600  0.62238900  1
  Ni  Ni25  1  0.92896900  0.44319600  0.87761100  1
  Ni  Ni26  1  0.29461800  0.64065000  0.77370000  1
  Ni  Ni27  1  0.70538200  0.35935000  0.22630000  1
  Ni  Ni28  1  0.70538200  0.14065000  0.72630000  1
  Ni  Ni29  1  0.57103100  0.94319600  0.87761100  1
  Ni  Ni30  1  0.29461800  0.85935000  0.27370000  1
  Ni  Ni31  1  0.92896900  0.05680400  0.37761100  1
  Ni  Ni32  1  0.20538200  0.14065000  0.77370000  1
  Ni  Ni33  1  0.42896900  0.05680400  0.12238900  1
  Ni  Ni34  1  0.20538200  0.35935000  0.27370000  1
  Ni  Ni35  1  0.79461800  0.85935000  0.22630000  1
  Ni  Ni36  1  0.42896900  0.44319600  0.62238900  1
  Ni  Ni37  1  0.79461800  0.64065000  0.72630000  1
  Ni  Ni38  1  0.57103100  0.55680400  0.37761100  1
  Ni  Ni39  1  0.07103100  0.55680400  0.12238900  1
  Cu  Cu40  1  0.43575600  0.15779400  0.45894200  1
  Cu  Cu41  1  0.06424400  0.65779400  0.45894200  1
  Cu  Cu42  1  0.56424400  0.65779400  0.04105800  1
  Cu  Cu43  1  0.43575600  0.34220600  0.95894200  1
  Cu  Cu44  1  0.56424400  0.84220600  0.54105800  1
  Cu  Cu45  1  0.06424400  0.84220600  0.95894200  1
  Cu  Cu46  1  0.93575600  0.34220600  0.54105800  1
  Cu  Cu47  1  0.93575600  0.15779400  0.04105800  1
