# generated using pymatgen
data_Cu3NiC8
_symmetry_space_group_name_H-M   'P 1'
_cell_length_a   7.97616200
_cell_length_b   7.73598900
_cell_length_c   13.81084519
_cell_angle_alpha   57.06557016
_cell_angle_beta   90.00000000
_cell_angle_gamma   90.00000000
_symmetry_Int_Tables_number   1
_chemical_formula_structural   Cu3NiC8
_chemical_formula_sum   'Cu12 Ni4 C32'
_cell_volume   715.22688205
_cell_formula_units_Z   4
loop_
 _symmetry_equiv_pos_site_id
 _symmetry_equiv_pos_as_xyz
  1  'x, y, z'
loop_
 _atom_site_type_symbol
 _atom_site_label
 _atom_site_symmetry_multiplicity
 _atom_site_fract_x
 _atom_site_fract_y
 _atom_site_fract_z
 _atom_site_occupancy
  Ni  Ni0  1  0.04612700  0.95374900  0.63764700  1
  Ni  Ni1  1  0.54612700  0.04625100  0.86235300  1
  Ni  Ni2  1  0.95387300  0.04625100  0.36235300  1
  Ni  Ni3  1  0.45387300  0.95374900  0.13764700  1
  Cu  Cu4  1  0.27274400  0.66592900  0.59534300  1
  Cu  Cu5  1  0.77274400  0.33407100  0.90465700  1
  Cu  Cu6  1  0.72725600  0.33407100  0.40465700  1
  Cu  Cu7  1  0.22725600  0.66592900  0.09534300  1
  Cu  Cu8  1  0.75817700  0.54608000  0.60426900  1
  Cu  Cu9  1  0.25817700  0.45392000  0.89573100  1
  Cu  Cu10  1  0.24182300  0.45392000  0.39573100  1
  Cu  Cu11  1  0.74182300  0.54608000  0.10426900  1
  Cu  Cu12  1  0.45099200  0.05747400  0.68684400  1
  Cu  Cu13  1  0.95099200  0.94252600  0.81315600  1
  Cu  Cu14  1  0.54900800  0.94252600  0.31315600  1
  Cu  Cu15  1  0.04900800  0.05747400  0.18684400  1
  C  C16  1  0.19951000  0.49355100  0.55098400  1
  C  C17  1  0.69951000  0.50644900  0.94901600  1
  C  C18  1  0.80049000  0.50644900  0.44901600  1
  C  C19  1  0.30049000  0.49355100  0.05098400  1
  C  C20  1  0.07423700  0.78566800  0.58591000  1
  C  C21  1  0.57423700  0.21433200  0.91409000  1
  C  C22  1  0.92576300  0.21433200  0.41409000  1
  C  C23  1  0.42576300  0.78566800  0.08591000  1
  C  C24  1  0.67841200  0.80611900  0.50894500  1
  C  C25  1  0.17841200  0.19388100  0.99105500  1
  C  C26  1  0.32158800  0.19388100  0.49105500  1
  C  C27  1  0.82158800  0.80611900  0.00894500  1
  C  C28  1  0.55542500  0.41743100  0.63653100  1
  C  C29  1  0.05542500  0.58256900  0.86346900  1
  C  C30  1  0.44457500  0.58256900  0.36346900  1
  C  C31  1  0.94457500  0.41743100  0.13653100  1
  C  C32  1  0.75051200  0.56969100  0.74173300  1
  C  C33  1  0.25051200  0.43030900  0.75826700  1
  C  C34  1  0.24948800  0.43030900  0.25826700  1
  C  C35  1  0.74948800  0.56969100  0.24173300  1
  C  C36  1  0.04418600  0.05652400  0.66092800  1
  C  C37  1  0.54418600  0.94347600  0.83907200  1
  C  C38  1  0.95581400  0.94347600  0.33907200  1
  C  C39  1  0.45581400  0.05652400  0.16092800  1
  C  C40  1  0.65015200  0.07310800  0.61805500  1
  C  C41  1  0.15015200  0.92689200  0.88194500  1
  C  C42  1  0.34984800  0.92689200  0.38194500  1
  C  C43  1  0.84984800  0.07310800  0.11805500  1
  C  C44  1  0.38321700  0.80370500  0.72158900  1
  C  C45  1  0.88321700  0.19629500  0.77841100  1
  C  C46  1  0.61678300  0.19629500  0.27841100  1
  C  C47  1  0.11678300  0.80370500  0.22158900  1
