# generated using pymatgen
data_Cu2Ni2C5
_symmetry_space_group_name_H-M   'P 1'
_cell_length_a   5.87395500
_cell_length_b   9.19777000
_cell_length_c   10.52191700
_cell_angle_alpha   90.00000000
_cell_angle_beta   90.00000000
_cell_angle_gamma   90.00000000
_symmetry_Int_Tables_number   1
_chemical_formula_structural   Cu2Ni2C5
_chemical_formula_sum   'Cu8 Ni8 C20'
_cell_volume   568.47063039
_cell_formula_units_Z   4
loop_
 _symmetry_equiv_pos_site_id
 _symmetry_equiv_pos_as_xyz
  1  'x, y, z'
loop_
 _atom_site_type_symbol
 _atom_site_label
 _atom_site_symmetry_multiplicity
 _atom_site_fract_x
 _atom_site_fract_y
 _atom_site_fract_z
 _atom_site_occupancy
  C  C0  1  0.42525600  0.53946300  0.85978900  1
  C  C1  1  0.92525600  0.03946300  0.64021100  1
  C  C2  1  0.19986000  0.77439800  0.55447200  1
  C  C3  1  0.40487900  0.06321300  0.39900100  1
  C  C4  1  0.52160900  0.21642200  0.69250900  1
  C  C5  1  0.30014000  0.77439800  0.05447200  1
  C  C6  1  0.57474400  0.03946300  0.14021100  1
  C  C7  1  0.07474400  0.53946300  0.35978900  1
  C  C8  1  0.69986000  0.27439800  0.94552800  1
  C  C9  1  0.97839100  0.21642200  0.19250900  1
  C  C10  1  0.59512100  0.56321300  0.60099900  1
  C  C11  1  0.80014000  0.27439800  0.44552800  1
  C  C12  1  0.90487900  0.56321300  0.10099900  1
  C  C13  1  0.47839100  0.71642200  0.30749100  1
  C  C14  1  0.02160900  0.71642200  0.80749100  1
  C  C15  1  0.09512100  0.06321300  0.89900100  1
  C  C16  1  0.90182300  0.93739300  0.35893100  1
  C  C17  1  0.40182300  0.43739300  0.14106900  1
  C  C18  1  0.09817700  0.43739300  0.64106900  1
  C  C19  1  0.59817700  0.93739300  0.85893100  1
  Ni  Ni20  1  0.75396300  0.08475100  0.31933100  1
  Ni  Ni21  1  0.24603700  0.58475100  0.68066900  1
  Ni  Ni22  1  0.74603700  0.08475100  0.81933100  1
  Ni  Ni23  1  0.91367700  0.47674500  0.53527700  1
  Ni  Ni24  1  0.25396300  0.58475100  0.18066900  1
  Ni  Ni25  1  0.41367700  0.97674500  0.96472300  1
  Ni  Ni26  1  0.08632300  0.97674500  0.46472300  1
  Ni  Ni27  1  0.58632300  0.47674500  0.03527700  1
  Cu  Cu28  1  0.73618300  0.83085500  0.41897200  1
  Cu  Cu29  1  0.50382500  0.37775900  0.25784600  1
  Cu  Cu30  1  0.49617500  0.87775900  0.74215400  1
  Cu  Cu31  1  0.00382500  0.87775900  0.24215400  1
  Cu  Cu32  1  0.23618300  0.33085500  0.08102800  1
  Cu  Cu33  1  0.76381700  0.83085500  0.91897200  1
  Cu  Cu34  1  0.99617500  0.37775900  0.75784600  1
  Cu  Cu35  1  0.26381700  0.33085500  0.58102800  1
