# generated using pymatgen
data_Cu22Ni2C7
_symmetry_space_group_name_H-M   'P 1'
_cell_length_a   14.31770200
_cell_length_b   7.77514400
_cell_length_c   10.22101103
_cell_angle_alpha   65.87778089
_cell_angle_beta   90.00000000
_cell_angle_gamma   90.00000000
_symmetry_Int_Tables_number   1
_chemical_formula_structural   Cu22Ni2C7
_chemical_formula_sum   'Cu44 Ni4 C14'
_cell_volume   1038.46564320
_cell_formula_units_Z   2
loop_
 _symmetry_equiv_pos_site_id
 _symmetry_equiv_pos_as_xyz
  1  'x, y, z'
loop_
 _atom_site_type_symbol
 _atom_site_label
 _atom_site_symmetry_multiplicity
 _atom_site_fract_x
 _atom_site_fract_y
 _atom_site_fract_z
 _atom_site_occupancy
  C  C0  1  0.00000000  0.50000000  0.00000000  1
  C  C1  1  0.50000000  0.50000000  0.50000000  1
  C  C2  1  0.58269500  0.78218700  0.74863100  1
  C  C3  1  0.27344700  0.69356000  0.13292700  1
  C  C4  1  0.91730500  0.78218700  0.24863100  1
  C  C5  1  0.22655300  0.69356000  0.63292700  1
  C  C6  1  0.72655300  0.30644000  0.86707300  1
  C  C7  1  0.08269500  0.21781300  0.75136900  1
  C  C8  1  0.41730500  0.21781300  0.25136900  1
  C  C9  1  0.77344700  0.30644000  0.36707300  1
  C  C10  1  0.06076000  0.30465300  0.19127600  1
  C  C11  1  0.43924000  0.30465300  0.69127600  1
  C  C12  1  0.93924000  0.69534700  0.80872400  1
  C  C13  1  0.56076000  0.69534700  0.30872400  1
  Ni  Ni14  1  0.09790700  0.20578400  0.29110700  1
  Ni  Ni15  1  0.59790700  0.79421600  0.20889300  1
  Ni  Ni16  1  0.90209300  0.79421600  0.70889300  1
  Ni  Ni17  1  0.40209300  0.20578400  0.79110700  1
  Cu  Cu18  1  0.56582600  0.80641000  0.92385100  1
  Cu  Cu19  1  0.33506300  0.82041600  0.95631100  1
  Cu  Cu20  1  0.39760500  0.28097400  0.41425800  1
  Cu  Cu21  1  0.93417400  0.80641000  0.42385100  1
  Cu  Cu22  1  0.60239500  0.71902600  0.58574200  1
  Cu  Cu23  1  0.15493700  0.46135800  0.63042500  1
  Cu  Cu24  1  0.89760500  0.71902600  0.08574200  1
  Cu  Cu25  1  0.47545700  0.62443200  0.78278000  1
  Cu  Cu26  1  0.22396300  0.52003500  0.30945000  1
  Cu  Cu27  1  0.84506300  0.53864200  0.36957500  1
  Cu  Cu28  1  0.79235600  0.09409800  0.87196300  1
  Cu  Cu29  1  0.29853700  0.10256000  0.28348500  1
  Cu  Cu30  1  0.29235600  0.90590200  0.62803700  1
  Cu  Cu31  1  0.16493700  0.82041600  0.45631100  1
  Cu  Cu32  1  0.88112800  0.27436700  0.26674100  1
  Cu  Cu33  1  0.97545700  0.37556800  0.71722000  1
  Cu  Cu34  1  0.61887200  0.27436700  0.76674100  1
  Cu  Cu35  1  0.52454300  0.37556800  0.21722000  1
  Cu  Cu36  1  0.43417400  0.19359000  0.07614900  1
  Cu  Cu37  1  0.83506300  0.17958400  0.54368900  1
  Cu  Cu38  1  0.72396300  0.47996500  0.19055000  1
  Cu  Cu39  1  0.34506300  0.46135800  0.13042500  1
  Cu  Cu40  1  0.32579600  0.61822700  0.53908300  1
  Cu  Cu41  1  0.20146300  0.10256000  0.78348500  1
  Cu  Cu42  1  0.38112800  0.72563300  0.23325900  1
  Cu  Cu43  1  0.10239500  0.28097400  0.91425800  1
  Cu  Cu44  1  0.98125800  0.01088500  0.13956300  1
  Cu  Cu45  1  0.77603700  0.47996500  0.69055000  1
  Cu  Cu46  1  0.48125800  0.98911500  0.36043700  1
  Cu  Cu47  1  0.11887200  0.72563300  0.73325900  1
  Cu  Cu48  1  0.67420400  0.38177300  0.46091700  1
  Cu  Cu49  1  0.70146300  0.89744000  0.71651500  1
  Cu  Cu50  1  0.66493700  0.17958400  0.04368900  1
  Cu  Cu51  1  0.20764400  0.90590200  0.12803700  1
  Cu  Cu52  1  0.82579600  0.38177300  0.96091700  1
  Cu  Cu53  1  0.79853700  0.89744000  0.21651500  1
  Cu  Cu54  1  0.06582600  0.19359000  0.57614900  1
  Cu  Cu55  1  0.65493700  0.53864200  0.86957500  1
  Cu  Cu56  1  0.02454300  0.62443200  0.28278000  1
  Cu  Cu57  1  0.01874200  0.98911500  0.86043700  1
  Cu  Cu58  1  0.70764400  0.09409800  0.37196300  1
  Cu  Cu59  1  0.27603700  0.52003500  0.80945000  1
  Cu  Cu60  1  0.51874200  0.01088500  0.63956300  1
  Cu  Cu61  1  0.17420400  0.61822700  0.03908300  1
