# generated using pymatgen
data_Cu9NiC7
_symmetry_space_group_name_H-M   'P 1'
_cell_length_a   6.76226400
_cell_length_b   11.72438300
_cell_length_c   11.78662600
_cell_angle_alpha   90.00000000
_cell_angle_beta   90.00000000
_cell_angle_gamma   90.00000000
_symmetry_Int_Tables_number   1
_chemical_formula_structural   Cu9NiC7
_chemical_formula_sum   'Cu36 Ni4 C28'
_cell_volume   934.48346655
_cell_formula_units_Z   4
loop_
 _symmetry_equiv_pos_site_id
 _symmetry_equiv_pos_as_xyz
  1  'x, y, z'
loop_
 _atom_site_type_symbol
 _atom_site_label
 _atom_site_symmetry_multiplicity
 _atom_site_fract_x
 _atom_site_fract_y
 _atom_site_fract_z
 _atom_site_occupancy
  C  C0  1  0.99319800  0.73168000  0.02004600  1
  C  C1  1  0.64847200  0.45726700  0.74486500  1
  C  C2  1  0.99319800  0.26832000  0.97995400  1
  C  C3  1  0.14847200  0.95726700  0.75513500  1
  C  C4  1  0.14847200  0.04273300  0.24486500  1
  C  C5  1  0.64847200  0.54273300  0.25513500  1
  C  C6  1  0.49319800  0.23168000  0.47995400  1
  C  C7  1  0.49319800  0.76832000  0.52004600  1
  C  C8  1  0.84307600  0.81328500  0.27219700  1
  C  C9  1  0.49792700  0.20108700  0.81851100  1
  C  C10  1  0.13003000  0.51091300  0.75165400  1
  C  C11  1  0.99792700  0.29891300  0.31851100  1
  C  C12  1  0.49792700  0.79891300  0.18148900  1
  C  C13  1  0.63003000  0.98908700  0.25165400  1
  C  C14  1  0.96366400  0.27407400  0.54312700  1
  C  C15  1  0.46366400  0.22592600  0.04312700  1
  C  C16  1  0.34307600  0.31328500  0.22780300  1
  C  C17  1  0.67748200  0.21436600  0.21358100  1
  C  C18  1  0.17748200  0.28563400  0.71358100  1
  C  C19  1  0.99792700  0.70108700  0.68148900  1
  C  C20  1  0.84307600  0.18671500  0.72780300  1
  C  C21  1  0.46366400  0.77407400  0.95687300  1
  C  C22  1  0.96366400  0.72592600  0.45687300  1
  C  C23  1  0.13003000  0.48908700  0.24834600  1
  C  C24  1  0.34307600  0.68671500  0.77219700  1
  C  C25  1  0.63003000  0.01091300  0.74834600  1
  C  C26  1  0.67748200  0.78563400  0.78641900  1
  C  C27  1  0.17748200  0.71436600  0.28641900  1
  Ni  Ni28  1  0.00667900  0.00000000  0.00000000  1
  Ni  Ni29  1  0.26929300  0.00000000  0.50000000  1
  Ni  Ni30  1  0.76929300  0.50000000  0.00000000  1
  Ni  Ni31  1  0.50667900  0.50000000  0.50000000  1
  Cu  Cu32  1  0.98029400  0.42449300  0.29536100  1
  Cu  Cu33  1  0.38940700  0.26849700  0.73119700  1
  Cu  Cu34  1  0.30901400  0.75026800  0.88108000  1
  Cu  Cu35  1  0.71010700  0.23376800  0.81551600  1
  Cu  Cu36  1  0.40930300  0.77467600  0.06875200  1
  Cu  Cu37  1  0.48029400  0.07550700  0.79536100  1
  Cu  Cu38  1  0.30901400  0.24973200  0.11892000  1
  Cu  Cu39  1  0.88940700  0.76849700  0.76880300  1
  Cu  Cu40  1  0.88940700  0.23150300  0.23119700  1
  Cu  Cu41  1  0.21010700  0.26623200  0.31551600  1
  Cu  Cu42  1  0.09788800  0.39536400  0.76742800  1
  Cu  Cu43  1  0.90930300  0.27467600  0.43124800  1
  Cu  Cu44  1  0.21010700  0.73376800  0.68448400  1
  Cu  Cu45  1  0.64887900  0.20676000  0.08620100  1
  Cu  Cu46  1  0.59788800  0.10463600  0.26742800  1
  Cu  Cu47  1  0.98029400  0.57550700  0.70463900  1
  Cu  Cu48  1  0.80019500  0.93764100  0.29078400  1
  Cu  Cu49  1  0.55294900  0.30628100  0.26074700  1
  Cu  Cu50  1  0.14887900  0.70676000  0.41379900  1
  Cu  Cu51  1  0.64887900  0.79324000  0.91379900  1
  Cu  Cu52  1  0.55294900  0.69371900  0.73925300  1
  Cu  Cu53  1  0.30019500  0.43764100  0.20921600  1
  Cu  Cu54  1  0.59788800  0.89536400  0.73257200  1
  Cu  Cu55  1  0.05294900  0.80628100  0.23925300  1
  Cu  Cu56  1  0.09788800  0.60463600  0.23257200  1
  Cu  Cu57  1  0.90930300  0.72532400  0.56875200  1
  Cu  Cu58  1  0.80901400  0.25026800  0.61892000  1
  Cu  Cu59  1  0.38940700  0.73150300  0.26880300  1
  Cu  Cu60  1  0.40930300  0.22532400  0.93124800  1
  Cu  Cu61  1  0.05294900  0.19371900  0.76074700  1
  Cu  Cu62  1  0.80019500  0.06235900  0.70921600  1
  Cu  Cu63  1  0.30019500  0.56235900  0.79078400  1
  Cu  Cu64  1  0.80901400  0.74973200  0.38108000  1
  Cu  Cu65  1  0.14887900  0.29324000  0.58620100  1
  Cu  Cu66  1  0.71010700  0.76623200  0.18448400  1
  Cu  Cu67  1  0.48029400  0.92449300  0.20463900  1
