# generated using pymatgen
data_Cu3Ni3C5
_symmetry_space_group_name_H-M   'P 1'
_cell_length_a   13.66392200
_cell_length_b   5.80792600
_cell_length_c   13.88958423
_cell_angle_alpha   68.49146802
_cell_angle_beta   90.00000000
_cell_angle_gamma   90.00000000
_symmetry_Int_Tables_number   1
_chemical_formula_structural   Cu3Ni3C5
_chemical_formula_sum   'Cu12 Ni12 C20'
_cell_volume   1025.50578873
_cell_formula_units_Z   4
loop_
 _symmetry_equiv_pos_site_id
 _symmetry_equiv_pos_as_xyz
  1  'x, y, z'
loop_
 _atom_site_type_symbol
 _atom_site_label
 _atom_site_symmetry_multiplicity
 _atom_site_fract_x
 _atom_site_fract_y
 _atom_site_fract_z
 _atom_site_occupancy
  C  C0  1  0.28546400  0.09036100  0.28715400  1
  C  C1  1  0.78546400  0.90963900  0.21284600  1
  C  C2  1  0.71453600  0.90963900  0.71284600  1
  C  C3  1  0.21453600  0.09036100  0.78715400  1
  C  C4  1  0.00000000  0.00000000  0.00000000  1
  C  C5  1  0.50000000  0.00000000  0.50000000  1
  C  C6  1  0.00000000  0.50000000  0.50000000  1
  C  C7  1  0.50000000  0.50000000  0.00000000  1
  Ni  Ni8  1  0.12756200  0.51039900  0.98975100  1
  Ni  Ni9  1  0.62756200  0.48960100  0.51024900  1
  Ni  Ni10  1  0.87243800  0.48960100  0.01024900  1
  Ni  Ni11  1  0.37243800  0.51039900  0.48975100  1
  Ni  Ni12  1  0.40500400  0.92931800  0.09019800  1
  Ni  Ni13  1  0.90500400  0.07068200  0.40980200  1
  Ni  Ni14  1  0.59499600  0.07068200  0.90980200  1
  Ni  Ni15  1  0.09499600  0.92931800  0.59019800  1
  Ni  Ni16  1  0.05567200  0.64941200  0.24382300  1
  Ni  Ni17  1  0.55567200  0.35058800  0.25617700  1
  Ni  Ni18  1  0.94432800  0.35058800  0.75617700  1
  Ni  Ni19  1  0.44432800  0.64941200  0.74382300  1
  C  C20  1  0.17038700  0.22812900  0.02930900  1
  C  C21  1  0.67038700  0.77187100  0.47069100  1
  C  C22  1  0.82961300  0.77187100  0.97069100  1
  C  C23  1  0.32961300  0.22812900  0.52930900  1
  C  C24  1  0.34986300  0.68867500  0.08121300  1
  C  C25  1  0.84986300  0.31132500  0.41878700  1
  C  C26  1  0.65013700  0.31132500  0.91878700  1
  C  C27  1  0.15013700  0.68867500  0.58121300  1
  C  C28  1  0.12994200  0.52056600  0.34124200  1
  C  C29  1  0.62994200  0.47943400  0.15875800  1
  C  C30  1  0.87005800  0.47943400  0.65875800  1
  C  C31  1  0.37005800  0.52056600  0.84124200  1
  Cu  Cu32  1  0.40086100  0.71757300  0.45944300  1
  Cu  Cu33  1  0.90086100  0.28242700  0.04055700  1
  Cu  Cu34  1  0.59913900  0.28242700  0.54055700  1
  Cu  Cu35  1  0.09913900  0.71757300  0.95944300  1
  Cu  Cu36  1  0.44186700  0.10671500  0.09786500  1
  Cu  Cu37  1  0.94186700  0.89328500  0.40213500  1
  Cu  Cu38  1  0.55813300  0.89328500  0.90213500  1
  Cu  Cu39  1  0.05813300  0.10671500  0.59786500  1
  Cu  Cu40  1  0.00166600  0.74362600  0.17371400  1
  Cu  Cu41  1  0.50166600  0.25637400  0.32628600  1
  Cu  Cu42  1  0.99833400  0.25637400  0.82628600  1
  Cu  Cu43  1  0.49833400  0.74362600  0.67371400  1
