# generated using pymatgen
data_Cu11Ni3C2
_symmetry_space_group_name_H-M   'P 1'
_cell_length_a   8.46434035
_cell_length_b   8.46434035
_cell_length_c   8.15060405
_cell_angle_alpha   68.80142424
_cell_angle_beta   68.80142424
_cell_angle_gamma   70.62718005
_symmetry_Int_Tables_number   1
_chemical_formula_structural   Cu11Ni3C2
_chemical_formula_sum   'Cu22 Ni6 C4'
_cell_volume   493.84460204
_cell_formula_units_Z   2
loop_
 _symmetry_equiv_pos_site_id
 _symmetry_equiv_pos_as_xyz
  1  'x, y, z'
loop_
 _atom_site_type_symbol
 _atom_site_label
 _atom_site_symmetry_multiplicity
 _atom_site_fract_x
 _atom_site_fract_y
 _atom_site_fract_z
 _atom_site_occupancy
  C  C0  1  0.00000000  0.50000000  0.50000000  1
  C  C1  1  0.50000000  0.00000000  0.00000000  1
  C  C2  1  0.76143200  0.23856800  0.25000000  1
  C  C3  1  0.23856800  0.76143200  0.75000000  1
  Ni  Ni4  1  0.75534600  0.92530400  0.56492700  1
  Ni  Ni5  1  0.07469600  0.24465400  0.93507300  1
  Ni  Ni6  1  0.92530400  0.75534600  0.06492700  1
  Ni  Ni7  1  0.24465400  0.07469600  0.43507300  1
  Ni  Ni8  1  0.53827400  0.46172600  0.75000000  1
  Ni  Ni9  1  0.46172600  0.53827400  0.25000000  1
  Cu  Cu10  1  0.79317600  0.74904800  0.19366200  1
  Cu  Cu11  1  0.74904800  0.79317600  0.69366200  1
  Cu  Cu12  1  0.66367700  0.33632300  0.75000000  1
  Cu  Cu13  1  0.93107000  0.87901800  0.91431500  1
  Cu  Cu14  1  0.60307100  0.53802000  0.11719800  1
  Cu  Cu15  1  0.85635200  0.33473700  0.34452400  1
  Cu  Cu16  1  0.39692900  0.46198000  0.88280200  1
  Cu  Cu17  1  0.87901800  0.93107000  0.41431500  1
  Cu  Cu18  1  0.25095200  0.20682400  0.30633800  1
  Cu  Cu19  1  0.14364800  0.66526300  0.65547600  1
  Cu  Cu20  1  0.33473700  0.85635200  0.84452400  1
  Cu  Cu21  1  0.36152500  0.93096100  0.42968100  1
  Cu  Cu22  1  0.53802000  0.60307100  0.61719800  1
  Cu  Cu23  1  0.46198000  0.39692900  0.38280200  1
  Cu  Cu24  1  0.66526300  0.14364800  0.15547600  1
  Cu  Cu25  1  0.12098200  0.06893000  0.58568500  1
  Cu  Cu26  1  0.06893000  0.12098200  0.08568500  1
  Cu  Cu27  1  0.20682400  0.25095200  0.80633800  1
  Cu  Cu28  1  0.06903900  0.63847500  0.07031900  1
  Cu  Cu29  1  0.93096100  0.36152500  0.92968100  1
  Cu  Cu30  1  0.63847500  0.06903900  0.57031900  1
  Cu  Cu31  1  0.33632300  0.66367700  0.25000000  1
