# generated using pymatgen
data_Cu3Ni2C3
_symmetry_space_group_name_H-M   'P 1'
_cell_length_a   5.72231400
_cell_length_b   12.52130100
_cell_length_c   19.81985700
_cell_angle_alpha   90.00000000
_cell_angle_beta   90.00000000
_cell_angle_gamma   90.00000000
_symmetry_Int_Tables_number   1
_chemical_formula_structural   Cu3Ni2C3
_chemical_formula_sum   'Cu24 Ni16 C24'
_cell_volume   1420.10892726
_cell_formula_units_Z   8
loop_
 _symmetry_equiv_pos_site_id
 _symmetry_equiv_pos_as_xyz
  1  'x, y, z'
loop_
 _atom_site_type_symbol
 _atom_site_label
 _atom_site_symmetry_multiplicity
 _atom_site_fract_x
 _atom_site_fract_y
 _atom_site_fract_z
 _atom_site_occupancy
  C  C0  1  0.25000000  0.33255600  0.66993400  1
  C  C1  1  0.25000000  0.94293200  0.28955700  1
  C  C2  1  0.25000000  0.83255600  0.83006600  1
  C  C3  1  0.75000000  0.66744400  0.33006600  1
  C  C4  1  0.75000000  0.55706800  0.78955700  1
  C  C5  1  0.25000000  0.44293200  0.21044300  1
  C  C6  1  0.75000000  0.16744400  0.16993400  1
  C  C7  1  0.75000000  0.05706800  0.71044300  1
  C  C8  1  0.25000000  0.57021400  0.92749000  1
  C  C9  1  0.75000000  0.01382400  0.90638200  1
  C  C10  1  0.25000000  0.48617600  0.40638200  1
  C  C11  1  0.75000000  0.42978600  0.07251000  1
  C  C12  1  0.25000000  0.98617600  0.09361800  1
  C  C13  1  0.25000000  0.07021400  0.57251000  1
  C  C14  1  0.75000000  0.51382400  0.59361800  1
  C  C15  1  0.75000000  0.92978600  0.42749000  1
  C  C16  1  0.75000000  0.85987400  0.16065100  1
  C  C17  1  0.75000000  0.35987400  0.33934900  1
  C  C18  1  0.75000000  0.22540100  0.54885000  1
  C  C19  1  0.25000000  0.14012600  0.83934900  1
  C  C20  1  0.25000000  0.27459900  0.04885000  1
  C  C21  1  0.25000000  0.77459900  0.45115000  1
  C  C22  1  0.75000000  0.72540100  0.95115000  1
  C  C23  1  0.25000000  0.64012600  0.66065100  1
  Ni  Ni24  1  0.25000000  0.37562000  0.49523400  1
  Ni  Ni25  1  0.75000000  0.43980600  0.95972000  1
  Ni  Ni26  1  0.25000000  0.94060700  0.65477900  1
  Ni  Ni27  1  0.25000000  0.69413300  0.24070500  1
  Ni  Ni28  1  0.25000000  0.06019400  0.45972000  1
  Ni  Ni29  1  0.75000000  0.55939300  0.15477900  1
  Ni  Ni30  1  0.75000000  0.62438000  0.50476600  1
  Ni  Ni31  1  0.25000000  0.56019400  0.04028000  1
  Ni  Ni32  1  0.25000000  0.44060700  0.84522100  1
  Ni  Ni33  1  0.75000000  0.93980600  0.54028000  1
  Ni  Ni34  1  0.75000000  0.80586700  0.74070500  1
  Ni  Ni35  1  0.75000000  0.05939300  0.34522100  1
  Ni  Ni36  1  0.25000000  0.19413300  0.25929500  1
  Ni  Ni37  1  0.25000000  0.87562000  0.00476600  1
  Ni  Ni38  1  0.75000000  0.30586700  0.75929500  1
  Ni  Ni39  1  0.75000000  0.12438000  0.99523400  1
  Cu  Cu40  1  0.49286500  0.83032800  0.39576600  1
  Cu  Cu41  1  0.50713500  0.16967200  0.60423400  1
  Cu  Cu42  1  0.50713500  0.66967200  0.89576600  1
  Cu  Cu43  1  0.50640500  0.46439500  0.33879700  1
  Cu  Cu44  1  0.25000000  0.66083400  0.75317200  1
  Cu  Cu45  1  0.75000000  0.83916600  0.25317200  1
  Cu  Cu46  1  0.50640500  0.96439500  0.16120300  1
  Cu  Cu47  1  0.25000000  0.64179400  0.40734500  1
  Cu  Cu48  1  0.75000000  0.35820600  0.59265500  1
  Cu  Cu49  1  0.00713500  0.83032800  0.39576600  1
  Cu  Cu50  1  0.75000000  0.33916600  0.24682800  1
  Cu  Cu51  1  0.99286500  0.66967200  0.89576600  1
  Cu  Cu52  1  0.99359500  0.46439500  0.33879700  1
  Cu  Cu53  1  0.25000000  0.16083400  0.74682800  1
  Cu  Cu54  1  0.75000000  0.85820600  0.90734500  1
  Cu  Cu55  1  0.99286500  0.16967200  0.60423400  1
  Cu  Cu56  1  0.49359500  0.53560500  0.66120300  1
  Cu  Cu57  1  0.00640500  0.03560500  0.83879700  1
  Cu  Cu58  1  0.99359500  0.96439500  0.16120300  1
  Cu  Cu59  1  0.25000000  0.14179400  0.09265500  1
  Cu  Cu60  1  0.49286500  0.33032800  0.10423400  1
  Cu  Cu61  1  0.00713500  0.33032800  0.10423400  1
  Cu  Cu62  1  0.49359500  0.03560500  0.83879700  1
  Cu  Cu63  1  0.00640500  0.53560500  0.66120300  1
