# generated using pymatgen
data_Cu2Ni2C3
_symmetry_space_group_name_H-M   'P 1'
_cell_length_a   11.40164400
_cell_length_b   5.78593800
_cell_length_c   7.93279330
_cell_angle_alpha   70.69849516
_cell_angle_beta   90.00000000
_cell_angle_gamma   90.00000000
_symmetry_Int_Tables_number   1
_chemical_formula_structural   Cu2Ni2C3
_chemical_formula_sum   'Cu8 Ni8 C12'
_cell_volume   493.90543675
_cell_formula_units_Z   4
loop_
 _symmetry_equiv_pos_site_id
 _symmetry_equiv_pos_as_xyz
  1  'x, y, z'
loop_
 _atom_site_type_symbol
 _atom_site_label
 _atom_site_symmetry_multiplicity
 _atom_site_fract_x
 _atom_site_fract_y
 _atom_site_fract_z
 _atom_site_occupancy
  C  C0  1  0.75000000  0.15253300  0.85166700  1
  C  C1  1  0.25000000  0.84746700  0.14833300  1
  Ni  Ni2  1  0.88039000  0.82719600  0.39497900  1
  Ni  Ni3  1  0.87286900  0.33963100  0.14664300  1
  Ni  Ni4  1  0.37286900  0.66036900  0.85335700  1
  Ni  Ni5  1  0.11961000  0.17280400  0.60502100  1
  Ni  Ni6  1  0.12713100  0.66036900  0.85335700  1
  Ni  Ni7  1  0.38039000  0.17280400  0.60502100  1
  Ni  Ni8  1  0.62713100  0.33963100  0.14664300  1
  Ni  Ni9  1  0.61961000  0.82719600  0.39497900  1
  Cu  Cu10  1  0.08188800  0.90238200  0.70379100  1
  Cu  Cu11  1  0.25000000  0.25474200  0.62576500  1
  Cu  Cu12  1  0.75000000  0.28675800  0.05130500  1
  Cu  Cu13  1  0.25000000  0.71324200  0.94869500  1
  Cu  Cu14  1  0.75000000  0.74525800  0.37423500  1
  Cu  Cu15  1  0.41811200  0.90238200  0.70379100  1
  Cu  Cu16  1  0.91811200  0.09761800  0.29620900  1
  Cu  Cu17  1  0.58188800  0.09761800  0.29620900  1
  C  C18  1  0.25000000  0.95728300  0.33111400  1
  C  C19  1  0.75000000  0.04271700  0.66888600  1
  C  C20  1  0.36187800  0.63152600  0.25191500  1
  C  C21  1  0.13812200  0.63152600  0.25191500  1
  C  C22  1  0.13965400  0.06307800  0.03781000  1
  C  C23  1  0.86034600  0.93692200  0.96219000  1
  C  C24  1  0.36034600  0.06307800  0.03781000  1
  C  C25  1  0.86187800  0.36847400  0.74808500  1
  C  C26  1  0.63812200  0.36847400  0.74808500  1
  C  C27  1  0.63965400  0.93692200  0.96219000  1
