# generated using pymatgen
data_CuNiC5
_symmetry_space_group_name_H-M   'P 1'
_cell_length_a   7.72303900
_cell_length_b   12.68734800
_cell_length_c   16.85348000
_cell_angle_alpha   90.00000000
_cell_angle_beta   90.00000000
_cell_angle_gamma   90.00000000
_symmetry_Int_Tables_number   1
_chemical_formula_structural   CuNiC5
_chemical_formula_sum   'Cu8 Ni8 C40'
_cell_volume   1651.38627286
_cell_formula_units_Z   8
loop_
 _symmetry_equiv_pos_site_id
 _symmetry_equiv_pos_as_xyz
  1  'x, y, z'
loop_
 _atom_site_type_symbol
 _atom_site_label
 _atom_site_symmetry_multiplicity
 _atom_site_fract_x
 _atom_site_fract_y
 _atom_site_fract_z
 _atom_site_occupancy
  C  C0  1  0.25000000  0.38475500  0.07073500  1
  C  C1  1  0.25000000  0.02043600  0.16771300  1
  C  C2  1  0.25000000  0.47956400  0.66771300  1
  C  C3  1  0.25000000  0.11524500  0.57073500  1
  C  C4  1  0.75000000  0.97956400  0.83228700  1
  C  C5  1  0.75000000  0.61524500  0.92926500  1
  C  C6  1  0.75000000  0.88475500  0.42926500  1
  C  C7  1  0.75000000  0.52043600  0.33228700  1
  Ni  Ni8  1  0.99241500  0.27441900  0.84662800  1
  Ni  Ni9  1  0.00758500  0.77441900  0.65337200  1
  Ni  Ni10  1  0.49241500  0.72558100  0.15337200  1
  Ni  Ni11  1  0.99241500  0.22558100  0.34662800  1
  Ni  Ni12  1  0.50758500  0.22558100  0.34662800  1
  Ni  Ni13  1  0.49241500  0.77441900  0.65337200  1
  Ni  Ni14  1  0.50758500  0.27441900  0.84662800  1
  Ni  Ni15  1  0.00758500  0.72558100  0.15337200  1
  Cu  Cu16  1  0.75000000  0.19715100  0.01841200  1
  Cu  Cu17  1  0.75000000  0.20073900  0.66942100  1
  Cu  Cu18  1  0.25000000  0.79926100  0.33057900  1
  Cu  Cu19  1  0.75000000  0.30284900  0.51841200  1
  Cu  Cu20  1  0.25000000  0.69715100  0.48158800  1
  Cu  Cu21  1  0.25000000  0.70073900  0.83057900  1
  Cu  Cu22  1  0.25000000  0.80284900  0.98158800  1
  Cu  Cu23  1  0.75000000  0.29926100  0.16942100  1
  C  C24  1  0.75000000  0.10096400  0.34063600  1
  C  C25  1  0.25000000  0.86626000  0.86221700  1
  C  C26  1  0.25000000  0.60096400  0.15936400  1
  C  C27  1  0.52131100  0.14863500  0.72875300  1
  C  C28  1  0.75000000  0.36423300  0.05055300  1
  C  C29  1  0.98211000  0.14859700  0.96154800  1
  C  C30  1  0.01789000  0.64859700  0.53845200  1
  C  C31  1  0.47868900  0.64863500  0.77124700  1
  C  C32  1  0.25000000  0.89903600  0.65936400  1
  C  C33  1  0.01789000  0.85140300  0.03845200  1
  C  C34  1  0.75000000  0.88673500  0.65179500  1
  C  C35  1  0.51789000  0.35140300  0.46154800  1
  C  C36  1  0.25000000  0.38673500  0.84820500  1
  C  C37  1  0.48211000  0.64859700  0.53845200  1
  C  C38  1  0.51789000  0.14859700  0.96154800  1
  C  C39  1  0.25000000  0.11326500  0.34820500  1
  C  C40  1  0.98211000  0.35140300  0.46154800  1
  C  C41  1  0.02131100  0.85136500  0.27124700  1
  C  C42  1  0.97868900  0.35136500  0.22875300  1
  C  C43  1  0.75000000  0.39903600  0.84063600  1
  C  C44  1  0.75000000  0.61326500  0.15179500  1
  C  C45  1  0.47868900  0.85136500  0.27124700  1
  C  C46  1  0.02131100  0.64863500  0.77124700  1
  C  C47  1  0.75000000  0.13576700  0.55055300  1
  C  C48  1  0.25000000  0.86423300  0.44944700  1
  C  C49  1  0.25000000  0.63576700  0.94944700  1
  C  C50  1  0.97868900  0.14863500  0.72875300  1
  C  C51  1  0.75000000  0.36626000  0.63778300  1
  C  C52  1  0.75000000  0.13374000  0.13778300  1
  C  C53  1  0.52131100  0.35136500  0.22875300  1
  C  C54  1  0.48211000  0.85140300  0.03845200  1
  C  C55  1  0.25000000  0.63374000  0.36221700  1
