# generated using pymatgen
data_Cu14NiC4
_symmetry_space_group_name_H-M   'P 1'
_cell_length_a   7.21023800
_cell_length_b   7.21023800
_cell_length_c   7.47218000
_cell_angle_alpha   90.00000000
_cell_angle_beta   90.00000000
_cell_angle_gamma   90.00000000
_symmetry_Int_Tables_number   1
_chemical_formula_structural   Cu14NiC4
_chemical_formula_sum   'Cu28 Ni2 C8'
_cell_volume   388.46019698
_cell_formula_units_Z   2
loop_
 _symmetry_equiv_pos_site_id
 _symmetry_equiv_pos_as_xyz
  1  'x, y, z'
loop_
 _atom_site_type_symbol
 _atom_site_label
 _atom_site_symmetry_multiplicity
 _atom_site_fract_x
 _atom_site_fract_y
 _atom_site_fract_z
 _atom_site_occupancy
  C  C0  1  0.19373400  0.33175200  0.00000000  1
  C  C1  1  0.66824800  0.19373400  0.00000000  1
  C  C2  1  0.33175200  0.80626600  0.00000000  1
  C  C3  1  0.69373400  0.16824800  0.50000000  1
  C  C4  1  0.30626600  0.83175200  0.50000000  1
  C  C5  1  0.80626600  0.66824800  0.00000000  1
  C  C6  1  0.83175200  0.69373400  0.50000000  1
  C  C7  1  0.16824800  0.30626600  0.50000000  1
  Ni  Ni8  1  0.00000000  0.00000000  0.00000000  1
  Ni  Ni9  1  0.50000000  0.50000000  0.50000000  1
  Cu  Cu10  1  0.17468900  0.03936100  0.23229100  1
  Cu  Cu11  1  0.96063900  0.17468900  0.23229100  1
  Cu  Cu12  1  0.03936100  0.82531100  0.23229100  1
  Cu  Cu13  1  0.67468900  0.46063900  0.26770900  1
  Cu  Cu14  1  0.32531100  0.53936100  0.26770900  1
  Cu  Cu15  1  0.82531100  0.96063900  0.23229100  1
  Cu  Cu16  1  0.53936100  0.67468900  0.26770900  1
  Cu  Cu17  1  0.46063900  0.32531100  0.26770900  1
  Cu  Cu18  1  0.82531100  0.96063900  0.76770900  1
  Cu  Cu19  1  0.03936100  0.82531100  0.76770900  1
  Cu  Cu20  1  0.96063900  0.17468900  0.76770900  1
  Cu  Cu21  1  0.32531100  0.53936100  0.73229100  1
  Cu  Cu22  1  0.67468900  0.46063900  0.73229100  1
  Cu  Cu23  1  0.17468900  0.03936100  0.76770900  1
  Cu  Cu24  1  0.46063900  0.32531100  0.73229100  1
  Cu  Cu25  1  0.53936100  0.67468900  0.73229100  1
  Cu  Cu26  1  0.08927900  0.58927900  0.25000000  1
  Cu  Cu27  1  0.41072100  0.08927900  0.25000000  1
  Cu  Cu28  1  0.58927900  0.91072100  0.25000000  1
  Cu  Cu29  1  0.91072100  0.41072100  0.25000000  1
  Cu  Cu30  1  0.91072100  0.41072100  0.75000000  1
  Cu  Cu31  1  0.58927900  0.91072100  0.75000000  1
  Cu  Cu32  1  0.41072100  0.08927900  0.75000000  1
  Cu  Cu33  1  0.08927900  0.58927900  0.75000000  1
  Cu  Cu34  1  0.00000000  0.00000000  0.38885000  1
  Cu  Cu35  1  0.50000000  0.50000000  0.11115000  1
  Cu  Cu36  1  0.00000000  0.00000000  0.61115000  1
  Cu  Cu37  1  0.50000000  0.50000000  0.88885000  1
