# generated using pymatgen
data_CuNiC5
_symmetry_space_group_name_H-M   'P 1'
_cell_length_a   5.65959500
_cell_length_b   9.47045600
_cell_length_c   21.07963800
_cell_angle_alpha   90.00000000
_cell_angle_beta   90.00000000
_cell_angle_gamma   90.00000000
_symmetry_Int_Tables_number   1
_chemical_formula_structural   CuNiC5
_chemical_formula_sum   'Cu12 Ni12 C60'
_cell_volume   1129.84636675
_cell_formula_units_Z   12
loop_
 _symmetry_equiv_pos_site_id
 _symmetry_equiv_pos_as_xyz
  1  'x, y, z'
loop_
 _atom_site_type_symbol
 _atom_site_label
 _atom_site_symmetry_multiplicity
 _atom_site_fract_x
 _atom_site_fract_y
 _atom_site_fract_z
 _atom_site_occupancy
  Ni  Ni0  1  0.73756900  0.42141900  0.38985000  1
  Ni  Ni1  1  0.21315900  0.57508900  0.94364400  1
  Ni  Ni2  1  0.73756900  0.07858100  0.88985000  1
  Ni  Ni3  1  0.23756900  0.57858100  0.61015000  1
  Ni  Ni4  1  0.25317200  0.92465100  0.77790400  1
  Ni  Ni5  1  0.25317200  0.57534900  0.27790400  1
  Ni  Ni6  1  0.71315900  0.07508900  0.55635600  1
  Ni  Ni7  1  0.71315900  0.42491100  0.05635600  1
  Ni  Ni8  1  0.75317200  0.42465100  0.72209600  1
  Ni  Ni9  1  0.75317200  0.07534900  0.22209600  1
  Ni  Ni10  1  0.21315900  0.92491100  0.44364400  1
  Ni  Ni11  1  0.23756900  0.92141900  0.11015000  1
  Cu  Cu12  1  0.75317400  0.79550500  0.33515300  1
  Cu  Cu13  1  0.25317400  0.29550500  0.16484700  1
  Cu  Cu14  1  0.74727200  0.70244800  0.16842900  1
  Cu  Cu15  1  0.71038200  0.79925600  0.00278200  1
  Cu  Cu16  1  0.24727200  0.20244800  0.33157100  1
  Cu  Cu17  1  0.74727200  0.79755200  0.66842900  1
  Cu  Cu18  1  0.25317400  0.20449500  0.66484700  1
  Cu  Cu19  1  0.75317400  0.70449500  0.83515300  1
  Cu  Cu20  1  0.24727200  0.29755200  0.83157100  1
  Cu  Cu21  1  0.71038200  0.70074400  0.50278200  1
  Cu  Cu22  1  0.21038200  0.29925600  0.49721800  1
  Cu  Cu23  1  0.21038200  0.20074400  0.99721800  1
  C  C24  1  0.74207700  0.41381600  0.57353500  1
  C  C25  1  0.24479500  0.91585000  0.25846200  1
  C  C26  1  0.21329200  0.58416600  0.09369000  1
  C  C27  1  0.24207700  0.58618400  0.42646500  1
  C  C28  1  0.24207700  0.91381600  0.92646500  1
  C  C29  1  0.74479500  0.08415000  0.74153800  1
  C  C30  1  0.21329200  0.91583400  0.59369000  1
  C  C31  1  0.71329200  0.41583400  0.90631000  1
  C  C32  1  0.71329200  0.08416600  0.40631000  1
  C  C33  1  0.24479500  0.58415000  0.75846200  1
  C  C34  1  0.74479500  0.41585000  0.24153800  1
  C  C35  1  0.74207700  0.08618400  0.07353500  1
  C  C36  1  0.97466000  0.16786500  0.10433400  1
  C  C37  1  0.21081900  0.43676100  0.05081400  1
  C  C38  1  0.79408300  0.93427600  0.78046600  1
  C  C39  1  0.97159100  0.30867200  0.25258300  1
  C  C40  1  0.67765500  0.05088300  0.66793600  1
  C  C41  1  0.17765500  0.94911700  0.33206400  1
  C  C42  1  0.50636700  0.34281600  0.27324600  1
  C  C43  1  0.47466000  0.66786500  0.39566600  1
  C  C44  1  0.21081900  0.06323900  0.55081400  1
  C  C45  1  0.00636700  0.65718400  0.72675400  1
  C  C46  1  0.81329100  0.44900100  0.50028400  1
  C  C47  1  0.31329100  0.94900100  0.99971600  1
  C  C48  1  0.17765500  0.55088300  0.83206400  1
  C  C49  1  0.71081900  0.93676100  0.44918600  1
  C  C50  1  0.50617900  0.18656300  0.08271300  1
  C  C51  1  0.48926400  0.18473600  0.42884400  1
  C  C52  1  0.00617900  0.81343700  0.91728700  1
  C  C53  1  0.70092100  0.56327100  0.61288800  1
  C  C54  1  0.17686300  0.95626100  0.66790100  1
  C  C55  1  0.31329100  0.55099900  0.49971600  1
  C  C56  1  0.00617900  0.68656300  0.41728700  1
  C  C57  1  0.48926400  0.31526400  0.92884400  1
  C  C58  1  0.46141500  0.66965900  0.07878300  1
  C  C59  1  0.47159100  0.69132800  0.74741700  1
  C  C60  1  0.29408300  0.06572400  0.21953400  1
  C  C61  1  0.20092100  0.43672900  0.38711200  1
  C  C62  1  0.96141500  0.33034100  0.92121700  1
  C  C63  1  0.97466000  0.33213500  0.60433400  1
  C  C64  1  0.71081900  0.56323900  0.94918600  1
  C  C65  1  0.81329100  0.05099900  0.00028400  1
  C  C66  1  0.97159100  0.19132800  0.75258300  1
  C  C67  1  0.47466000  0.83213500  0.89566600  1
  C  C68  1  0.98926400  0.81526400  0.57115600  1
  C  C69  1  0.98926400  0.68473600  0.07115600  1
  C  C70  1  0.46141500  0.83034100  0.57878300  1
  C  C71  1  0.70092100  0.93672900  0.11288800  1
  C  C72  1  0.47159100  0.80867200  0.24741700  1
  C  C73  1  0.67765500  0.44911700  0.16793600  1
  C  C74  1  0.79408300  0.56572400  0.28046600  1
  C  C75  1  0.50617900  0.31343700  0.58271300  1
  C  C76  1  0.67686300  0.45626100  0.83209900  1
  C  C77  1  0.67686300  0.04373900  0.33209900  1
  C  C78  1  0.00636700  0.84281600  0.22675400  1
  C  C79  1  0.17686300  0.54373900  0.16790100  1
  C  C80  1  0.96141500  0.16965900  0.42121700  1
  C  C81  1  0.29408300  0.43427600  0.71953400  1
  C  C82  1  0.50636700  0.15718400  0.77324600  1
  C  C83  1  0.20092100  0.06327100  0.88711200  1
