# generated using pymatgen
data_Cu3(NiC)2
_symmetry_space_group_name_H-M   'P 1'
_cell_length_a   4.60895200
_cell_length_b   10.25677900
_cell_length_c   13.32080900
_cell_angle_alpha   90.00000000
_cell_angle_beta   90.00000000
_cell_angle_gamma   90.00000000
_symmetry_Int_Tables_number   1
_chemical_formula_structural   Cu3(NiC)2
_chemical_formula_sum   'Cu12 Ni8 C8'
_cell_volume   629.71463164
_cell_formula_units_Z   4
loop_
 _symmetry_equiv_pos_site_id
 _symmetry_equiv_pos_as_xyz
  1  'x, y, z'
loop_
 _atom_site_type_symbol
 _atom_site_label
 _atom_site_symmetry_multiplicity
 _atom_site_fract_x
 _atom_site_fract_y
 _atom_site_fract_z
 _atom_site_occupancy
  Ni  Ni0  1  0.47356500  0.29658700  0.11156000  1
  Ni  Ni1  1  0.97356500  0.20341300  0.88844000  1
  Ni  Ni2  1  0.02643500  0.79658700  0.38844000  1
  Ni  Ni3  1  0.52643500  0.70341300  0.61156000  1
  Ni  Ni4  1  0.52643500  0.70341300  0.88844000  1
  Ni  Ni5  1  0.02643500  0.79658700  0.11156000  1
  Ni  Ni6  1  0.97356500  0.20341300  0.61156000  1
  Ni  Ni7  1  0.47356500  0.29658700  0.38844000  1
  Cu  Cu8  1  0.47027400  0.51517200  0.25000000  1
  Cu  Cu9  1  0.97027400  0.98482800  0.75000000  1
  Cu  Cu10  1  0.02972600  0.01517200  0.25000000  1
  Cu  Cu11  1  0.52972600  0.48482800  0.75000000  1
  Cu  Cu12  1  0.27330600  0.43319500  0.12466800  1
  Cu  Cu13  1  0.77330600  0.06680500  0.87533200  1
  Cu  Cu14  1  0.22669400  0.93319500  0.37533200  1
  Cu  Cu15  1  0.72669400  0.56680500  0.62466800  1
  Cu  Cu16  1  0.72669400  0.56680500  0.87533200  1
  Cu  Cu17  1  0.22669400  0.93319500  0.12466800  1
  Cu  Cu18  1  0.77330600  0.06680500  0.62466800  1
  Cu  Cu19  1  0.27330600  0.43319500  0.37533200  1
  C  C20  1  0.60536900  0.19965200  0.10074400  1
  C  C21  1  0.10536900  0.30034800  0.89925600  1
  C  C22  1  0.89463100  0.69965200  0.39925600  1
  C  C23  1  0.39463100  0.80034800  0.60074400  1
  C  C24  1  0.39463100  0.80034800  0.89925600  1
  C  C25  1  0.89463100  0.69965200  0.10074400  1
  C  C26  1  0.10536900  0.30034800  0.60074400  1
  C  C27  1  0.60536900  0.19965200  0.39925600  1
