# generated using pymatgen
data_Cu(Ni2C11)2
_symmetry_space_group_name_H-M   'P 1'
_cell_length_a   5.54064400
_cell_length_b   7.78651600
_cell_length_c   32.15888294
_cell_angle_alpha   82.99639727
_cell_angle_beta   90.00000000
_cell_angle_gamma   90.00000000
_symmetry_Int_Tables_number   1
_chemical_formula_structural   Cu(Ni2C11)2
_chemical_formula_sum   'Cu4 Ni16 C88'
_cell_volume   1377.05643053
_cell_formula_units_Z   4
loop_
 _symmetry_equiv_pos_site_id
 _symmetry_equiv_pos_as_xyz
  1  'x, y, z'
loop_
 _atom_site_type_symbol
 _atom_site_label
 _atom_site_symmetry_multiplicity
 _atom_site_fract_x
 _atom_site_fract_y
 _atom_site_fract_z
 _atom_site_occupancy
  C  C0  1  0.48141700  0.21124900  0.58016800  1
  C  C1  1  0.98141700  0.78875100  0.91983200  1
  C  C2  1  0.95458200  0.64546900  0.70040800  1
  C  C3  1  0.04541800  0.35453100  0.29959200  1
  C  C4  1  0.38666800  0.85650600  0.77927900  1
  C  C5  1  0.00105300  0.70114800  0.09550300  1
  C  C6  1  0.99220700  0.74541200  0.50729500  1
  C  C7  1  0.49894700  0.70114800  0.59550300  1
  C  C8  1  0.99894700  0.29885200  0.90449700  1
  C  C9  1  0.50779300  0.74541200  0.00729500  1
  C  C10  1  0.50105300  0.29885200  0.40449700  1
  C  C11  1  0.49220700  0.25458800  0.99270500  1
  C  C12  1  0.01858300  0.21124900  0.08016800  1
  C  C13  1  0.00779300  0.25458800  0.49270500  1
  C  C14  1  0.45458200  0.35453100  0.79959200  1
  C  C15  1  0.61333200  0.14349400  0.22072100  1
  C  C16  1  0.54541800  0.64546900  0.20040800  1
  C  C17  1  0.88666800  0.14349400  0.72072100  1
  C  C18  1  0.11333200  0.85650600  0.27927900  1
  C  C19  1  0.51858300  0.78875100  0.41983200  1
  Ni  Ni20  1  0.98431100  0.95486000  0.59308700  1
  Ni  Ni21  1  0.01276100  0.54615400  0.40593500  1
  Ni  Ni22  1  0.51568900  0.95486000  0.09308700  1
  Ni  Ni23  1  0.44583000  0.40906200  0.67881300  1
  Ni  Ni24  1  0.45635900  0.92401500  0.67618000  1
  Ni  Ni25  1  0.55417000  0.59093800  0.32118700  1
  Ni  Ni26  1  0.04364100  0.92401500  0.17618000  1
  Ni  Ni27  1  0.48431100  0.04514000  0.90691300  1
  Ni  Ni28  1  0.48723900  0.54615400  0.90593500  1
  Ni  Ni29  1  0.94583000  0.59093800  0.82118700  1
  Ni  Ni30  1  0.51276100  0.45384600  0.09406500  1
  Ni  Ni31  1  0.01568900  0.04514000  0.40691300  1
  Ni  Ni32  1  0.98723900  0.45384600  0.59406500  1
  Ni  Ni33  1  0.05417000  0.40906200  0.17881300  1
  Ni  Ni34  1  0.54364100  0.07598500  0.32382000  1
  Ni  Ni35  1  0.95635900  0.07598500  0.82382000  1
  Cu  Cu36  1  0.00000000  0.50000000  0.00000000  1
  Cu  Cu37  1  0.50000000  0.00000000  0.50000000  1
  Cu  Cu38  1  0.50000000  0.50000000  0.50000000  1
  Cu  Cu39  1  0.00000000  0.00000000  0.00000000  1
  C  C40  1  0.18836200  0.91793000  0.71109000  1
  C  C41  1  0.41760600  0.75166400  0.49699100  1
  C  C42  1  0.84517400  0.40684700  0.22565600  1
  C  C43  1  0.10789500  0.66293400  0.17067300  1
  C  C44  1  0.82714300  0.86762000  0.22035600  1
  C  C45  1  0.81163800  0.08207000  0.28891000  1
  C  C46  1  0.28143400  0.48802000  0.44762600  1
  C  C47  1  0.21357400  0.12753700  0.36249500  1
  C  C48  1  0.58239400  0.24833600  0.50300900  1
  C  C49  1  0.17285700  0.13238000  0.77964400  1
  C  C50  1  0.70196700  0.03660300  0.38019400  1
  C  C51  1  0.29803300  0.96339700  0.61980600  1
  C  C52  1  0.29164300  0.50844400  0.86148700  1
  C  C53  1  0.70835700  0.49155600  0.13851300  1
  C  C54  1  0.28081100  0.06463500  0.44806500  1
  C  C55  1  0.28642600  0.12753700  0.86249500  1
  C  C56  1  0.33738900  0.37012500  0.20408500  1
  C  C57  1  0.71918900  0.93536500  0.55193500  1
  C  C58  1  0.32714300  0.13238000  0.27964400  1
  C  C59  1  0.16261100  0.37012500  0.70408500  1
  C  C60  1  0.66261100  0.62987500  0.79591500  1
  C  C61  1  0.92269500  0.20438900  0.59115100  1
  C  C62  1  0.78081100  0.93536500  0.05193500  1
  C  C63  1  0.79164300  0.49155600  0.63851300  1
  C  C64  1  0.31163800  0.91793000  0.21109000  1
  C  C65  1  0.78642600  0.87246300  0.63750500  1
  C  C66  1  0.08239400  0.75166400  0.99699100  1
  C  C67  1  0.78976600  0.97290000  0.46290500  1
  C  C68  1  0.79803300  0.03660300  0.88019400  1
  C  C69  1  0.68836200  0.08207000  0.78891000  1
  C  C70  1  0.20196700  0.96339700  0.11980600  1
  C  C71  1  0.30142200  0.41759900  0.61914400  1
  C  C72  1  0.21023400  0.02710000  0.53709500  1
  C  C73  1  0.04380300  0.83494800  0.82925300  1
  C  C74  1  0.28976600  0.02710000  0.03709500  1
  C  C75  1  0.20835700  0.50844400  0.36148700  1
  C  C76  1  0.39210500  0.66293400  0.67067300  1
  C  C77  1  0.60789500  0.33706600  0.32932700  1
  C  C78  1  0.07730500  0.79561100  0.40884900  1
  C  C79  1  0.57730500  0.20438900  0.09115100  1
  C  C80  1  0.28983700  0.43677700  0.03673800  1
  C  C81  1  0.71856600  0.51198000  0.55237400  1
  C  C82  1  0.80142200  0.58240100  0.88085600  1
  C  C83  1  0.57060800  0.29099800  0.91776100  1
  C  C84  1  0.78983700  0.56322300  0.46326200  1
  C  C85  1  0.34517400  0.59315300  0.27434400  1
  C  C86  1  0.19857800  0.41759900  0.11914400  1
  C  C87  1  0.92939200  0.29099800  0.41776100  1
  C  C88  1  0.42269500  0.79561100  0.90884900  1
  C  C89  1  0.21856600  0.48802000  0.94762600  1
  C  C90  1  0.83738900  0.62987500  0.29591500  1
  C  C91  1  0.07060800  0.70900200  0.58223900  1
  C  C92  1  0.78143400  0.51198000  0.05237400  1
  C  C93  1  0.95619700  0.16505200  0.17074700  1
  C  C94  1  0.42939200  0.70900200  0.08223900  1
  C  C95  1  0.71016300  0.56322300  0.96326200  1
  C  C96  1  0.67285700  0.86762000  0.72035600  1
  C  C97  1  0.21918900  0.06463500  0.94806500  1
  C  C98  1  0.65482600  0.40684700  0.72565600  1
  C  C99  1  0.71023400  0.97290000  0.96290500  1
  C  C100  1  0.21016300  0.43677700  0.53673800  1
  C  C101  1  0.89210500  0.33706600  0.82932700  1
  C  C102  1  0.71357400  0.87246300  0.13750500  1
  C  C103  1  0.15482600  0.59315300  0.77434400  1
  C  C104  1  0.91760600  0.24833600  0.00300900  1
  C  C105  1  0.69857800  0.58240100  0.38085600  1
  C  C106  1  0.45619700  0.83494800  0.32925300  1
  C  C107  1  0.54380300  0.16505200  0.67074700  1
