# generated using pymatgen
data_Cu2NiC4
_symmetry_space_group_name_H-M   'P 1'
_cell_length_a   5.93530032
_cell_length_b   5.93530032
_cell_length_c   19.65270302
_cell_angle_alpha   81.47070874
_cell_angle_beta   81.47070874
_cell_angle_gamma   60.48038099
_symmetry_Int_Tables_number   1
_chemical_formula_structural   Cu2NiC4
_chemical_formula_sum   'Cu16 Ni8 C32'
_cell_volume   593.50468550
_cell_formula_units_Z   8
loop_
 _symmetry_equiv_pos_site_id
 _symmetry_equiv_pos_as_xyz
  1  'x, y, z'
loop_
 _atom_site_type_symbol
 _atom_site_label
 _atom_site_symmetry_multiplicity
 _atom_site_fract_x
 _atom_site_fract_y
 _atom_site_fract_z
 _atom_site_occupancy
  Ni  Ni0  1  0.00574200  0.00574200  0.99878000  1
  Ni  Ni1  1  0.25491100  0.25491100  0.25232700  1
  Ni  Ni2  1  0.78332700  0.78332700  0.15655300  1
  Ni  Ni3  1  0.03165700  0.03165700  0.40757700  1
  Ni  Ni4  1  0.28128000  0.28128000  0.65637300  1
  Ni  Ni5  1  0.15577600  0.15577600  0.53179500  1
  Ni  Ni6  1  0.53278600  0.53278600  0.90529800  1
  Ni  Ni7  1  0.40598200  0.40598200  0.78138200  1
  Cu  Cu8  1  0.30582100  0.30582100  0.06157500  1
  Cu  Cu9  1  0.55556000  0.55556000  0.31161500  1
  Cu  Cu10  1  0.50717300  0.50717300  0.49970500  1
  Cu  Cu11  1  0.65722900  0.65722900  0.02797800  1
  Cu  Cu12  1  0.78506700  0.27199500  0.15666400  1
  Cu  Cu13  1  0.27199500  0.78506700  0.15666400  1
  Cu  Cu14  1  0.75802000  0.75802000  0.74632700  1
  Cu  Cu15  1  0.90669400  0.90669400  0.27842300  1
  Cu  Cu16  1  0.80465200  0.80465200  0.56532900  1
  Cu  Cu17  1  0.03259900  0.52632500  0.40802200  1
  Cu  Cu18  1  0.52632500  0.03259900  0.40802200  1
  Cu  Cu19  1  0.05494200  0.05494200  0.81472200  1
  Cu  Cu20  1  0.28144100  0.78091600  0.65651700  1
  Cu  Cu21  1  0.78091600  0.28144100  0.65651700  1
  Cu  Cu22  1  0.53366500  0.02700200  0.90535200  1
  Cu  Cu23  1  0.02700200  0.53366500  0.90535200  1
  C  C24  1  0.94640000  0.47388900  0.09454500  1
  C  C25  1  0.59137700  0.59137700  0.21324600  1
  C  C26  1  0.47388900  0.94640000  0.09454500  1
  C  C27  1  0.47520000  0.47520000  0.09488300  1
  C  C28  1  0.19590800  0.72437200  0.34461100  1
  C  C29  1  0.08447300  0.08447300  0.21674700  1
  C  C30  1  0.84021700  0.84021700  0.46439200  1
  C  C31  1  0.72437200  0.19590800  0.34461100  1
  C  C32  1  0.08780700  0.62346500  0.21754500  1
  C  C33  1  0.97248700  0.97248700  0.10065700  1
  C  C34  1  0.72544600  0.72544600  0.34472300  1
  C  C35  1  0.62346500  0.08780700  0.21754500  1
  C  C36  1  0.34192000  0.34192000  0.46693000  1
  C  C37  1  0.45023500  0.96883900  0.59681300  1
  C  C38  1  0.09110500  0.09110500  0.71507200  1
  C  C39  1  0.96883900  0.45023500  0.59681300  1
  C  C40  1  0.34415300  0.85842700  0.46684200  1
  C  C41  1  0.22174100  0.22174100  0.35500300  1
  C  C42  1  0.97243500  0.97243500  0.59692100  1
  C  C43  1  0.85842700  0.34415300  0.46684200  1
  C  C44  1  0.58957000  0.58957000  0.71532800  1
  C  C45  1  0.70101800  0.21787900  0.84704100  1
  C  C46  1  0.34201100  0.34201100  0.96398600  1
  C  C47  1  0.59356600  0.11321900  0.71547600  1
  C  C48  1  0.21787900  0.70101800  0.84704100  1
  C  C49  1  0.47135600  0.47135600  0.59847100  1
  C  C50  1  0.22177000  0.22177000  0.84745300  1
  C  C51  1  0.11321900  0.59356600  0.71547600  1
  C  C52  1  0.83241800  0.83241800  0.96505300  1
  C  C53  1  0.83690900  0.37808400  0.96600400  1
  C  C54  1  0.72173900  0.72173900  0.84451100  1
  C  C55  1  0.37808400  0.83690900  0.96600400  1
