# generated using pymatgen
data_Cu6NiC17
_symmetry_space_group_name_H-M   'P 1'
_cell_length_a   8.53941374
_cell_length_b   9.02766077
_cell_length_c   15.80023917
_cell_angle_alpha   90.00000000
_cell_angle_beta   90.00000000
_cell_angle_gamma   92.11529149
_symmetry_Int_Tables_number   1
_chemical_formula_structural   Cu6NiC17
_chemical_formula_sum   'Cu24 Ni4 C68'
_cell_volume   1217.22512914
_cell_formula_units_Z   4
loop_
 _symmetry_equiv_pos_site_id
 _symmetry_equiv_pos_as_xyz
  1  'x, y, z'
loop_
 _atom_site_type_symbol
 _atom_site_label
 _atom_site_symmetry_multiplicity
 _atom_site_fract_x
 _atom_site_fract_y
 _atom_site_fract_z
 _atom_site_occupancy
  Ni  Ni0  1  0.17828555  0.06244581  0.39419852  1
  Ni  Ni1  1  0.67828555  0.56244581  0.10580148  1
  Ni  Ni2  1  0.32171445  0.43755419  0.89419852  1
  Ni  Ni3  1  0.82171445  0.93755419  0.60580148  1
  Cu  Cu4  1  0.44805355  0.78332943  0.51374247  1
  Cu  Cu5  1  0.22753703  0.07511948  0.64362881  1
  Cu  Cu6  1  0.64164912  0.19401888  0.17767397  1
  Cu  Cu7  1  0.79978643  0.56274815  0.50425769  1
  Cu  Cu8  1  0.14164912  0.69401888  0.32232603  1
  Cu  Cu9  1  0.35835088  0.80598112  0.82232603  1
  Cu  Cu10  1  0.70021357  0.93725185  0.00425769  1
  Cu  Cu11  1  0.07870743  0.66592381  0.66588843  1
  Cu  Cu12  1  0.72753703  0.57511948  0.85637119  1
  Cu  Cu13  1  0.85835088  0.30598112  0.67767397  1
  Cu  Cu14  1  0.55194645  0.21667057  0.48625753  1
  Cu  Cu15  1  0.57870743  0.16592381  0.83411157  1
  Cu  Cu16  1  0.27246297  0.42488052  0.14362881  1
  Cu  Cu17  1  0.94805355  0.28332943  0.98625753  1
  Cu  Cu18  1  0.03966002  0.05520746  0.17420987  1
  Cu  Cu19  1  0.20021357  0.43725185  0.49574231  1
  Cu  Cu20  1  0.77246297  0.92488052  0.35637119  1
  Cu  Cu21  1  0.92129257  0.33407619  0.33411157  1
  Cu  Cu22  1  0.42129257  0.83407619  0.16588843  1
  Cu  Cu23  1  0.53966002  0.55520746  0.32579013  1
  Cu  Cu24  1  0.29978643  0.06274815  0.99574231  1
  Cu  Cu25  1  0.96033998  0.94479254  0.82579013  1
  Cu  Cu26  1  0.46033998  0.44479254  0.67420987  1
  Cu  Cu27  1  0.05194645  0.71667057  0.01374247  1
  C  C28  1  0.07048499  0.52743220  0.82742155  1
  C  C29  1  0.92951501  0.47256780  0.17257845  1
  C  C30  1  0.31996788  0.27731445  0.30697747  1
  C  C31  1  0.06375935  0.85544265  0.49961727  1
  C  C32  1  0.42951501  0.97256780  0.32742155  1
  C  C33  1  0.81996788  0.77731445  0.19302253  1
  C  C34  1  0.43624065  0.64455735  0.99961727  1
  C  C35  1  0.93624065  0.14455735  0.50038273  1
  C  C36  1  0.18003212  0.22268555  0.80697747  1
  C  C37  1  0.57048499  0.02743220  0.67257845  1
  C  C38  1  0.68003212  0.72268555  0.69302253  1
  C  C39  1  0.56375935  0.35544265  0.00038273  1
  C  C40  1  0.02957471  0.88235597  0.41554298  1
  C  C41  1  0.19244346  0.89576001  0.09814810  1
  C  C42  1  0.32370055  0.27432040  0.77586642  1
  C  C43  1  0.16184695  0.87651827  0.91462327  1
  C  C44  1  0.54252764  0.71999071  0.05104109  1
  C  C45  1  0.00931896  0.53595318  0.41067731  1
  C  C46  1  0.46739544  0.99037351  0.41178191  1
  C  C47  1  0.34541765  0.62219106  0.23225017  1
  C  C48  1  0.43732431  0.32257779  0.24931162  1
  C  C49  1  0.04252764  0.21999071  0.44895891  1
  C  C50  1  0.53260456  0.00962649  0.58821809  1
  C  C51  1  0.83815305  0.12348173  0.08537673  1
  C  C52  1  0.67629945  0.72567960  0.22413358  1
  C  C53  1  0.65458235  0.37780894  0.76774983  1
  C  C54  1  0.97042529  0.11764403  0.58445702  1
  C  C55  1  0.20789809  0.90526449  0.53339869  1
  C  C56  1  0.64934387  0.70314346  0.60760878  1
  C  C57  1  0.84446365  0.77864077  0.92072300  1
  C  C58  1  0.34446365  0.27864077  0.57927700  1
  C  C59  1  0.65553635  0.72135923  0.42072300  1
  C  C60  1  0.06267569  0.17742221  0.74931162  1
  C  C61  1  0.15458235  0.87780894  0.73225017  1
  C  C62  1  0.93732431  0.82257779  0.25068838  1
  C  C63  1  0.79210191  0.09473551  0.46660131  1
  C  C64  1  0.29210191  0.59473551  0.03339869  1
  C  C65  1  0.35065613  0.29685654  0.39239122  1
  C  C66  1  0.95747236  0.78000929  0.55104109  1
  C  C67  1  0.21538132  0.57645038  0.79725553  1
  C  C68  1  0.95188708  0.50325312  0.76808228  1
  C  C69  1  0.80755654  0.10423999  0.90185190  1
  C  C70  1  0.70789809  0.40526449  0.96660131  1
  C  C71  1  0.54811292  0.99674688  0.26808228  1
  C  C72  1  0.15553635  0.22135923  0.07927700  1
  C  C73  1  0.04811292  0.49674688  0.23191772  1
  C  C74  1  0.66184695  0.37651827  0.58537673  1
  C  C75  1  0.99068104  0.46404682  0.58932269  1
  C  C76  1  0.45747236  0.28000929  0.94895891  1
  C  C77  1  0.71538132  0.07645038  0.70274447  1
  C  C78  1  0.47042529  0.61764403  0.91554298  1
  C  C79  1  0.49068104  0.96404682  0.91067731  1
  C  C80  1  0.52957471  0.38235597  0.08445702  1
  C  C81  1  0.03260456  0.50962649  0.91178191  1
  C  C82  1  0.50931896  0.03595318  0.08932269  1
  C  C83  1  0.69244346  0.39576001  0.40185190  1
  C  C84  1  0.33815305  0.62348173  0.41462327  1
  C  C85  1  0.84541765  0.12219106  0.26774983  1
  C  C86  1  0.28461868  0.92354962  0.29725553  1
  C  C87  1  0.85065613  0.79685654  0.10760878  1
  C  C88  1  0.82370055  0.77432040  0.72413358  1
  C  C89  1  0.30755654  0.60423999  0.59814810  1
  C  C90  1  0.45188708  0.00325312  0.73191772  1
  C  C91  1  0.78461868  0.42354962  0.20274447  1
  C  C92  1  0.14934387  0.20314346  0.89239122  1
  C  C93  1  0.17629945  0.22567960  0.27586642  1
  C  C94  1  0.96739544  0.49037351  0.08821809  1
  C  C95  1  0.56267569  0.67742221  0.75068838  1
