# generated using pymatgen
data_CuNiC3
_symmetry_space_group_name_H-M   'P 1'
_cell_length_a   9.06140600
_cell_length_b   5.26334600
_cell_length_c   9.38049770
_cell_angle_alpha   80.60015362
_cell_angle_beta   90.00000000
_cell_angle_gamma   90.00000000
_symmetry_Int_Tables_number   1
_chemical_formula_structural   CuNiC3
_chemical_formula_sum   'Cu8 Ni8 C24'
_cell_volume   441.37978701
_cell_formula_units_Z   8
loop_
 _symmetry_equiv_pos_site_id
 _symmetry_equiv_pos_as_xyz
  1  'x, y, z'
loop_
 _atom_site_type_symbol
 _atom_site_label
 _atom_site_symmetry_multiplicity
 _atom_site_fract_x
 _atom_site_fract_y
 _atom_site_fract_z
 _atom_site_occupancy
  Ni  Ni0  1  0.15606900  0.41478500  0.28074100  1
  Ni  Ni1  1  0.34393100  0.91478500  0.28074100  1
  Ni  Ni2  1  0.49132200  0.57942400  0.76756600  1
  Ni  Ni3  1  0.84393100  0.58521500  0.71925900  1
  Ni  Ni4  1  0.65606900  0.08521500  0.71925900  1
  Ni  Ni5  1  0.50867800  0.42057600  0.23243400  1
  Ni  Ni6  1  0.99132200  0.92057600  0.23243400  1
  Ni  Ni7  1  0.00867800  0.07942400  0.76756600  1
  Cu  Cu8  1  0.66609000  0.82351700  0.43096800  1
  Cu  Cu9  1  0.71329400  0.80508800  0.98126000  1
  Cu  Cu10  1  0.33391000  0.17648300  0.56903200  1
  Cu  Cu11  1  0.21329400  0.69491200  0.01874000  1
  Cu  Cu12  1  0.78670600  0.30508800  0.98126000  1
  Cu  Cu13  1  0.28670600  0.19491200  0.01874000  1
  Cu  Cu14  1  0.83391000  0.32351700  0.43096800  1
  Cu  Cu15  1  0.16609000  0.67648300  0.56903200  1
  C  C16  1  0.66954100  0.35942200  0.84640500  1
  C  C17  1  0.34281700  0.22350000  0.39247800  1
  C  C18  1  0.55603600  0.83247400  0.89805400  1
  C  C19  1  0.18824800  0.35046800  0.61755200  1
  C  C20  1  0.33045900  0.64057800  0.15359500  1
  C  C21  1  0.84281700  0.27650000  0.60752200  1
  C  C22  1  0.02880700  0.77645900  0.65222900  1
  C  C23  1  0.94396400  0.33247400  0.89805400  1
  C  C24  1  0.47119300  0.27645900  0.65222900  1
  C  C25  1  0.68824800  0.14953200  0.38244800  1
  C  C26  1  0.26766000  0.48188400  0.91284300  1
  C  C27  1  0.83045900  0.85942200  0.84640500  1
  C  C28  1  0.31175200  0.85046800  0.61755200  1
  C  C29  1  0.81175200  0.64953200  0.38244800  1
  C  C30  1  0.73234000  0.51811600  0.08715700  1
  C  C31  1  0.97119300  0.22354100  0.34777100  1
  C  C32  1  0.65718300  0.77650000  0.60752200  1
  C  C33  1  0.15718300  0.72350000  0.39247800  1
  C  C34  1  0.05603600  0.66752600  0.10194600  1
  C  C35  1  0.16954100  0.14057800  0.15359500  1
  C  C36  1  0.76766000  0.01811600  0.08715700  1
  C  C37  1  0.23234000  0.98188400  0.91284300  1
  C  C38  1  0.52880700  0.72354100  0.34777100  1
  C  C39  1  0.44396400  0.16752600  0.10194600  1
