# generated using pymatgen
data_Cu8Ni2C11
_symmetry_space_group_name_H-M   'P 1'
_cell_length_a   9.91968000
_cell_length_b   5.33958500
_cell_length_c   8.66735424
_cell_angle_alpha   55.99199386
_cell_angle_beta   90.00000000
_cell_angle_gamma   90.00000000
_symmetry_Int_Tables_number   1
_chemical_formula_structural   Cu8Ni2C11
_chemical_formula_sum   'Cu16 Ni4 C22'
_cell_volume   380.56162082
_cell_formula_units_Z   2
loop_
 _symmetry_equiv_pos_site_id
 _symmetry_equiv_pos_as_xyz
  1  'x, y, z'
loop_
 _atom_site_type_symbol
 _atom_site_label
 _atom_site_symmetry_multiplicity
 _atom_site_fract_x
 _atom_site_fract_y
 _atom_site_fract_z
 _atom_site_occupancy
  C  C0  1  0.50000000  0.00000000  0.50000000  1
  C  C1  1  0.00000000  0.00000000  0.00000000  1
  Ni  Ni2  1  0.71640800  0.09621400  0.16453100  1
  Ni  Ni3  1  0.21640800  0.90378600  0.33546900  1
  Ni  Ni4  1  0.28359200  0.90378600  0.83546900  1
  Ni  Ni5  1  0.78359200  0.09621400  0.66453100  1
  Cu  Cu6  1  0.57688200  0.41781200  0.66082900  1
  Cu  Cu7  1  0.07688200  0.58218800  0.83917100  1
  Cu  Cu8  1  0.42311800  0.58218800  0.33917100  1
  Cu  Cu9  1  0.92311800  0.41781200  0.16082900  1
  Cu  Cu10  1  0.45036800  0.42651000  0.76472500  1
  Cu  Cu11  1  0.95036800  0.57349000  0.73527500  1
  Cu  Cu12  1  0.54963200  0.57349000  0.23527500  1
  Cu  Cu13  1  0.04963200  0.42651000  0.26472500  1
  Cu  Cu14  1  0.60949800  0.45390600  0.90368400  1
  Cu  Cu15  1  0.10949800  0.54609400  0.59631600  1
  Cu  Cu16  1  0.39050200  0.54609400  0.09631600  1
  Cu  Cu17  1  0.89050200  0.45390600  0.40368400  1
  Cu  Cu18  1  0.72191200  0.88201700  0.01313200  1
  Cu  Cu19  1  0.22191200  0.11798300  0.48686800  1
  Cu  Cu20  1  0.27808800  0.11798300  0.98686800  1
  Cu  Cu21  1  0.77808800  0.88201700  0.51313200  1
  C  C22  1  0.67079600  0.98833000  0.36085500  1
  C  C23  1  0.17079600  0.01167000  0.13914500  1
  C  C24  1  0.32920400  0.01167000  0.63914500  1
  C  C25  1  0.82920400  0.98833000  0.86085500  1
  C  C26  1  0.86899900  0.13799200  0.13589900  1
  C  C27  1  0.36899900  0.86200800  0.36410100  1
  C  C28  1  0.13100100  0.86200800  0.86410100  1
  C  C29  1  0.63100100  0.13799200  0.63589900  1
  C  C30  1  0.64021800  0.40281900  0.02893400  1
  C  C31  1  0.14021800  0.59718100  0.47106600  1
  C  C32  1  0.35978200  0.59718100  0.97106600  1
  C  C33  1  0.85978200  0.40281900  0.52893400  1
  C  C34  1  0.66754200  0.85649400  0.12233800  1
  C  C35  1  0.16754200  0.14350600  0.37766200  1
  C  C36  1  0.33245800  0.14350600  0.87766200  1
  C  C37  1  0.83245800  0.85649400  0.62233800  1
  C  C38  1  0.53565400  0.53899800  0.70547800  1
  C  C39  1  0.03565400  0.46100200  0.79452200  1
  C  C40  1  0.46434600  0.46100200  0.29452200  1
  C  C41  1  0.96434600  0.53899800  0.20547800  1
