# generated using pymatgen
data_Cu2NiC9
_symmetry_space_group_name_H-M   'P 1'
_cell_length_a   13.23311300
_cell_length_b   13.23311300
_cell_length_c   9.73898300
_cell_angle_alpha   90.00000000
_cell_angle_beta   90.00000000
_cell_angle_gamma   90.00000000
_symmetry_Int_Tables_number   1
_chemical_formula_structural   Cu2NiC9
_chemical_formula_sum   'Cu16 Ni8 C72'
_cell_volume   1705.44473175
_cell_formula_units_Z   8
loop_
 _symmetry_equiv_pos_site_id
 _symmetry_equiv_pos_as_xyz
  1  'x, y, z'
loop_
 _atom_site_type_symbol
 _atom_site_label
 _atom_site_symmetry_multiplicity
 _atom_site_fract_x
 _atom_site_fract_y
 _atom_site_fract_z
 _atom_site_occupancy
  Ni  Ni0  1  0.94732200  0.70056700  0.39779300  1
  Ni  Ni1  1  0.55267800  0.20056700  0.89779300  1
  Ni  Ni2  1  0.70056700  0.05267800  0.60220700  1
  Ni  Ni3  1  0.20056700  0.44732200  0.10220700  1
  Ni  Ni4  1  0.44732200  0.79943300  0.89779300  1
  Ni  Ni5  1  0.29943300  0.94732200  0.60220700  1
  Ni  Ni6  1  0.05267800  0.29943300  0.39779300  1
  Ni  Ni7  1  0.79943300  0.55267800  0.10220700  1
  C  C8  1  0.08507100  0.08543100  0.07365400  1
  C  C9  1  0.91492900  0.91456900  0.07365400  1
  C  C10  1  0.58543100  0.58507100  0.42634600  1
  C  C11  1  0.58507100  0.41456900  0.57365400  1
  C  C12  1  0.41492900  0.58543100  0.57365400  1
  C  C13  1  0.41456900  0.41492900  0.42634600  1
  C  C14  1  0.91456900  0.08507100  0.92634600  1
  C  C15  1  0.08543100  0.91492900  0.92634600  1
  Cu  Cu16  1  0.06676500  0.78927600  0.83537100  1
  Cu  Cu17  1  0.43323500  0.28927600  0.33537100  1
  Cu  Cu18  1  0.65702300  0.64980300  0.56326300  1
  Cu  Cu19  1  0.21072400  0.06676500  0.16462900  1
  Cu  Cu20  1  0.56676500  0.71072400  0.33537100  1
  Cu  Cu21  1  0.93323500  0.21072400  0.83537100  1
  Cu  Cu22  1  0.35019700  0.65702300  0.43673700  1
  Cu  Cu23  1  0.15702300  0.85019700  0.06326300  1
  Cu  Cu24  1  0.84297700  0.14980300  0.06326300  1
  Cu  Cu25  1  0.64980300  0.34297700  0.43673700  1
  Cu  Cu26  1  0.78927600  0.93323500  0.16462900  1
  Cu  Cu27  1  0.28927600  0.56676500  0.66462900  1
  Cu  Cu28  1  0.14980300  0.15702300  0.93673700  1
  Cu  Cu29  1  0.85019700  0.84297700  0.93673700  1
  Cu  Cu30  1  0.71072400  0.43323500  0.66462900  1
  Cu  Cu31  1  0.34297700  0.35019700  0.56326300  1
  C  C32  1  0.70067200  0.68813500  0.65150600  1
  C  C33  1  0.55534800  0.78966100  0.28837400  1
  C  C34  1  0.31186500  0.70067200  0.34849400  1
  C  C35  1  0.78966100  0.44465200  0.71162600  1
  C  C36  1  0.94465200  0.28966100  0.78837400  1
  C  C37  1  0.29932800  0.31186500  0.65150600  1
  C  C38  1  0.28966100  0.05534800  0.21162600  1
  C  C39  1  0.18813500  0.20067200  0.84849400  1
  C  C40  1  0.44465200  0.21033900  0.28837400  1
  C  C41  1  0.71033900  0.94465200  0.21162600  1
  C  C42  1  0.68813500  0.29932800  0.34849400  1
  C  C43  1  0.21033900  0.55534800  0.71162600  1
  C  C44  1  0.05534800  0.71033900  0.78837400  1
  C  C45  1  0.81186500  0.79932800  0.84849400  1
  C  C46  1  0.20067200  0.81186500  0.15150600  1
  C  C47  1  0.79932800  0.18813500  0.15150600  1
  C  C48  1  0.40581700  0.90581700  0.75000000  1
  C  C49  1  0.40063400  0.89474200  0.02847400  1
  C  C50  1  0.98706800  0.80179500  0.52374600  1
  C  C51  1  0.00000000  0.00000000  0.78697600  1
  C  C52  1  0.01778500  0.21910000  0.23773300  1
  C  C53  1  0.28090000  0.48221500  0.26226700  1
  C  C54  1  0.50000000  0.50000000  0.28697600  1
  C  C55  1  0.98221500  0.78090000  0.23773300  1
  C  C56  1  0.07628900  0.63917900  0.39164000  1
  C  C57  1  0.39474200  0.90063400  0.47152600  1
  C  C58  1  0.75289000  0.18637500  0.61835400  1
  C  C59  1  0.63917900  0.92371100  0.60836000  1
  C  C60  1  0.24711000  0.81362500  0.61835400  1
  C  C61  1  0.59418300  0.09418300  0.75000000  1
  C  C62  1  0.81362500  0.75289000  0.38164600  1
  C  C63  1  0.86082100  0.42371100  0.10836000  1
  C  C64  1  0.78090000  0.01778500  0.76226700  1
  C  C65  1  0.90581700  0.59418300  0.25000000  1
  C  C66  1  0.09418300  0.40581700  0.25000000  1
  C  C67  1  0.19820500  0.98706800  0.47625400  1
  C  C68  1  0.48706800  0.69820500  0.02374600  1
  C  C69  1  0.60525800  0.09936600  0.47152600  1
  C  C70  1  0.18637500  0.24711000  0.38164600  1
  C  C71  1  0.36082100  0.07628900  0.60836000  1
  C  C72  1  0.00000000  0.00000000  0.21302400  1
  C  C73  1  0.21910000  0.98221500  0.76226700  1
  C  C74  1  0.13917900  0.57628900  0.10836000  1
  C  C75  1  0.69820500  0.51293200  0.97625400  1
  C  C76  1  0.30179500  0.48706800  0.97625400  1
  C  C77  1  0.25289000  0.31362500  0.11835400  1
  C  C78  1  0.89474200  0.59936600  0.97152600  1
  C  C79  1  0.10525800  0.40063400  0.97152600  1
  C  C80  1  0.09936600  0.39474200  0.52847400  1
  C  C81  1  0.80179500  0.01293200  0.47625400  1
  C  C82  1  0.42371100  0.13917900  0.89164000  1
  C  C83  1  0.59936600  0.10525800  0.02847400  1
  C  C84  1  0.51293200  0.30179500  0.02374600  1
  C  C85  1  0.57628900  0.86082100  0.89164000  1
  C  C86  1  0.68637500  0.25289000  0.88164600  1
  C  C87  1  0.31362500  0.74711000  0.88164600  1
  C  C88  1  0.48221500  0.71910000  0.73773300  1
  C  C89  1  0.71910000  0.51778500  0.26226700  1
  C  C90  1  0.01293200  0.19820500  0.52374600  1
  C  C91  1  0.51778500  0.28090000  0.73773300  1
  C  C92  1  0.74711000  0.68637500  0.11835400  1
  C  C93  1  0.50000000  0.50000000  0.71302400  1
  C  C94  1  0.90063400  0.60525800  0.52847400  1
  C  C95  1  0.92371100  0.36082100  0.39164000  1
