# generated using pymatgen
data_CuNiC5
_symmetry_space_group_name_H-M   'P 1'
_cell_length_a   7.58627200
_cell_length_b   7.64159100
_cell_length_c   10.59933167
_cell_angle_alpha   47.00702733
_cell_angle_beta   90.00000000
_cell_angle_gamma   90.00000000
_symmetry_Int_Tables_number   1
_chemical_formula_structural   CuNiC5
_chemical_formula_sum   'Cu4 Ni4 C20'
_cell_volume   449.43595260
_cell_formula_units_Z   4
loop_
 _symmetry_equiv_pos_site_id
 _symmetry_equiv_pos_as_xyz
  1  'x, y, z'
loop_
 _atom_site_type_symbol
 _atom_site_label
 _atom_site_symmetry_multiplicity
 _atom_site_fract_x
 _atom_site_fract_y
 _atom_site_fract_z
 _atom_site_occupancy
  Ni  Ni0  1  0.99914300  0.81671700  0.34320300  1
  Ni  Ni1  1  0.50085700  0.81671700  0.84320300  1
  Ni  Ni2  1  0.00085700  0.18328300  0.65679700  1
  Ni  Ni3  1  0.49914300  0.18328300  0.15679700  1
  Cu  Cu4  1  0.24292300  0.00051200  0.01152900  1
  Cu  Cu5  1  0.75707700  0.99948800  0.98847100  1
  Cu  Cu6  1  0.25707700  0.00051200  0.51152900  1
  Cu  Cu7  1  0.74292300  0.99948800  0.48847100  1
  C  C8  1  0.89021300  0.49965900  0.81642700  1
  C  C9  1  0.60978700  0.49965900  0.31642700  1
  C  C10  1  0.39021300  0.50034100  0.68357300  1
  C  C11  1  0.10978700  0.50034100  0.18357300  1
  C  C12  1  0.89732400  0.50100200  0.39631200  1
  C  C13  1  0.78958400  0.79034600  0.52780300  1
  C  C14  1  0.39732400  0.49899800  0.10368800  1
  C  C15  1  0.71041600  0.79034600  0.02780300  1
  C  C16  1  0.70338600  0.20538000  0.31761000  1
  C  C17  1  0.26296700  0.99217000  0.38568400  1
  C  C18  1  0.76296700  0.00783000  0.11431600  1
  C  C19  1  0.10267600  0.49899800  0.60368800  1
  C  C20  1  0.28958400  0.20965400  0.97219700  1
  C  C21  1  0.21041600  0.20965400  0.47219700  1
  C  C22  1  0.23703300  0.99217000  0.88568400  1
  C  C23  1  0.20338600  0.79462000  0.18239000  1
  C  C24  1  0.29661400  0.79462000  0.68239000  1
  C  C25  1  0.73703300  0.00783000  0.61431600  1
  C  C26  1  0.79661400  0.20538000  0.81761000  1
  C  C27  1  0.60267600  0.50100200  0.89631200  1
