# generated using pymatgen
data_CuNi9C46
_symmetry_space_group_name_H-M   'P 1'
_cell_length_a   9.56890400
_cell_length_b   11.74482400
_cell_length_c   17.99327100
_cell_angle_alpha   90.00000000
_cell_angle_beta   90.00000000
_cell_angle_gamma   90.00000000
_symmetry_Int_Tables_number   1
_chemical_formula_structural   CuNi9C46
_chemical_formula_sum   'Cu2 Ni18 C92'
_cell_volume   2022.17544106
_cell_formula_units_Z   2
loop_
 _symmetry_equiv_pos_site_id
 _symmetry_equiv_pos_as_xyz
  1  'x, y, z'
loop_
 _atom_site_type_symbol
 _atom_site_label
 _atom_site_symmetry_multiplicity
 _atom_site_fract_x
 _atom_site_fract_y
 _atom_site_fract_z
 _atom_site_occupancy
  Ni  Ni0  1  0.00559600  0.95935400  0.25000000  1
  Ni  Ni1  1  0.60060000  0.54532700  0.39387500  1
  Ni  Ni2  1  0.29261900  0.25000000  0.39002900  1
  Ni  Ni3  1  0.26846100  0.75000000  0.75000000  1
  Ni  Ni4  1  0.60060000  0.95467300  0.39387500  1
  Ni  Ni5  1  0.70738100  0.75000000  0.89002900  1
  Ni  Ni6  1  0.73153900  0.25000000  0.25000000  1
  Ni  Ni7  1  0.70738100  0.75000000  0.60997100  1
  Ni  Ni8  1  0.99440400  0.45935400  0.75000000  1
  Ni  Ni9  1  0.00559600  0.54064600  0.25000000  1
  Ni  Ni10  1  0.39940000  0.45467300  0.60612500  1
  Ni  Ni11  1  0.39940000  0.04532700  0.89387500  1
  Ni  Ni12  1  0.60060000  0.95467300  0.10612500  1
  Ni  Ni13  1  0.29261900  0.25000000  0.10997100  1
  Ni  Ni14  1  0.39940000  0.04532700  0.60612500  1
  Ni  Ni15  1  0.99440400  0.04064600  0.75000000  1
  Ni  Ni16  1  0.39940000  0.45467300  0.89387500  1
  Ni  Ni17  1  0.60060000  0.54532700  0.10612500  1
  Cu  Cu18  1  0.53964100  0.75000000  0.25000000  1
  Cu  Cu19  1  0.46035900  0.25000000  0.75000000  1
  C  C20  1  0.71572600  0.25000000  0.83799000  1
  C  C21  1  0.06870700  0.88514900  0.59123800  1
  C  C22  1  0.79768300  0.03352300  0.56553300  1
  C  C23  1  0.20231700  0.53352300  0.06553300  1
  C  C24  1  0.20231700  0.96647700  0.06553300  1
  C  C25  1  0.93129300  0.11485100  0.40876200  1
  C  C26  1  0.28427400  0.75000000  0.16201000  1
  C  C27  1  0.93129300  0.11485100  0.09123800  1
  C  C28  1  0.28427400  0.75000000  0.33799000  1
  C  C29  1  0.79768300  0.03352300  0.93446700  1
  C  C30  1  0.71572600  0.25000000  0.66201000  1
  C  C31  1  0.79768300  0.46647700  0.93446700  1
  C  C32  1  0.93129300  0.38514900  0.40876200  1
  C  C33  1  0.06870700  0.61485100  0.59123800  1
  C  C34  1  0.93129300  0.38514900  0.09123800  1
  C  C35  1  0.06870700  0.61485100  0.90876200  1
  C  C36  1  0.06870700  0.88514900  0.90876200  1
  C  C37  1  0.20231700  0.96647700  0.43446700  1
  C  C38  1  0.20231700  0.53352300  0.43446700  1
  C  C39  1  0.79768300  0.46647700  0.56553300  1
  C  C40  1  0.77936800  0.75000000  0.25000000  1
  C  C41  1  0.22063200  0.25000000  0.75000000  1
  C  C42  1  0.54683100  0.91718600  0.75000000  1
  C  C43  1  0.45316900  0.41718600  0.25000000  1
  C  C44  1  0.59996100  0.25000000  0.07679000  1
  C  C45  1  0.21160100  0.25000000  0.94059500  1
  C  C46  1  0.21160100  0.25000000  0.55940500  1
  C  C47  1  0.45316900  0.08281400  0.25000000  1
  C  C48  1  0.54683100  0.58281400  0.75000000  1
  C  C49  1  0.90108400  0.75000000  0.75000000  1
  C  C50  1  0.78839900  0.75000000  0.05940500  1
  C  C51  1  0.40003900  0.75000000  0.92321000  1
  C  C52  1  0.40003900  0.75000000  0.57679000  1
  C  C53  1  0.59996100  0.25000000  0.42321000  1
  C  C54  1  0.09891600  0.25000000  0.25000000  1
  C  C55  1  0.78839900  0.75000000  0.44059500  1
  C  C56  1  0.13210900  0.92452300  0.51175400  1
  C  C57  1  0.35000500  0.02768300  0.44721100  1
  C  C58  1  0.08906700  0.05658800  0.10434200  1
  C  C59  1  0.20526000  0.86301200  0.12736300  1
  C  C60  1  0.86789100  0.07547700  0.01175400  1
  C  C61  1  0.28898300  0.15357400  0.75000000  1
  C  C62  1  0.45081500  0.75000000  0.34610200  1
  C  C63  1  0.83373500  0.07633100  0.34073300  1
  C  C64  1  0.16626500  0.57633100  0.84073300  1
  C  C65  1  0.91093300  0.55658800  0.60434200  1
  C  C66  1  0.71101700  0.84642600  0.25000000  1
  C  C67  1  0.79474000  0.36301200  0.62736300  1
  C  C68  1  0.96902100  0.25000000  0.41299600  1
  C  C69  1  0.91093300  0.55658800  0.89565800  1
  C  C70  1  0.79474000  0.13698800  0.87263700  1
  C  C71  1  0.64999500  0.52768300  0.94721100  1
  C  C72  1  0.35000500  0.47231700  0.05278900  1
  C  C73  1  0.79474000  0.36301200  0.87263700  1
  C  C74  1  0.64999500  0.52768300  0.55278900  1
  C  C75  1  0.71101700  0.65357400  0.25000000  1
  C  C76  1  0.13210900  0.92452300  0.98824600  1
  C  C77  1  0.20526000  0.63698800  0.37263700  1
  C  C78  1  0.83373500  0.42366900  0.34073300  1
  C  C79  1  0.54918500  0.25000000  0.84610200  1
  C  C80  1  0.08906700  0.44341200  0.39565800  1
  C  C81  1  0.35000500  0.47231700  0.44721100  1
  C  C82  1  0.16626500  0.92366900  0.84073300  1
  C  C83  1  0.03097900  0.75000000  0.58700400  1
  C  C84  1  0.28898300  0.34642600  0.75000000  1
  C  C85  1  0.83373500  0.07633100  0.15926700  1
  C  C86  1  0.45081500  0.75000000  0.15389800  1
  C  C87  1  0.08906700  0.05658800  0.39565800  1
  C  C88  1  0.20526000  0.63698800  0.12736300  1
  C  C89  1  0.86789100  0.42452300  0.01175400  1
  C  C90  1  0.13210900  0.57547700  0.98824600  1
  C  C91  1  0.91093300  0.94341200  0.60434200  1
  C  C92  1  0.64999500  0.97231700  0.55278900  1
  C  C93  1  0.76906900  0.25000000  0.75000000  1
  C  C94  1  0.86789100  0.07547700  0.48824600  1
  C  C95  1  0.64999500  0.97231700  0.94721100  1
  C  C96  1  0.91093300  0.94341200  0.89565800  1
  C  C97  1  0.79474000  0.13698800  0.62736300  1
  C  C98  1  0.96902100  0.25000000  0.08700400  1
  C  C99  1  0.13210900  0.57547700  0.51175400  1
  C  C100  1  0.08557200  0.25000000  0.75000000  1
  C  C101  1  0.83373500  0.42366900  0.15926700  1
  C  C102  1  0.23093100  0.75000000  0.25000000  1
  C  C103  1  0.35000500  0.02768300  0.05278900  1
  C  C104  1  0.20526000  0.86301200  0.37263700  1
  C  C105  1  0.91442800  0.75000000  0.25000000  1
  C  C106  1  0.03097900  0.75000000  0.91299600  1
  C  C107  1  0.16626500  0.92366900  0.65926700  1
  C  C108  1  0.86789100  0.42452300  0.48824600  1
  C  C109  1  0.08906700  0.44341200  0.10434200  1
  C  C110  1  0.54918500  0.25000000  0.65389800  1
  C  C111  1  0.16626500  0.57633100  0.65926700  1
