# generated using pymatgen
data_Cu4NiC4
_symmetry_space_group_name_H-M   'P 1'
_cell_length_a   12.84671300
_cell_length_b   12.84671300
_cell_length_c   12.84671300
_cell_angle_alpha   90.00000000
_cell_angle_beta   90.00000000
_cell_angle_gamma   90.00000000
_symmetry_Int_Tables_number   1
_chemical_formula_structural   Cu4NiC4
_chemical_formula_sum   'Cu32 Ni8 C32'
_cell_volume   2120.19626850
_cell_formula_units_Z   8
loop_
 _symmetry_equiv_pos_site_id
 _symmetry_equiv_pos_as_xyz
  1  'x, y, z'
loop_
 _atom_site_type_symbol
 _atom_site_label
 _atom_site_symmetry_multiplicity
 _atom_site_fract_x
 _atom_site_fract_y
 _atom_site_fract_z
 _atom_site_occupancy
  C  C0  1  0.04008100  0.05954600  0.27774600  1
  C  C1  1  0.04008100  0.44045400  0.77774600  1
  C  C2  1  0.05954600  0.27774600  0.04008100  1
  C  C3  1  0.05954600  0.22225400  0.54008100  1
  C  C4  1  0.22139800  0.72139800  0.77860200  1
  C  C5  1  0.22139800  0.77860200  0.27860200  1
  C  C6  1  0.22225400  0.95991900  0.55954600  1
  C  C7  1  0.22225400  0.54008100  0.05954600  1
  C  C8  1  0.27774600  0.04008100  0.05954600  1
  C  C9  1  0.27774600  0.45991900  0.55954600  1
  C  C10  1  0.27860200  0.22139800  0.77860200  1
  C  C11  1  0.27860200  0.27860200  0.27860200  1
  C  C12  1  0.44045400  0.72225400  0.54008100  1
  C  C13  1  0.44045400  0.77774600  0.04008100  1
  C  C14  1  0.45991900  0.55954600  0.27774600  1
  C  C15  1  0.45991900  0.94045400  0.77774600  1
  C  C16  1  0.54008100  0.05954600  0.22225400  1
  C  C17  1  0.54008100  0.44045400  0.72225400  1
  C  C18  1  0.55954600  0.22225400  0.95991900  1
  C  C19  1  0.55954600  0.27774600  0.45991900  1
  C  C20  1  0.72139800  0.72139800  0.72139800  1
  C  C21  1  0.72139800  0.77860200  0.22139800  1
  C  C22  1  0.72225400  0.95991900  0.94045400  1
  C  C23  1  0.72225400  0.54008100  0.44045400  1
  C  C24  1  0.77774600  0.45991900  0.94045400  1
  C  C25  1  0.77774600  0.04008100  0.44045400  1
  C  C26  1  0.77860200  0.22139800  0.72139800  1
  C  C27  1  0.77860200  0.27860200  0.22139800  1
  C  C28  1  0.94045400  0.72225400  0.95991900  1
  C  C29  1  0.94045400  0.77774600  0.45991900  1
  C  C30  1  0.95991900  0.94045400  0.72225400  1
  C  C31  1  0.95991900  0.55954600  0.22225400  1
  Ni  Ni32  1  0.10082700  0.89917300  0.39917300  1
  Ni  Ni33  1  0.10082700  0.60082700  0.89917300  1
  Ni  Ni34  1  0.39917300  0.39917300  0.39917300  1
  Ni  Ni35  1  0.39917300  0.10082700  0.89917300  1
  Ni  Ni36  1  0.60082700  0.89917300  0.10082700  1
  Ni  Ni37  1  0.60082700  0.60082700  0.60082700  1
  Ni  Ni38  1  0.89917300  0.10082700  0.60082700  1
  Ni  Ni39  1  0.89917300  0.39917300  0.10082700  1
  Cu  Cu40  1  0.42504700  0.57495300  0.07495300  1
  Cu  Cu41  1  0.57495300  0.07495300  0.42504700  1
  Cu  Cu42  1  0.92504700  0.92504700  0.92504700  1
  Cu  Cu43  1  0.92504700  0.57495300  0.42504700  1
  Cu  Cu44  1  0.07507800  0.25709600  0.33211500  1
  Cu  Cu45  1  0.07507800  0.24290400  0.83211500  1
  Cu  Cu46  1  0.07495300  0.42504700  0.57495300  1
  Cu  Cu47  1  0.07495300  0.07495300  0.07495300  1
  Cu  Cu48  1  0.16788500  0.92492200  0.75709600  1
  Cu  Cu49  1  0.16788500  0.57507800  0.25709600  1
  Cu  Cu50  1  0.24290400  0.66788500  0.57507800  1
  Cu  Cu51  1  0.24290400  0.83211500  0.07507800  1
  Cu  Cu52  1  0.25709600  0.16788500  0.57507800  1
  Cu  Cu53  1  0.25709600  0.33211500  0.07507800  1
  Cu  Cu54  1  0.33211500  0.07507800  0.25709600  1
  Cu  Cu55  1  0.33211500  0.42492200  0.75709600  1
  Cu  Cu56  1  0.42504700  0.92504700  0.57495300  1
  Cu  Cu57  1  0.42492200  0.75709600  0.33211500  1
  Cu  Cu58  1  0.42492200  0.74290400  0.83211500  1
  Cu  Cu59  1  0.57507800  0.25709600  0.16788500  1
  Cu  Cu60  1  0.57507800  0.24290400  0.66788500  1
  Cu  Cu61  1  0.57495300  0.42504700  0.92504700  1
  Cu  Cu62  1  0.66788500  0.57507800  0.24290400  1
  Cu  Cu63  1  0.66788500  0.92492200  0.74290400  1
  Cu  Cu64  1  0.74290400  0.66788500  0.92492200  1
  Cu  Cu65  1  0.74290400  0.83211500  0.42492200  1
  Cu  Cu66  1  0.75709600  0.16788500  0.92492200  1
  Cu  Cu67  1  0.75709600  0.33211500  0.42492200  1
  Cu  Cu68  1  0.83211500  0.42492200  0.74290400  1
  Cu  Cu69  1  0.83211500  0.07507800  0.24290400  1
  Cu  Cu70  1  0.92492200  0.74290400  0.66788500  1
  Cu  Cu71  1  0.92492200  0.75709600  0.16788500  1
