# generated using pymatgen
data_Cu(NiC5)4
_symmetry_space_group_name_H-M   'P 1'
_cell_length_a   7.74897800
_cell_length_b   11.97036500
_cell_length_c   21.59945300
_cell_angle_alpha   90.00000000
_cell_angle_beta   90.00000000
_cell_angle_gamma   90.00000000
_symmetry_Int_Tables_number   1
_chemical_formula_structural   Cu(NiC5)4
_chemical_formula_sum   'Cu4 Ni16 C80'
_cell_volume   2003.52411412
_cell_formula_units_Z   4
loop_
 _symmetry_equiv_pos_site_id
 _symmetry_equiv_pos_as_xyz
  1  'x, y, z'
loop_
 _atom_site_type_symbol
 _atom_site_label
 _atom_site_symmetry_multiplicity
 _atom_site_fract_x
 _atom_site_fract_y
 _atom_site_fract_z
 _atom_site_occupancy
  C  C0  1  0.54042600  0.50000000  0.27697700  1
  C  C1  1  0.44794000  0.69049000  0.10165900  1
  C  C2  1  0.45957400  0.00000000  0.22302300  1
  C  C3  1  0.74602100  0.50000000  0.50000000  1
  C  C4  1  0.55206000  0.19049000  0.39834100  1
  C  C5  1  0.55206000  0.19049000  0.60165900  1
  C  C6  1  0.44794000  0.30951000  0.89834100  1
  C  C7  1  0.54042600  0.50000000  0.72302300  1
  C  C8  1  0.45957400  0.00000000  0.77697700  1
  C  C9  1  0.55206000  0.80951000  0.39834100  1
  C  C10  1  0.25397900  0.00000000  0.00000000  1
  C  C11  1  0.44794000  0.69049000  0.89834100  1
  C  C12  1  0.55206000  0.80951000  0.60165900  1
  C  C13  1  0.44794000  0.30951000  0.10165900  1
  Ni  Ni14  1  0.05068700  0.69436600  0.32598100  1
  Ni  Ni15  1  0.94931300  0.19436600  0.17401900  1
  Ni  Ni16  1  0.94740800  0.71569500  0.00000000  1
  Ni  Ni17  1  0.00418600  0.00000000  0.65572200  1
  Ni  Ni18  1  0.99581400  0.50000000  0.84427800  1
  Ni  Ni19  1  0.00418600  0.00000000  0.34427800  1
  Ni  Ni20  1  0.94931300  0.80563400  0.82598100  1
  Ni  Ni21  1  0.05068700  0.69436600  0.67401900  1
  Ni  Ni22  1  0.05259200  0.78430500  0.50000000  1
  Ni  Ni23  1  0.94740800  0.28430500  0.00000000  1
  Ni  Ni24  1  0.94931300  0.19436600  0.82598100  1
  Ni  Ni25  1  0.05068700  0.30563400  0.32598100  1
  Ni  Ni26  1  0.05068700  0.30563400  0.67401900  1
  Ni  Ni27  1  0.05259200  0.21569500  0.50000000  1
  Ni  Ni28  1  0.94931300  0.80563400  0.17401900  1
  Ni  Ni29  1  0.99581400  0.50000000  0.15572200  1
  Cu  Cu30  1  0.77911800  0.00000000  0.08831200  1
  Cu  Cu31  1  0.22088200  0.50000000  0.58831200  1
  Cu  Cu32  1  0.22088200  0.50000000  0.41168800  1
  Cu  Cu33  1  0.77911800  0.00000000  0.91168800  1
  C  C34  1  0.88794400  0.00000000  0.50000000  1
  C  C35  1  0.11205600  0.50000000  0.00000000  1
  C  C36  1  0.12462200  0.62736000  0.56469400  1
  C  C37  1  0.71682600  0.77808800  0.81346900  1
  C  C38  1  0.75708000  0.50000000  0.84052800  1
  C  C39  1  0.56374400  0.00000000  0.91732200  1
  C  C40  1  0.28317400  0.72191200  0.68653100  1
  C  C41  1  0.97442800  0.33572200  0.89937100  1
  C  C42  1  0.87537800  0.12736000  0.06469400  1
  C  C43  1  0.82425300  0.26144700  0.50000000  1
  C  C44  1  0.98731400  0.14521400  0.27535400  1
  C  C45  1  0.76397300  0.00000000  0.65200800  1
  C  C46  1  0.87537800  0.87264000  0.06469400  1
  C  C47  1  0.56374400  0.00000000  0.08267800  1
  C  C48  1  0.97442800  0.66427800  0.89937100  1
  C  C49  1  0.02557200  0.16427800  0.39937100  1
  C  C50  1  0.82451700  0.65305400  0.34156000  1
  C  C51  1  0.72185900  0.33367100  0.00000000  1
  C  C52  1  0.75708000  0.50000000  0.15947200  1
  C  C53  1  0.82451700  0.65305400  0.65844000  1
  C  C54  1  0.02557200  0.16427800  0.60062900  1
  C  C55  1  0.87537800  0.87264000  0.93530600  1
  C  C56  1  0.76397300  0.00000000  0.34799200  1
  C  C57  1  0.28317400  0.72191200  0.31346900  1
  C  C58  1  0.72185900  0.66632900  0.00000000  1
  C  C59  1  0.27814100  0.83367100  0.50000000  1
  C  C60  1  0.87537800  0.12736000  0.93530600  1
  C  C61  1  0.97442800  0.66427800  0.10062900  1
  C  C62  1  0.84512000  0.00000000  0.16655600  1
  C  C63  1  0.12462200  0.62736000  0.43530600  1
  C  C64  1  0.17574700  0.23855300  0.00000000  1
  C  C65  1  0.02557200  0.83572200  0.60062900  1
  C  C66  1  0.24292000  0.00000000  0.34052800  1
  C  C67  1  0.98731400  0.85478600  0.72464600  1
  C  C68  1  0.43625600  0.50000000  0.41732200  1
  C  C69  1  0.23602700  0.50000000  0.15200800  1
  C  C70  1  0.82425300  0.73855300  0.50000000  1
  C  C71  1  0.28317400  0.27808800  0.31346900  1
  C  C72  1  0.71682600  0.22191200  0.81346900  1
  C  C73  1  0.17548300  0.84694600  0.15844000  1
  C  C74  1  0.15488000  0.50000000  0.66655600  1
  C  C75  1  0.82451700  0.34694600  0.34156000  1
  C  C76  1  0.98731400  0.14521400  0.72464600  1
  C  C77  1  0.12462200  0.37264000  0.43530600  1
  C  C78  1  0.17548300  0.15305400  0.84156000  1
  C  C79  1  0.97442800  0.33572200  0.10062900  1
  C  C80  1  0.43625600  0.50000000  0.58267800  1
  C  C81  1  0.84512000  0.00000000  0.83344400  1
  C  C82  1  0.01268600  0.35478600  0.22464600  1
  C  C83  1  0.17574700  0.76144700  0.00000000  1
  C  C84  1  0.27814100  0.16632900  0.50000000  1
  C  C85  1  0.12462200  0.37264000  0.56469400  1
  C  C86  1  0.17548300  0.84694600  0.84156000  1
  C  C87  1  0.01268600  0.35478600  0.77535400  1
  C  C88  1  0.82451700  0.34694600  0.65844000  1
  C  C89  1  0.15488000  0.50000000  0.33344400  1
  C  C90  1  0.01268600  0.64521400  0.77535400  1
  C  C91  1  0.28317400  0.27808800  0.68653100  1
  C  C92  1  0.01268600  0.64521400  0.22464600  1
  C  C93  1  0.17548300  0.15305400  0.15844000  1
  C  C94  1  0.98731400  0.85478600  0.27535400  1
  C  C95  1  0.24292000  0.00000000  0.65947200  1
  C  C96  1  0.71682600  0.77808800  0.18653100  1
  C  C97  1  0.71682600  0.22191200  0.18653100  1
  C  C98  1  0.02557200  0.83572200  0.39937100  1
  C  C99  1  0.23602700  0.50000000  0.84799200  1
