# generated using pymatgen
data_Cu10NiC3
_symmetry_space_group_name_H-M   'P 1'
_cell_length_a   7.88311300
_cell_length_b   13.12532800
_cell_length_c   13.94504000
_cell_angle_alpha   90.00000000
_cell_angle_beta   90.00000000
_cell_angle_gamma   90.00000000
_symmetry_Int_Tables_number   1
_chemical_formula_structural   Cu10NiC3
_chemical_formula_sum   'Cu40 Ni4 C12'
_cell_volume   1442.87158733
_cell_formula_units_Z   4
loop_
 _symmetry_equiv_pos_site_id
 _symmetry_equiv_pos_as_xyz
  1  'x, y, z'
loop_
 _atom_site_type_symbol
 _atom_site_label
 _atom_site_symmetry_multiplicity
 _atom_site_fract_x
 _atom_site_fract_y
 _atom_site_fract_z
 _atom_site_occupancy
  C  C0  1  0.50227900  0.88152200  0.34839800  1
  C  C1  1  0.49772100  0.11847800  0.84839800  1
  C  C2  1  0.49772100  0.38152200  0.34839800  1
  C  C3  1  0.50227900  0.61847800  0.84839800  1
  C  C4  1  0.06933900  0.81353700  0.61266100  1
  C  C5  1  0.93066100  0.18646300  0.11266100  1
  C  C6  1  0.93066100  0.31353700  0.61266100  1
  C  C7  1  0.06933900  0.68646300  0.11266100  1
  C  C8  1  0.94869200  0.02399700  0.61350000  1
  C  C9  1  0.05130800  0.97600300  0.11350000  1
  C  C10  1  0.05130800  0.52399700  0.61350000  1
  C  C11  1  0.94869200  0.47600300  0.11350000  1
  Ni  Ni12  1  0.38947200  0.66033100  0.54046400  1
  Ni  Ni13  1  0.61052800  0.33966900  0.04046400  1
  Ni  Ni14  1  0.61052800  0.16033100  0.54046400  1
  Ni  Ni15  1  0.38947200  0.83966900  0.04046400  1
  Cu  Cu16  1  0.14003700  0.66648800  0.48730200  1
  Cu  Cu17  1  0.85996300  0.33351200  0.98730200  1
  Cu  Cu18  1  0.85996300  0.16648800  0.48730200  1
  Cu  Cu19  1  0.14003700  0.83351200  0.98730200  1
  Cu  Cu20  1  0.39663400  0.79274000  0.61983900  1
  Cu  Cu21  1  0.60336600  0.20726000  0.11983900  1
  Cu  Cu22  1  0.60336600  0.29274000  0.61983900  1
  Cu  Cu23  1  0.39663400  0.70726000  0.11983900  1
  Cu  Cu24  1  0.89893900  0.89839200  0.74483100  1
  Cu  Cu25  1  0.10106100  0.10160800  0.24483100  1
  Cu  Cu26  1  0.10106100  0.39839200  0.74483100  1
  Cu  Cu27  1  0.89893900  0.60160800  0.24483100  1
  Cu  Cu28  1  0.88661800  0.89074300  0.48560200  1
  Cu  Cu29  1  0.11338200  0.10925700  0.98560200  1
  Cu  Cu30  1  0.11338200  0.39074300  0.48560200  1
  Cu  Cu31  1  0.88661800  0.60925700  0.98560200  1
  Cu  Cu32  1  0.05024700  0.66891600  0.73776500  1
  Cu  Cu33  1  0.94975300  0.33108400  0.23776500  1
  Cu  Cu34  1  0.94975300  0.16891600  0.73776500  1
  Cu  Cu35  1  0.05024700  0.83108400  0.23776500  1
  Cu  Cu36  1  0.12800100  0.94807900  0.48260800  1
  Cu  Cu37  1  0.87199900  0.05192100  0.98260800  1
  Cu  Cu38  1  0.87199900  0.44807900  0.48260800  1
  Cu  Cu39  1  0.12800100  0.55192100  0.98260800  1
  Cu  Cu40  1  0.56952000  0.65082700  0.44124600  1
  Cu  Cu41  1  0.43048000  0.34917300  0.94124600  1
  Cu  Cu42  1  0.43048000  0.15082700  0.44124600  1
  Cu  Cu43  1  0.56952000  0.84917300  0.94124600  1
  Cu  Cu44  1  0.84655600  0.67376800  0.64610700  1
  Cu  Cu45  1  0.15344400  0.32623200  0.14610700  1
  Cu  Cu46  1  0.15344400  0.17376800  0.64610700  1
  Cu  Cu47  1  0.84655600  0.82623200  0.14610700  1
  Cu  Cu48  1  0.37966100  0.53256000  0.62760200  1
  Cu  Cu49  1  0.62033900  0.46744000  0.12760200  1
  Cu  Cu50  1  0.62033900  0.03256000  0.62760200  1
  Cu  Cu51  1  0.37966100  0.96744000  0.12760200  1
  Cu  Cu52  1  0.14410400  0.94410900  0.73622400  1
  Cu  Cu53  1  0.85589600  0.05589100  0.23622400  1
  Cu  Cu54  1  0.85589600  0.44410900  0.73622400  1
  Cu  Cu55  1  0.14410400  0.55589100  0.23622400  1
