# generated using pymatgen
data_Cu6Ni2C5
_symmetry_space_group_name_H-M   'P 1'
_cell_length_a   6.74940900
_cell_length_b   9.08833400
_cell_length_c   11.70411300
_cell_angle_alpha   90.00000000
_cell_angle_beta   90.00000000
_cell_angle_gamma   90.00000000
_symmetry_Int_Tables_number   1
_chemical_formula_structural   Cu6Ni2C5
_chemical_formula_sum   'Cu24 Ni8 C20'
_cell_volume   717.94062960
_cell_formula_units_Z   4
loop_
 _symmetry_equiv_pos_site_id
 _symmetry_equiv_pos_as_xyz
  1  'x, y, z'
loop_
 _atom_site_type_symbol
 _atom_site_label
 _atom_site_symmetry_multiplicity
 _atom_site_fract_x
 _atom_site_fract_y
 _atom_site_fract_z
 _atom_site_occupancy
  C  C0  1  0.98542900  0.89140400  0.32507500  1
  C  C1  1  0.51457100  0.39140400  0.67492500  1
  C  C2  1  0.51457100  0.89140400  0.82507500  1
  C  C3  1  0.98542900  0.39140400  0.17492500  1
  C  C4  1  0.48542900  0.60859600  0.32507500  1
  C  C5  1  0.01457100  0.60859600  0.82507500  1
  C  C6  1  0.01457100  0.10859600  0.67492500  1
  C  C7  1  0.48542900  0.10859600  0.17492500  1
  C  C8  1  0.00000000  0.50000000  0.50000000  1
  C  C9  1  0.00000000  0.00000000  0.00000000  1
  C  C10  1  0.50000000  0.00000000  0.50000000  1
  C  C11  1  0.50000000  0.50000000  0.00000000  1
  Ni  Ni12  1  0.74785600  0.25977900  0.41216200  1
  Ni  Ni13  1  0.74785600  0.75977900  0.08783800  1
  Ni  Ni14  1  0.24785600  0.24022100  0.41216200  1
  Ni  Ni15  1  0.25214400  0.74022100  0.58783800  1
  Ni  Ni16  1  0.75214400  0.75977900  0.58783800  1
  Ni  Ni17  1  0.24785600  0.74022100  0.08783800  1
  Ni  Ni18  1  0.25214400  0.24022100  0.91216200  1
  Ni  Ni19  1  0.75214400  0.25977900  0.91216200  1
  Cu  Cu20  1  0.80390300  0.68741600  0.17653600  1
  Cu  Cu21  1  0.17400100  0.80433700  0.99838900  1
  Cu  Cu22  1  0.26560800  0.09580200  0.41301300  1
  Cu  Cu23  1  0.67400100  0.19566300  0.50161100  1
  Cu  Cu24  1  0.73439200  0.40419800  0.91301300  1
  Cu  Cu25  1  0.23439200  0.09580200  0.91301300  1
  Cu  Cu26  1  0.23439200  0.59580200  0.58698700  1
  Cu  Cu27  1  0.76560800  0.90419800  0.08698700  1
  Cu  Cu28  1  0.80390300  0.18741600  0.32346400  1
  Cu  Cu29  1  0.32599900  0.30433700  0.00161100  1
  Cu  Cu30  1  0.73439200  0.90419800  0.58698700  1
  Cu  Cu31  1  0.19609700  0.81258400  0.67653600  1
  Cu  Cu32  1  0.82599900  0.69566300  0.49838900  1
  Cu  Cu33  1  0.19609700  0.31258400  0.82346400  1
  Cu  Cu34  1  0.82599900  0.19566300  0.00161100  1
  Cu  Cu35  1  0.69609700  0.68741600  0.67653600  1
  Cu  Cu36  1  0.26560800  0.59580200  0.08698700  1
  Cu  Cu37  1  0.30390300  0.81258400  0.17653600  1
  Cu  Cu38  1  0.17400100  0.30433700  0.50161100  1
  Cu  Cu39  1  0.67400100  0.69566300  0.99838900  1
  Cu  Cu40  1  0.32599900  0.80433700  0.49838900  1
  Cu  Cu41  1  0.30390300  0.31258400  0.32346400  1
  Cu  Cu42  1  0.69609700  0.18741600  0.82346400  1
  Cu  Cu43  1  0.76560800  0.40419800  0.41301300  1
  C  C44  1  0.09416500  0.59164500  0.34424800  1
  C  C45  1  0.59416500  0.90835500  0.34424800  1
  C  C46  1  0.09416500  0.09164500  0.15575200  1
  C  C47  1  0.90583500  0.90835500  0.84424800  1
  C  C48  1  0.40583500  0.09164500  0.65575200  1
  C  C49  1  0.90583500  0.40835500  0.65575200  1
  C  C50  1  0.40583500  0.59164500  0.84424800  1
  C  C51  1  0.59416500  0.40835500  0.15575200  1
