# generated using pymatgen
data_Cu11Ni3C5
_symmetry_space_group_name_H-M   'P 1'
_cell_length_a   7.64875989
_cell_length_b   7.64875989
_cell_length_c   13.17924530
_cell_angle_alpha   87.62763964
_cell_angle_beta   87.62763964
_cell_angle_gamma   79.41169020
_symmetry_Int_Tables_number   1
_chemical_formula_structural   Cu11Ni3C5
_chemical_formula_sum   'Cu22 Ni6 C10'
_cell_volume   756.80603722
_cell_formula_units_Z   2
loop_
 _symmetry_equiv_pos_site_id
 _symmetry_equiv_pos_as_xyz
  1  'x, y, z'
loop_
 _atom_site_type_symbol
 _atom_site_label
 _atom_site_symmetry_multiplicity
 _atom_site_fract_x
 _atom_site_fract_y
 _atom_site_fract_z
 _atom_site_occupancy
  C  C0  1  0.77987600  0.43465900  0.46157000  1
  C  C1  1  0.56534100  0.22012400  0.03843000  1
  C  C2  1  0.01792000  0.35263500  0.15413500  1
  C  C3  1  0.98208000  0.64736500  0.84586500  1
  C  C4  1  0.22012400  0.56534100  0.53843000  1
  C  C5  1  0.43465900  0.77987600  0.96157000  1
  C  C6  1  0.35263500  0.01792000  0.65413500  1
  C  C7  1  0.64736500  0.98208000  0.34586500  1
  C  C8  1  0.81544800  0.18455200  0.75000000  1
  C  C9  1  0.18455200  0.81544800  0.25000000  1
  Ni  Ni10  1  0.51715900  0.48284100  0.75000000  1
  Ni  Ni11  1  0.15576200  0.07730600  0.40523100  1
  Ni  Ni12  1  0.84423800  0.92269400  0.59476900  1
  Ni  Ni13  1  0.07730600  0.15576200  0.90523100  1
  Ni  Ni14  1  0.48284100  0.51715900  0.25000000  1
  Ni  Ni15  1  0.92269400  0.84423800  0.09476900  1
  Cu  Cu16  1  0.96570400  0.91548000  0.66381500  1
  Cu  Cu17  1  0.32711900  0.95817900  0.18367900  1
  Cu  Cu18  1  0.26549600  0.92227800  0.41159600  1
  Cu  Cu19  1  0.61260700  0.38739300  0.25000000  1
  Cu  Cu20  1  0.95817900  0.32711900  0.68367900  1
  Cu  Cu21  1  0.16959500  0.20734000  0.45846500  1
  Cu  Cu22  1  0.83040500  0.79266000  0.54153500  1
  Cu  Cu23  1  0.67288100  0.04182100  0.81632100  1
  Cu  Cu24  1  0.03429600  0.08452000  0.33618500  1
  Cu  Cu25  1  0.44747000  0.62860300  0.32497700  1
  Cu  Cu26  1  0.07772200  0.73450400  0.08840400  1
  Cu  Cu27  1  0.91548000  0.96570400  0.16381500  1
  Cu  Cu28  1  0.79266000  0.83040500  0.04153500  1
  Cu  Cu29  1  0.37139700  0.55253000  0.17502300  1
  Cu  Cu30  1  0.20734000  0.16959500  0.95846500  1
  Cu  Cu31  1  0.38739300  0.61260700  0.75000000  1
  Cu  Cu32  1  0.73450400  0.07772200  0.58840400  1
  Cu  Cu33  1  0.62860300  0.44747000  0.82497700  1
  Cu  Cu34  1  0.92227800  0.26549600  0.91159600  1
  Cu  Cu35  1  0.04182100  0.67288100  0.31632100  1
  Cu  Cu36  1  0.55253000  0.37139700  0.67502300  1
  Cu  Cu37  1  0.08452000  0.03429600  0.83618500  1
