# generated using pymatgen
data_Cu3NiC
_symmetry_space_group_name_H-M   'P 1'
_cell_length_a   4.53224863
_cell_length_b   4.53224863
_cell_length_c   4.53224769
_cell_angle_alpha   88.69366276
_cell_angle_beta   88.69366276
_cell_angle_gamma   88.69366493
_symmetry_Int_Tables_number   1
_chemical_formula_structural   Cu3NiC
_chemical_formula_sum   'Cu3 Ni1 C1'
_cell_volume   93.02665310
_cell_formula_units_Z   1
loop_
 _symmetry_equiv_pos_site_id
 _symmetry_equiv_pos_as_xyz
  1  'x, y, z'
loop_
 _atom_site_type_symbol
 _atom_site_label
 _atom_site_symmetry_multiplicity
 _atom_site_fract_x
 _atom_site_fract_y
 _atom_site_fract_z
 _atom_site_occupancy
  C  C0  1  0.00700200  0.00700200  0.00700200  1
  Ni  Ni1  1  0.50506300  0.50506300  0.50506300  1
  Cu  Cu2  1  0.54579200  0.54579200  0.10125000  1
  Cu  Cu3  1  0.54579200  0.10125000  0.54579200  1
  Cu  Cu4  1  0.10125000  0.54579200  0.54579200  1
