# generated using pymatgen
data_Cu2Ni6C13
_symmetry_space_group_name_H-M   'P 1'
_cell_length_a   9.21079976
_cell_length_b   9.21079976
_cell_length_c   7.21738095
_cell_angle_alpha   70.37797996
_cell_angle_beta   70.37797996
_cell_angle_gamma   97.66289504
_symmetry_Int_Tables_number   1
_chemical_formula_structural   Cu2Ni6C13
_chemical_formula_sum   'Cu4 Ni12 C26'
_cell_volume   521.94280116
_cell_formula_units_Z   2
loop_
 _symmetry_equiv_pos_site_id
 _symmetry_equiv_pos_as_xyz
  1  'x, y, z'
loop_
 _atom_site_type_symbol
 _atom_site_label
 _atom_site_symmetry_multiplicity
 _atom_site_fract_x
 _atom_site_fract_y
 _atom_site_fract_z
 _atom_site_occupancy
  C  C0  1  0.61685400  0.38314600  0.25000000  1
  C  C1  1  0.38314600  0.61685400  0.75000000  1
  C  C2  1  0.31450400  0.68549600  0.25000000  1
  C  C3  1  0.68549600  0.31450400  0.75000000  1
  C  C4  1  0.29306900  0.99499300  0.45969000  1
  C  C5  1  0.00500700  0.70693100  0.04031000  1
  C  C6  1  0.70693100  0.00500700  0.54031000  1
  C  C7  1  0.99499300  0.29306900  0.95969000  1
  Ni  Ni8  1  0.11481800  0.02315000  0.15468400  1
  Ni  Ni9  1  0.97685000  0.88518200  0.34531600  1
  Ni  Ni10  1  0.88518200  0.97685000  0.84531600  1
  Ni  Ni11  1  0.02315000  0.11481800  0.65468400  1
  Ni  Ni12  1  0.29954000  0.35368900  0.13084900  1
  Ni  Ni13  1  0.64631100  0.70046000  0.36915100  1
  Ni  Ni14  1  0.70046000  0.64631100  0.86915100  1
  Ni  Ni15  1  0.35368900  0.29954000  0.63084900  1
  Ni  Ni16  1  0.35906000  0.21980800  0.04947700  1
  Ni  Ni17  1  0.78019200  0.64094000  0.45052300  1
  Ni  Ni18  1  0.64094000  0.78019200  0.95052300  1
  Ni  Ni19  1  0.21980800  0.35906000  0.54947700  1
  Cu  Cu20  1  0.63705900  0.97634300  0.15010200  1
  Cu  Cu21  1  0.02365700  0.36294100  0.34989800  1
  Cu  Cu22  1  0.36294100  0.02365700  0.84989800  1
  Cu  Cu23  1  0.97634300  0.63705900  0.65010200  1
  C  C24  1  0.66915100  0.11772800  0.14843100  1
  C  C25  1  0.88227200  0.33084900  0.35156900  1
  C  C26  1  0.33084900  0.88227200  0.85156900  1
  C  C27  1  0.11772800  0.66915100  0.64843100  1
  C  C28  1  0.55386200  0.85117400  0.33296200  1
  C  C29  1  0.14882600  0.44613800  0.16703800  1
  C  C30  1  0.44613800  0.14882600  0.66703800  1
  C  C31  1  0.85117400  0.55386200  0.83296200  1
  C  C32  1  0.68597000  0.95674100  0.96957800  1
  C  C33  1  0.04325900  0.31403000  0.53042200  1
  C  C34  1  0.31403000  0.04325900  0.03042200  1
  C  C35  1  0.95674100  0.68597000  0.46957800  1
  C  C36  1  0.99960200  0.00039800  0.25000000  1
  C  C37  1  0.00039800  0.99960200  0.75000000  1
  C  C38  1  0.39393100  0.31102500  0.08595100  1
  C  C39  1  0.68897500  0.60606900  0.41404900  1
  C  C40  1  0.60606900  0.68897500  0.91404900  1
  C  C41  1  0.31102500  0.39393100  0.58595100  1
