# generated using pymatgen
data_Cu(NiC2)2
_symmetry_space_group_name_H-M   'P 1'
_cell_length_a   6.08091100
_cell_length_b   4.80034800
_cell_length_c   10.48072846
_cell_angle_alpha   89.91906984
_cell_angle_beta   90.00000000
_cell_angle_gamma   90.00000000
_symmetry_Int_Tables_number   1
_chemical_formula_structural   Cu(NiC2)2
_chemical_formula_sum   'Cu4 Ni8 C16'
_cell_volume   305.93728304
_cell_formula_units_Z   4
loop_
 _symmetry_equiv_pos_site_id
 _symmetry_equiv_pos_as_xyz
  1  'x, y, z'
loop_
 _atom_site_type_symbol
 _atom_site_label
 _atom_site_symmetry_multiplicity
 _atom_site_fract_x
 _atom_site_fract_y
 _atom_site_fract_z
 _atom_site_occupancy
  Ni  Ni0  1  0.74307900  0.49738100  0.74153500  1
  Ni  Ni1  1  0.25692100  0.50261900  0.25846500  1
  Ni  Ni2  1  0.00000000  0.50000000  0.50000000  1
  Ni  Ni3  1  0.25692100  0.49738100  0.74153500  1
  Ni  Ni4  1  0.74307900  0.50261900  0.25846500  1
  Ni  Ni5  1  0.50000000  0.00000000  0.50000000  1
  Ni  Ni6  1  0.00000000  0.50000000  0.00000000  1
  Ni  Ni7  1  0.50000000  0.50000000  0.00000000  1
  Cu  Cu8  1  0.50000000  0.09267800  0.16523200  1
  Cu  Cu9  1  0.50000000  0.90732200  0.83476800  1
  Cu  Cu10  1  0.00000000  0.91824800  0.33065500  1
  Cu  Cu11  1  0.00000000  0.08175200  0.66934500  1
  C  C12  1  0.28510400  0.74183000  0.90283200  1
  C  C13  1  0.50000000  0.75485900  0.16642800  1
  C  C14  1  0.71489600  0.74183000  0.90283200  1
  C  C15  1  0.00000000  0.74412100  0.19147700  1
  C  C16  1  0.71489600  0.25817000  0.09716800  1
  C  C17  1  0.78411600  0.77525800  0.40653300  1
  C  C18  1  0.28510400  0.25817000  0.09716800  1
  C  C19  1  0.21588400  0.77525800  0.40653300  1
  C  C20  1  0.78411600  0.22474200  0.59346700  1
  C  C21  1  0.00000000  0.25666000  0.33313500  1
  C  C22  1  0.50000000  0.77204300  0.68662400  1
  C  C23  1  0.00000000  0.74334000  0.66686500  1
  C  C24  1  0.50000000  0.24514100  0.83357200  1
  C  C25  1  0.50000000  0.22795700  0.31337600  1
  C  C26  1  0.00000000  0.25587900  0.80852300  1
  C  C27  1  0.21588400  0.22474200  0.59346700  1
