# generated using pymatgen
data_Cu2Ni4C9
_symmetry_space_group_name_H-M   'P 1'
_cell_length_a   8.31613400
_cell_length_b   9.89274300
_cell_length_c   20.55996821
_cell_angle_alpha   62.77696149
_cell_angle_beta   90.00000000
_cell_angle_gamma   90.00000000
_symmetry_Int_Tables_number   1
_chemical_formula_structural   Cu2Ni4C9
_chemical_formula_sum   'Cu16 Ni32 C72'
_cell_volume   1504.09744310
_cell_formula_units_Z   8
loop_
 _symmetry_equiv_pos_site_id
 _symmetry_equiv_pos_as_xyz
  1  'x, y, z'
loop_
 _atom_site_type_symbol
 _atom_site_label
 _atom_site_symmetry_multiplicity
 _atom_site_fract_x
 _atom_site_fract_y
 _atom_site_fract_z
 _atom_site_occupancy
  Ni  Ni0  1  0.94341600  0.74857800  0.11946100  1
  Ni  Ni1  1  0.05637600  0.25390600  0.38126600  1
  Ni  Ni2  1  0.07191600  0.06951500  0.13179900  1
  Ni  Ni3  1  0.08615500  0.44224900  0.10916500  1
  Ni  Ni4  1  0.44362400  0.25390600  0.88126600  1
  Ni  Ni5  1  0.26970800  0.71855200  0.44417800  1
  Ni  Ni6  1  0.57191600  0.93048500  0.36820100  1
  Ni  Ni7  1  0.44341600  0.25142200  0.38053900  1
  Ni  Ni8  1  0.18288400  0.80561400  0.79030300  1
  Ni  Ni9  1  0.03765800  0.07541500  0.63229100  1
  Ni  Ni10  1  0.23029200  0.71855200  0.94417800  1
  Ni  Ni11  1  0.91384500  0.55775100  0.89083500  1
  Ni  Ni12  1  0.94362400  0.74609400  0.61873400  1
  Ni  Ni13  1  0.31711600  0.80561400  0.29030300  1
  Ni  Ni14  1  0.51488400  0.39495600  0.15248800  1
  Ni  Ni15  1  0.58615500  0.55775100  0.39083500  1
  Ni  Ni16  1  0.05658400  0.25142200  0.88053900  1
  Ni  Ni17  1  0.48511600  0.60504400  0.84751200  1
  Ni  Ni18  1  0.55658400  0.74857800  0.61946100  1
  Ni  Ni19  1  0.53765800  0.92458500  0.86770900  1
  Ni  Ni20  1  0.76970800  0.28144800  0.05582200  1
  Ni  Ni21  1  0.81711600  0.19438600  0.20969700  1
  Ni  Ni22  1  0.55637600  0.74609400  0.11873400  1
  Ni  Ni23  1  0.46234200  0.07541500  0.13229100  1
  Ni  Ni24  1  0.92808400  0.93048500  0.86820100  1
  Ni  Ni25  1  0.73029200  0.28144800  0.55582200  1
  Ni  Ni26  1  0.96234200  0.92458500  0.36770900  1
  Ni  Ni27  1  0.01488400  0.60504400  0.34751200  1
  Ni  Ni28  1  0.42808400  0.06951500  0.63179900  1
  Ni  Ni29  1  0.98511600  0.39495600  0.65248800  1
  Ni  Ni30  1  0.41384500  0.44224900  0.60916500  1
  Ni  Ni31  1  0.68288400  0.19438600  0.70969700  1
  Cu  Cu32  1  0.74386300  0.46857400  0.26680700  1
  Cu  Cu33  1  0.74070800  0.04416900  0.97445800  1
  Cu  Cu34  1  0.75189800  0.63511300  0.01094600  1
  Cu  Cu35  1  0.74810200  0.63511300  0.51094600  1
  Cu  Cu36  1  0.74613200  0.85842400  0.24811600  1
  Cu  Cu37  1  0.24070800  0.95583100  0.52554200  1
  Cu  Cu38  1  0.25613700  0.53142600  0.73319300  1
  Cu  Cu39  1  0.24386300  0.53142600  0.23319300  1
  Cu  Cu40  1  0.25386800  0.14157600  0.75188400  1
  Cu  Cu41  1  0.24613200  0.14157600  0.25188400  1
  Cu  Cu42  1  0.75386800  0.85842400  0.74811600  1
  Cu  Cu43  1  0.75929200  0.04416900  0.47445800  1
  Cu  Cu44  1  0.25929200  0.95583100  0.02554200  1
  Cu  Cu45  1  0.24810200  0.36488700  0.98905400  1
  Cu  Cu46  1  0.75613700  0.46857400  0.76680700  1
  Cu  Cu47  1  0.25189800  0.36488700  0.48905400  1
  C  C48  1  0.58807300  0.59733300  0.06816700  1
  C  C49  1  0.57394900  0.05977200  0.91964400  1
  C  C50  1  0.23137500  0.19431500  0.56584800  1
  C  C51  1  0.24403300  0.01449700  0.71205600  1
  C  C52  1  0.76862500  0.80568500  0.43415200  1
  C  C53  1  0.88966900  0.22575700  0.63580300  1
  C  C54  1  0.93064700  0.62953100  0.05455800  1
  C  C55  1  0.24908500  0.35334000  0.80838200  1
  C  C56  1  0.08982300  0.55567000  0.17222500  1
  C  C57  1  0.92605100  0.05977200  0.41964400  1
  C  C58  1  0.25596700  0.01449700  0.21205600  1
  C  C59  1  0.23545600  0.50082100  0.02030400  1
  C  C60  1  0.26862500  0.19431500  0.06584800  1
  C  C61  1  0.05297700  0.13196700  0.28388800  1
  C  C62  1  0.10626200  0.08692400  0.81596200  1
  C  C63  1  0.58966600  0.06433000  0.42066200  1
  C  C64  1  0.22661200  0.80157000  0.51073700  1
  C  C65  1  0.71622500  0.68419700  0.82193200  1
  C  C66  1  0.54241200  0.25681900  0.62311300  1
  C  C67  1  0.25091500  0.35334000  0.30838200  1
  C  C68  1  0.25253500  0.12424300  0.94580800  1
  C  C69  1  0.73137500  0.80568500  0.93415200  1
  C  C70  1  0.76454400  0.49917900  0.97969600  1
  C  C71  1  0.60626200  0.91307600  0.68403800  1
  C  C72  1  0.72661200  0.19843000  0.98926300  1
  C  C73  1  0.04241200  0.74318100  0.87688700  1
  C  C74  1  0.20029100  0.65998400  0.26644300  1
  C  C75  1  0.61033100  0.22575700  0.13580300  1
  C  C76  1  0.07677700  0.56537300  0.68686800  1
  C  C77  1  0.70029100  0.34001600  0.23355700  1
  C  C78  1  0.58982300  0.44433000  0.32777500  1
  C  C79  1  0.41192700  0.40266700  0.93183300  1
  C  C80  1  0.27338800  0.80157000  0.01073700  1
  C  C81  1  0.21622500  0.31580300  0.67806800  1
  C  C82  1  0.11033100  0.77424300  0.36419700  1
  C  C83  1  0.42322300  0.56537300  0.18686800  1
  C  C84  1  0.44702300  0.13196700  0.78388800  1
  C  C85  1  0.95758800  0.25681900  0.12311300  1
  C  C86  1  0.79970900  0.34001600  0.73355700  1
  C  C87  1  0.08807300  0.40266700  0.43183300  1
  C  C88  1  0.91192700  0.59733300  0.56816700  1
  C  C89  1  0.39373800  0.08692400  0.31596200  1
  C  C90  1  0.91017700  0.44433000  0.82777500  1
  C  C91  1  0.41033400  0.93567000  0.57933800  1
  C  C92  1  0.74403300  0.98550300  0.78794400  1
  C  C93  1  0.38966900  0.77424300  0.86419700  1
  C  C94  1  0.75596700  0.98550300  0.28794400  1
  C  C95  1  0.24746500  0.12424300  0.44580800  1
  C  C96  1  0.89373800  0.91307600  0.18403800  1
  C  C97  1  0.56935300  0.62953100  0.55455800  1
  C  C98  1  0.78377500  0.68419700  0.32193200  1
  C  C99  1  0.29970900  0.65998400  0.76644300  1
  C  C100  1  0.75253500  0.87575700  0.55419200  1
  C  C101  1  0.55297700  0.86803300  0.21611200  1
  C  C102  1  0.92322300  0.43462700  0.31313200  1
  C  C103  1  0.28377500  0.31580300  0.17806800  1
  C  C104  1  0.06935300  0.37046900  0.94544200  1
  C  C105  1  0.08966600  0.93567000  0.07933800  1
  C  C106  1  0.45758800  0.74318100  0.37688700  1
  C  C107  1  0.57677700  0.43462700  0.81313200  1
  C  C108  1  0.41017700  0.55567000  0.67222500  1
  C  C109  1  0.43064700  0.37046900  0.44544200  1
  C  C110  1  0.74746500  0.87575700  0.05419200  1
  C  C111  1  0.91033400  0.06433000  0.92066200  1
  C  C112  1  0.75091500  0.64666000  0.19161800  1
  C  C113  1  0.26454400  0.50082100  0.52030400  1
  C  C114  1  0.94702300  0.86803300  0.71611200  1
  C  C115  1  0.74908500  0.64666000  0.69161800  1
  C  C116  1  0.42605100  0.94022800  0.08035600  1
  C  C117  1  0.07394900  0.94022800  0.58035600  1
  C  C118  1  0.77338800  0.19843000  0.48926300  1
  C  C119  1  0.73545600  0.49917900  0.47969600  1
