# generated using pymatgen
data_CuNiC
_symmetry_space_group_name_H-M   'P 1'
_cell_length_a   5.84002100
_cell_length_b   5.97446000
_cell_length_c   11.68992600
_cell_angle_alpha   90.00000000
_cell_angle_beta   90.00000000
_cell_angle_gamma   90.00000000
_symmetry_Int_Tables_number   1
_chemical_formula_structural   CuNiC
_chemical_formula_sum   'Cu8 Ni8 C8'
_cell_volume   407.87287915
_cell_formula_units_Z   8
loop_
 _symmetry_equiv_pos_site_id
 _symmetry_equiv_pos_as_xyz
  1  'x, y, z'
loop_
 _atom_site_type_symbol
 _atom_site_label
 _atom_site_symmetry_multiplicity
 _atom_site_fract_x
 _atom_site_fract_y
 _atom_site_fract_z
 _atom_site_occupancy
  Ni  Ni0  1  0.01470300  0.16648100  0.38490300  1
  Ni  Ni1  1  0.01470300  0.33351900  0.88490300  1
  Ni  Ni2  1  0.48529700  0.66648100  0.38490300  1
  Ni  Ni3  1  0.98529700  0.83351900  0.61509700  1
  Ni  Ni4  1  0.51470300  0.33351900  0.61509700  1
  Ni  Ni5  1  0.48529700  0.83351900  0.88490300  1
  Ni  Ni6  1  0.98529700  0.66648100  0.11509700  1
  Ni  Ni7  1  0.51470300  0.16648100  0.11509700  1
  Cu  Cu8  1  0.11902600  0.04978400  0.18026800  1
  Cu  Cu9  1  0.61902600  0.45021600  0.81973200  1
  Cu  Cu10  1  0.88097400  0.54978400  0.31973200  1
  Cu  Cu11  1  0.38097400  0.95021600  0.68026800  1
  Cu  Cu12  1  0.88097400  0.95021600  0.81973200  1
  Cu  Cu13  1  0.38097400  0.54978400  0.18026800  1
  Cu  Cu14  1  0.11902600  0.45021600  0.68026800  1
  Cu  Cu15  1  0.61902600  0.04978400  0.31973200  1
  C  C16  1  0.63456500  0.68550400  0.56487200  1
  C  C17  1  0.86543500  0.31449600  0.06487200  1
  C  C18  1  0.36543500  0.18550400  0.93512800  1
  C  C19  1  0.13456500  0.81449600  0.43512800  1
  C  C20  1  0.13456500  0.68550400  0.93512800  1
  C  C21  1  0.63456500  0.81449600  0.06487200  1
  C  C22  1  0.86543500  0.18550400  0.56487200  1
  C  C23  1  0.36543500  0.31449600  0.43512800  1
