# generated using pymatgen
data_Cu8Ni3C
_symmetry_space_group_name_H-M   'P 1'
_cell_length_a   8.21111500
_cell_length_b   8.21111500
_cell_length_c   5.93214300
_cell_angle_alpha   90.00000000
_cell_angle_beta   90.00000000
_cell_angle_gamma   90.00000000
_symmetry_Int_Tables_number   1
_chemical_formula_structural   Cu8Ni3C
_chemical_formula_sum   'Cu16 Ni6 C2'
_cell_volume   399.95937481
_cell_formula_units_Z   2
loop_
 _symmetry_equiv_pos_site_id
 _symmetry_equiv_pos_as_xyz
  1  'x, y, z'
loop_
 _atom_site_type_symbol
 _atom_site_label
 _atom_site_symmetry_multiplicity
 _atom_site_fract_x
 _atom_site_fract_y
 _atom_site_fract_z
 _atom_site_occupancy
  C  C0  1  0.50000000  0.50000000  0.50000000  1
  C  C1  1  0.00000000  0.00000000  0.50000000  1
  Ni  Ni2  1  0.50000000  0.00000000  0.61344200  1
  Ni  Ni3  1  0.72728900  0.75007000  0.11451900  1
  Ni  Ni4  1  0.00000000  0.50000000  0.38655800  1
  Ni  Ni5  1  0.24993000  0.72728900  0.88548100  1
  Ni  Ni6  1  0.27271100  0.24993000  0.11451900  1
  Ni  Ni7  1  0.75007000  0.27271100  0.88548100  1
  Cu  Cu8  1  0.49006800  0.27328100  0.15838100  1
  Cu  Cu9  1  0.23389900  0.06975600  0.28448100  1
  Cu  Cu10  1  0.66929300  0.94588500  0.80406400  1
  Cu  Cu11  1  0.06975600  0.76610100  0.71551900  1
  Cu  Cu12  1  0.05411500  0.66929300  0.19593600  1
  Cu  Cu13  1  0.27328100  0.50993200  0.84161900  1
  Cu  Cu14  1  0.40948900  0.76529900  0.64253900  1
  Cu  Cu15  1  0.72671900  0.49006800  0.84161900  1
  Cu  Cu16  1  0.76529900  0.59051100  0.35746100  1
  Cu  Cu17  1  0.23470100  0.40948900  0.35746100  1
  Cu  Cu18  1  0.76610100  0.93024400  0.28448100  1
  Cu  Cu19  1  0.94588500  0.33070700  0.19593600  1
  Cu  Cu20  1  0.59051100  0.23470100  0.64253900  1
  Cu  Cu21  1  0.33070700  0.05411500  0.80406400  1
  Cu  Cu22  1  0.93024400  0.23389900  0.71551900  1
  Cu  Cu23  1  0.50993200  0.72671900  0.15838100  1
