# generated using pymatgen
data_Cu(NiC2)2
_symmetry_space_group_name_H-M   'P 1'
_cell_length_a   6.21623278
_cell_length_b   6.18264437
_cell_length_c   24.79071540
_cell_angle_alpha   60.08021717
_cell_angle_beta   58.08160532
_cell_angle_gamma   60.17857996
_symmetry_Int_Tables_number   1
_chemical_formula_structural   Cu(NiC2)2
_chemical_formula_sum   'Cu8 Ni16 C32'
_cell_volume   664.66584639
_cell_formula_units_Z   8
loop_
 _symmetry_equiv_pos_site_id
 _symmetry_equiv_pos_as_xyz
  1  'x, y, z'
loop_
 _atom_site_type_symbol
 _atom_site_label
 _atom_site_symmetry_multiplicity
 _atom_site_fract_x
 _atom_site_fract_y
 _atom_site_fract_z
 _atom_site_occupancy
  Ni  Ni0  1  0.09930200  0.14650100  0.27692400  1
  Ni  Ni1  1  0.48684800  0.50984300  0.12623300  1
  Ni  Ni2  1  0.48684800  0.99837600  0.12623300  1
  Ni  Ni3  1  0.11636500  0.13667800  0.52757000  1
  Ni  Ni4  1  0.49808100  0.49947300  0.37677500  1
  Ni  Ni5  1  0.49808100  0.99534400  0.37677500  1
  Ni  Ni6  1  0.86198100  0.87599100  0.22150900  1
  Ni  Ni7  1  0.12027900  0.12880500  0.78052800  1
  Ni  Ni8  1  0.51405000  0.49298600  0.62532100  1
  Ni  Ni9  1  0.51405000  0.99167900  0.62532100  1
  Ni  Ni10  1  0.87983400  0.87017700  0.46995300  1
  Ni  Ni11  1  0.49428200  0.49562100  0.87676800  1
  Ni  Ni12  1  0.90301600  0.87448900  0.71200100  1
  Ni  Ni13  1  0.50756400  0.50086800  0.99767500  1
  Ni  Ni14  1  0.49428200  0.00302500  0.87676800  1
  Ni  Ni15  1  0.89109700  0.87394100  0.96525500  1
  Cu  Cu16  1  0.10977700  0.12428200  0.03541500  1
  Cu  Cu17  1  0.46094000  0.50616100  0.25668500  1
  Cu  Cu18  1  0.96051400  0.50892200  0.13041000  1
  Cu  Cu19  1  0.49301600  0.49849900  0.50249600  1
  Cu  Cu20  1  0.00130600  0.50192100  0.37371300  1
  Cu  Cu21  1  0.51627500  0.49472200  0.74857000  1
  Cu  Cu22  1  0.02430800  0.49630800  0.62076900  1
  Cu  Cu23  1  0.98603000  0.52952400  0.86373100  1
  C  C24  1  0.22109500  0.24615600  0.06574400  1
  C  C25  1  0.22328900  0.29550600  0.17142400  1
  C  C26  1  0.22109500  0.76977400  0.06574400  1
  C  C27  1  0.75361400  0.24903300  0.06208000  1
  C  C28  1  0.27066300  0.72504300  0.19481300  1
  C  C29  1  0.23937100  0.27325000  0.31349600  1
  C  C30  1  0.76748700  0.72377300  0.07124200  1
  C  C31  1  0.72567300  0.29245200  0.19035500  1
  C  C32  1  0.23140000  0.28388400  0.42520800  1
  C  C33  1  0.23937100  0.73339300  0.31349600  1
  C  C34  1  0.68967400  0.28726700  0.30894800  1
  C  C35  1  0.72567300  0.72045500  0.19035500  1
  C  C36  1  0.25801700  0.26583800  0.56327500  1
  C  C37  1  0.28966000  0.71560500  0.44478300  1
  C  C38  1  0.74921900  0.28457300  0.43826500  1
  C  C39  1  0.24607000  0.27391300  0.67652500  1
  C  C40  1  0.76468200  0.72019000  0.32373400  1
  C  C41  1  0.25801700  0.72304800  0.56327500  1
  C  C42  1  0.70756200  0.28002300  0.55809800  1
  C  C43  1  0.74921900  0.71314900  0.43826500  1
  C  C44  1  0.25608300  0.27964700  0.81414700  1
  C  C45  1  0.30750900  0.70886000  0.69369200  1
  C  C46  1  0.76977100  0.27958800  0.68602500  1
  C  C47  1  0.78289300  0.71336800  0.57259300  1
  C  C48  1  0.25608300  0.70768400  0.81414700  1
  C  C49  1  0.25112400  0.22911700  0.94766000  1
  C  C50  1  0.76977100  0.70654000  0.68602500  1
  C  C51  1  0.70574700  0.27807600  0.80952600  1
  C  C52  1  0.29262600  0.73323200  0.93522700  1
  C  C53  1  0.79007800  0.28422800  0.92628100  1
  C  C54  1  0.77926100  0.72862800  0.81587100  1
  C  C55  1  0.79007800  0.72057000  0.92628100  1
