# generated using pymatgen
data_Cu8Ni2C9
_symmetry_space_group_name_H-M   'P 1'
_cell_length_a   7.57589653
_cell_length_b   7.57589653
_cell_length_c   6.10809400
_cell_angle_alpha   90.00000000
_cell_angle_beta   90.00000000
_cell_angle_gamma   120.00000460
_symmetry_Int_Tables_number   1
_chemical_formula_structural   Cu8Ni2C9
_chemical_formula_sum   'Cu8 Ni2 C9'
_cell_volume   303.60183503
_cell_formula_units_Z   1
loop_
 _symmetry_equiv_pos_site_id
 _symmetry_equiv_pos_as_xyz
  1  'x, y, z'
loop_
 _atom_site_type_symbol
 _atom_site_label
 _atom_site_symmetry_multiplicity
 _atom_site_fract_x
 _atom_site_fract_y
 _atom_site_fract_z
 _atom_site_occupancy
  C  C0  1  0.00000000  0.00000000  0.50000000  1
  Ni  Ni1  1  0.66666700  0.33333300  0.14910900  1
  Ni  Ni2  1  0.33333300  0.66666700  0.85089100  1
  Cu  Cu3  1  0.66666700  0.33333300  0.88965800  1
  Cu  Cu4  1  0.78057300  0.21942700  0.23804300  1
  Cu  Cu5  1  0.43885400  0.21942700  0.23804300  1
  Cu  Cu6  1  0.78057300  0.56114600  0.23804300  1
  Cu  Cu7  1  0.56114600  0.78057300  0.76195700  1
  Cu  Cu8  1  0.21942700  0.43885400  0.76195700  1
  Cu  Cu9  1  0.21942700  0.78057300  0.76195700  1
  Cu  Cu10  1  0.33333300  0.66666700  0.11034200  1
  C  C11  1  0.66666700  0.33333300  0.69891100  1
  C  C12  1  0.27264200  0.13632100  0.30307900  1
  C  C13  1  0.72735800  0.86367900  0.69692100  1
  C  C14  1  0.13632100  0.86367900  0.69692100  1
  C  C15  1  0.33333300  0.66666700  0.30108900  1
  C  C16  1  0.13632100  0.27264200  0.69692100  1
  C  C17  1  0.86367900  0.13632100  0.30307900  1
  C  C18  1  0.86367900  0.72735800  0.30307900  1
