# generated using pymatgen
data_Cu2NiC5
_symmetry_space_group_name_H-M   'P 1'
_cell_length_a   7.01741800
_cell_length_b   7.01741800
_cell_length_c   4.42655100
_cell_angle_alpha   90.00000000
_cell_angle_beta   90.00000000
_cell_angle_gamma   90.00000000
_symmetry_Int_Tables_number   1
_chemical_formula_structural   Cu2NiC5
_chemical_formula_sum   'Cu4 Ni2 C10'
_cell_volume   217.98176527
_cell_formula_units_Z   2
loop_
 _symmetry_equiv_pos_site_id
 _symmetry_equiv_pos_as_xyz
  1  'x, y, z'
loop_
 _atom_site_type_symbol
 _atom_site_label
 _atom_site_symmetry_multiplicity
 _atom_site_fract_x
 _atom_site_fract_y
 _atom_site_fract_z
 _atom_site_occupancy
  C  C0  1  0.00000000  0.00000000  0.50000000  1
  C  C1  1  0.50000000  0.50000000  0.50000000  1
  Ni  Ni2  1  0.00000000  0.50000000  0.50707700  1
  Ni  Ni3  1  0.50000000  0.00000000  0.49292300  1
  Cu  Cu4  1  0.25000000  0.25000000  0.00000000  1
  Cu  Cu5  1  0.25000000  0.75000000  0.00000000  1
  Cu  Cu6  1  0.75000000  0.75000000  0.00000000  1
  Cu  Cu7  1  0.75000000  0.25000000  0.00000000  1
  C  C8  1  0.22630200  0.00000000  0.76472400  1
  C  C9  1  0.00000000  0.77369800  0.23527600  1
  C  C10  1  0.77369800  0.00000000  0.76472400  1
  C  C11  1  0.27369800  0.50000000  0.23527600  1
  C  C12  1  0.00000000  0.22630200  0.23527600  1
  C  C13  1  0.50000000  0.27369800  0.76472400  1
  C  C14  1  0.72630200  0.50000000  0.23527600  1
  C  C15  1  0.50000000  0.72630200  0.76472400  1
