# generated using pymatgen
data_Cu3NiC5
_symmetry_space_group_name_H-M   'P 1'
_cell_length_a   7.35209500
_cell_length_b   7.95656300
_cell_length_c   15.29188323
_cell_angle_alpha   59.40676819
_cell_angle_beta   90.00000000
_cell_angle_gamma   90.00000000
_symmetry_Int_Tables_number   1
_chemical_formula_structural   Cu3NiC5
_chemical_formula_sum   'Cu12 Ni4 C20'
_cell_volume   770.01809925
_cell_formula_units_Z   4
loop_
 _symmetry_equiv_pos_site_id
 _symmetry_equiv_pos_as_xyz
  1  'x, y, z'
loop_
 _atom_site_type_symbol
 _atom_site_label
 _atom_site_symmetry_multiplicity
 _atom_site_fract_x
 _atom_site_fract_y
 _atom_site_fract_z
 _atom_site_occupancy
  C  C0  1  0.50875000  0.55717100  0.25681100  1
  C  C1  1  0.00875000  0.44282900  0.24318900  1
  C  C2  1  0.49125000  0.44282900  0.74318900  1
  C  C3  1  0.99125000  0.55717100  0.75681100  1
  C  C4  1  0.98258800  0.91342900  0.41290200  1
  C  C5  1  0.48258800  0.08657100  0.08709800  1
  C  C6  1  0.01741200  0.08657100  0.58709800  1
  C  C7  1  0.51741200  0.91342900  0.91290200  1
  C  C8  1  0.52899900  0.25657100  0.58177200  1
  C  C9  1  0.02899900  0.74342900  0.91822800  1
  C  C10  1  0.47100100  0.74342900  0.41822800  1
  C  C11  1  0.97100100  0.25657100  0.08177200  1
  C  C12  1  0.15429300  0.83679900  0.24145400  1
  C  C13  1  0.65429400  0.16320100  0.25854600  1
  C  C14  1  0.84570700  0.16320100  0.75854600  1
  C  C15  1  0.34570700  0.83679900  0.74145400  1
  C  C16  1  0.33697700  0.15920100  0.41826800  1
  C  C17  1  0.83697700  0.84079900  0.08173200  1
  C  C18  1  0.66302300  0.84079900  0.58173200  1
  C  C19  1  0.16302300  0.15920100  0.91826800  1
  Ni  Ni20  1  0.63819300  0.51138900  0.91703000  1
  Ni  Ni21  1  0.13819300  0.48861100  0.58297000  1
  Ni  Ni22  1  0.36180700  0.48861100  0.08297000  1
  Ni  Ni23  1  0.86180700  0.51138900  0.41703000  1
  Cu  Cu24  1  0.74186000  0.24194700  0.42089000  1
  Cu  Cu25  1  0.24186000  0.75805300  0.07911000  1
  Cu  Cu26  1  0.25814000  0.75805300  0.57911000  1
  Cu  Cu27  1  0.75814000  0.24194700  0.92089000  1
  Cu  Cu28  1  0.77079900  0.79706100  0.27990700  1
  Cu  Cu29  1  0.27079900  0.20293900  0.22009300  1
  Cu  Cu30  1  0.22920100  0.20293900  0.72009300  1
  Cu  Cu31  1  0.72920100  0.79706100  0.77990700  1
  Cu  Cu32  1  0.32067400  0.48030700  0.93467000  1
  Cu  Cu33  1  0.82067400  0.51969300  0.56533000  1
  Cu  Cu34  1  0.67932600  0.51969300  0.06533000  1
  Cu  Cu35  1  0.17932600  0.48030700  0.43467000  1
