# generated using pymatgen
data_CuNi3C20
_symmetry_space_group_name_H-M   'P 1'
_cell_length_a   15.45800982
_cell_length_b   15.45800982
_cell_length_c   7.96624300
_cell_angle_alpha   90.00000000
_cell_angle_beta   90.00000000
_cell_angle_gamma   117.65588773
_symmetry_Int_Tables_number   1
_chemical_formula_structural   CuNi3C20
_chemical_formula_sum   'Cu4 Ni12 C80'
_cell_volume   1686.05788340
_cell_formula_units_Z   4
loop_
 _symmetry_equiv_pos_site_id
 _symmetry_equiv_pos_as_xyz
  1  'x, y, z'
loop_
 _atom_site_type_symbol
 _atom_site_label
 _atom_site_symmetry_multiplicity
 _atom_site_fract_x
 _atom_site_fract_y
 _atom_site_fract_z
 _atom_site_occupancy
  Ni  Ni0  1  0.37989900  0.87989900  0.79863700  1
  Ni  Ni1  1  0.12010100  0.62010100  0.79863700  1
  Ni  Ni2  1  0.10024100  0.89976000  0.92189100  1
  Ni  Ni3  1  0.83651100  0.66348900  0.50000000  1
  Ni  Ni4  1  0.87989900  0.37989900  0.20136300  1
  Ni  Ni5  1  0.39976000  0.60024000  0.92189100  1
  Ni  Ni6  1  0.33651100  0.16348900  0.50000000  1
  Ni  Ni7  1  0.89976000  0.10024000  0.07810900  1
  Ni  Ni8  1  0.60024000  0.39976000  0.07810900  1
  Ni  Ni9  1  0.16348900  0.33651100  0.50000000  1
  Ni  Ni10  1  0.66348900  0.83651100  0.50000000  1
  Ni  Ni11  1  0.62010100  0.12010100  0.20136300  1
  Cu  Cu12  1  0.65506700  0.84493300  0.00000000  1
  Cu  Cu13  1  0.34493300  0.15506700  0.00000000  1
  Cu  Cu14  1  0.84493300  0.65506700  0.00000000  1
  Cu  Cu15  1  0.15506700  0.34493300  0.00000000  1
  C  C16  1  0.34500100  0.65499900  0.51727600  1
  C  C17  1  0.02166000  0.65591600  0.22139400  1
  C  C18  1  0.88764300  0.89126500  0.72384500  1
  C  C19  1  0.34408400  0.97834000  0.22139400  1
  C  C20  1  0.60873500  0.61235700  0.27615500  1
  C  C21  1  0.61235700  0.60873500  0.72384500  1
  C  C22  1  0.89126500  0.88764300  0.27615500  1
  C  C23  1  0.52166000  0.15591600  0.77860600  1
  C  C24  1  0.39126500  0.38764300  0.72384500  1
  C  C25  1  0.97834000  0.34408400  0.77860600  1
  C  C26  1  0.65499900  0.34500100  0.48272400  1
  C  C27  1  0.10873500  0.11235700  0.72384500  1
  C  C28  1  0.65591600  0.02166000  0.77860600  1
  C  C29  1  0.11235700  0.10873500  0.27615500  1
  C  C30  1  0.47834000  0.84408400  0.22139400  1
  C  C31  1  0.38764300  0.39126500  0.27615500  1
  C  C32  1  0.15591600  0.52166000  0.22139400  1
  C  C33  1  0.84500100  0.15499900  0.48272400  1
  C  C34  1  0.84408400  0.47834000  0.77860600  1
  C  C35  1  0.15499900  0.84500100  0.51727600  1
  C  C36  1  0.90644100  0.09355900  0.44108000  1
  C  C37  1  0.59355900  0.40644100  0.44108000  1
  C  C38  1  0.29866600  0.39908600  0.81430500  1
  C  C39  1  0.90952900  0.59992000  0.75108700  1
  C  C40  1  0.26663000  0.92241900  0.39916500  1
  C  C41  1  0.86509900  0.86509900  0.50000000  1
  C  C42  1  0.09992000  0.40952900  0.75108700  1
  C  C43  1  0.23337000  0.57758100  0.39916500  1
  C  C44  1  0.78238700  0.46556400  0.95793300  1
  C  C45  1  0.71761300  0.03443600  0.95793300  1
  C  C46  1  0.78803300  0.89428200  0.80112400  1
  C  C47  1  0.49441100  0.50558900  0.22519800  1
  C  C48  1  0.10571800  0.21196700  0.80112400  1
  C  C49  1  0.31322200  0.68677800  0.70001800  1
  C  C50  1  0.63490100  0.63490100  0.50000000  1
  C  C51  1  0.40008000  0.09047100  0.75108700  1
  C  C52  1  0.42241900  0.76663000  0.39916500  1
  C  C53  1  0.89428200  0.78803300  0.19887600  1
  C  C54  1  0.40644100  0.59355900  0.55892000  1
  C  C55  1  0.20133400  0.10091400  0.81430500  1
  C  C56  1  0.60571800  0.71196700  0.19887600  1
  C  C57  1  0.76663000  0.42241900  0.60083500  1
  C  C58  1  0.09047100  0.40008000  0.24891300  1
  C  C59  1  0.21196700  0.10571800  0.19887600  1
  C  C60  1  0.71196700  0.60571800  0.80112400  1
  C  C61  1  0.93029700  0.43029700  0.81087800  1
  C  C62  1  0.70133400  0.60091400  0.18569500  1
  C  C63  1  0.46556400  0.78238700  0.04206700  1
  C  C64  1  0.79866600  0.89908600  0.18569500  1
  C  C65  1  0.28238700  0.96556400  0.04206700  1
  C  C66  1  0.59992000  0.90952900  0.24891300  1
  C  C67  1  0.92241900  0.26663000  0.60083500  1
  C  C68  1  0.60091400  0.70133400  0.81430500  1
  C  C69  1  0.06970300  0.56970300  0.18912200  1
  C  C70  1  0.99441100  0.00558900  0.77480200  1
  C  C71  1  0.68677800  0.31322200  0.29998200  1
  C  C72  1  0.89908600  0.79866600  0.81430500  1
  C  C73  1  0.18677800  0.81322200  0.70001800  1
  C  C74  1  0.00558900  0.99441100  0.22519800  1
  C  C75  1  0.36509900  0.36509900  0.50000000  1
  C  C76  1  0.40952900  0.09992000  0.24891300  1
  C  C77  1  0.50558900  0.49441100  0.77480200  1
  C  C78  1  0.03443600  0.71761300  0.04206700  1
  C  C79  1  0.13490100  0.13490100  0.50000000  1
  C  C80  1  0.57758100  0.23337000  0.60083500  1
  C  C81  1  0.81322200  0.18677800  0.29998200  1
  C  C82  1  0.53443600  0.21761300  0.95793300  1
  C  C83  1  0.59047100  0.90008000  0.75108700  1
  C  C84  1  0.07758100  0.73337000  0.39916500  1
  C  C85  1  0.56970300  0.06970300  0.81087800  1
  C  C86  1  0.39908600  0.29866600  0.18569500  1
  C  C87  1  0.28803300  0.39428200  0.19887600  1
  C  C88  1  0.43029700  0.93029700  0.18912200  1
  C  C89  1  0.39428200  0.28803300  0.80112400  1
  C  C90  1  0.96556400  0.28238700  0.95793300  1
  C  C91  1  0.90008000  0.59047100  0.24891300  1
  C  C92  1  0.21761300  0.53443600  0.04206700  1
  C  C93  1  0.73337000  0.07758100  0.60083500  1
  C  C94  1  0.09355900  0.90644100  0.55892000  1
  C  C95  1  0.10091400  0.20133400  0.18569500  1
