# generated using pymatgen
data_Cu15(NiC2)4
_symmetry_space_group_name_H-M   'P 1'
_cell_length_a   14.53349100
_cell_length_b   7.03023000
_cell_length_c   7.80941382
_cell_angle_alpha   85.52231016
_cell_angle_beta   90.00000000
_cell_angle_gamma   90.00000000
_symmetry_Int_Tables_number   1
_chemical_formula_structural   Cu15(NiC2)4
_chemical_formula_sum   'Cu30 Ni8 C16'
_cell_volume   795.48196826
_cell_formula_units_Z   2
loop_
 _symmetry_equiv_pos_site_id
 _symmetry_equiv_pos_as_xyz
  1  'x, y, z'
loop_
 _atom_site_type_symbol
 _atom_site_label
 _atom_site_symmetry_multiplicity
 _atom_site_fract_x
 _atom_site_fract_y
 _atom_site_fract_z
 _atom_site_occupancy
  C  C0  1  0.63719600  0.12715800  0.19158700  1
  C  C1  1  0.13719600  0.37284200  0.80841300  1
  C  C2  1  0.36280400  0.87284200  0.80841300  1
  C  C3  1  0.86280400  0.62715800  0.19158700  1
  C  C4  1  0.39307000  0.38389400  0.10554100  1
  C  C5  1  0.89307000  0.11610600  0.89445900  1
  C  C6  1  0.10693000  0.88389400  0.10554100  1
  C  C7  1  0.60693000  0.61610600  0.89445900  1
  C  C8  1  0.43547500  0.72578000  0.28965900  1
  C  C9  1  0.17506800  0.22640100  0.26031200  1
  C  C10  1  0.82493200  0.77359900  0.73968800  1
  C  C11  1  0.32493200  0.72640100  0.26031200  1
  C  C12  1  0.67506900  0.27359900  0.73968800  1
  C  C13  1  0.06452500  0.22578000  0.28965900  1
  C  C14  1  0.56452500  0.27422000  0.71034100  1
  C  C15  1  0.93547500  0.77422000  0.71034100  1
  Ni  Ni16  1  0.07001400  0.76016400  0.47968100  1
  Ni  Ni17  1  0.17621200  0.74801300  0.45687600  1
  Ni  Ni18  1  0.57001400  0.73983600  0.52031900  1
  Ni  Ni19  1  0.32378800  0.24801300  0.45687600  1
  Ni  Ni20  1  0.67621200  0.75198700  0.54312400  1
  Ni  Ni21  1  0.92998600  0.23983600  0.52031900  1
  Ni  Ni22  1  0.82378800  0.25198700  0.54312400  1
  Ni  Ni23  1  0.42998600  0.26016400  0.47968100  1
  Cu  Cu24  1  0.30474000  0.46909600  0.96982300  1
  Cu  Cu25  1  0.08978600  0.65045500  0.05651600  1
  Cu  Cu26  1  0.72727900  0.81468100  0.42631800  1
  Cu  Cu27  1  0.58978600  0.84954500  0.94348400  1
  Cu  Cu28  1  0.46556400  0.20002800  0.61828700  1
  Cu  Cu29  1  0.27272100  0.18531900  0.57368200  1
  Cu  Cu30  1  0.88417600  0.82054900  0.78179800  1
  Cu  Cu31  1  0.91021400  0.34954500  0.94348400  1
  Cu  Cu32  1  0.22727900  0.68531900  0.57368200  1
  Cu  Cu33  1  0.41021400  0.15045500  0.05651600  1
  Cu  Cu34  1  0.97255400  0.16703200  0.65500100  1
  Cu  Cu35  1  0.70447400  0.69085800  0.69766300  1
  Cu  Cu36  1  0.20447400  0.80914200  0.30233700  1
  Cu  Cu37  1  0.80474000  0.03090400  0.03017700  1
  Cu  Cu38  1  0.96556400  0.29997200  0.38171300  1
  Cu  Cu39  1  0.02744600  0.83296800  0.34499900  1
  Cu  Cu40  1  0.03443600  0.70002800  0.61828700  1
  Cu  Cu41  1  0.52744600  0.66703200  0.65500100  1
  Cu  Cu42  1  0.11582400  0.17945100  0.21820200  1
  Cu  Cu43  1  0.79552600  0.19085800  0.69766300  1
  Cu  Cu44  1  0.00000000  0.00000000  0.00000000  1
  Cu  Cu45  1  0.61582400  0.32054900  0.78179800  1
  Cu  Cu46  1  0.77272100  0.31468100  0.42631800  1
  Cu  Cu47  1  0.47255400  0.33296800  0.34499900  1
  Cu  Cu48  1  0.53443600  0.79997200  0.38171300  1
  Cu  Cu49  1  0.19526000  0.96909600  0.96982300  1
  Cu  Cu50  1  0.29552600  0.30914200  0.30233700  1
  Cu  Cu51  1  0.38417600  0.67945100  0.21820200  1
  Cu  Cu52  1  0.69526000  0.53090400  0.03017700  1
  Cu  Cu53  1  0.50000000  0.50000000  0.00000000  1
