# generated using pymatgen
data_Cu(Ni2C15)2
_symmetry_space_group_name_H-M   'P 1'
_cell_length_a   10.10776000
_cell_length_b   12.87373600
_cell_length_c   18.38980829
_cell_angle_alpha   76.60576987
_cell_angle_beta   90.00000000
_cell_angle_gamma   90.00000000
_symmetry_Int_Tables_number   1
_chemical_formula_structural   Cu(Ni2C15)2
_chemical_formula_sum   'Cu4 Ni16 C120'
_cell_volume   2327.87647755
_cell_formula_units_Z   4
loop_
 _symmetry_equiv_pos_site_id
 _symmetry_equiv_pos_as_xyz
  1  'x, y, z'
loop_
 _atom_site_type_symbol
 _atom_site_label
 _atom_site_symmetry_multiplicity
 _atom_site_fract_x
 _atom_site_fract_y
 _atom_site_fract_z
 _atom_site_occupancy
  Ni  Ni0  1  0.25525600  0.55274900  0.16877100  1
  Ni  Ni1  1  0.73954200  0.98988300  0.32410000  1
  Ni  Ni2  1  0.23954200  0.01011700  0.17590000  1
  Ni  Ni3  1  0.24126700  0.43437000  0.48488600  1
  Ni  Ni4  1  0.75518100  0.87913000  0.13421000  1
  Ni  Ni5  1  0.74126700  0.56563000  0.01511400  1
  Ni  Ni6  1  0.74481900  0.87913000  0.63421000  1
  Ni  Ni7  1  0.26045800  0.01011700  0.67590000  1
  Ni  Ni8  1  0.75873300  0.56563000  0.51511400  1
  Ni  Ni9  1  0.74474400  0.44725100  0.83122900  1
  Ni  Ni10  1  0.24474400  0.55274900  0.66877100  1
  Ni  Ni11  1  0.76045800  0.98988300  0.82410000  1
  Ni  Ni12  1  0.24481900  0.12087000  0.86579000  1
  Ni  Ni13  1  0.25518100  0.12087000  0.36579000  1
  Ni  Ni14  1  0.75525600  0.44725100  0.33122900  1
  Ni  Ni15  1  0.25873300  0.43437000  0.98488600  1
  Cu  Cu16  1  0.75835800  0.22810500  0.58852800  1
  Cu  Cu17  1  0.24164200  0.77189500  0.41147200  1
  Cu  Cu18  1  0.74164200  0.22810500  0.08852800  1
  Cu  Cu19  1  0.25835800  0.77189500  0.91147200  1
  C  C20  1  0.87826500  0.27509400  0.15300400  1
  C  C21  1  0.12173500  0.72490600  0.84699600  1
  C  C22  1  0.11358100  0.80384500  0.97659200  1
  C  C23  1  0.11213300  0.82097700  0.47831300  1
  C  C24  1  0.38641900  0.80384500  0.47659200  1
  C  C25  1  0.62173500  0.27509400  0.65300400  1
  C  C26  1  0.09196800  0.73631500  0.35039100  1
  C  C27  1  0.90803200  0.26368500  0.64960900  1
  C  C28  1  0.38786700  0.82097700  0.97831300  1
  C  C29  1  0.61358100  0.19615500  0.52340800  1
  C  C30  1  0.61213300  0.17902300  0.02168700  1
  C  C31  1  0.37826500  0.72490600  0.34699600  1
  C  C32  1  0.88641900  0.19615500  0.02340800  1
  C  C33  1  0.59196800  0.26368500  0.14960900  1
  C  C34  1  0.88786700  0.17902300  0.52168700  1
  C  C35  1  0.40803200  0.73631500  0.85039100  1
  C  C36  1  0.03361300  0.81955700  0.01573400  1
  C  C37  1  0.53361300  0.18044300  0.48426600  1
  C  C38  1  0.54036000  0.30275500  0.68635400  1
  C  C39  1  0.50398200  0.28544100  0.18110900  1
  C  C40  1  0.04036000  0.69724500  0.81364600  1
  C  C41  1  0.95964000  0.30275500  0.18635400  1
  C  C42  1  0.45964000  0.69724500  0.31364600  1
  C  C43  1  0.04324000  0.84956000  0.51811100  1
  C  C44  1  0.99601800  0.28544100  0.68110900  1
  C  C45  1  0.00398200  0.71455900  0.31889100  1
  C  C46  1  0.49601800  0.71455900  0.81889100  1
  C  C47  1  0.54324000  0.15044000  0.98188900  1
  C  C48  1  0.95676000  0.15044000  0.48188900  1
  C  C49  1  0.45676000  0.84956000  0.01811100  1
  C  C50  1  0.96638700  0.18044300  0.98426600  1
  C  C51  1  0.46638700  0.81955700  0.51573400  1
  C  C52  1  0.44061200  0.55897500  0.18190500  1
  C  C53  1  0.73219900  0.31848000  0.90942400  1
  C  C54  1  0.12052200  0.00522600  0.89258600  1
  C  C55  1  0.11201100  0.53879400  0.44040700  1
  C  C56  1  0.36938300  0.34234700  0.54196300  1
  C  C57  1  0.39010800  0.11504100  0.63666800  1
  C  C58  1  0.92387400  0.45650700  0.85945200  1
  C  C59  1  0.75019400  0.85706300  0.53594300  1
  C  C60  1  0.26201300  0.09349300  0.25873700  1
  C  C61  1  0.60342600  0.78411400  0.66757200  1
  C  C62  1  0.24980600  0.14293700  0.46405700  1
  C  C63  1  0.71904000  0.60408000  0.60539200  1
  C  C64  1  0.07612600  0.54349300  0.14054800  1
  C  C65  1  0.36771500  0.91331500  0.22998100  1
  C  C66  1  0.10497700  0.33118600  0.51448700  1
  C  C67  1  0.36362400  0.55176400  0.46816600  1
  C  C68  1  0.57612600  0.45650700  0.35945200  1
  C  C69  1  0.87589600  0.89794600  0.37279100  1
  C  C70  1  0.60929100  0.07327000  0.26131000  1
  C  C71  1  0.26780100  0.68152000  0.09057600  1
  C  C72  1  0.13061700  0.34234700  0.04196300  1
  C  C73  1  0.13637600  0.55176400  0.96816600  1
  C  C74  1  0.19529000  0.47636600  0.58334300  1
  C  C75  1  0.76201300  0.90650700  0.24126300  1
  C  C76  1  0.28181400  0.62818700  0.74432500  1
  C  C77  1  0.10342600  0.21588600  0.83242800  1
  C  C78  1  0.86771500  0.08668500  0.27001900  1
  C  C79  1  0.39502300  0.33118600  0.01448700  1
  C  C80  1  0.30471000  0.47636600  0.08334300  1
  C  C81  1  0.39657400  0.21588600  0.33242800  1
  C  C82  1  0.62222300  0.77833000  0.17256900  1
  C  C83  1  0.60989200  0.88495900  0.36333200  1
  C  C84  1  0.62286800  0.98931000  0.11377900  1
  C  C85  1  0.89070900  0.07327000  0.76131000  1
  C  C86  1  0.87777700  0.77833000  0.67256900  1
  C  C87  1  0.62410400  0.89794600  0.87279100  1
  C  C88  1  0.87713200  0.98931000  0.61377900  1
  C  C89  1  0.12286800  0.01069000  0.38622100  1
  C  C90  1  0.86362400  0.44823600  0.03183400  1
  C  C91  1  0.05938800  0.55897500  0.68190500  1
  C  C92  1  0.86938300  0.65765300  0.95803700  1
  C  C93  1  0.74780200  0.58645400  0.26969700  1
  C  C94  1  0.89502300  0.66881400  0.48551300  1
  C  C95  1  0.12410400  0.10205400  0.62720900  1
  C  C96  1  0.37777700  0.22167000  0.82743100  1
  C  C97  1  0.71818600  0.37181300  0.25567500  1
  C  C98  1  0.10929100  0.92673000  0.23869000  1
  C  C99  1  0.22302700  0.93599500  0.09828600  1
  C  C100  1  0.63061700  0.65765300  0.45803700  1
  C  C101  1  0.77697300  0.06400500  0.90171400  1
  C  C102  1  0.25219800  0.41354600  0.73030300  1
  C  C103  1  0.25019400  0.14293700  0.96405700  1
  C  C104  1  0.61201100  0.46120600  0.05959300  1
  C  C105  1  0.72302700  0.06400500  0.40171400  1
  C  C106  1  0.63637600  0.44823600  0.53183400  1
  C  C107  1  0.55938800  0.44102500  0.81809500  1
  C  C108  1  0.38798900  0.53879400  0.94040700  1
  C  C109  1  0.21818600  0.62818700  0.24432500  1
  C  C110  1  0.23219900  0.68152000  0.59057600  1
  C  C111  1  0.89657400  0.78411400  0.16757200  1
  C  C112  1  0.88798900  0.46120600  0.55959300  1
  C  C113  1  0.75219800  0.58645400  0.76969700  1
  C  C114  1  0.89010800  0.88495900  0.86333200  1
  C  C115  1  0.62052200  0.99477400  0.60741400  1
  C  C116  1  0.80471000  0.52363400  0.41665700  1
  C  C117  1  0.87947800  0.99477400  0.10741400  1
  C  C118  1  0.28096000  0.39592000  0.39460800  1
  C  C119  1  0.13228500  0.91331500  0.72998100  1
  C  C120  1  0.60497700  0.66881400  0.98551300  1
  C  C121  1  0.69529000  0.52363400  0.91665700  1
  C  C122  1  0.78096000  0.60408000  0.10539200  1
  C  C123  1  0.23798700  0.09349300  0.75873700  1
  C  C124  1  0.39070900  0.92673000  0.73869000  1
  C  C125  1  0.63228500  0.08668500  0.77001900  1
  C  C126  1  0.73798700  0.90650700  0.74126300  1
  C  C127  1  0.21904000  0.39592000  0.89460800  1
  C  C128  1  0.76780100  0.31848000  0.40942400  1
  C  C129  1  0.74980600  0.85706300  0.03594300  1
  C  C130  1  0.37947800  0.00522600  0.39258600  1
  C  C131  1  0.37589600  0.10205400  0.12720900  1
  C  C132  1  0.24780200  0.41354600  0.23030300  1
  C  C133  1  0.78181400  0.37181300  0.75567500  1
  C  C134  1  0.10989200  0.11504100  0.13666800  1
  C  C135  1  0.37713200  0.01069000  0.88622100  1
  C  C136  1  0.94061200  0.44102500  0.31809500  1
  C  C137  1  0.12222300  0.22167000  0.32743100  1
  C  C138  1  0.27697300  0.93599500  0.59828600  1
  C  C139  1  0.42387400  0.54349300  0.64054800  1
