# generated using pymatgen
data_Cu2NiC21
_symmetry_space_group_name_H-M   'P 1'
_cell_length_a   7.92857800
_cell_length_b   7.67801000
_cell_length_c   16.96909834
_cell_angle_alpha   87.31628244
_cell_angle_beta   90.00000000
_cell_angle_gamma   90.00000000
_symmetry_Int_Tables_number   1
_chemical_formula_structural   Cu2NiC21
_chemical_formula_sum   'Cu8 Ni4 C84'
_cell_volume   1031.87278129
_cell_formula_units_Z   4
loop_
 _symmetry_equiv_pos_site_id
 _symmetry_equiv_pos_as_xyz
  1  'x, y, z'
loop_
 _atom_site_type_symbol
 _atom_site_label
 _atom_site_symmetry_multiplicity
 _atom_site_fract_x
 _atom_site_fract_y
 _atom_site_fract_z
 _atom_site_occupancy
  C  C0  1  0.00000000  0.00000000  0.00000000  1
  C  C1  1  0.50000000  0.50000000  0.50000000  1
  C  C2  1  0.00000000  0.50000000  0.00000000  1
  C  C3  1  0.50000000  0.00000000  0.50000000  1
  C  C4  1  0.79756600  0.53135800  0.69455300  1
  C  C5  1  0.39482600  0.89829700  0.26794800  1
  C  C6  1  0.88106000  0.41578400  0.23559100  1
  C  C7  1  0.38106000  0.58421600  0.26440900  1
  C  C8  1  0.01850700  0.37339400  0.63148800  1
  C  C9  1  0.81218300  0.40313500  0.48552400  1
  C  C10  1  0.31844700  0.59729200  0.71406600  1
  C  C11  1  0.05313400  0.24117500  0.72011400  1
  C  C12  1  0.31101500  0.90026300  0.01883700  1
  C  C13  1  0.22571100  0.01666000  0.31050600  1
  C  C14  1  0.72571100  0.98334000  0.18949400  1
  C  C15  1  0.68781700  0.40313500  0.98552400  1
  C  C16  1  0.80412400  0.08407800  0.78293200  1
  C  C17  1  0.94686600  0.75882500  0.27988600  1
  C  C18  1  0.44686600  0.24117500  0.22011400  1
  C  C19  1  0.68155300  0.40270800  0.28593400  1
  C  C20  1  0.30979900  0.43318300  0.96114900  1
  C  C21  1  0.18155300  0.59729200  0.21406600  1
  C  C22  1  0.70243400  0.53135800  0.19455300  1
  C  C23  1  0.80979900  0.56681700  0.53885100  1
  C  C24  1  0.31218300  0.59686500  0.01447600  1
  C  C25  1  0.68898500  0.09973700  0.98116300  1
  C  C26  1  0.76591100  0.27118600  0.12977800  1
  C  C27  1  0.18898500  0.90026300  0.51883700  1
  C  C28  1  0.61894000  0.41578400  0.73559100  1
  C  C29  1  0.89482600  0.10170300  0.23205200  1
  C  C30  1  0.80848400  0.92926500  0.53858400  1
  C  C31  1  0.81101500  0.09973700  0.48116300  1
  C  C32  1  0.48149300  0.37339400  0.13148800  1
  C  C33  1  0.69151600  0.92926500  0.03858400  1
  C  C34  1  0.98149300  0.62660600  0.36851200  1
  C  C35  1  0.10517400  0.89829700  0.76794800  1
  C  C36  1  0.19020100  0.43318300  0.46114900  1
  C  C37  1  0.69020100  0.56681700  0.03885100  1
  C  C38  1  0.29756600  0.46864200  0.80544700  1
  C  C39  1  0.26591100  0.72881400  0.37022200  1
  C  C40  1  0.27428900  0.01666000  0.81050600  1
  C  C41  1  0.99131900  0.85970700  0.37122600  1
  C  C42  1  0.23408900  0.72881400  0.87022200  1
  C  C43  1  0.19587600  0.91592200  0.21706800  1
  C  C44  1  0.55313400  0.75882500  0.77988600  1
  C  C45  1  0.60517400  0.10170300  0.73205200  1
  C  C46  1  0.19151600  0.07073500  0.46141600  1
  C  C47  1  0.11894000  0.58421600  0.76440900  1
  C  C48  1  0.77428900  0.98334000  0.68949400  1
  C  C49  1  0.30412400  0.91592200  0.71706800  1
  C  C50  1  0.81844700  0.40270800  0.78593400  1
  C  C51  1  0.00868100  0.14029300  0.62877400  1
  C  C52  1  0.51850700  0.62660600  0.86851200  1
  C  C53  1  0.49131900  0.14029300  0.12877400  1
  C  C54  1  0.30848400  0.07073500  0.96141600  1
  C  C55  1  0.50868100  0.85970700  0.87122600  1
  C  C56  1  0.73408900  0.27118600  0.62977800  1
  C  C57  1  0.69587600  0.08407800  0.28293200  1
  C  C58  1  0.18781700  0.59686500  0.51447600  1
  C  C59  1  0.20243400  0.46864200  0.30544700  1
  C  C60  1  0.25596300  0.58598000  0.77166800  1
  C  C61  1  0.51639300  0.25274500  0.16433200  1
  C  C62  1  0.98360700  0.25274500  0.66433200  1
  C  C63  1  0.48360700  0.74725500  0.83566800  1
  C  C64  1  0.01639300  0.74725500  0.33566800  1
  C  C65  1  0.75596300  0.41402000  0.72833200  1
  C  C66  1  0.24403700  0.58598000  0.27166800  1
  C  C67  1  0.75792900  0.09385400  0.22513400  1
  C  C68  1  0.25792900  0.90614600  0.27486600  1
  C  C69  1  0.24207100  0.90614600  0.77486600  1
  C  C70  1  0.74403700  0.41402000  0.22833200  1
  C  C71  1  0.74207100  0.09385400  0.72513400  1
  Ni  Ni72  1  0.20034900  0.74188600  0.31717200  1
  Ni  Ni73  1  0.70034900  0.25811400  0.18282800  1
  Ni  Ni74  1  0.79965100  0.25811400  0.68282800  1
  Ni  Ni75  1  0.29965100  0.74188600  0.81717200  1
  C  C76  1  0.00475500  0.25548300  0.42190000  1
  C  C77  1  0.00715800  0.79022100  0.09920900  1
  C  C78  1  0.99284200  0.20977900  0.90079100  1
  C  C79  1  0.50715800  0.20977900  0.40079100  1
  C  C80  1  0.49284200  0.79022100  0.59920900  1
  C  C81  1  0.57949100  0.69372800  0.39972800  1
  C  C82  1  0.50475500  0.74451700  0.07810000  1
  C  C83  1  0.92050900  0.69372800  0.89972800  1
  C  C84  1  0.07949100  0.30627200  0.10027200  1
  C  C85  1  0.49524500  0.25548300  0.92190000  1
  C  C86  1  0.99524500  0.74451700  0.57810000  1
  C  C87  1  0.42050900  0.30627200  0.60027200  1
  Cu  Cu88  1  0.24774800  0.54289100  0.97165300  1
  Cu  Cu89  1  0.25545100  0.96233100  0.47646900  1
  Cu  Cu90  1  0.74774800  0.45710900  0.52834700  1
  Cu  Cu91  1  0.75225200  0.45710900  0.02834700  1
  Cu  Cu92  1  0.24454900  0.96233100  0.97646900  1
  Cu  Cu93  1  0.74454900  0.03766900  0.52353100  1
  Cu  Cu94  1  0.25225200  0.54289100  0.47165300  1
  Cu  Cu95  1  0.75545100  0.03766900  0.02353100  1
