# generated using pymatgen
data_Cu6NiC10
_symmetry_space_group_name_H-M   'P 1'
_cell_length_a   5.69545108
_cell_length_b   5.69545108
_cell_length_c   23.53420219
_cell_angle_alpha   83.06080576
_cell_angle_beta   83.06080576
_cell_angle_gamma   60.35289973
_symmetry_Int_Tables_number   1
_chemical_formula_structural   Cu6NiC10
_chemical_formula_sum   'Cu24 Ni4 C40'
_cell_volume   656.95646143
_cell_formula_units_Z   4
loop_
 _symmetry_equiv_pos_site_id
 _symmetry_equiv_pos_as_xyz
  1  'x, y, z'
loop_
 _atom_site_type_symbol
 _atom_site_label
 _atom_site_symmetry_multiplicity
 _atom_site_fract_x
 _atom_site_fract_y
 _atom_site_fract_z
 _atom_site_occupancy
  Ni  Ni0  1  0.74265000  0.74265000  0.75768700  1
  Ni  Ni1  1  0.14932800  0.14932800  0.54955100  1
  Ni  Ni2  1  0.79921100  0.79921100  0.60296900  1
  Ni  Ni3  1  0.20053000  0.20053000  0.40051100  1
  Cu  Cu4  1  0.00734900  0.00734900  0.99453100  1
  Cu  Cu5  1  0.34524400  0.34524400  0.95092500  1
  Cu  Cu6  1  0.68805500  0.68805500  0.96945900  1
  Cu  Cu7  1  0.37444400  0.87488000  0.87493800  1
  Cu  Cu8  1  0.27180900  0.27180900  0.67657600  1
  Cu  Cu9  1  0.87488000  0.37444400  0.87493800  1
  Cu  Cu10  1  0.40591800  0.40591800  0.80165100  1
  Cu  Cu11  1  0.06511800  0.06511800  0.77697300  1
  Cu  Cu12  1  0.77637200  0.27227500  0.67637000  1
  Cu  Cu13  1  0.67650400  0.67650400  0.47437100  1
  Cu  Cu14  1  0.27227500  0.77637200  0.67637000  1
  Cu  Cu15  1  0.47436500  0.47436500  0.57567900  1
  Cu  Cu16  1  0.55167600  0.55167600  0.34435100  1
  Cu  Cu17  1  0.17218600  0.67656700  0.47435600  1
  Cu  Cu18  1  0.67656700  0.17218600  0.47435600  1
  Cu  Cu19  1  0.08267800  0.08267800  0.27111600  1
  Cu  Cu20  1  0.87492500  0.87492500  0.37514200  1
  Cu  Cu21  1  0.56430400  0.08311900  0.27104200  1
  Cu  Cu22  1  0.94891800  0.94891800  0.15185600  1
  Cu  Cu23  1  0.08311900  0.56430400  0.27104200  1
  Cu  Cu24  1  0.47950000  0.47950000  0.07564000  1
  Cu  Cu25  1  0.96877200  0.47756900  0.07599200  1
  Cu  Cu26  1  0.27376800  0.27376800  0.17985700  1
  Cu  Cu27  1  0.47756900  0.96877200  0.07599200  1
  C  C28  1  0.50377000  0.01189100  0.93099700  1
  C  C29  1  0.01189100  0.50377000  0.93099700  1
  C  C30  1  0.70960500  0.70960500  0.83933500  1
  C  C31  1  0.52880000  0.52880000  0.92901200  1
  C  C32  1  0.21899600  0.21899600  0.82587100  1
  C  C33  1  0.94340700  0.39188700  0.72109900  1
  C  C34  1  0.03705100  0.03705100  0.91966500  1
  C  C35  1  0.74427100  0.24066300  0.82142200  1
  C  C36  1  0.12037500  0.12037500  0.63194600  1
  C  C37  1  0.39188700  0.94340700  0.72109900  1
  C  C38  1  0.24066300  0.74427100  0.82142200  1
  C  C39  1  0.93855100  0.93855100  0.72167900  1
  C  C40  1  0.34607000  0.78879600  0.51960500  1
  C  C41  1  0.60405900  0.60405900  0.62790300  1
  C  C42  1  0.42469800  0.42469800  0.72169300  1
  C  C43  1  0.16326100  0.60292000  0.62765900  1
  C  C44  1  0.78879600  0.34607000  0.51960500  1
  C  C45  1  0.52479800  0.52479800  0.42412400  1
  C  C46  1  0.60292000  0.16326100  0.62765900  1
  C  C47  1  0.34506200  0.34506200  0.51941300  1
  C  C48  1  0.00607100  0.00607100  0.42739000  1
  C  C49  1  0.73818200  0.20087400  0.32336700  1
  C  C50  1  0.82761900  0.82761900  0.51777000  1
  C  C51  1  0.56134600  0.00502000  0.42728300  1
  C  C52  1  0.20087400  0.73818200  0.32336700  1
  C  C53  1  0.92324900  0.92324900  0.23005200  1
  C  C54  1  0.00502000  0.56134600  0.42728300  1
  C  C55  1  0.73784300  0.73784300  0.32328200  1
  C  C56  1  0.13518400  0.60686800  0.12364300  1
  C  C57  1  0.40805900  0.40805900  0.22814900  1
  C  C58  1  0.22755400  0.22755400  0.31878600  1
  C  C59  1  0.60686800  0.13518400  0.12364300  1
  C  C60  1  0.95801400  0.40680700  0.22811600  1
  C  C61  1  0.32283600  0.32283600  0.03329400  1
  C  C62  1  0.13489200  0.13489200  0.12378300  1
  C  C63  1  0.40680700  0.95801400  0.22811600  1
  C  C64  1  0.82093300  0.82093300  0.02492800  1
  C  C65  1  0.63165000  0.63165000  0.11156000  1
  C  C66  1  0.33731300  0.81680600  0.02737800  1
  C  C67  1  0.81680600  0.33731300  0.02737800  1
