# generated using pymatgen
data_Cu3NiC14
_symmetry_space_group_name_H-M   'P 1'
_cell_length_a   9.15501490
_cell_length_b   9.15501490
_cell_length_c   9.15501480
_cell_angle_alpha   55.95127826
_cell_angle_beta   55.95127826
_cell_angle_gamma   55.95127987
_symmetry_Int_Tables_number   1
_chemical_formula_structural   Cu3NiC14
_chemical_formula_sum   'Cu6 Ni2 C28'
_cell_volume   491.67462653
_cell_formula_units_Z   2
loop_
 _symmetry_equiv_pos_site_id
 _symmetry_equiv_pos_as_xyz
  1  'x, y, z'
loop_
 _atom_site_type_symbol
 _atom_site_label
 _atom_site_symmetry_multiplicity
 _atom_site_fract_x
 _atom_site_fract_y
 _atom_site_fract_z
 _atom_site_occupancy
  C  C0  1  0.00000000  0.00000000  0.00000000  1
  C  C1  1  0.50000000  0.50000000  0.50000000  1
  C  C2  1  0.84993500  0.84993500  0.84993500  1
  C  C3  1  0.15006500  0.15006500  0.15006500  1
  Ni  Ni4  1  0.35075200  0.35075200  0.35075200  1
  Ni  Ni5  1  0.64924800  0.64924800  0.64924800  1
  Cu  Cu6  1  0.53957300  0.96053900  0.24489300  1
  Cu  Cu7  1  0.03946100  0.75510700  0.46042700  1
  Cu  Cu8  1  0.75510700  0.46042700  0.03946100  1
  Cu  Cu9  1  0.96053900  0.24489300  0.53957300  1
  Cu  Cu10  1  0.46042700  0.03946100  0.75510700  1
  Cu  Cu11  1  0.24489300  0.53957300  0.96053900  1
  C  C12  1  0.71916700  0.47551300  0.88341600  1
  C  C13  1  0.11658400  0.28083300  0.52448700  1
  C  C14  1  0.35871300  0.98297300  0.25041000  1
  C  C15  1  0.70899600  0.95512100  0.05810700  1
  C  C16  1  0.25041000  0.35871300  0.98297300  1
  C  C17  1  0.59069600  0.76732900  0.40697200  1
  C  C18  1  0.28083300  0.52448700  0.11658400  1
  C  C19  1  0.40930400  0.23267100  0.59302800  1
  C  C20  1  0.23267100  0.59302800  0.40930400  1
  C  C21  1  0.59302800  0.40930400  0.23267100  1
  C  C22  1  0.94189300  0.29100400  0.04487900  1
  C  C23  1  0.40697200  0.59069600  0.76732900  1
  C  C24  1  0.04487900  0.94189300  0.29100400  1
  C  C25  1  0.29100400  0.04487900  0.94189300  1
  C  C26  1  0.76732900  0.40697200  0.59069600  1
  C  C27  1  0.47551300  0.88341600  0.71916700  1
  C  C28  1  0.74959000  0.64128700  0.01702700  1
  C  C29  1  0.95512100  0.05810700  0.70899600  1
  C  C30  1  0.01702700  0.74959000  0.64128700  1
  C  C31  1  0.05810700  0.70899600  0.95512100  1
  C  C32  1  0.64128700  0.01702700  0.74959000  1
  C  C33  1  0.98297300  0.25041000  0.35871300  1
  C  C34  1  0.88341600  0.71916700  0.47551300  1
  C  C35  1  0.52448700  0.11658400  0.28083300  1
