# generated using pymatgen
data_CuNiC7
_symmetry_space_group_name_H-M   'P 1'
_cell_length_a   16.59466200
_cell_length_b   5.42613300
_cell_length_c   20.04586758
_cell_angle_alpha   89.65729856
_cell_angle_beta   90.00000000
_cell_angle_gamma   90.00000000
_symmetry_Int_Tables_number   1
_chemical_formula_structural   CuNiC7
_chemical_formula_sum   'Cu12 Ni12 C84'
_cell_volume   1804.99471281
_cell_formula_units_Z   12
loop_
 _symmetry_equiv_pos_site_id
 _symmetry_equiv_pos_as_xyz
  1  'x, y, z'
loop_
 _atom_site_type_symbol
 _atom_site_label
 _atom_site_symmetry_multiplicity
 _atom_site_fract_x
 _atom_site_fract_y
 _atom_site_fract_z
 _atom_site_occupancy
  C  C0  1  0.12446300  0.97609700  0.98764900  1
  C  C1  1  0.65823100  0.60243600  0.72343900  1
  C  C2  1  0.62446300  0.52390300  0.51235100  1
  C  C3  1  0.87553700  0.02390300  0.01235100  1
  C  C4  1  0.84176900  0.10243600  0.22343900  1
  C  C5  1  0.15823100  0.89756400  0.77656100  1
  C  C6  1  0.34176900  0.39756400  0.27656100  1
  C  C7  1  0.37553700  0.47609700  0.48764900  1
  C  C8  1  0.26772000  0.96917900  0.57498900  1
  C  C9  1  0.23228000  0.46917900  0.07498900  1
  C  C10  1  0.76772000  0.53082100  0.92501100  1
  C  C11  1  0.73228000  0.03082100  0.42501100  1
  Ni  Ni12  1  0.41038600  0.95189200  0.09718000  1
  Ni  Ni13  1  0.08961400  0.45189200  0.59718000  1
  Ni  Ni14  1  0.85862400  0.08307600  0.61022100  1
  Ni  Ni15  1  0.91038600  0.54810800  0.40282000  1
  Ni  Ni16  1  0.64137600  0.58307600  0.11022100  1
  Ni  Ni17  1  0.94809900  0.39523200  0.80612600  1
  Ni  Ni18  1  0.44809900  0.10476800  0.69387400  1
  Ni  Ni19  1  0.55190100  0.89523200  0.30612600  1
  Ni  Ni20  1  0.14137600  0.91692400  0.38977900  1
  Ni  Ni21  1  0.35862400  0.41692400  0.88977900  1
  Ni  Ni22  1  0.58961400  0.04810800  0.90282000  1
  Ni  Ni23  1  0.05190100  0.60476800  0.19387400  1
  Cu  Cu24  1  0.74947900  0.04494200  0.58957000  1
  Cu  Cu25  1  0.46702400  0.98952800  0.60746900  1
  Cu  Cu26  1  0.24947900  0.45505800  0.91043000  1
  Cu  Cu27  1  0.25052100  0.95505800  0.41043000  1
  Cu  Cu28  1  0.80702900  0.53170600  0.36584300  1
  Cu  Cu29  1  0.03297600  0.48952800  0.10746900  1
  Cu  Cu30  1  0.75052100  0.54494200  0.08957000  1
  Cu  Cu31  1  0.53297600  0.01047200  0.39253100  1
  Cu  Cu32  1  0.96702400  0.51047200  0.89253100  1
  Cu  Cu33  1  0.19297100  0.46829400  0.63415700  1
  Cu  Cu34  1  0.30702900  0.96829400  0.13415700  1
  Cu  Cu35  1  0.69297100  0.03170600  0.86584300  1
  C  C36  1  0.31688800  0.86859000  0.20118200  1
  C  C37  1  0.75486000  0.61544000  0.01870300  1
  C  C38  1  0.70733700  0.21480500  0.63337500  1
  C  C39  1  0.99847700  0.29646600  0.92840200  1
  C  C40  1  0.61363900  0.08604000  0.41491800  1
  C  C41  1  0.18311200  0.36859000  0.70118200  1
  C  C42  1  0.25486000  0.88456000  0.48129700  1
  C  C43  1  0.97674400  0.28622300  0.11699800  1
  C  C44  1  0.79266300  0.71480500  0.13337500  1
  C  C45  1  0.74514000  0.11544000  0.51870300  1
  C  C46  1  0.49847700  0.20353400  0.57159800  1
  C  C47  1  0.24288600  0.32121500  0.58903100  1
  C  C48  1  0.26614100  0.21589300  0.39784400  1
  C  C49  1  0.73385900  0.78410700  0.60215600  1
  C  C50  1  0.76614100  0.28410700  0.10215600  1
  C  C51  1  0.38636100  0.91396000  0.58508200  1
  C  C52  1  0.88636100  0.58604000  0.91491800  1
  C  C53  1  0.20733700  0.28519500  0.86662500  1
  C  C54  1  0.11363900  0.41396000  0.08508200  1
  C  C55  1  0.29266300  0.78519500  0.36662500  1
  C  C56  1  0.24514000  0.38456000  0.98129700  1
  C  C57  1  0.81688800  0.63141000  0.29881800  1
  C  C58  1  0.21178900  0.73266900  0.63280800  1
  C  C59  1  0.68311200  0.13141000  0.79881800  1
  C  C60  1  0.00152300  0.70353400  0.07159800  1
  C  C61  1  0.52325600  0.78622300  0.61699800  1
  C  C62  1  0.02325600  0.71377700  0.88300200  1
  C  C63  1  0.78821100  0.26733100  0.36719200  1
  C  C64  1  0.28821100  0.23266900  0.13280800  1
  C  C65  1  0.75711400  0.67878500  0.41096900  1
  C  C66  1  0.50152300  0.79646600  0.42840200  1
  C  C67  1  0.23385900  0.71589300  0.89784400  1
  C  C68  1  0.47674400  0.21377700  0.38300200  1
  C  C69  1  0.74288600  0.17878500  0.91096900  1
  C  C70  1  0.25711400  0.82121500  0.08903100  1
  C  C71  1  0.71178900  0.76733100  0.86719200  1
  C  C72  1  0.46166100  0.08991400  0.13417600  1
  C  C73  1  0.37954500  0.17619100  0.89226100  1
  C  C74  1  0.87954500  0.32380900  0.60773900  1
  C  C75  1  0.87331600  0.99677300  0.67277900  1
  C  C76  1  0.93627300  0.78501400  0.40210000  1
  C  C77  1  0.06372700  0.21498600  0.59790000  1
  C  C78  1  0.08892300  0.53634500  0.53387100  1
  C  C79  1  0.12045500  0.67619100  0.39226100  1
  C  C80  1  0.91107700  0.46365500  0.46612900  1
  C  C81  1  0.53833900  0.91008600  0.86582400  1
  C  C82  1  0.62045500  0.82380900  0.10773900  1
  C  C83  1  0.56372700  0.28501400  0.90210000  1
  C  C84  1  0.37331600  0.50322700  0.82722100  1
  C  C85  1  0.62668400  0.49677300  0.17277900  1
  C  C86  1  0.59512900  0.45623600  0.06682100  1
  C  C87  1  0.90487100  0.95623600  0.56682100  1
  C  C88  1  0.03833900  0.58991400  0.63417600  1
  C  C89  1  0.12668400  0.00322700  0.32722100  1
  C  C90  1  0.51874700  0.17688600  0.72265500  1
  C  C91  1  0.60250300  0.70021800  0.30727800  1
  C  C92  1  0.96166100  0.41008600  0.36582400  1
  C  C93  1  0.89749700  0.20021800  0.80727800  1
  C  C94  1  0.58892300  0.96365500  0.96612900  1
  C  C95  1  0.48125300  0.82311400  0.27734500  1
  C  C96  1  0.43627300  0.71498600  0.09790000  1
  C  C97  1  0.58455500  0.07455800  0.26742600  1
  C  C98  1  0.98125300  0.67688600  0.22265500  1
  C  C99  1  0.10250300  0.79978200  0.19272200  1
  C  C100  1  0.08455500  0.42544200  0.23257400  1
  C  C101  1  0.40487100  0.54376400  0.93317900  1
  C  C102  1  0.39749700  0.29978200  0.69272200  1
  C  C103  1  0.09512900  0.04376400  0.43317900  1
  C  C104  1  0.91544500  0.57455800  0.76742600  1
  C  C105  1  0.01874700  0.32311400  0.77734500  1
  C  C106  1  0.41107700  0.03634500  0.03387100  1
  C  C107  1  0.41544500  0.92544200  0.73257400  1
