# generated using pymatgen
data_Cu8Ni2C3
_symmetry_space_group_name_H-M   'P 1'
_cell_length_a   16.34075300
_cell_length_b   9.29594300
_cell_length_c   19.98991614
_cell_angle_alpha   67.72207661
_cell_angle_beta   90.00000000
_cell_angle_gamma   90.00000000
_symmetry_Int_Tables_number   1
_chemical_formula_structural   Cu8Ni2C3
_chemical_formula_sum   'Cu64 Ni16 C24'
_cell_volume   2809.86379401
_cell_formula_units_Z   8
loop_
 _symmetry_equiv_pos_site_id
 _symmetry_equiv_pos_as_xyz
  1  'x, y, z'
loop_
 _atom_site_type_symbol
 _atom_site_label
 _atom_site_symmetry_multiplicity
 _atom_site_fract_x
 _atom_site_fract_y
 _atom_site_fract_z
 _atom_site_occupancy
  C  C0  1  0.03299400  0.17144600  0.73060000  1
  C  C1  1  0.89471400  0.28041200  0.93290400  1
  C  C2  1  0.49405800  0.71284400  0.08220900  1
  C  C3  1  0.39471400  0.71958800  0.56709600  1
  C  C4  1  0.96700600  0.82855400  0.26940000  1
  C  C5  1  0.10528600  0.71958800  0.06709600  1
  C  C6  1  0.46700600  0.17144600  0.23060000  1
  C  C7  1  0.60528600  0.28041200  0.43290400  1
  C  C8  1  0.53299400  0.82855400  0.76940000  1
  C  C9  1  0.00594200  0.71284400  0.58220900  1
  C  C10  1  0.50594200  0.28715600  0.91779100  1
  C  C11  1  0.99405800  0.28715600  0.41779100  1
  C  C12  1  0.76078800  0.50485400  0.18264000  1
  C  C13  1  0.77234000  0.04765100  0.66368100  1
  C  C14  1  0.72509200  0.77154800  0.41406800  1
  C  C15  1  0.73921200  0.50485400  0.68264000  1
  C  C16  1  0.27490800  0.22845200  0.58593200  1
  C  C17  1  0.26078800  0.49514600  0.31736000  1
  C  C18  1  0.72766000  0.04765100  0.16368100  1
  C  C19  1  0.23921200  0.49514600  0.81736000  1
  C  C20  1  0.22509200  0.22845200  0.08593200  1
  C  C21  1  0.27234000  0.95234900  0.83631900  1
  C  C22  1  0.77490800  0.77154800  0.91406800  1
  C  C23  1  0.22766000  0.95234900  0.33631900  1
  Ni  Ni24  1  0.35612000  0.16272300  0.41763900  1
  Ni  Ni25  1  0.18998600  0.59170300  0.46822200  1
  Ni  Ni26  1  0.64388000  0.83727700  0.58236100  1
  Ni  Ni27  1  0.85612000  0.83727700  0.08236100  1
  Ni  Ni28  1  0.81001400  0.40829700  0.53177800  1
  Ni  Ni29  1  0.70472500  0.15313000  0.81047600  1
  Ni  Ni30  1  0.20472500  0.84687000  0.68952400  1
  Ni  Ni31  1  0.31001400  0.59170300  0.96822200  1
  Ni  Ni32  1  0.79527500  0.15313000  0.31047600  1
  Ni  Ni33  1  0.62481400  0.71732000  0.26808300  1
  Ni  Ni34  1  0.14388000  0.16272300  0.91763900  1
  Ni  Ni35  1  0.68998600  0.40829700  0.03177800  1
  Ni  Ni36  1  0.87518600  0.71732000  0.76808300  1
  Ni  Ni37  1  0.29527500  0.84687000  0.18952400  1
  Ni  Ni38  1  0.37518600  0.28268000  0.73191700  1
  Ni  Ni39  1  0.12481400  0.28268000  0.23191700  1
  Cu  Cu40  1  0.75183900  0.74552400  0.27416900  1
  Cu  Cu41  1  0.70503800  0.35451100  0.82809900  1
  Cu  Cu42  1  0.69035100  0.20295800  0.01768800  1
  Cu  Cu43  1  0.61815700  0.02072900  0.61164700  1
  Cu  Cu44  1  0.73008000  0.80965500  0.08985200  1
  Cu  Cu45  1  0.37040000  0.41343700  0.04602800  1
  Cu  Cu46  1  0.89598900  0.87902100  0.97994900  1
  Cu  Cu47  1  0.18005000  0.93336300  0.19567500  1
  Cu  Cu48  1  0.11815700  0.97927100  0.88835300  1
  Cu  Cu49  1  0.87040000  0.58656300  0.45397200  1
  Cu  Cu50  1  0.14409200  0.02606600  0.61204900  1
  Cu  Cu51  1  0.39598900  0.12097900  0.52005100  1
  Cu  Cu52  1  0.12960000  0.41343700  0.54602800  1
  Cu  Cu53  1  0.76992000  0.80965500  0.58985200  1
  Cu  Cu54  1  0.68005000  0.06663700  0.30432500  1
  Cu  Cu55  1  0.81995000  0.06663700  0.80432500  1
  Cu  Cu56  1  0.62960000  0.58656300  0.95397200  1
  Cu  Cu57  1  0.39400800  0.46648700  0.76243600  1
  Cu  Cu58  1  0.58945600  0.64046500  0.65515600  1
  Cu  Cu59  1  0.30482500  0.50463200  0.46235800  1
  Cu  Cu60  1  0.85800900  0.34509100  0.63524500  1
  Cu  Cu61  1  0.85590800  0.97393400  0.38795100  1
  Cu  Cu62  1  0.34488600  0.78289000  0.29169500  1
  Cu  Cu63  1  0.65511400  0.21711000  0.70830500  1
  Cu  Cu64  1  0.19035100  0.79704200  0.48231200  1
  Cu  Cu65  1  0.92331300  0.91210800  0.68857000  1
  Cu  Cu66  1  0.80482500  0.49536800  0.03764200  1
  Cu  Cu67  1  0.15511400  0.78289000  0.79169500  1
  Cu  Cu68  1  0.60401100  0.87902100  0.47994900  1
  Cu  Cu69  1  0.24816100  0.25447600  0.72583100  1
  Cu  Cu70  1  0.23008000  0.19034500  0.41014800  1
  Cu  Cu71  1  0.84488600  0.21711000  0.20830500  1
  Cu  Cu72  1  0.31995000  0.93336300  0.69567500  1
  Cu  Cu73  1  0.10599200  0.46648700  0.26243600  1
  Cu  Cu74  1  0.35590800  0.02606600  0.11204900  1
  Cu  Cu75  1  0.80964900  0.20295800  0.51768800  1
  Cu  Cu76  1  0.19517500  0.50463200  0.96235800  1
  Cu  Cu77  1  0.89400800  0.53351300  0.73756400  1
  Cu  Cu78  1  0.30964900  0.79704200  0.98231200  1
  Cu  Cu79  1  0.58077300  0.68512100  0.36755500  1
  Cu  Cu80  1  0.79496200  0.35451100  0.32809900  1
  Cu  Cu81  1  0.64199100  0.34509100  0.13524500  1
  Cu  Cu82  1  0.10401100  0.12097900  0.02005100  1
  Cu  Cu83  1  0.07668700  0.08789200  0.31143000  1
  Cu  Cu84  1  0.69517500  0.49536800  0.53764200  1
  Cu  Cu85  1  0.14199100  0.65490900  0.36475500  1
  Cu  Cu86  1  0.41922700  0.31487900  0.63244500  1
  Cu  Cu87  1  0.25183900  0.25447600  0.22583100  1
  Cu  Cu88  1  0.08077300  0.31487900  0.13244500  1
  Cu  Cu89  1  0.57668700  0.91210800  0.18857000  1
  Cu  Cu90  1  0.08945600  0.35953500  0.84484400  1
  Cu  Cu91  1  0.91922700  0.68512100  0.86755500  1
  Cu  Cu92  1  0.88184300  0.02072900  0.11164700  1
  Cu  Cu93  1  0.91054400  0.64046500  0.15515600  1
  Cu  Cu94  1  0.42331300  0.08789200  0.81143000  1
  Cu  Cu95  1  0.60599200  0.53351300  0.23756400  1
  Cu  Cu96  1  0.64409200  0.97393400  0.88795100  1
  Cu  Cu97  1  0.38184300  0.97927100  0.38835300  1
  Cu  Cu98  1  0.26992000  0.19034500  0.91014800  1
  Cu  Cu99  1  0.35800900  0.65490900  0.86475500  1
  Cu  Cu100  1  0.29496200  0.64548900  0.17190100  1
  Cu  Cu101  1  0.74816100  0.74552400  0.77416900  1
  Cu  Cu102  1  0.20503800  0.64548900  0.67190100  1
  Cu  Cu103  1  0.41054400  0.35953500  0.34484400  1
