# generated using pymatgen
data_Cu(Ni3C)2
_symmetry_space_group_name_H-M   'P 1'
_cell_length_a   22.02297900
_cell_length_b   6.89123800
_cell_length_c   7.58932057
_cell_angle_alpha   65.54637701
_cell_angle_beta   90.00000000
_cell_angle_gamma   90.00000000
_symmetry_Int_Tables_number   1
_chemical_formula_structural   Cu(Ni3C)2
_chemical_formula_sum   'Cu4 Ni24 C8'
_cell_volume   1048.47758511
_cell_formula_units_Z   4
loop_
 _symmetry_equiv_pos_site_id
 _symmetry_equiv_pos_as_xyz
  1  'x, y, z'
loop_
 _atom_site_type_symbol
 _atom_site_label
 _atom_site_symmetry_multiplicity
 _atom_site_fract_x
 _atom_site_fract_y
 _atom_site_fract_z
 _atom_site_occupancy
  C  C0  1  0.57064600  0.49398900  0.15309200  1
  C  C1  1  0.92935400  0.49398900  0.65309200  1
  C  C2  1  0.07064600  0.50601100  0.34690800  1
  C  C3  1  0.42935400  0.50601100  0.84690800  1
  C  C4  1  0.63970800  0.87185700  0.67858100  1
  C  C5  1  0.86029200  0.87185700  0.17858100  1
  C  C6  1  0.13970800  0.12814300  0.82141900  1
  C  C7  1  0.36029200  0.12814300  0.32141900  1
  Ni  Ni8  1  0.10347300  0.25214800  0.26152900  1
  Ni  Ni9  1  0.46743100  0.72730800  0.56683300  1
  Ni  Ni10  1  0.32482600  0.89778400  0.24024400  1
  Ni  Ni11  1  0.84240400  0.32338600  0.66111900  1
  Ni  Ni12  1  0.17517400  0.89778400  0.74024400  1
  Ni  Ni13  1  0.96743100  0.27269200  0.93316700  1
  Ni  Ni14  1  0.53256900  0.27269200  0.43316700  1
  Ni  Ni15  1  0.82482600  0.10221600  0.25975600  1
  Ni  Ni16  1  0.03256900  0.72730800  0.06683300  1
  Ni  Ni17  1  0.67517400  0.10221600  0.75975600  1
  Ni  Ni18  1  0.39652700  0.25214800  0.76152900  1
  Ni  Ni19  1  0.15759600  0.67661400  0.33888100  1
  Ni  Ni20  1  0.28035900  0.29183300  0.31692100  1
  Ni  Ni21  1  0.65759600  0.32338600  0.16111900  1
  Ni  Ni22  1  0.52499300  0.30823300  0.96462700  1
  Ni  Ni23  1  0.34240400  0.67661400  0.83888100  1
  Ni  Ni24  1  0.78035900  0.70816700  0.18307900  1
  Ni  Ni25  1  0.89652700  0.74785200  0.73847100  1
  Ni  Ni26  1  0.60347300  0.74785200  0.23847100  1
  Ni  Ni27  1  0.21964100  0.29183300  0.81692100  1
  Ni  Ni28  1  0.97500700  0.30823300  0.46462700  1
  Ni  Ni29  1  0.71964100  0.70816700  0.68307900  1
  Ni  Ni30  1  0.47500700  0.69176700  0.03537300  1
  Ni  Ni31  1  0.02499300  0.69176700  0.53537300  1
  Cu  Cu32  1  0.10106800  0.27001200  0.66378700  1
  Cu  Cu33  1  0.60106800  0.72998800  0.83621300  1
  Cu  Cu34  1  0.39893200  0.27001200  0.16378700  1
  Cu  Cu35  1  0.89893200  0.72998800  0.33621300  1
