# generated using pymatgen
data_CuNiC2
_symmetry_space_group_name_H-M   'P 1'
_cell_length_a   12.91951100
_cell_length_b   8.10238700
_cell_length_c   14.73135255
_cell_angle_alpha   75.50930441
_cell_angle_beta   90.00000000
_cell_angle_gamma   90.00000000
_symmetry_Int_Tables_number   1
_chemical_formula_structural   CuNiC2
_chemical_formula_sum   'Cu16 Ni16 C32'
_cell_volume   1493.00584048
_cell_formula_units_Z   16
loop_
 _symmetry_equiv_pos_site_id
 _symmetry_equiv_pos_as_xyz
  1  'x, y, z'
loop_
 _atom_site_type_symbol
 _atom_site_label
 _atom_site_symmetry_multiplicity
 _atom_site_fract_x
 _atom_site_fract_y
 _atom_site_fract_z
 _atom_site_occupancy
  C  C0  1  0.74707000  0.53561200  0.97570800  1
  C  C1  1  0.25293000  0.46438800  0.02429200  1
  C  C2  1  0.99088000  0.34196000  0.30182400  1
  C  C3  1  0.74252100  0.08991100  0.48031900  1
  C  C4  1  0.75293000  0.03561200  0.97570800  1
  C  C5  1  0.24707000  0.96438800  0.02429200  1
  C  C6  1  0.75747900  0.58991100  0.48031900  1
  C  C7  1  0.50912000  0.84196000  0.30182400  1
  C  C8  1  0.00912000  0.65804000  0.69817600  1
  C  C9  1  0.49088000  0.15804000  0.69817600  1
  C  C10  1  0.25747900  0.91008900  0.51968100  1
  C  C11  1  0.24252100  0.41008900  0.51968100  1
  C  C12  1  0.48715700  0.36533400  0.22325400  1
  C  C13  1  0.98715700  0.13466600  0.77674600  1
  C  C14  1  0.01284300  0.86533400  0.22325400  1
  C  C15  1  0.51284300  0.63466600  0.77674600  1
  Ni  Ni16  1  0.27409500  0.78659900  0.77471500  1
  Ni  Ni17  1  0.72590500  0.21340100  0.22528500  1
  Ni  Ni18  1  0.74588400  0.80134900  0.69000200  1
  Ni  Ni19  1  0.25411600  0.19865100  0.30999800  1
  Ni  Ni20  1  0.96695000  0.23266900  0.05884800  1
  Ni  Ni21  1  0.24588400  0.69865100  0.30999800  1
  Ni  Ni22  1  0.03305000  0.76733100  0.94115200  1
  Ni  Ni23  1  0.53305000  0.73266900  0.05884800  1
  Ni  Ni24  1  0.77409500  0.71340100  0.22528500  1
  Ni  Ni25  1  0.22590500  0.28659900  0.77471500  1
  Ni  Ni26  1  0.52780200  0.74044300  0.54036500  1
  Ni  Ni27  1  0.02780200  0.75955700  0.45963500  1
  Ni  Ni28  1  0.46695000  0.26733100  0.94115200  1
  Ni  Ni29  1  0.97219800  0.24044300  0.54036500  1
  Ni  Ni30  1  0.47219800  0.25955700  0.45963500  1
  Ni  Ni31  1  0.75411600  0.30134900  0.69000200  1
  Cu  Cu32  1  0.55411700  0.37998700  0.38680300  1
  Cu  Cu33  1  0.63226800  0.21721000  0.14858000  1
  Cu  Cu34  1  0.93202200  0.82776000  0.87264000  1
  Cu  Cu35  1  0.17278300  0.67217300  0.22319800  1
  Cu  Cu36  1  0.43202200  0.67224000  0.12736000  1
  Cu  Cu37  1  0.94588300  0.87998700  0.38680300  1
  Cu  Cu38  1  0.06797800  0.17224000  0.12736000  1
  Cu  Cu39  1  0.56797800  0.32776000  0.87264000  1
  Cu  Cu40  1  0.67278300  0.82782700  0.77680200  1
  Cu  Cu41  1  0.32721700  0.17217300  0.22319800  1
  Cu  Cu42  1  0.86773200  0.71721000  0.14858000  1
  Cu  Cu43  1  0.44588300  0.62001300  0.61319700  1
  Cu  Cu44  1  0.13226800  0.28279000  0.85142000  1
  Cu  Cu45  1  0.05411700  0.12001300  0.61319700  1
  Cu  Cu46  1  0.36773200  0.78279000  0.85142000  1
  Cu  Cu47  1  0.82721700  0.32782700  0.77680200  1
  C  C48  1  0.30016900  0.71646800  0.37187000  1
  C  C49  1  0.10527400  0.72186300  0.99050500  1
  C  C50  1  0.70739300  0.71030100  0.28077500  1
  C  C51  1  0.58603800  0.82656300  0.48616500  1
  C  C52  1  0.69983100  0.28353200  0.62813000  1
  C  C53  1  0.08603800  0.67343700  0.51383500  1
  C  C54  1  0.19983100  0.21646800  0.37187000  1
  C  C55  1  0.89472600  0.27813700  0.00949500  1
  C  C56  1  0.41396200  0.17343700  0.51383500  1
  C  C57  1  0.20739300  0.78969900  0.71922500  1
  C  C58  1  0.39472600  0.22186300  0.99050500  1
  C  C59  1  0.60527400  0.77813700  0.00949500  1
  C  C60  1  0.80016900  0.78353200  0.62813000  1
  C  C61  1  0.79260700  0.21030100  0.28077500  1
  C  C62  1  0.29260700  0.28969900  0.71922500  1
  C  C63  1  0.91396200  0.32656300  0.48616500  1
