# generated using pymatgen
data_Cu11Ni3C2
_symmetry_space_group_name_H-M   'P 1'
_cell_length_a   8.75884388
_cell_length_b   8.75884388
_cell_length_c   8.75884413
_cell_angle_alpha   68.59567669
_cell_angle_beta   68.59567669
_cell_angle_gamma   68.59568151
_symmetry_Int_Tables_number   1
_chemical_formula_structural   Cu11Ni3C2
_chemical_formula_sum   'Cu22 Ni6 C4'
_cell_volume   561.25481847
_cell_formula_units_Z   2
loop_
 _symmetry_equiv_pos_site_id
 _symmetry_equiv_pos_as_xyz
  1  'x, y, z'
loop_
 _atom_site_type_symbol
 _atom_site_label
 _atom_site_symmetry_multiplicity
 _atom_site_fract_x
 _atom_site_fract_y
 _atom_site_fract_z
 _atom_site_occupancy
  C  C0  1  0.50000000  0.50000000  0.50000000  1
  C  C1  1  0.00000000  0.00000000  0.00000000  1
  C  C2  1  0.75000000  0.75000000  0.75000000  1
  C  C3  1  0.25000000  0.25000000  0.25000000  1
  Ni  Ni4  1  0.45164800  0.04835200  0.75000000  1
  Ni  Ni5  1  0.04835200  0.75000000  0.45164800  1
  Ni  Ni6  1  0.75000000  0.45164800  0.04835200  1
  Ni  Ni7  1  0.54835200  0.95164800  0.25000000  1
  Ni  Ni8  1  0.95164800  0.25000000  0.54835200  1
  Ni  Ni9  1  0.25000000  0.54835200  0.95164800  1
  Cu  Cu10  1  0.65986800  0.65986800  0.65986800  1
  Cu  Cu11  1  0.84013200  0.84013200  0.84013200  1
  Cu  Cu12  1  0.34013200  0.34013200  0.34013200  1
  Cu  Cu13  1  0.15986800  0.15986800  0.15986800  1
  Cu  Cu14  1  0.32723200  0.17276800  0.75000000  1
  Cu  Cu15  1  0.17276800  0.75000000  0.32723200  1
  Cu  Cu16  1  0.75000000  0.32723200  0.17276800  1
  Cu  Cu17  1  0.67276800  0.82723200  0.25000000  1
  Cu  Cu18  1  0.82723200  0.25000000  0.67276800  1
  Cu  Cu19  1  0.25000000  0.67276800  0.82723200  1
  Cu  Cu20  1  0.58963300  0.04613700  0.62733000  1
  Cu  Cu21  1  0.04613700  0.62733000  0.58963300  1
  Cu  Cu22  1  0.62733000  0.58963300  0.04613700  1
  Cu  Cu23  1  0.45386300  0.91036700  0.87267000  1
  Cu  Cu24  1  0.91036700  0.87267000  0.45386300  1
  Cu  Cu25  1  0.87267000  0.45386300  0.91036700  1
  Cu  Cu26  1  0.41036700  0.95386300  0.37267000  1
  Cu  Cu27  1  0.95386300  0.37267000  0.41036700  1
  Cu  Cu28  1  0.37267000  0.41036700  0.95386300  1
  Cu  Cu29  1  0.54613700  0.08963300  0.12733000  1
  Cu  Cu30  1  0.08963300  0.12733000  0.54613700  1
  Cu  Cu31  1  0.12733000  0.54613700  0.08963300  1
