# generated using pymatgen
data_Cu2Ni2C15
_symmetry_space_group_name_H-M   'P 1'
_cell_length_a   10.75163600
_cell_length_b   10.75163600
_cell_length_c   10.75163600
_cell_angle_alpha   90.00000000
_cell_angle_beta   90.00000000
_cell_angle_gamma   90.00000000
_symmetry_Int_Tables_number   1
_chemical_formula_structural   Cu2Ni2C15
_chemical_formula_sum   'Cu8 Ni8 C60'
_cell_volume   1242.86414207
_cell_formula_units_Z   4
loop_
 _symmetry_equiv_pos_site_id
 _symmetry_equiv_pos_as_xyz
  1  'x, y, z'
loop_
 _atom_site_type_symbol
 _atom_site_label
 _atom_site_symmetry_multiplicity
 _atom_site_fract_x
 _atom_site_fract_y
 _atom_site_fract_z
 _atom_site_occupancy
  Ni  Ni0  1  0.55024400  0.44975600  0.94975600  1
  Ni  Ni1  1  0.68406300  0.18406300  0.31593700  1
  Ni  Ni2  1  0.44975600  0.94975600  0.55024400  1
  Ni  Ni3  1  0.81593700  0.81593700  0.81593700  1
  Ni  Ni4  1  0.05024400  0.05024400  0.05024400  1
  Ni  Ni5  1  0.94975600  0.55024400  0.44975600  1
  Ni  Ni6  1  0.31593700  0.68406300  0.18406300  1
  Ni  Ni7  1  0.18406300  0.31593700  0.68406300  1
  Cu  Cu8  1  0.16857700  0.66857700  0.83142300  1
  Cu  Cu9  1  0.83142300  0.16857700  0.66857700  1
  Cu  Cu10  1  0.40780900  0.09219100  0.90780900  1
  Cu  Cu11  1  0.66857700  0.83142300  0.16857700  1
  Cu  Cu12  1  0.09219100  0.90780900  0.40780900  1
  Cu  Cu13  1  0.59219100  0.59219100  0.59219100  1
  Cu  Cu14  1  0.90780900  0.40780900  0.09219100  1
  Cu  Cu15  1  0.33142300  0.33142300  0.33142300  1
  C  C16  1  0.62498000  0.51090200  0.27595600  1
  C  C17  1  0.27595600  0.62498000  0.51090200  1
  C  C18  1  0.51090200  0.27595600  0.62498000  1
  C  C19  1  0.22404400  0.37502000  0.01090200  1
  C  C20  1  0.37502000  0.01090200  0.22404400  1
  C  C21  1  0.87502000  0.48909800  0.77595600  1
  C  C22  1  0.72404400  0.12498000  0.98909800  1
  C  C23  1  0.01090200  0.22404400  0.37502000  1
  C  C24  1  0.77595600  0.87502000  0.48909800  1
  C  C25  1  0.12498000  0.98909800  0.72404400  1
  C  C26  1  0.48909800  0.77595600  0.87502000  1
  C  C27  1  0.98909800  0.72404400  0.12498000  1
  C  C28  1  0.40629900  0.14116700  0.25808500  1
  C  C29  1  0.03937900  0.80999500  0.22116500  1
  C  C30  1  0.90625400  0.82760200  0.49484800  1
  C  C31  1  0.90629900  0.35883300  0.74191500  1
  C  C32  1  0.30999500  0.27883500  0.96062100  1
  C  C33  1  0.17239800  0.99484800  0.59374600  1
  C  C34  1  0.19000500  0.72116500  0.46062100  1
  C  C35  1  0.01136000  0.06736300  0.73687300  1
  C  C36  1  0.73687300  0.01136000  0.06736300  1
  C  C37  1  0.85883300  0.75808500  0.09370100  1
  C  C38  1  0.75808500  0.09370100  0.85883300  1
  C  C39  1  0.82760200  0.49484800  0.90625400  1
  C  C40  1  0.24191500  0.59370100  0.64116700  1
  C  C41  1  0.49484800  0.90625400  0.82760200  1
  C  C42  1  0.74191500  0.90629900  0.35883300  1
  C  C43  1  0.14116700  0.25808500  0.40629900  1
  C  C44  1  0.69000500  0.77883500  0.53937900  1
  C  C45  1  0.56736300  0.76312700  0.98864000  1
  C  C46  1  0.59374600  0.17239800  0.99484800  1
  C  C47  1  0.09374600  0.32760200  0.00515200  1
  C  C48  1  0.50515200  0.40625400  0.67239800  1
  C  C49  1  0.32760200  0.00515200  0.09374600  1
  C  C50  1  0.67239800  0.50515200  0.40625400  1
  C  C51  1  0.80999500  0.22116500  0.03937900  1
  C  C52  1  0.46062100  0.19000500  0.72116500  1
  C  C53  1  0.00515200  0.09374600  0.32760200  1
  C  C54  1  0.77883500  0.53937900  0.69000500  1
  C  C55  1  0.53937900  0.69000500  0.77883500  1
  C  C56  1  0.64116700  0.24191500  0.59370100  1
  C  C57  1  0.43263700  0.26312700  0.51136000  1
  C  C58  1  0.96062100  0.30999500  0.27883500  1
  C  C59  1  0.72116500  0.46062100  0.19000500  1
  C  C60  1  0.99484800  0.59374600  0.17239800  1
  C  C61  1  0.40625400  0.67239800  0.50515200  1
  C  C62  1  0.93263700  0.23687300  0.48864000  1
  C  C63  1  0.22116500  0.03937900  0.80999500  1
  C  C64  1  0.59370100  0.64116700  0.24191500  1
  C  C65  1  0.06736300  0.73687300  0.01136000  1
  C  C66  1  0.27883500  0.96062100  0.30999500  1
  C  C67  1  0.25808500  0.40629900  0.14116700  1
  C  C68  1  0.76312700  0.98864000  0.56736300  1
  C  C69  1  0.98864000  0.56736300  0.76312700  1
  C  C70  1  0.23687300  0.48864000  0.93263700  1
  C  C71  1  0.09370100  0.85883300  0.75808500  1
  C  C72  1  0.26312700  0.51136000  0.43263700  1
  C  C73  1  0.35883300  0.74191500  0.90629900  1
  C  C74  1  0.51136000  0.43263700  0.26312700  1
  C  C75  1  0.48864000  0.93263700  0.23687300  1
