# generated using pymatgen
data_Cu22Ni5C11
_symmetry_space_group_name_H-M   'P 1'
_cell_length_a   12.83114400
_cell_length_b   9.88848900
_cell_length_c   10.78011869
_cell_angle_alpha   73.42816937
_cell_angle_beta   90.00000000
_cell_angle_gamma   90.00000000
_symmetry_Int_Tables_number   1
_chemical_formula_structural   Cu22Ni5C11
_chemical_formula_sum   'Cu44 Ni10 C22'
_cell_volume   1310.97427788
_cell_formula_units_Z   2
loop_
 _symmetry_equiv_pos_site_id
 _symmetry_equiv_pos_as_xyz
  1  'x, y, z'
loop_
 _atom_site_type_symbol
 _atom_site_label
 _atom_site_symmetry_multiplicity
 _atom_site_fract_x
 _atom_site_fract_y
 _atom_site_fract_z
 _atom_site_occupancy
  C  C0  1  0.62219300  0.25909100  0.96765600  1
  C  C1  1  0.36683300  0.24120000  0.50843200  1
  C  C2  1  0.86683300  0.75880000  0.49156800  1
  C  C3  1  0.68246300  0.83144700  0.76941100  1
  C  C4  1  0.18246300  0.16855300  0.23058900  1
  C  C5  1  0.12219300  0.74090900  0.03234400  1
  C  C6  1  0.28291600  0.65164400  0.74411500  1
  C  C7  1  0.78291600  0.34835600  0.25588500  1
  C  C8  1  0.48887300  0.74145100  0.24622700  1
  C  C9  1  0.98887300  0.25854900  0.75377300  1
  C  C10  1  0.96593900  0.41520600  0.83178500  1
  C  C11  1  0.13655500  0.23072900  0.81785100  1
  C  C12  1  0.46593900  0.58479400  0.16821500  1
  C  C13  1  0.34447100  0.73078100  0.32015800  1
  C  C14  1  0.43941900  0.88463900  0.08471700  1
  C  C15  1  0.63655500  0.76927100  0.18214900  1
  C  C16  1  0.93941900  0.11536100  0.91528300  1
  C  C17  1  0.84447100  0.26921900  0.67984200  1
  C  C18  1  0.04004000  0.38612900  0.58457800  1
  C  C19  1  0.54004000  0.61387100  0.41542200  1
  C  C20  1  0.01234200  0.07206300  0.65908500  1
  C  C21  1  0.51234200  0.92793700  0.34091500  1
  Ni  Ni22  1  0.56766800  0.54412300  0.51234400  1
  Ni  Ni23  1  0.45417000  0.49727700  0.12042000  1
  Ni  Ni24  1  0.76490900  0.27005400  0.63401100  1
  Ni  Ni25  1  0.26490900  0.72994600  0.36598900  1
  Ni  Ni26  1  0.71993400  0.78567200  0.14642500  1
  Ni  Ni27  1  0.41208100  0.96695600  0.99431800  1
  Ni  Ni28  1  0.06766800  0.45587700  0.48765600  1
  Ni  Ni29  1  0.95417000  0.50272300  0.87958000  1
  Ni  Ni30  1  0.91208100  0.03304400  0.00568200  1
  Ni  Ni31  1  0.21993400  0.21432800  0.85357500  1
  Cu  Cu32  1  0.77466100  0.95705400  0.82224200  1
  Cu  Cu33  1  0.49109900  0.23923200  0.41354500  1
  Cu  Cu34  1  0.26290300  0.70160800  0.09741200  1
  Cu  Cu35  1  0.76290300  0.29839200  0.90258800  1
  Cu  Cu36  1  0.08513900  0.55075100  0.11012000  1
  Cu  Cu37  1  0.17018400  0.92261100  0.93351600  1
  Cu  Cu38  1  0.72987600  0.75184300  0.42301000  1
  Cu  Cu39  1  0.67018400  0.07738900  0.06648400  1
  Cu  Cu40  1  0.21825600  0.81258900  0.63295600  1
  Cu  Cu41  1  0.92846400  0.68474800  0.36548000  1
  Cu  Cu42  1  0.38142300  0.05028500  0.60503100  1
  Cu  Cu43  1  0.22987600  0.24815700  0.57699000  1
  Cu  Cu44  1  0.10454800  0.28742500  0.30605100  1
  Cu  Cu45  1  0.71825600  0.18741100  0.36704400  1
  Cu  Cu46  1  0.60454800  0.71257500  0.69394900  1
  Cu  Cu47  1  0.58513900  0.44924900  0.88988000  1
  Cu  Cu48  1  0.87077700  0.23632700  0.18356900  1
  Cu  Cu49  1  0.88142300  0.94971500  0.39496900  1
  Cu  Cu50  1  0.99228600  0.77930300  0.94552700  1
  Cu  Cu51  1  0.79498300  0.83742400  0.62725200  1
  Cu  Cu52  1  0.37527600  0.63217000  0.61220200  1
  Cu  Cu53  1  0.62195500  0.99129500  0.65126800  1
  Cu  Cu54  1  0.26015100  0.32404500  0.12963100  1
  Cu  Cu55  1  0.67093300  0.33076300  0.12006800  1
  Cu  Cu56  1  0.49228600  0.22069700  0.05447300  1
  Cu  Cu57  1  0.87527600  0.36783000  0.38779800  1
  Cu  Cu58  1  0.17683900  0.53364700  0.70094400  1
  Cu  Cu59  1  0.84278400  0.57142400  0.60543400  1
  Cu  Cu60  1  0.08342800  0.80698800  0.17390300  1
  Cu  Cu61  1  0.12195500  0.00870500  0.34873200  1
  Cu  Cu62  1  0.29498300  0.16257600  0.37274800  1
  Cu  Cu63  1  0.58342800  0.19301200  0.82609700  1
  Cu  Cu64  1  0.76015100  0.67595500  0.87036900  1
  Cu  Cu65  1  0.82990700  0.51208400  0.12950100  1
  Cu  Cu66  1  0.58780100  0.82087500  0.90970300  1
  Cu  Cu67  1  0.99109900  0.76076800  0.58645500  1
  Cu  Cu68  1  0.27466100  0.04294600  0.17775800  1
  Cu  Cu69  1  0.34278400  0.42857600  0.39456600  1
  Cu  Cu70  1  0.37077700  0.76367300  0.81643100  1
  Cu  Cu71  1  0.42846400  0.31525200  0.63452000  1
  Cu  Cu72  1  0.17093300  0.66923700  0.87993200  1
  Cu  Cu73  1  0.67683900  0.46635300  0.29905600  1
  Cu  Cu74  1  0.08780100  0.17912500  0.09029700  1
  Cu  Cu75  1  0.32990700  0.48791600  0.87049900  1
