# generated using pymatgen
data_Cu2(Ni3C2)5
_symmetry_space_group_name_H-M   'P 1'
_cell_length_a   11.15740616
_cell_length_b   11.15740616
_cell_length_c   13.45679931
_cell_angle_alpha   85.33718096
_cell_angle_beta   85.33718096
_cell_angle_gamma   26.75833530
_symmetry_Int_Tables_number   1
_chemical_formula_structural   Cu2(Ni3C2)5
_chemical_formula_sum   'Cu4 Ni30 C20'
_cell_volume   751.58760973
_cell_formula_units_Z   2
loop_
 _symmetry_equiv_pos_site_id
 _symmetry_equiv_pos_as_xyz
  1  'x, y, z'
loop_
 _atom_site_type_symbol
 _atom_site_label
 _atom_site_symmetry_multiplicity
 _atom_site_fract_x
 _atom_site_fract_y
 _atom_site_fract_z
 _atom_site_occupancy
  C  C0  1  0.68629100  0.68629100  0.90464600  1
  C  C1  1  0.00000000  0.00000000  0.00000000  1
  C  C2  1  0.31370900  0.31370900  0.09535400  1
  C  C3  1  0.19244700  0.19244700  0.39998700  1
  C  C4  1  0.80755300  0.80755300  0.60001300  1
  C  C5  1  0.50000000  0.50000000  0.50000000  1
  C  C6  1  0.10560700  0.10560700  0.71184900  1
  C  C7  1  0.89439300  0.89439300  0.28815100  1
  C  C8  1  0.60003600  0.60003600  0.18506300  1
  C  C9  1  0.39996400  0.39996400  0.81493700  1
  C  C10  1  0.54148000  0.54148000  0.80010600  1
  C  C11  1  0.04817500  0.04817500  0.35377400  1
  C  C12  1  0.24637900  0.24637900  0.72483100  1
  C  C13  1  0.65033800  0.65033800  0.53991800  1
  C  C14  1  0.95182500  0.95182500  0.64622600  1
  C  C15  1  0.45852000  0.45852000  0.19989400  1
  C  C16  1  0.34966200  0.34966200  0.46008200  1
  C  C17  1  0.16091400  0.16091400  0.09708200  1
  C  C18  1  0.83908600  0.83908600  0.90291800  1
  C  C19  1  0.75362100  0.75362100  0.27516900  1
  Ni  Ni20  1  0.56807900  0.00061700  0.27515500  1
  Ni  Ni21  1  0.29442000  0.29442000  0.50342900  1
  Ni  Ni22  1  0.43192100  0.99938300  0.72484500  1
  Ni  Ni23  1  0.99028800  0.99028800  0.38601300  1
  Ni  Ni24  1  0.89721400  0.89721400  0.86867700  1
  Ni  Ni25  1  0.26961800  0.70524400  0.18613300  1
  Ni  Ni26  1  0.40058300  0.40058300  0.23354500  1
  Ni  Ni27  1  0.29582200  0.85966200  0.34110700  1
  Ni  Ni28  1  0.70524400  0.26961800  0.18613300  1
  Ni  Ni29  1  0.85966200  0.29582200  0.34110700  1
  Ni  Ni30  1  0.40368000  0.83908400  0.55891800  1
  Ni  Ni31  1  0.99938300  0.43192100  0.72484500  1
  Ni  Ni32  1  0.70417800  0.14033800  0.65889300  1
  Ni  Ni33  1  0.59632000  0.16091600  0.44108200  1
  Ni  Ni34  1  0.10278600  0.10278600  0.13132300  1
  Ni  Ni35  1  0.02958800  0.59165500  0.91684400  1
  Ni  Ni36  1  0.73038200  0.29475600  0.81386700  1
  Ni  Ni37  1  0.97041200  0.40834500  0.08315600  1
  Ni  Ni38  1  0.16091600  0.59632000  0.44108200  1
  Ni  Ni39  1  0.00971200  0.00971200  0.61398700  1
  Ni  Ni40  1  0.30605900  0.30605900  0.72017900  1
  Ni  Ni41  1  0.29475600  0.73038200  0.81386700  1
  Ni  Ni42  1  0.59941700  0.59941700  0.76645500  1
  Ni  Ni43  1  0.70558000  0.70558000  0.49657100  1
  Ni  Ni44  1  0.14033800  0.70417800  0.65889300  1
  Ni  Ni45  1  0.00061700  0.56807900  0.27515500  1
  Ni  Ni46  1  0.40834500  0.97041200  0.08315600  1
  Ni  Ni47  1  0.83908400  0.40368000  0.55891800  1
  Ni  Ni48  1  0.69394100  0.69394100  0.27982100  1
  Ni  Ni49  1  0.59165500  0.02958800  0.91684400  1
  Cu  Cu50  1  0.57362600  0.57362600  0.01664300  1
  Cu  Cu51  1  0.12533600  0.12533600  0.88543300  1
  Cu  Cu52  1  0.42637400  0.42637400  0.98335700  1
  Cu  Cu53  1  0.87466400  0.87466400  0.11456700  1
