# generated using pymatgen
data_Cu9Ni2C5
_symmetry_space_group_name_H-M   'P 1'
_cell_length_a   6.90522400
_cell_length_b   13.08500600
_cell_length_c   19.59251800
_cell_angle_alpha   90.00000000
_cell_angle_beta   90.00000000
_cell_angle_gamma   90.00000000
_symmetry_Int_Tables_number   1
_chemical_formula_structural   Cu9Ni2C5
_chemical_formula_sum   'Cu36 Ni8 C20'
_cell_volume   1770.27995510
_cell_formula_units_Z   4
loop_
 _symmetry_equiv_pos_site_id
 _symmetry_equiv_pos_as_xyz
  1  'x, y, z'
loop_
 _atom_site_type_symbol
 _atom_site_label
 _atom_site_symmetry_multiplicity
 _atom_site_fract_x
 _atom_site_fract_y
 _atom_site_fract_z
 _atom_site_occupancy
  C  C0  1  0.74773900  0.32695200  0.56872900  1
  C  C1  1  0.25426000  0.37649300  0.81911100  1
  C  C2  1  0.74574000  0.87649300  0.18088900  1
  C  C3  1  0.74173900  0.03009700  0.46556900  1
  C  C4  1  0.24574000  0.37649300  0.31911100  1
  C  C5  1  0.25226100  0.82695200  0.43127100  1
  C  C6  1  0.25094200  0.67322000  0.21656800  1
  C  C7  1  0.75094200  0.17322000  0.28343200  1
  C  C8  1  0.25826100  0.53009700  0.53443100  1
  C  C9  1  0.24773900  0.82695200  0.93127100  1
  C  C10  1  0.24173900  0.53009700  0.03443100  1
  C  C11  1  0.24905800  0.67322000  0.71656800  1
  C  C12  1  0.75426000  0.87649300  0.68088900  1
  C  C13  1  0.74905800  0.17322000  0.78343200  1
  C  C14  1  0.75826100  0.03009700  0.96556900  1
  C  C15  1  0.75226100  0.32695200  0.06872900  1
  C  C16  1  0.14219100  0.10146200  0.12494200  1
  C  C17  1  0.64219100  0.60146200  0.37505800  1
  C  C18  1  0.85780900  0.60146200  0.87505800  1
  C  C19  1  0.35780900  0.10146200  0.62494200  1
  Ni  Ni20  1  0.25217900  0.00109900  0.76706700  1
  Ni  Ni21  1  0.24893300  0.20178000  0.48305100  1
  Ni  Ni22  1  0.74893300  0.70178000  0.01694900  1
  Ni  Ni23  1  0.25106700  0.20178000  0.98305100  1
  Ni  Ni24  1  0.75106700  0.70178000  0.51694900  1
  Ni  Ni25  1  0.75217900  0.50109900  0.73293300  1
  Ni  Ni26  1  0.74782100  0.50109900  0.23293300  1
  Ni  Ni27  1  0.24782100  0.00109900  0.26706700  1
  Cu  Cu28  1  0.74678400  0.54739900  0.48452800  1
  Cu  Cu29  1  0.83439700  0.10153600  0.12464300  1
  Cu  Cu30  1  0.49902600  0.24091100  0.93598000  1
  Cu  Cu31  1  0.50482900  0.46179900  0.68549900  1
  Cu  Cu32  1  0.74699400  0.76184800  0.41723000  1
  Cu  Cu33  1  0.00097400  0.24091100  0.43598000  1
  Cu  Cu34  1  0.00482900  0.96179900  0.81450100  1
  Cu  Cu35  1  0.24678400  0.04739900  0.01547200  1
  Cu  Cu36  1  0.99066000  0.74383200  0.06715200  1
  Cu  Cu37  1  0.99902600  0.74091100  0.56402000  1
  Cu  Cu38  1  0.99474000  0.45919600  0.68321600  1
  Cu  Cu39  1  0.75457000  0.44097600  0.83263400  1
  Cu  Cu40  1  0.24543000  0.94097600  0.16736600  1
  Cu  Cu41  1  0.75321600  0.54739900  0.98452800  1
  Cu  Cu42  1  0.25457000  0.94097600  0.66736600  1
  Cu  Cu43  1  0.16560300  0.60153600  0.87535700  1
  Cu  Cu44  1  0.50526000  0.45919600  0.18321600  1
  Cu  Cu45  1  0.74543000  0.44097600  0.33263400  1
  Cu  Cu46  1  0.24438400  0.15551900  0.23471600  1
  Cu  Cu47  1  0.33439700  0.60153600  0.37535700  1
  Cu  Cu48  1  0.00934000  0.24383200  0.93284800  1
  Cu  Cu49  1  0.99517100  0.46179900  0.18549900  1
  Cu  Cu50  1  0.25321600  0.04739900  0.51547200  1
  Cu  Cu51  1  0.74438400  0.65551900  0.26528400  1
  Cu  Cu52  1  0.66560300  0.10153600  0.62464300  1
  Cu  Cu53  1  0.25300600  0.26184800  0.58277000  1
  Cu  Cu54  1  0.75300600  0.76184800  0.91723000  1
  Cu  Cu55  1  0.49517100  0.96179900  0.31450100  1
  Cu  Cu56  1  0.49474000  0.95919600  0.81678400  1
  Cu  Cu57  1  0.25561600  0.15551900  0.73471600  1
  Cu  Cu58  1  0.50934000  0.74383200  0.56715200  1
  Cu  Cu59  1  0.75561600  0.65551900  0.76528400  1
  Cu  Cu60  1  0.24699400  0.26184800  0.08277000  1
  Cu  Cu61  1  0.50097400  0.74091100  0.06402000  1
  Cu  Cu62  1  0.49066000  0.24383200  0.43284800  1
  Cu  Cu63  1  0.00526000  0.95919600  0.31678400  1
