# generated using pymatgen
data_Cu3NiC
_symmetry_space_group_name_H-M   'P 1'
_cell_length_a   6.86085100
_cell_length_b   7.56113362
_cell_length_c   7.76603516
_cell_angle_alpha   98.82043784
_cell_angle_beta   114.44948829
_cell_angle_gamma   107.95584264
_symmetry_Int_Tables_number   1
_chemical_formula_structural   Cu3NiC
_chemical_formula_sum   'Cu6 Ni2 C2'
_cell_volume   330.01175465
_cell_formula_units_Z   2
loop_
 _symmetry_equiv_pos_site_id
 _symmetry_equiv_pos_as_xyz
  1  'x, y, z'
loop_
 _atom_site_type_symbol
 _atom_site_label
 _atom_site_symmetry_multiplicity
 _atom_site_fract_x
 _atom_site_fract_y
 _atom_site_fract_z
 _atom_site_occupancy
  C  C0  1  0.76808500  0.81579800  0.13893400  1
  C  C1  1  0.23191500  0.18420200  0.86106600  1
  Ni  Ni2  1  0.22247400  0.51291700  0.42574700  1
  Ni  Ni3  1  0.77752600  0.48708300  0.57425300  1
  Cu  Cu4  1  0.16843900  0.60212900  0.11324300  1
  Cu  Cu5  1  0.78154400  0.30136100  0.28821600  1
  Cu  Cu6  1  0.34020800  0.23984200  0.43775400  1
  Cu  Cu7  1  0.65979200  0.76015800  0.56224600  1
  Cu  Cu8  1  0.83156100  0.39787100  0.88675700  1
  Cu  Cu9  1  0.21845600  0.69863900  0.71178400  1
