# generated using pymatgen
data_Cu3NiC2
_symmetry_space_group_name_H-M   'P 1'
_cell_length_a   5.51181400
_cell_length_b   7.27706700
_cell_length_c   11.67437300
_cell_angle_alpha   90.00000000
_cell_angle_beta   90.00000000
_cell_angle_gamma   90.00000000
_symmetry_Int_Tables_number   1
_chemical_formula_structural   Cu3NiC2
_chemical_formula_sum   'Cu12 Ni4 C8'
_cell_volume   468.25723044
_cell_formula_units_Z   4
loop_
 _symmetry_equiv_pos_site_id
 _symmetry_equiv_pos_as_xyz
  1  'x, y, z'
loop_
 _atom_site_type_symbol
 _atom_site_label
 _atom_site_symmetry_multiplicity
 _atom_site_fract_x
 _atom_site_fract_y
 _atom_site_fract_z
 _atom_site_occupancy
  C  C0  1  0.25000000  0.91753200  0.75746600  1
  C  C1  1  0.75000000  0.08246800  0.24253400  1
  C  C2  1  0.75000000  0.41753200  0.74253400  1
  C  C3  1  0.25000000  0.58246800  0.25746600  1
  C  C4  1  0.75000000  0.81968000  0.92423400  1
  C  C5  1  0.75000000  0.68032000  0.42423400  1
  C  C6  1  0.25000000  0.18032000  0.07576600  1
  C  C7  1  0.25000000  0.31968000  0.57576600  1
  Ni  Ni8  1  0.75000000  0.10411200  0.57730100  1
  Ni  Ni9  1  0.25000000  0.89588800  0.42269900  1
  Ni  Ni10  1  0.25000000  0.60411200  0.92269900  1
  Ni  Ni11  1  0.75000000  0.39588800  0.07730100  1
  Cu  Cu12  1  0.99527800  0.99184400  0.87423200  1
  Cu  Cu13  1  0.00472200  0.00815600  0.12576800  1
  Cu  Cu14  1  0.75000000  0.80455200  0.27943800  1
  Cu  Cu15  1  0.49527800  0.49184400  0.62576800  1
  Cu  Cu16  1  0.99527800  0.50815600  0.37423200  1
  Cu  Cu17  1  0.50472200  0.50815600  0.37423200  1
  Cu  Cu18  1  0.75000000  0.69544800  0.77943800  1
  Cu  Cu19  1  0.49527800  0.00815600  0.12576800  1
  Cu  Cu20  1  0.50472200  0.99184400  0.87423200  1
  Cu  Cu21  1  0.25000000  0.19544800  0.72056200  1
  Cu  Cu22  1  0.00472200  0.49184400  0.62576800  1
  Cu  Cu23  1  0.25000000  0.30455200  0.22056200  1
