# generated using pymatgen
data_Cu6NiC10
_symmetry_space_group_name_H-M   'P 1'
_cell_length_a   12.70259000
_cell_length_b   12.70259000
_cell_length_c   12.70259000
_cell_angle_alpha   90.00000000
_cell_angle_beta   90.00000000
_cell_angle_gamma   90.00000000
_symmetry_Int_Tables_number   1
_chemical_formula_structural   Cu6NiC10
_chemical_formula_sum   'Cu24 Ni4 C40'
_cell_volume   2049.63647890
_cell_formula_units_Z   4
loop_
 _symmetry_equiv_pos_site_id
 _symmetry_equiv_pos_as_xyz
  1  'x, y, z'
loop_
 _atom_site_type_symbol
 _atom_site_label
 _atom_site_symmetry_multiplicity
 _atom_site_fract_x
 _atom_site_fract_y
 _atom_site_fract_z
 _atom_site_occupancy
  Ni  Ni0  1  0.50000000  0.00000000  0.50000000  1
  Ni  Ni1  1  0.00000000  0.00000000  0.00000000  1
  Ni  Ni2  1  0.00000000  0.50000000  0.50000000  1
  Ni  Ni3  1  0.50000000  0.50000000  0.00000000  1
  Cu  Cu4  1  0.71421500  0.71780600  0.47599300  1
  Cu  Cu5  1  0.21780600  0.02400700  0.28578500  1
  Cu  Cu6  1  0.97599300  0.71421500  0.78219400  1
  Cu  Cu7  1  0.78578500  0.28219400  0.97599300  1
  Cu  Cu8  1  0.52400700  0.28578500  0.28219400  1
  Cu  Cu9  1  0.78219400  0.97599300  0.71421500  1
  Cu  Cu10  1  0.02400700  0.21421500  0.71780600  1
  Cu  Cu11  1  0.47599300  0.78578500  0.21780600  1
  Cu  Cu12  1  0.21780600  0.47599300  0.78578500  1
  Cu  Cu13  1  0.47599300  0.71421500  0.71780600  1
  Cu  Cu14  1  0.78578500  0.21780600  0.47599300  1
  Cu  Cu15  1  0.28578500  0.28219400  0.52400700  1
  Cu  Cu16  1  0.02400700  0.28578500  0.21780600  1
  Cu  Cu17  1  0.97599300  0.78578500  0.28219400  1
  Cu  Cu18  1  0.78219400  0.52400700  0.21421500  1
  Cu  Cu19  1  0.28219400  0.52400700  0.28578500  1
  Cu  Cu20  1  0.28578500  0.21780600  0.02400700  1
  Cu  Cu21  1  0.28219400  0.97599300  0.78578500  1
  Cu  Cu22  1  0.52400700  0.21421500  0.78219400  1
  Cu  Cu23  1  0.21421500  0.71780600  0.02400700  1
  Cu  Cu24  1  0.71780600  0.47599300  0.71421500  1
  Cu  Cu25  1  0.71421500  0.78219400  0.97599300  1
  Cu  Cu26  1  0.21421500  0.78219400  0.52400700  1
  Cu  Cu27  1  0.71780600  0.02400700  0.21421500  1
  C  C28  1  0.82908900  0.17091100  0.67091100  1
  C  C29  1  0.78269800  0.71730200  0.28269800  1
  C  C30  1  0.82908900  0.32908900  0.17091100  1
  C  C31  1  0.17091100  0.67091100  0.82908900  1
  C  C32  1  0.32908900  0.17091100  0.82908900  1
  C  C33  1  0.32908900  0.32908900  0.32908900  1
  C  C34  1  0.21730200  0.28269800  0.71730200  1
  C  C35  1  0.71730200  0.21730200  0.28269800  1
  C  C36  1  0.17091100  0.82908900  0.32908900  1
  C  C37  1  0.67091100  0.82908900  0.17091100  1
  C  C38  1  0.78269800  0.78269800  0.78269800  1
  C  C39  1  0.21730200  0.21730200  0.21730200  1
  C  C40  1  0.28269800  0.78269800  0.71730200  1
  C  C41  1  0.71730200  0.28269800  0.78269800  1
  C  C42  1  0.67091100  0.67091100  0.67091100  1
  C  C43  1  0.28269800  0.71730200  0.21730200  1
  C  C44  1  0.03174200  0.21781500  0.96218800  1
  C  C45  1  0.78218500  0.46218800  0.46825800  1
  C  C46  1  0.96825800  0.78218500  0.03781200  1
  C  C47  1  0.53174200  0.28218500  0.03781200  1
  C  C48  1  0.96825800  0.71781500  0.53781200  1
  C  C49  1  0.28218500  0.46218800  0.03174200  1
  C  C50  1  0.03781200  0.53174200  0.28218500  1
  C  C51  1  0.46218800  0.03174200  0.28218500  1
  C  C52  1  0.78218500  0.03781200  0.96825800  1
  C  C53  1  0.53781200  0.53174200  0.21781500  1
  C  C54  1  0.71781500  0.96218800  0.46825800  1
  C  C55  1  0.21781500  0.96218800  0.03174200  1
  C  C56  1  0.46218800  0.46825800  0.78218500  1
  C  C57  1  0.28218500  0.03781200  0.53174200  1
  C  C58  1  0.96218800  0.03174200  0.21781500  1
  C  C59  1  0.03174200  0.28218500  0.46218800  1
  C  C60  1  0.53781200  0.96825800  0.71781500  1
  C  C61  1  0.71781500  0.53781200  0.96825800  1
  C  C62  1  0.21781500  0.53781200  0.53174200  1
  C  C63  1  0.53174200  0.21781500  0.53781200  1
  C  C64  1  0.96218800  0.46825800  0.71781500  1
  C  C65  1  0.03781200  0.96825800  0.78218500  1
  C  C66  1  0.46825800  0.78218500  0.46218800  1
  C  C67  1  0.46825800  0.71781500  0.96218800  1
