# generated using pymatgen
data_CuNiC16
_symmetry_space_group_name_H-M   'P 1'
_cell_length_a   8.94131625
_cell_length_b   8.94131625
_cell_length_c   9.65152282
_cell_angle_alpha   57.37895861
_cell_angle_beta   57.37895861
_cell_angle_gamma   46.90999463
_symmetry_Int_Tables_number   1
_chemical_formula_structural   CuNiC16
_chemical_formula_sum   'Cu2 Ni2 C32'
_cell_volume   455.93759366
_cell_formula_units_Z   2
loop_
 _symmetry_equiv_pos_site_id
 _symmetry_equiv_pos_as_xyz
  1  'x, y, z'
loop_
 _atom_site_type_symbol
 _atom_site_label
 _atom_site_symmetry_multiplicity
 _atom_site_fract_x
 _atom_site_fract_y
 _atom_site_fract_z
 _atom_site_occupancy
  Ni  Ni0  1  0.29376900  0.70623100  0.25000000  1
  Ni  Ni1  1  0.70623100  0.29376900  0.75000000  1
  Cu  Cu2  1  0.79696200  0.20303800  0.25000000  1
  Cu  Cu3  1  0.20303800  0.79696200  0.75000000  1
  C  C4  1  0.68784400  0.58592700  0.38395700  1
  C  C5  1  0.70457900  0.00406600  0.69397400  1
  C  C6  1  0.99593400  0.29542100  0.80602600  1
  C  C7  1  0.00406600  0.70457900  0.19397400  1
  C  C8  1  0.58592700  0.68784400  0.88395700  1
  C  C9  1  0.31215600  0.41407300  0.61604300  1
  C  C10  1  0.41407300  0.31215600  0.11604300  1
  C  C11  1  0.29542100  0.99593400  0.30602600  1
  C  C12  1  0.52912600  0.78316000  0.26589400  1
  C  C13  1  0.43680900  0.43140700  0.92818800  1
  C  C14  1  0.01081800  0.84653200  0.22596500  1
  C  C15  1  0.78316000  0.52912600  0.76589400  1
  C  C16  1  0.82437100  0.39887000  0.31587600  1
  C  C17  1  0.24291800  0.00864200  0.47675200  1
  C  C18  1  0.99135800  0.75708200  0.02324800  1
  C  C19  1  0.39887000  0.82437100  0.81587600  1
  C  C20  1  0.60113000  0.17562900  0.18412400  1
  C  C21  1  0.98918200  0.15346800  0.77403500  1
  C  C22  1  0.82358300  0.66654100  0.34911400  1
  C  C23  1  0.21684000  0.47087400  0.23410600  1
  C  C24  1  0.56859300  0.56319100  0.57181200  1
  C  C25  1  0.15346800  0.98918200  0.27403500  1
  C  C26  1  0.00864200  0.24291800  0.97675200  1
  C  C27  1  0.17562900  0.60113000  0.68412400  1
  C  C28  1  0.56319100  0.56859300  0.07181200  1
  C  C29  1  0.17641700  0.33345900  0.65088600  1
  C  C30  1  0.84653200  0.01081800  0.72596500  1
  C  C31  1  0.33345900  0.17641700  0.15088600  1
  C  C32  1  0.66654100  0.82358300  0.84911400  1
  C  C33  1  0.43140700  0.43680900  0.42818800  1
  C  C34  1  0.75708200  0.99135800  0.52324800  1
  C  C35  1  0.47087400  0.21684000  0.73410600  1
