# generated using pymatgen
data_Cu(NiC3)4
_symmetry_space_group_name_H-M   'P 1'
_cell_length_a   13.08396376
_cell_length_b   13.08396376
_cell_length_c   13.08396376
_cell_angle_alpha   109.47122063
_cell_angle_beta   109.47122063
_cell_angle_gamma   109.47122063
_symmetry_Int_Tables_number   1
_chemical_formula_structural   Cu(NiC3)4
_chemical_formula_sum   'Cu8 Ni32 C96'
_cell_volume   1724.23361259
_cell_formula_units_Z   8
loop_
 _symmetry_equiv_pos_site_id
 _symmetry_equiv_pos_as_xyz
  1  'x, y, z'
loop_
 _atom_site_type_symbol
 _atom_site_label
 _atom_site_symmetry_multiplicity
 _atom_site_fract_x
 _atom_site_fract_y
 _atom_site_fract_z
 _atom_site_occupancy
  Ni  Ni0  1  0.99658100  0.74658100  0.25000000  1
  Ni  Ni1  1  0.75341900  0.50341900  0.25000000  1
  Ni  Ni2  1  0.25000000  0.49658100  0.24658100  1
  Ni  Ni3  1  0.24658100  0.49658100  0.75000000  1
  Ni  Ni4  1  0.00341900  0.25341900  0.75000000  1
  Ni  Ni5  1  0.25000000  0.99658100  0.74658100  1
  Ni  Ni6  1  0.75000000  0.00341900  0.25341900  1
  Ni  Ni7  1  0.74658100  0.99658100  0.75000000  1
  Ni  Ni8  1  0.74658100  0.25000000  0.99658100  1
  Ni  Ni9  1  0.99658100  0.75000000  0.74658100  1
  Ni  Ni10  1  0.49658100  0.24658100  0.25000000  1
  Ni  Ni11  1  0.00000000  0.00000000  0.00000000  1
  Ni  Ni12  1  0.00000000  0.50000000  0.50000000  1
  Ni  Ni13  1  0.75000000  0.74658100  0.99658100  1
  Ni  Ni14  1  0.00000000  0.00000000  0.50000000  1
  Ni  Ni15  1  0.75000000  0.50341900  0.75341900  1
  Ni  Ni16  1  0.25341900  0.00341900  0.25000000  1
  Ni  Ni17  1  0.75000000  0.24658100  0.49658100  1
  Ni  Ni18  1  0.25341900  0.75000000  0.00341900  1
  Ni  Ni19  1  0.25000000  0.75341900  0.50341900  1
  Ni  Ni20  1  0.49658100  0.75000000  0.24658100  1
  Ni  Ni21  1  0.50341900  0.25000000  0.75341900  1
  Ni  Ni22  1  0.00341900  0.25000000  0.25341900  1
  Ni  Ni23  1  0.50000000  0.00000000  0.00000000  1
  Ni  Ni24  1  0.00000000  0.50000000  0.00000000  1
  Ni  Ni25  1  0.50000000  0.50000000  0.00000000  1
  Ni  Ni26  1  0.75341900  0.75000000  0.50341900  1
  Ni  Ni27  1  0.25000000  0.25341900  0.00341900  1
  Ni  Ni28  1  0.50000000  0.50000000  0.50000000  1
  Ni  Ni29  1  0.50000000  0.00000000  0.50000000  1
  Ni  Ni30  1  0.24658100  0.25000000  0.49658100  1
  Ni  Ni31  1  0.50341900  0.75341900  0.75000000  1
  Cu  Cu32  1  0.25000000  0.25000000  0.25000000  1
  Cu  Cu33  1  0.50000000  0.00000000  0.75000000  1
  Cu  Cu34  1  0.25000000  0.50000000  0.00000000  1
  Cu  Cu35  1  0.75000000  0.75000000  0.75000000  1
  Cu  Cu36  1  0.50000000  0.00000000  0.25000000  1
  Cu  Cu37  1  0.00000000  0.25000000  0.50000000  1
  Cu  Cu38  1  0.00000000  0.75000000  0.50000000  1
  Cu  Cu39  1  0.75000000  0.50000000  0.00000000  1
  C  C40  1  0.76490100  0.73509900  0.25000000  1
  C  C41  1  0.02980300  0.26490100  0.01490100  1
  C  C42  1  0.48509900  0.23509900  0.47019700  1
  C  C43  1  0.26490100  0.01490100  0.02980300  1
  C  C44  1  0.47019700  0.48509900  0.23509900  1
  C  C45  1  0.26490100  0.75000000  0.23509900  1
  C  C46  1  0.51490100  0.25000000  0.98509900  1
  C  C47  1  0.23509900  0.26490100  0.75000000  1
  C  C48  1  0.97019700  0.73509900  0.98509900  1
  C  C49  1  0.76490100  0.52980300  0.51490100  1
  C  C50  1  0.23509900  0.47019700  0.48509900  1
  C  C51  1  0.98509900  0.97019700  0.73509900  1
  C  C52  1  0.01490100  0.48509900  0.75000000  1
  C  C53  1  0.51490100  0.76490100  0.52980300  1
  C  C54  1  0.01490100  0.02980300  0.26490100  1
  C  C55  1  0.75000000  0.01490100  0.48509900  1
  C  C56  1  0.73509900  0.98509900  0.97019700  1
  C  C57  1  0.25000000  0.98509900  0.51490100  1
  C  C58  1  0.48509900  0.75000000  0.01490100  1
  C  C59  1  0.73509900  0.25000000  0.76490100  1
  C  C60  1  0.75000000  0.23509900  0.26490100  1
  C  C61  1  0.98509900  0.51490100  0.25000000  1
  C  C62  1  0.52980300  0.51490100  0.76490100  1
  C  C63  1  0.25000000  0.76490100  0.73509900  1
  C  C64  1  0.20056600  0.95056600  0.90113200  1
  C  C65  1  0.04943400  0.45056600  0.25000000  1
  C  C66  1  0.89788500  0.90108000  0.75953700  1
  C  C67  1  0.64154300  0.00319500  0.90108000  1
  C  C68  1  0.64154300  0.13834800  0.74046300  1
  C  C69  1  0.45056600  0.70056600  0.40113200  1
  C  C70  1  0.14154300  0.24046300  0.63834800  1
  C  C71  1  0.60211500  0.74046300  0.59892000  1
  C  C72  1  0.50319500  0.14154300  0.40108000  1
  C  C73  1  0.36165200  0.85845700  0.75953700  1
  C  C74  1  0.25953700  0.35845700  0.86165200  1
  C  C75  1  0.63834800  0.14154300  0.24046300  1
  C  C76  1  0.75000000  0.95056600  0.54943400  1
  C  C77  1  0.35845700  0.99680500  0.09892000  1
  C  C78  1  0.95056600  0.90113200  0.20056600  1
  C  C79  1  0.49680500  0.85845700  0.59892000  1
  C  C80  1  0.89788500  0.49680500  0.13834800  1
  C  C81  1  0.40113200  0.45056600  0.70056600  1
  C  C82  1  0.36165200  0.00319500  0.60211500  1
  C  C83  1  0.54943400  0.29943400  0.59886800  1
  C  C84  1  0.85845700  0.75953700  0.36165200  1
  C  C85  1  0.75953700  0.89788500  0.90108000  1
  C  C86  1  0.00319500  0.60211500  0.36165200  1
  C  C87  1  0.00319500  0.90108000  0.64154300  1
  C  C88  1  0.29943400  0.59886800  0.54943400  1
  C  C89  1  0.40108000  0.50319500  0.14154300  1
  C  C90  1  0.74046300  0.64154300  0.13834800  1
  C  C91  1  0.99680500  0.09892000  0.35845700  1
  C  C92  1  0.40108000  0.39788500  0.25953700  1
  C  C93  1  0.50319500  0.86165200  0.10211500  1
  C  C94  1  0.45056600  0.25000000  0.04943400  1
  C  C95  1  0.86165200  0.25953700  0.35845700  1
  C  C96  1  0.54943400  0.75000000  0.95056600  1
  C  C97  1  0.90108000  0.64154300  0.00319500  1
  C  C98  1  0.04943400  0.09886800  0.79943400  1
  C  C99  1  0.63834800  0.99680500  0.39788500  1
  C  C100  1  0.85845700  0.59892000  0.49680500  1
  C  C101  1  0.13834800  0.74046300  0.64154300  1
  C  C102  1  0.09892000  0.24046300  0.10211500  1
  C  C103  1  0.39788500  0.63834800  0.99680500  1
  C  C104  1  0.74046300  0.59892000  0.60211500  1
  C  C105  1  0.75953700  0.36165200  0.85845700  1
  C  C106  1  0.70056600  0.79943400  0.25000000  1
  C  C107  1  0.10211500  0.09892000  0.24046300  1
  C  C108  1  0.24046300  0.63834800  0.14154300  1
  C  C109  1  0.59892000  0.60211500  0.74046300  1
  C  C110  1  0.20056600  0.75000000  0.29943400  1
  C  C111  1  0.25000000  0.04943400  0.45056600  1
  C  C112  1  0.59892000  0.49680500  0.85845700  1
  C  C113  1  0.29943400  0.20056600  0.75000000  1
  C  C114  1  0.13834800  0.89788500  0.49680500  1
  C  C115  1  0.79943400  0.25000000  0.70056600  1
  C  C116  1  0.59886800  0.54943400  0.29943400  1
  C  C117  1  0.90108000  0.75953700  0.89788500  1
  C  C118  1  0.79943400  0.04943400  0.09886800  1
  C  C119  1  0.14154300  0.40108000  0.50319500  1
  C  C120  1  0.49680500  0.13834800  0.89788500  1
  C  C121  1  0.35845700  0.86165200  0.25953700  1
  C  C122  1  0.90113200  0.20056600  0.95056600  1
  C  C123  1  0.75000000  0.29943400  0.20056600  1
  C  C124  1  0.10211500  0.50319500  0.86165200  1
  C  C125  1  0.09892000  0.35845700  0.99680500  1
  C  C126  1  0.86165200  0.10211500  0.50319500  1
  C  C127  1  0.99680500  0.39788500  0.63834800  1
  C  C128  1  0.39788500  0.25953700  0.40108000  1
  C  C129  1  0.70056600  0.40113200  0.45056600  1
  C  C130  1  0.25000000  0.70056600  0.79943400  1
  C  C131  1  0.25953700  0.40108000  0.39788500  1
  C  C132  1  0.24046300  0.10211500  0.09892000  1
  C  C133  1  0.95056600  0.54943400  0.75000000  1
  C  C134  1  0.09886800  0.79943400  0.04943400  1
  C  C135  1  0.60211500  0.36165200  0.00319500  1
