# generated using pymatgen
data_CuNi3C8
_symmetry_space_group_name_H-M   'P 1'
_cell_length_a   9.87513271
_cell_length_b   9.87513271
_cell_length_c   6.83560500
_cell_angle_alpha   90.00000000
_cell_angle_beta   90.00000000
_cell_angle_gamma   120.00000477
_symmetry_Int_Tables_number   1
_chemical_formula_structural   CuNi3C8
_chemical_formula_sum   'Cu2 Ni6 C16'
_cell_volume   577.28922461
_cell_formula_units_Z   2
loop_
 _symmetry_equiv_pos_site_id
 _symmetry_equiv_pos_as_xyz
  1  'x, y, z'
loop_
 _atom_site_type_symbol
 _atom_site_label
 _atom_site_symmetry_multiplicity
 _atom_site_fract_x
 _atom_site_fract_y
 _atom_site_fract_z
 _atom_site_occupancy
  C  C0  1  0.17328100  0.82671900  0.99034700  1
  C  C1  1  0.34656100  0.17328100  0.49034700  1
  C  C2  1  0.82671900  0.65343900  0.49034700  1
  C  C3  1  0.17328100  0.34656100  0.99034700  1
  C  C4  1  0.65343900  0.82671900  0.99034700  1
  C  C5  1  0.82671900  0.17328100  0.49034700  1
  C  C6  1  0.33333300  0.66666700  0.67166200  1
  C  C7  1  0.66666700  0.33333300  0.17166200  1
  C  C8  1  0.46419200  0.53580800  0.29174300  1
  C  C9  1  0.92838300  0.46419200  0.79174300  1
  C  C10  1  0.53580800  0.07161700  0.79174300  1
  C  C11  1  0.46419200  0.92838300  0.29174300  1
  C  C12  1  0.07161700  0.53580800  0.29174300  1
  C  C13  1  0.53580800  0.46419200  0.79174300  1
  C  C14  1  0.00000000  0.00000000  0.26827700  1
  C  C15  1  0.00000000  0.00000000  0.76827700  1
  Ni  Ni16  1  0.16344000  0.83656000  0.53936300  1
  Ni  Ni17  1  0.32688000  0.16344000  0.03936300  1
  Ni  Ni18  1  0.83656000  0.67312000  0.03936300  1
  Ni  Ni19  1  0.16344000  0.32688000  0.53936300  1
  Ni  Ni20  1  0.67312000  0.83656000  0.53936300  1
  Ni  Ni21  1  0.83656000  0.16344000  0.03936300  1
  Cu  Cu22  1  0.33333300  0.66666700  0.05770600  1
  Cu  Cu23  1  0.66666700  0.33333300  0.55770600  1
