# generated using pymatgen
data_CuNi4C11
_symmetry_space_group_name_H-M   'P 1'
_cell_length_a   9.47843600
_cell_length_b   9.89086600
_cell_length_c   10.67891200
_cell_angle_alpha   90.00000000
_cell_angle_beta   90.00000000
_cell_angle_gamma   90.00000000
_symmetry_Int_Tables_number   1
_chemical_formula_structural   CuNi4C11
_chemical_formula_sum   'Cu4 Ni16 C44'
_cell_volume   1001.14736317
_cell_formula_units_Z   4
loop_
 _symmetry_equiv_pos_site_id
 _symmetry_equiv_pos_as_xyz
  1  'x, y, z'
loop_
 _atom_site_type_symbol
 _atom_site_label
 _atom_site_symmetry_multiplicity
 _atom_site_fract_x
 _atom_site_fract_y
 _atom_site_fract_z
 _atom_site_occupancy
  C  C0  1  0.50856300  0.22260100  0.25000000  1
  C  C1  1  0.00856300  0.27739900  0.75000000  1
  C  C2  1  0.49143700  0.77739900  0.75000000  1
  C  C3  1  0.99143700  0.72260100  0.25000000  1
  C  C4  1  0.97882700  0.28717200  0.25000000  1
  C  C5  1  0.47882700  0.21282800  0.75000000  1
  C  C6  1  0.52117300  0.78717200  0.25000000  1
  C  C7  1  0.02117300  0.71282800  0.75000000  1
  Ni  Ni8  1  0.85863400  0.65359200  0.75000000  1
  Ni  Ni9  1  0.10610400  0.66234100  0.87628100  1
  Ni  Ni10  1  0.39389600  0.16234100  0.62371900  1
  Ni  Ni11  1  0.51161200  0.51665700  0.25000000  1
  Ni  Ni12  1  0.14136600  0.34640800  0.25000000  1
  Ni  Ni13  1  0.89389600  0.33765900  0.12371900  1
  Ni  Ni14  1  0.48838800  0.48334300  0.75000000  1
  Ni  Ni15  1  0.60610400  0.83765900  0.37628100  1
  Ni  Ni16  1  0.98838800  0.01665700  0.25000000  1
  Ni  Ni17  1  0.64136600  0.15359200  0.75000000  1
  Ni  Ni18  1  0.35863400  0.84640800  0.25000000  1
  Ni  Ni19  1  0.01161200  0.98334300  0.75000000  1
  Ni  Ni20  1  0.39389600  0.16234100  0.87628100  1
  Ni  Ni21  1  0.10610400  0.66234100  0.62371900  1
  Ni  Ni22  1  0.60610400  0.83765900  0.12371900  1
  Ni  Ni23  1  0.89389600  0.33765900  0.37628100  1
  Cu  Cu24  1  0.48442300  0.36461700  0.75000000  1
  Cu  Cu25  1  0.51557700  0.63538300  0.25000000  1
  Cu  Cu26  1  0.98442300  0.13538300  0.25000000  1
  Cu  Cu27  1  0.01557700  0.86461700  0.75000000  1
  C  C28  1  0.78096100  0.69408500  0.85223500  1
  C  C29  1  0.37934200  0.02401100  0.88569200  1
  C  C30  1  0.14866600  0.48656800  0.25000000  1
  C  C31  1  0.71903900  0.19408500  0.64776500  1
  C  C32  1  0.62065800  0.97598900  0.11430800  1
  C  C33  1  0.04144400  0.70262200  0.51412200  1
  C  C34  1  0.85133400  0.51343200  0.75000000  1
  C  C35  1  0.78096100  0.69408500  0.64776500  1
  C  C36  1  0.74149100  0.78664800  0.38381500  1
  C  C37  1  0.12065800  0.52401100  0.88569200  1
  C  C38  1  0.25850900  0.21335200  0.61618500  1
  C  C39  1  0.45855600  0.20262200  0.51412200  1
  C  C40  1  0.35133400  0.98656800  0.25000000  1
  C  C41  1  0.24149100  0.71335200  0.88381500  1
  C  C42  1  0.54144400  0.79737800  0.48587800  1
  C  C43  1  0.75850900  0.28664800  0.38381500  1
  C  C44  1  0.87934200  0.47598900  0.11430800  1
  C  C45  1  0.64866600  0.01343200  0.75000000  1
  C  C46  1  0.54144400  0.79737800  0.01412200  1
  C  C47  1  0.75850900  0.28664800  0.11618500  1
  C  C48  1  0.74149100  0.78664800  0.11618500  1
  C  C49  1  0.28096100  0.80591500  0.14776500  1
  C  C50  1  0.62065800  0.97598900  0.38569200  1
  C  C51  1  0.24149100  0.71335200  0.61618500  1
  C  C52  1  0.37934200  0.02401100  0.61430800  1
  C  C53  1  0.45855600  0.20262200  0.98587800  1
  C  C54  1  0.25850900  0.21335200  0.88381500  1
  C  C55  1  0.28096100  0.80591500  0.35223500  1
  C  C56  1  0.12065800  0.52401100  0.61430800  1
  C  C57  1  0.87934200  0.47598900  0.38569200  1
  C  C58  1  0.04144400  0.70262200  0.98587800  1
  C  C59  1  0.95855600  0.29737800  0.48587800  1
  C  C60  1  0.95855600  0.29737800  0.01412200  1
  C  C61  1  0.71903900  0.19408500  0.85223500  1
  C  C62  1  0.21903900  0.30591500  0.35223500  1
  C  C63  1  0.21903900  0.30591500  0.14776500  1
