# generated using pymatgen
data_Cu3Ni3C7
_symmetry_space_group_name_H-M   'P 1'
_cell_length_a   6.07384100
_cell_length_b   9.83397400
_cell_length_c   11.85758500
_cell_angle_alpha   90.00000000
_cell_angle_beta   90.00000000
_cell_angle_gamma   90.00000000
_symmetry_Int_Tables_number   1
_chemical_formula_structural   Cu3Ni3C7
_chemical_formula_sum   'Cu12 Ni12 C28'
_cell_volume   708.25348653
_cell_formula_units_Z   4
loop_
 _symmetry_equiv_pos_site_id
 _symmetry_equiv_pos_as_xyz
  1  'x, y, z'
loop_
 _atom_site_type_symbol
 _atom_site_label
 _atom_site_symmetry_multiplicity
 _atom_site_fract_x
 _atom_site_fract_y
 _atom_site_fract_z
 _atom_site_occupancy
  Ni  Ni0  1  0.75000000  0.70746300  0.00645400  1
  Ni  Ni1  1  0.75000000  0.79253700  0.50645400  1
  Ni  Ni2  1  0.75000000  0.04089900  0.96217600  1
  Ni  Ni3  1  0.75000000  0.45910100  0.46217600  1
  Ni  Ni4  1  0.25000000  0.87194700  0.47210500  1
  Ni  Ni5  1  0.25000000  0.20746300  0.49354600  1
  Ni  Ni6  1  0.25000000  0.62805300  0.97210500  1
  Ni  Ni7  1  0.75000000  0.37194700  0.02789500  1
  Ni  Ni8  1  0.75000000  0.12805300  0.52789500  1
  Ni  Ni9  1  0.25000000  0.54089900  0.53782400  1
  Ni  Ni10  1  0.25000000  0.95910100  0.03782400  1
  Ni  Ni11  1  0.25000000  0.29253700  0.99354600  1
  Cu  Cu12  1  0.25000000  0.09066900  0.25112300  1
  Cu  Cu13  1  0.50617700  0.83562900  0.25662600  1
  Cu  Cu14  1  0.25000000  0.40933100  0.75112300  1
  Cu  Cu15  1  0.49382300  0.16437100  0.74337400  1
  Cu  Cu16  1  0.99382300  0.66437100  0.75662600  1
  Cu  Cu17  1  0.50617700  0.66437100  0.75662600  1
  Cu  Cu18  1  0.49382300  0.33562900  0.24337400  1
  Cu  Cu19  1  0.00617700  0.33562900  0.24337400  1
  Cu  Cu20  1  0.75000000  0.90933100  0.74887700  1
  Cu  Cu21  1  0.99382300  0.83562900  0.25662600  1
  Cu  Cu22  1  0.75000000  0.59066900  0.24887700  1
  Cu  Cu23  1  0.00617700  0.16437100  0.74337400  1
  C  C24  1  0.25000000  0.91310300  0.75561000  1
  C  C25  1  0.75000000  0.08689700  0.24439000  1
  C  C26  1  0.25000000  0.58689700  0.25561000  1
  C  C27  1  0.75000000  0.41310300  0.74439000  1
  C  C28  1  0.51202800  0.16114800  0.14707300  1
  C  C29  1  0.98797200  0.16114800  0.14707300  1
  C  C30  1  0.48639700  0.51455800  0.15789300  1
  C  C31  1  0.25000000  0.73791800  0.67607900  1
  C  C32  1  0.25000000  0.09063200  0.83551600  1
  C  C33  1  0.25000000  0.76208200  0.17607900  1
  C  C34  1  0.98639700  0.01455800  0.34210700  1
  C  C35  1  0.75000000  0.59063200  0.66448400  1
  C  C36  1  0.51360300  0.48544200  0.84210700  1
  C  C37  1  0.98639700  0.48544200  0.84210700  1
  C  C38  1  0.75000000  0.23791800  0.82392100  1
  C  C39  1  0.48639700  0.98544200  0.65789300  1
  C  C40  1  0.98797200  0.33885200  0.64707300  1
  C  C41  1  0.51360300  0.01455800  0.34210700  1
  C  C42  1  0.01202800  0.66114800  0.35292700  1
  C  C43  1  0.25000000  0.40936800  0.33551600  1
  C  C44  1  0.48797200  0.66114800  0.35292700  1
  C  C45  1  0.75000000  0.26208200  0.32392100  1
  C  C46  1  0.48797200  0.83885200  0.85292700  1
  C  C47  1  0.75000000  0.90936800  0.16448400  1
  C  C48  1  0.01202800  0.83885200  0.85292700  1
  C  C49  1  0.01360300  0.51455800  0.15789300  1
  C  C50  1  0.01360300  0.98544200  0.65789300  1
  C  C51  1  0.51202800  0.33885200  0.64707300  1
