# generated using pymatgen
data_Cu7NiC4
_symmetry_space_group_name_H-M   'P 1'
_cell_length_a   9.92602405
_cell_length_b   9.92602405
_cell_length_c   5.70726300
_cell_angle_alpha   90.00000000
_cell_angle_beta   90.00000000
_cell_angle_gamma   120.00000033
_symmetry_Int_Tables_number   1
_chemical_formula_structural   Cu7NiC4
_chemical_formula_sum   'Cu14 Ni2 C8'
_cell_volume   486.97779902
_cell_formula_units_Z   2
loop_
 _symmetry_equiv_pos_site_id
 _symmetry_equiv_pos_as_xyz
  1  'x, y, z'
loop_
 _atom_site_type_symbol
 _atom_site_label
 _atom_site_symmetry_multiplicity
 _atom_site_fract_x
 _atom_site_fract_y
 _atom_site_fract_z
 _atom_site_occupancy
  C  C0  1  0.12814400  0.35697500  0.74322800  1
  C  C1  1  0.87185600  0.64302500  0.24322800  1
  C  C2  1  0.22883100  0.87185600  0.74322800  1
  C  C3  1  0.35697500  0.22883100  0.24322800  1
  C  C4  1  0.77116900  0.12814400  0.24322800  1
  C  C5  1  0.64302500  0.77116900  0.74322800  1
  C  C6  1  0.00000000  0.00000000  0.70274800  1
  C  C7  1  0.00000000  0.00000000  0.20274800  1
  Ni  Ni8  1  0.66666700  0.33333300  0.83088100  1
  Ni  Ni9  1  0.33333300  0.66666700  0.33088100  1
  Cu  Cu10  1  0.25753400  0.16409700  0.71884600  1
  Cu  Cu11  1  0.41588400  0.52301600  0.48084800  1
  Cu  Cu12  1  0.33333300  0.66666700  0.96070600  1
  Cu  Cu13  1  0.16409700  0.90656200  0.21884600  1
  Cu  Cu14  1  0.47698400  0.89286800  0.48084800  1
  Cu  Cu15  1  0.58411600  0.47698400  0.98084800  1
  Cu  Cu16  1  0.52301600  0.10713200  0.98084800  1
  Cu  Cu17  1  0.83590300  0.09343800  0.71884600  1
  Cu  Cu18  1  0.90656200  0.74246600  0.71884600  1
  Cu  Cu19  1  0.66666700  0.33333300  0.46070600  1
  Cu  Cu20  1  0.89286800  0.41588400  0.98084800  1
  Cu  Cu21  1  0.09343800  0.25753400  0.21884600  1
  Cu  Cu22  1  0.10713200  0.58411600  0.48084800  1
  Cu  Cu23  1  0.74246600  0.83590300  0.21884600  1
