# generated using pymatgen
data_CuNi2C3
_symmetry_space_group_name_H-M   'P 1'
_cell_length_a   6.79737900
_cell_length_b   6.14827700
_cell_length_c   8.52663437
_cell_angle_alpha   89.18087005
_cell_angle_beta   90.00000000
_cell_angle_gamma   90.00000000
_symmetry_Int_Tables_number   1
_chemical_formula_structural   CuNi2C3
_chemical_formula_sum   'Cu4 Ni8 C12'
_cell_volume   356.31012786
_cell_formula_units_Z   4
loop_
 _symmetry_equiv_pos_site_id
 _symmetry_equiv_pos_as_xyz
  1  'x, y, z'
loop_
 _atom_site_type_symbol
 _atom_site_label
 _atom_site_symmetry_multiplicity
 _atom_site_fract_x
 _atom_site_fract_y
 _atom_site_fract_z
 _atom_site_occupancy
  C  C0  1  0.48948200  0.27090600  0.33313100  1
  C  C1  1  0.75000000  0.49768700  0.01665900  1
  C  C2  1  0.51051800  0.72909400  0.66686900  1
  C  C3  1  0.25000000  0.50231300  0.98334100  1
  C  C4  1  0.50000000  0.00000000  0.00000000  1
  C  C5  1  0.75000000  0.80587700  0.33014900  1
  C  C6  1  0.00000000  0.00000000  0.00000000  1
  C  C7  1  0.01051800  0.27090600  0.33313100  1
  C  C8  1  0.98948200  0.72909400  0.66686900  1
  C  C9  1  0.25000000  0.19412300  0.66985100  1
  C  C10  1  0.75000000  0.27860700  0.67727000  1
  C  C11  1  0.25000000  0.72139300  0.32273000  1
  Ni  Ni12  1  0.97562000  0.33320700  0.80946400  1
  Ni  Ni13  1  0.75000000  0.02221100  0.55577500  1
  Ni  Ni14  1  0.47562000  0.66679300  0.19053600  1
  Ni  Ni15  1  0.25000000  0.97778900  0.44422500  1
  Ni  Ni16  1  0.52438000  0.33320700  0.80946400  1
  Ni  Ni17  1  0.02438000  0.66679300  0.19053600  1
  Ni  Ni18  1  0.25000000  0.49789600  0.47670800  1
  Ni  Ni19  1  0.75000000  0.50210400  0.52329200  1
  Cu  Cu20  1  0.75000000  0.15315600  0.17161400  1
  Cu  Cu21  1  0.25000000  0.19461600  0.12622500  1
  Cu  Cu22  1  0.75000000  0.80538400  0.87377500  1
  Cu  Cu23  1  0.25000000  0.84684400  0.82838600  1
