# generated using pymatgen
data_Cu12NiC8
_symmetry_space_group_name_H-M   'P 1'
_cell_length_a   10.23430824
_cell_length_b   10.23430824
_cell_length_c   7.35724600
_cell_angle_alpha   90.00000000
_cell_angle_beta   90.00000000
_cell_angle_gamma   120.00000158
_symmetry_Int_Tables_number   1
_chemical_formula_structural   Cu12NiC8
_chemical_formula_sum   'Cu24 Ni2 C16'
_cell_volume   667.36417397
_cell_formula_units_Z   2
loop_
 _symmetry_equiv_pos_site_id
 _symmetry_equiv_pos_as_xyz
  1  'x, y, z'
loop_
 _atom_site_type_symbol
 _atom_site_label
 _atom_site_symmetry_multiplicity
 _atom_site_fract_x
 _atom_site_fract_y
 _atom_site_fract_z
 _atom_site_occupancy
  C  C0  1  0.41307100  0.37819500  0.25000000  1
  C  C1  1  0.03487500  0.41307100  0.75000000  1
  C  C2  1  0.37819500  0.96512500  0.75000000  1
  C  C3  1  0.62180500  0.03487500  0.25000000  1
  C  C4  1  0.96512500  0.58692900  0.25000000  1
  C  C5  1  0.58692900  0.62180500  0.75000000  1
  C  C6  1  0.33333300  0.66666700  0.00608000  1
  C  C7  1  0.66666700  0.33333300  0.50608000  1
  C  C8  1  0.66666700  0.33333300  0.99392000  1
  C  C9  1  0.33333300  0.66666700  0.49392000  1
  C  C10  1  0.26185200  0.01962300  0.25000000  1
  C  C11  1  0.24222900  0.26185200  0.75000000  1
  C  C12  1  0.01962300  0.75777100  0.75000000  1
  C  C13  1  0.98037700  0.24222900  0.25000000  1
  C  C14  1  0.75777100  0.73814800  0.25000000  1
  C  C15  1  0.73814800  0.98037700  0.75000000  1
  Ni  Ni16  1  0.00000000  0.00000000  0.00000000  1
  Ni  Ni17  1  0.00000000  0.00000000  0.50000000  1
  Cu  Cu18  1  0.35133900  0.48833900  0.25000000  1
  Cu  Cu19  1  0.86299900  0.35133900  0.75000000  1
  Cu  Cu20  1  0.48833900  0.13700100  0.75000000  1
  Cu  Cu21  1  0.51166100  0.86299900  0.25000000  1
  Cu  Cu22  1  0.13700100  0.64866100  0.25000000  1
  Cu  Cu23  1  0.64866100  0.51166100  0.75000000  1
  Cu  Cu24  1  0.59160900  0.46828600  0.25000000  1
  Cu  Cu25  1  0.12332300  0.59160900  0.75000000  1
  Cu  Cu26  1  0.46828600  0.87667700  0.75000000  1
  Cu  Cu27  1  0.53171400  0.12332300  0.25000000  1
  Cu  Cu28  1  0.87667700  0.40839100  0.25000000  1
  Cu  Cu29  1  0.40839100  0.53171400  0.75000000  1
  Cu  Cu30  1  0.36259500  0.27308200  0.07933900  1
  Cu  Cu31  1  0.08951200  0.36259500  0.57933900  1
  Cu  Cu32  1  0.27308200  0.91048800  0.57933900  1
  Cu  Cu33  1  0.72691800  0.08951200  0.07933900  1
  Cu  Cu34  1  0.91048800  0.63740500  0.07933900  1
  Cu  Cu35  1  0.63740500  0.72691800  0.57933900  1
  Cu  Cu36  1  0.63740500  0.72691800  0.92066100  1
  Cu  Cu37  1  0.91048800  0.63740500  0.42066100  1
  Cu  Cu38  1  0.72691800  0.08951200  0.42066100  1
  Cu  Cu39  1  0.27308200  0.91048800  0.92066100  1
  Cu  Cu40  1  0.08951200  0.36259500  0.92066100  1
  Cu  Cu41  1  0.36259500  0.27308200  0.42066100  1
