# generated using pymatgen
data_Cu5NiC4
_symmetry_space_group_name_H-M   'P 1'
_cell_length_a   10.82086800
_cell_length_b   11.08160740
_cell_length_c   11.21002089
_cell_angle_alpha   80.91178194
_cell_angle_beta   83.88765026
_cell_angle_gamma   70.98698757
_symmetry_Int_Tables_number   1
_chemical_formula_structural   Cu5NiC4
_chemical_formula_sum   'Cu30 Ni6 C24'
_cell_volume   1252.75270836
_cell_formula_units_Z   6
loop_
 _symmetry_equiv_pos_site_id
 _symmetry_equiv_pos_as_xyz
  1  'x, y, z'
loop_
 _atom_site_type_symbol
 _atom_site_label
 _atom_site_symmetry_multiplicity
 _atom_site_fract_x
 _atom_site_fract_y
 _atom_site_fract_z
 _atom_site_occupancy
  C  C0  1  0.50000000  0.00000000  0.50000000  1
  C  C1  1  0.00000000  0.50000000  0.00000000  1
  C  C2  1  0.23772100  0.17739500  0.02947500  1
  C  C3  1  0.08661200  0.56967500  0.67960500  1
  C  C4  1  0.76227900  0.82260500  0.97052500  1
  C  C5  1  0.76731000  0.34684900  0.93529700  1
  C  C6  1  0.91338800  0.43032500  0.32039500  1
  C  C7  1  0.23269000  0.65315100  0.06470300  1
  C  C8  1  0.47924300  0.66885200  0.42138900  1
  C  C9  1  0.37772700  0.84014200  0.32550000  1
  C  C10  1  0.62227300  0.15985800  0.67450000  1
  C  C11  1  0.49261500  0.72400700  0.70920200  1
  C  C12  1  0.41067600  0.29272800  0.45810600  1
  C  C13  1  0.18374800  0.04673100  0.50278700  1
  C  C14  1  0.20334000  0.97267700  0.68170400  1
  C  C15  1  0.18927900  0.90631400  0.39950800  1
  C  C16  1  0.40092600  0.91970000  0.71309800  1
  C  C17  1  0.81625200  0.95326900  0.49721300  1
  C  C18  1  0.79666000  0.02732300  0.31829600  1
  C  C19  1  0.59907400  0.08030000  0.28690200  1
  C  C20  1  0.50738500  0.27599300  0.29079800  1
  C  C21  1  0.58932400  0.70727200  0.54189400  1
  C  C22  1  0.52075700  0.33114800  0.57861100  1
  C  C23  1  0.81072100  0.09368600  0.60049200  1
  Ni  Ni24  1  0.11004700  0.51473000  0.84650700  1
  Ni  Ni25  1  0.14645100  0.34656500  0.06303800  1
  Ni  Ni26  1  0.92432300  0.38921200  0.92493300  1
  Ni  Ni27  1  0.88995300  0.48527000  0.15349300  1
  Ni  Ni28  1  0.07567700  0.61078800  0.07506700  1
  Ni  Ni29  1  0.85354900  0.65343500  0.93696200  1
  Cu  Cu30  1  0.09307100  0.11890100  0.07548500  1
  Cu  Cu31  1  0.72531100  0.43240700  0.77905600  1
  Cu  Cu32  1  0.66536100  0.99315400  0.99168900  1
  Cu  Cu33  1  0.20511300  0.74467000  0.90836500  1
  Cu  Cu34  1  0.13910400  0.80358300  0.13259600  1
  Cu  Cu35  1  0.91170500  0.57274700  0.68416400  1
  Cu  Cu36  1  0.28834400  0.13690300  0.19036600  1
  Cu  Cu37  1  0.08829500  0.42725300  0.31583600  1
  Cu  Cu38  1  0.14406100  0.39894600  0.64505100  1
  Cu  Cu39  1  0.33463900  0.00684600  0.00831100  1
  Cu  Cu40  1  0.79488700  0.25533000  0.09163500  1
  Cu  Cu41  1  0.39125400  0.21990700  0.98175900  1
  Cu  Cu42  1  0.86089600  0.19641700  0.86740400  1
  Cu  Cu43  1  0.71165600  0.86309700  0.80963400  1
  Cu  Cu44  1  0.61667100  0.29751400  0.93990300  1
  Cu  Cu45  1  0.60874600  0.78009300  0.01824100  1
  Cu  Cu46  1  0.97127200  0.25467700  0.30089700  1
  Cu  Cu47  1  0.02872800  0.74532300  0.69910300  1
  Cu  Cu48  1  0.38332900  0.70248600  0.06009700  1
  Cu  Cu49  1  0.80281900  0.79566900  0.13346100  1
  Cu  Cu50  1  0.27468900  0.56759300  0.22094400  1
  Cu  Cu51  1  0.66268700  0.49475800  0.00195000  1
  Cu  Cu52  1  0.07702700  0.62186400  0.51221200  1
  Cu  Cu53  1  0.26034800  0.57208800  0.66146300  1
  Cu  Cu54  1  0.19718100  0.20433100  0.86653900  1
  Cu  Cu55  1  0.85593900  0.60105400  0.35494900  1
  Cu  Cu56  1  0.90692900  0.88109900  0.92451500  1
  Cu  Cu57  1  0.92297300  0.37813600  0.48778800  1
  Cu  Cu58  1  0.33731300  0.50524200  0.99805000  1
  Cu  Cu59  1  0.73965200  0.42791200  0.33853700  1
