# generated using pymatgen
data_CuNiC
_symmetry_space_group_name_H-M   'P 1'
_cell_length_a   5.62935400
_cell_length_b   5.75869900
_cell_length_c   7.86624500
_cell_angle_alpha   90.00000000
_cell_angle_beta   90.00000000
_cell_angle_gamma   90.00000000
_symmetry_Int_Tables_number   1
_chemical_formula_structural   CuNiC
_chemical_formula_sum   'Cu4 Ni4 C4'
_cell_volume   255.00600515
_cell_formula_units_Z   4
loop_
 _symmetry_equiv_pos_site_id
 _symmetry_equiv_pos_as_xyz
  1  'x, y, z'
loop_
 _atom_site_type_symbol
 _atom_site_label
 _atom_site_symmetry_multiplicity
 _atom_site_fract_x
 _atom_site_fract_y
 _atom_site_fract_z
 _atom_site_occupancy
  C  C0  1  0.25000000  0.36406500  0.60037700  1
  C  C1  1  0.75000000  0.63593500  0.39962300  1
  C  C2  1  0.75000000  0.36406500  0.89962300  1
  C  C3  1  0.25000000  0.63593500  0.10037700  1
  Ni  Ni4  1  0.00000000  0.10434700  0.25000000  1
  Ni  Ni5  1  0.50000000  0.10434700  0.25000000  1
  Ni  Ni6  1  0.50000000  0.89565300  0.75000000  1
  Ni  Ni7  1  0.00000000  0.89565300  0.75000000  1
  Cu  Cu8  1  0.25000000  0.12863500  0.97527400  1
  Cu  Cu9  1  0.25000000  0.87136500  0.47527400  1
  Cu  Cu10  1  0.75000000  0.12863500  0.52472600  1
  Cu  Cu11  1  0.75000000  0.87136500  0.02472600  1
