# generated using pymatgen
data_Cu7NiC4
_symmetry_space_group_name_H-M   'P 1'
_cell_length_a   9.99638804
_cell_length_b   9.99638804
_cell_length_c   5.83603100
_cell_angle_alpha   90.00000000
_cell_angle_beta   90.00000000
_cell_angle_gamma   120.00000026
_symmetry_Int_Tables_number   1
_chemical_formula_structural   Cu7NiC4
_chemical_formula_sum   'Cu14 Ni2 C8'
_cell_volume   505.05006707
_cell_formula_units_Z   2
loop_
 _symmetry_equiv_pos_site_id
 _symmetry_equiv_pos_as_xyz
  1  'x, y, z'
loop_
 _atom_site_type_symbol
 _atom_site_label
 _atom_site_symmetry_multiplicity
 _atom_site_fract_x
 _atom_site_fract_y
 _atom_site_fract_z
 _atom_site_occupancy
  C  C0  1  0.35680600  0.12992900  0.24906900  1
  C  C1  1  0.22687800  0.35680600  0.74906900  1
  C  C2  1  0.64319400  0.87007100  0.74906900  1
  C  C3  1  0.87007100  0.22687800  0.24906900  1
  C  C4  1  0.77312200  0.64319400  0.24906900  1
  C  C5  1  0.12992900  0.77312200  0.74906900  1
  C  C6  1  0.00000000  0.00000000  0.70578600  1
  C  C7  1  0.00000000  0.00000000  0.20578600  1
  Ni  Ni8  1  0.66666700  0.33333300  0.83232400  1
  Ni  Ni9  1  0.33333300  0.66666700  0.33232400  1
  Cu  Cu10  1  0.16107500  0.25614100  0.21902400  1
  Cu  Cu11  1  0.83892500  0.74385900  0.71902400  1
  Cu  Cu12  1  0.90493500  0.16107500  0.71902400  1
  Cu  Cu13  1  0.25614100  0.09506500  0.71902400  1
  Cu  Cu14  1  0.41894000  0.89975900  0.49143800  1
  Cu  Cu15  1  0.09506500  0.83892500  0.21902400  1
  Cu  Cu16  1  0.48081900  0.58106000  0.49143800  1
  Cu  Cu17  1  0.33333300  0.66666700  0.95449600  1
  Cu  Cu18  1  0.89975900  0.48081900  0.99143800  1
  Cu  Cu19  1  0.74385900  0.90493500  0.21902400  1
  Cu  Cu20  1  0.66666700  0.33333300  0.45449600  1
  Cu  Cu21  1  0.10024100  0.51918100  0.49143800  1
  Cu  Cu22  1  0.58106000  0.10024100  0.99143800  1
  Cu  Cu23  1  0.51918100  0.41894000  0.99143800  1
