# generated using pymatgen
data_Cu2NiC4
_symmetry_space_group_name_H-M   'P 1'
_cell_length_a   6.37008000
_cell_length_b   6.62438300
_cell_length_c   10.32274100
_cell_angle_alpha   90.00000000
_cell_angle_beta   90.00000000
_cell_angle_gamma   90.00000000
_symmetry_Int_Tables_number   1
_chemical_formula_structural   Cu2NiC4
_chemical_formula_sum   'Cu8 Ni4 C16'
_cell_volume   435.59747280
_cell_formula_units_Z   4
loop_
 _symmetry_equiv_pos_site_id
 _symmetry_equiv_pos_as_xyz
  1  'x, y, z'
loop_
 _atom_site_type_symbol
 _atom_site_label
 _atom_site_symmetry_multiplicity
 _atom_site_fract_x
 _atom_site_fract_y
 _atom_site_fract_z
 _atom_site_occupancy
  Ni  Ni0  1  0.75000000  0.16227900  0.52535000  1
  Ni  Ni1  1  0.25000000  0.83772100  0.47465000  1
  Ni  Ni2  1  0.75000000  0.66227900  0.97465000  1
  Ni  Ni3  1  0.25000000  0.33772100  0.02535000  1
  Cu  Cu4  1  0.50610900  0.50651900  0.26954100  1
  Cu  Cu5  1  0.00610900  0.49348100  0.73045900  1
  Cu  Cu6  1  0.99389100  0.00651900  0.23045900  1
  Cu  Cu7  1  0.49389100  0.99348100  0.76954100  1
  Cu  Cu8  1  0.49389100  0.49348100  0.73045900  1
  Cu  Cu9  1  0.99389100  0.50651900  0.26954100  1
  Cu  Cu10  1  0.00610900  0.99348100  0.76954100  1
  Cu  Cu11  1  0.50610900  0.00651900  0.23045900  1
  C  C12  1  0.75000000  0.67000200  0.50755800  1
  C  C13  1  0.25000000  0.32999800  0.49244200  1
  C  C14  1  0.75000000  0.17000200  0.99244200  1
  C  C15  1  0.25000000  0.82999800  0.00755800  1
  C  C16  1  0.75000000  0.33291100  0.14126800  1
  C  C17  1  0.25000000  0.66708900  0.85873200  1
  C  C18  1  0.75000000  0.83291100  0.35873200  1
  C  C19  1  0.25000000  0.16708900  0.64126800  1
  C  C20  1  0.50000000  0.50000000  0.50000000  1
  C  C21  1  0.00000000  0.50000000  0.50000000  1
  C  C22  1  0.00000000  0.00000000  0.00000000  1
  C  C23  1  0.50000000  0.00000000  0.00000000  1
  C  C24  1  0.75000000  0.79359500  0.67112700  1
  C  C25  1  0.25000000  0.20640500  0.32887300  1
  C  C26  1  0.75000000  0.29359500  0.82887300  1
  C  C27  1  0.25000000  0.70640500  0.17112700  1
