# generated using pymatgen
data_Cu4Ni2C13
_symmetry_space_group_name_H-M   'P 1'
_cell_length_a   16.31678300
_cell_length_b   4.48337100
_cell_length_c   8.32685372
_cell_angle_alpha   84.63191073
_cell_angle_beta   90.00000000
_cell_angle_gamma   90.00000000
_symmetry_Int_Tables_number   1
_chemical_formula_structural   Cu4Ni2C13
_chemical_formula_sum   'Cu8 Ni4 C26'
_cell_volume   606.47268282
_cell_formula_units_Z   2
loop_
 _symmetry_equiv_pos_site_id
 _symmetry_equiv_pos_as_xyz
  1  'x, y, z'
loop_
 _atom_site_type_symbol
 _atom_site_label
 _atom_site_symmetry_multiplicity
 _atom_site_fract_x
 _atom_site_fract_y
 _atom_site_fract_z
 _atom_site_occupancy
  C  C0  1  0.00000000  0.00000000  0.00000000  1
  C  C1  1  0.50000000  0.00000000  0.50000000  1
  Ni  Ni2  1  0.27213000  0.50113500  0.53159800  1
  Ni  Ni3  1  0.72787000  0.49886500  0.46840200  1
  Ni  Ni4  1  0.77213000  0.49886500  0.96840200  1
  Ni  Ni5  1  0.22787000  0.50113500  0.03159800  1
  Cu  Cu6  1  0.42925100  0.55277900  0.25548000  1
  Cu  Cu7  1  0.13032700  0.97934100  0.36333800  1
  Cu  Cu8  1  0.92925100  0.44722100  0.24452000  1
  Cu  Cu9  1  0.07074900  0.55277900  0.75548000  1
  Cu  Cu10  1  0.86967300  0.02065900  0.63666200  1
  Cu  Cu11  1  0.63032700  0.02065900  0.13666200  1
  Cu  Cu12  1  0.57074900  0.44722100  0.74452000  1
  Cu  Cu13  1  0.36967300  0.97934100  0.86333800  1
  C  C14  1  0.17653500  0.46852400  0.75662900  1
  C  C15  1  0.34855700  0.59579700  0.87781300  1
  C  C16  1  0.27792700  0.05190200  0.96695100  1
  C  C17  1  0.84855700  0.40420300  0.62218700  1
  C  C18  1  0.85061300  0.92071500  0.83584400  1
  C  C19  1  0.65144300  0.40420300  0.12218700  1
  C  C20  1  0.47523000  0.20743400  0.28443100  1
  C  C21  1  0.57230900  0.32835500  0.55254100  1
  C  C22  1  0.64938700  0.92071500  0.33584400  1
  C  C23  1  0.02477000  0.20743400  0.78443100  1
  C  C24  1  0.32346500  0.46852400  0.25662900  1
  C  C25  1  0.35061300  0.07928500  0.66415600  1
  C  C26  1  0.22207300  0.05190200  0.46695100  1
  C  C27  1  0.92769100  0.32835500  0.05254100  1
  C  C28  1  0.15144300  0.59579700  0.37781300  1
  C  C29  1  0.72207300  0.94809800  0.03304900  1
  C  C30  1  0.67653500  0.53147600  0.74337100  1
  C  C31  1  0.82346500  0.53147600  0.24337100  1
  C  C32  1  0.52477000  0.79256600  0.71556900  1
  C  C33  1  0.42769100  0.67164500  0.44745900  1
  C  C34  1  0.14938700  0.07928500  0.16415600  1
  C  C35  1  0.07230900  0.67164500  0.94745900  1
  C  C36  1  0.77792700  0.94809800  0.53304900  1
  C  C37  1  0.97523000  0.79256600  0.21556900  1
