# generated using pymatgen
data_Cu7(NiC17)2
_symmetry_space_group_name_H-M   'P 1'
_cell_length_a   12.85148237
_cell_length_b   12.85148237
_cell_length_c   9.76711800
_cell_angle_alpha   90.00000000
_cell_angle_beta   90.00000000
_cell_angle_gamma   129.20851144
_symmetry_Int_Tables_number   1
_chemical_formula_structural   Cu7(NiC17)2
_chemical_formula_sum   'Cu14 Ni4 C68'
_cell_volume   1249.94485240
_cell_formula_units_Z   2
loop_
 _symmetry_equiv_pos_site_id
 _symmetry_equiv_pos_as_xyz
  1  'x, y, z'
loop_
 _atom_site_type_symbol
 _atom_site_label
 _atom_site_symmetry_multiplicity
 _atom_site_fract_x
 _atom_site_fract_y
 _atom_site_fract_z
 _atom_site_occupancy
  Ni  Ni0  1  0.50000000  0.50000000  0.79118600  1
  Ni  Ni1  1  0.83397300  0.83397300  0.00000000  1
  Ni  Ni2  1  0.16602700  0.16602700  0.00000000  1
  Ni  Ni3  1  0.50000000  0.50000000  0.20881400  1
  Cu  Cu4  1  0.87900200  0.12099800  0.29492100  1
  Cu  Cu5  1  0.00000000  0.50000000  0.26580900  1
  Cu  Cu6  1  0.50000000  0.00000000  0.26580900  1
  Cu  Cu7  1  0.66379500  0.33620500  0.00000000  1
  Cu  Cu8  1  0.18038500  0.38594700  0.50000000  1
  Cu  Cu9  1  0.87900200  0.12099800  0.70507900  1
  Cu  Cu10  1  0.38594700  0.18038500  0.50000000  1
  Cu  Cu11  1  0.12099800  0.87900200  0.70507900  1
  Cu  Cu12  1  0.61405300  0.81961500  0.50000000  1
  Cu  Cu13  1  0.12099800  0.87900200  0.29492100  1
  Cu  Cu14  1  0.33620500  0.66379500  0.00000000  1
  Cu  Cu15  1  0.50000000  0.00000000  0.73419100  1
  Cu  Cu16  1  0.81961500  0.61405300  0.50000000  1
  Cu  Cu17  1  0.00000000  0.50000000  0.73419100  1
  C  C18  1  0.67345000  0.32655000  0.33888200  1
  C  C19  1  0.61611500  0.84690700  0.83877200  1
  C  C20  1  0.67345000  0.32655000  0.66111800  1
  C  C21  1  0.15197800  0.15197800  0.32851600  1
  C  C22  1  0.78516500  0.21483500  0.50000000  1
  C  C23  1  0.07031500  0.66685400  0.00000000  1
  C  C24  1  0.21483500  0.78516500  0.50000000  1
  C  C25  1  0.61611500  0.84690700  0.16122800  1
  C  C26  1  0.32655000  0.67345000  0.33888200  1
  C  C27  1  0.66685400  0.07031500  0.00000000  1
  C  C28  1  0.92968500  0.33314600  0.00000000  1
  C  C29  1  0.84802200  0.84802200  0.67148400  1
  C  C30  1  0.84690700  0.61611500  0.83877200  1
  C  C31  1  0.32655000  0.67345000  0.66111800  1
  C  C32  1  0.84802200  0.84802200  0.32851600  1
  C  C33  1  0.38388500  0.15309300  0.16122800  1
  C  C34  1  0.33314600  0.92968500  0.00000000  1
  C  C35  1  0.15197800  0.15197800  0.67148400  1
  C  C36  1  0.84690700  0.61611500  0.16122800  1
  C  C37  1  0.15309300  0.38388500  0.16122800  1
  C  C38  1  0.15309300  0.38388500  0.83877200  1
  C  C39  1  0.38388500  0.15309300  0.83877200  1
  C  C40  1  0.76075700  0.23924300  0.00000000  1
  C  C41  1  0.36242000  0.63758000  0.50000000  1
  C  C42  1  0.23440200  0.41516800  0.00000000  1
  C  C43  1  0.83618800  0.71618000  0.73421300  1
  C  C44  1  0.58483200  0.76559800  0.00000000  1
  C  C45  1  0.22144600  0.52915800  0.75366500  1
  C  C46  1  0.52915800  0.22144600  0.24633500  1
  C  C47  1  0.77855400  0.47084200  0.24633500  1
  C  C48  1  0.69290300  0.01476200  0.14588300  1
  C  C49  1  0.71618000  0.83618800  0.26578700  1
  C  C50  1  0.98523800  0.30709700  0.85411700  1
  C  C51  1  0.00000000  0.50000000  0.00000000  1
  C  C52  1  0.77855400  0.47084200  0.75366500  1
  C  C53  1  0.30709700  0.98523800  0.14588300  1
  C  C54  1  0.47084200  0.77855400  0.75366500  1
  C  C55  1  0.70895200  0.04085700  0.50000000  1
  C  C56  1  0.16381200  0.28382000  0.73421300  1
  C  C57  1  0.01476200  0.69290300  0.14588300  1
  C  C58  1  0.28382000  0.16381200  0.26578700  1
  C  C59  1  0.25300500  0.74699500  0.64914500  1
  C  C60  1  0.01476200  0.69290300  0.85411700  1
  C  C61  1  0.83618800  0.71618000  0.26578700  1
  C  C62  1  0.69290300  0.01476200  0.85411700  1
  C  C63  1  0.16381200  0.28382000  0.26578700  1
  C  C64  1  0.52915800  0.22144600  0.75366500  1
  C  C65  1  0.63758000  0.36242000  0.50000000  1
  C  C66  1  0.47084200  0.77855400  0.24633500  1
  C  C67  1  0.81770600  0.81770600  0.50000000  1
  C  C68  1  0.18229400  0.18229400  0.50000000  1
  C  C69  1  0.30709700  0.98523800  0.85411700  1
  C  C70  1  0.29104800  0.95914300  0.50000000  1
  C  C71  1  0.28382000  0.16381200  0.73421300  1
  C  C72  1  0.22144600  0.52915800  0.24633500  1
  C  C73  1  0.74699500  0.25300500  0.35085500  1
  C  C74  1  0.23924300  0.76075700  0.00000000  1
  C  C75  1  0.74699500  0.25300500  0.64914500  1
  C  C76  1  0.98523800  0.30709700  0.14588300  1
  C  C77  1  0.00000000  0.00000000  0.27485200  1
  C  C78  1  0.95914300  0.29104800  0.50000000  1
  C  C79  1  0.50000000  0.00000000  0.00000000  1
  C  C80  1  0.04085700  0.70895200  0.50000000  1
  C  C81  1  0.00000000  0.00000000  0.72514800  1
  C  C82  1  0.71618000  0.83618800  0.73421300  1
  C  C83  1  0.25300500  0.74699500  0.35085500  1
  C  C84  1  0.41516800  0.23440200  0.00000000  1
  C  C85  1  0.76559800  0.58483200  0.00000000  1
