# generated using pymatgen
data_Cu5Ni2C3
_symmetry_space_group_name_H-M   'P 1'
_cell_length_a   8.74238516
_cell_length_b   8.74238516
_cell_length_c   17.07858800
_cell_angle_alpha   90.00000000
_cell_angle_beta   90.00000000
_cell_angle_gamma   127.60797922
_symmetry_Int_Tables_number   1
_chemical_formula_structural   Cu5Ni2C3
_chemical_formula_sum   'Cu20 Ni8 C12'
_cell_volume   1034.06831013
_cell_formula_units_Z   4
loop_
 _symmetry_equiv_pos_site_id
 _symmetry_equiv_pos_as_xyz
  1  'x, y, z'
loop_
 _atom_site_type_symbol
 _atom_site_label
 _atom_site_symmetry_multiplicity
 _atom_site_fract_x
 _atom_site_fract_y
 _atom_site_fract_z
 _atom_site_occupancy
  C  C0  1  0.10297400  0.60297400  0.25000000  1
  C  C1  1  0.89702600  0.39702600  0.75000000  1
  C  C2  1  0.60297400  0.10297400  0.25000000  1
  C  C3  1  0.39702600  0.89702600  0.75000000  1
  C  C4  1  0.64944300  0.35055700  0.00000000  1
  C  C5  1  0.14944300  0.85055700  0.50000000  1
  C  C6  1  0.91195000  0.91195000  0.31908600  1
  C  C7  1  0.35055700  0.64944300  0.00000000  1
  C  C8  1  0.08805000  0.08805000  0.68091400  1
  C  C9  1  0.85055700  0.14944300  0.50000000  1
  C  C10  1  0.58805000  0.58805000  0.81908600  1
  C  C11  1  0.41195000  0.41195000  0.18091400  1
  Ni  Ni12  1  0.41507200  0.64856700  0.39283200  1
  Ni  Ni13  1  0.35143300  0.58492800  0.60716800  1
  Ni  Ni14  1  0.08492800  0.85143300  0.89283200  1
  Ni  Ni15  1  0.85143300  0.08492800  0.89283200  1
  Ni  Ni16  1  0.58492800  0.35143300  0.60716800  1
  Ni  Ni17  1  0.91507200  0.14856700  0.10716800  1
  Ni  Ni18  1  0.14856700  0.91507200  0.10716800  1
  Ni  Ni19  1  0.64856700  0.41507200  0.39283200  1
  Cu  Cu20  1  0.04857400  0.60958000  0.10372500  1
  Cu  Cu21  1  0.46958600  0.74463200  0.26474300  1
  Cu  Cu22  1  0.25536800  0.53041400  0.73525700  1
  Cu  Cu23  1  0.84468300  0.84468300  0.11954900  1
  Cu  Cu24  1  0.10958000  0.54857400  0.39627500  1
  Cu  Cu25  1  0.75536800  0.03041400  0.76474300  1
  Cu  Cu26  1  0.34468300  0.34468300  0.38045100  1
  Cu  Cu27  1  0.39042000  0.95142600  0.89627500  1
  Cu  Cu28  1  0.60958000  0.04857400  0.10372500  1
  Cu  Cu29  1  0.15531700  0.15531700  0.88045100  1
  Cu  Cu30  1  0.89042000  0.45142600  0.60372500  1
  Cu  Cu31  1  0.96958600  0.24463200  0.23525700  1
  Cu  Cu32  1  0.65531700  0.65531700  0.61954900  1
  Cu  Cu33  1  0.03041400  0.75536800  0.76474300  1
  Cu  Cu34  1  0.74463200  0.46958600  0.26474300  1
  Cu  Cu35  1  0.45142600  0.89042000  0.60372500  1
  Cu  Cu36  1  0.95142600  0.39042000  0.89627500  1
  Cu  Cu37  1  0.54857400  0.10958000  0.39627500  1
  Cu  Cu38  1  0.53041400  0.25536800  0.73525700  1
  Cu  Cu39  1  0.24463200  0.96958600  0.23525700  1
