# generated using pymatgen
data_Cu10Ni2C9
_symmetry_space_group_name_H-M   'P 1'
_cell_length_a   6.57786600
_cell_length_b   8.37276600
_cell_length_c   8.54555010
_cell_angle_alpha   80.85335286
_cell_angle_beta   90.00000000
_cell_angle_gamma   90.00000000
_symmetry_Int_Tables_number   1
_chemical_formula_structural   Cu10Ni2C9
_chemical_formula_sum   'Cu20 Ni4 C18'
_cell_volume   464.66120484
_cell_formula_units_Z   2
loop_
 _symmetry_equiv_pos_site_id
 _symmetry_equiv_pos_as_xyz
  1  'x, y, z'
loop_
 _atom_site_type_symbol
 _atom_site_label
 _atom_site_symmetry_multiplicity
 _atom_site_fract_x
 _atom_site_fract_y
 _atom_site_fract_z
 _atom_site_occupancy
  C  C0  1  0.00000000  0.00000000  0.00000000  1
  C  C1  1  0.50000000  0.00000000  0.50000000  1
  C  C2  1  0.99436500  0.84522500  0.76258300  1
  C  C3  1  0.49436500  0.15477500  0.73741700  1
  C  C4  1  0.00563500  0.15477500  0.23741700  1
  C  C5  1  0.50563500  0.84522500  0.26258300  1
  C  C6  1  0.87419600  0.00897700  0.69749700  1
  C  C7  1  0.37419600  0.99102300  0.80250300  1
  C  C8  1  0.12580400  0.99102300  0.30250300  1
  C  C9  1  0.62580400  0.00897700  0.19749700  1
  C  C10  1  0.21694200  0.27285900  0.94633500  1
  C  C11  1  0.71694200  0.72714100  0.55366500  1
  C  C12  1  0.78305800  0.72714100  0.05366500  1
  C  C13  1  0.28305800  0.27285900  0.44633500  1
  C  C14  1  0.11007200  0.26366400  0.77808000  1
  C  C15  1  0.61007200  0.73633600  0.72192000  1
  C  C16  1  0.88992800  0.73633600  0.22192000  1
  C  C17  1  0.38992800  0.26366400  0.27808000  1
  Ni  Ni18  1  0.67952100  0.33131100  0.97328000  1
  Ni  Ni19  1  0.17952100  0.66868900  0.52672000  1
  Ni  Ni20  1  0.32047900  0.66868900  0.02672000  1
  Ni  Ni21  1  0.82047900  0.33131100  0.47328000  1
  Cu  Cu22  1  0.71760500  0.11128100  0.02920800  1
  Cu  Cu23  1  0.21760500  0.88871900  0.47079200  1
  Cu  Cu24  1  0.28239500  0.88871900  0.97079200  1
  Cu  Cu25  1  0.78239500  0.11128100  0.52920800  1
  Cu  Cu26  1  0.61915800  0.33615500  0.76374800  1
  Cu  Cu27  1  0.11915800  0.66384500  0.73625200  1
  Cu  Cu28  1  0.38084200  0.66384500  0.23625200  1
  Cu  Cu29  1  0.88084200  0.33615500  0.26374800  1
  Cu  Cu30  1  0.07846700  0.33784200  0.55748900  1
  Cu  Cu31  1  0.57846700  0.66215800  0.94251100  1
  Cu  Cu32  1  0.92153300  0.66215800  0.44251100  1
  Cu  Cu33  1  0.42153300  0.33784200  0.05748900  1
  Cu  Cu34  1  0.90792700  0.93131900  0.79521200  1
  Cu  Cu35  1  0.40792700  0.06868100  0.70478800  1
  Cu  Cu36  1  0.09207300  0.06868100  0.20478800  1
  Cu  Cu37  1  0.59207300  0.93131900  0.29521200  1
  Cu  Cu38  1  0.09229600  0.23761400  0.89458000  1
  Cu  Cu39  1  0.59229600  0.76238600  0.60542000  1
  Cu  Cu40  1  0.90770400  0.76238600  0.10542000  1
  Cu  Cu41  1  0.40770400  0.23761400  0.39458000  1
