# generated using pymatgen
data_Cu3(NiC9)2
_symmetry_space_group_name_H-M   'P 1'
_cell_length_a   10.34783800
_cell_length_b   10.34783800
_cell_length_c   16.98591400
_cell_angle_alpha   90.00000000
_cell_angle_beta   90.00000000
_cell_angle_gamma   90.00000000
_symmetry_Int_Tables_number   1
_chemical_formula_structural   Cu3(NiC9)2
_chemical_formula_sum   'Cu12 Ni8 C72'
_cell_volume   1818.81347446
_cell_formula_units_Z   4
loop_
 _symmetry_equiv_pos_site_id
 _symmetry_equiv_pos_as_xyz
  1  'x, y, z'
loop_
 _atom_site_type_symbol
 _atom_site_label
 _atom_site_symmetry_multiplicity
 _atom_site_fract_x
 _atom_site_fract_y
 _atom_site_fract_z
 _atom_site_occupancy
  C  C0  1  0.50000000  0.00000000  0.84719000  1
  C  C1  1  0.50000000  0.00000000  0.34719000  1
  C  C2  1  0.00000000  0.50000000  0.15281000  1
  C  C3  1  0.50000000  0.50000000  0.24663900  1
  C  C4  1  0.00000000  0.00000000  0.25336100  1
  C  C5  1  0.50000000  0.50000000  0.75336100  1
  C  C6  1  0.00000000  0.00000000  0.74663900  1
  C  C7  1  0.00000000  0.50000000  0.65281000  1
  Ni  Ni8  1  0.29243700  0.19442100  0.08394600  1
  Ni  Ni9  1  0.70756300  0.80557900  0.08394600  1
  Ni  Ni10  1  0.79243700  0.69442100  0.41605400  1
  Ni  Ni11  1  0.69442100  0.20756300  0.58394600  1
  Ni  Ni12  1  0.20756300  0.30557900  0.41605400  1
  Ni  Ni13  1  0.80557900  0.29243700  0.91605400  1
  Ni  Ni14  1  0.30557900  0.79243700  0.58394600  1
  Ni  Ni15  1  0.19442100  0.70756300  0.91605400  1
  Cu  Cu16  1  0.84284900  0.33164400  0.38151900  1
  Cu  Cu17  1  0.65715100  0.16835600  0.11848100  1
  Cu  Cu18  1  0.15715100  0.66835600  0.38151900  1
  Cu  Cu19  1  0.33164400  0.15715100  0.61848100  1
  Cu  Cu20  1  0.34284900  0.83164400  0.11848100  1
  Cu  Cu21  1  0.83164400  0.65715100  0.88151900  1
  Cu  Cu22  1  0.50000000  0.50000000  0.50000000  1
  Cu  Cu23  1  0.50000000  0.50000000  0.00000000  1
  Cu  Cu24  1  0.16835600  0.34284900  0.88151900  1
  Cu  Cu25  1  0.00000000  0.00000000  0.50000000  1
  Cu  Cu26  1  0.66835600  0.84284900  0.61848100  1
  Cu  Cu27  1  0.00000000  0.00000000  0.00000000  1
  C  C28  1  0.23406400  0.79651900  0.33360500  1
  C  C29  1  0.48420700  0.23358600  0.64554600  1
  C  C30  1  0.20348100  0.23406400  0.66639500  1
  C  C31  1  0.89269800  0.36202900  0.99845300  1
  C  C32  1  0.69544500  0.82621300  0.51369200  1
  C  C33  1  0.98420700  0.73358600  0.85445400  1
  C  C34  1  0.61932000  0.42901700  0.93693100  1
  C  C35  1  0.66477300  0.01178500  0.65035500  1
  C  C36  1  0.77921900  0.71537400  0.16484900  1
  C  C37  1  0.72078100  0.78462600  0.33515100  1
  C  C38  1  0.26641400  0.98420700  0.14554600  1
  C  C39  1  0.23358600  0.51579300  0.35445400  1
  C  C40  1  0.32621300  0.80455500  0.01369200  1
  C  C41  1  0.36202900  0.10730200  0.00154700  1
  C  C42  1  0.57098300  0.61932000  0.06306900  1
  C  C43  1  0.86202900  0.60730200  0.49845300  1
  C  C44  1  0.76593600  0.20348100  0.33360500  1
  C  C45  1  0.38068000  0.57098300  0.93693100  1
  C  C46  1  0.83522700  0.48821500  0.84964500  1
  C  C47  1  0.70348100  0.73406400  0.83360500  1
  C  C48  1  0.38333700  0.57773600  0.56205000  1
  C  C49  1  0.11666300  0.92226400  0.93795000  1
  C  C50  1  0.98821500  0.66477300  0.34964500  1
  C  C51  1  0.21537400  0.72078100  0.66484900  1
  C  C52  1  0.29651900  0.26593600  0.83360500  1
  C  C53  1  0.60730200  0.13797100  0.50154700  1
  C  C54  1  0.82621300  0.30455500  0.48630800  1
  C  C55  1  0.22078100  0.28462600  0.16484900  1
  C  C56  1  0.67378700  0.19544500  0.01369200  1
  C  C57  1  0.07773600  0.11666300  0.06205000  1
  C  C58  1  0.42226400  0.38333700  0.43795000  1
  C  C59  1  0.27921900  0.21537400  0.33515100  1
  C  C60  1  0.42901700  0.38068000  0.06306900  1
  C  C61  1  0.63797100  0.89269800  0.00154700  1
  C  C62  1  0.39269800  0.86202900  0.50154700  1
  C  C63  1  0.07098300  0.11932000  0.43693100  1
  C  C64  1  0.88068000  0.07098300  0.56306900  1
  C  C65  1  0.16477300  0.51178500  0.84964500  1
  C  C66  1  0.79651900  0.76593600  0.66639500  1
  C  C67  1  0.01579300  0.26641400  0.85445400  1
  C  C68  1  0.80455500  0.67378700  0.98630800  1
  C  C69  1  0.01178500  0.33522700  0.34964500  1
  C  C70  1  0.11932000  0.92901700  0.56306900  1
  C  C71  1  0.48821500  0.16477300  0.15035500  1
  C  C72  1  0.73406400  0.29651900  0.16639500  1
  C  C73  1  0.88333700  0.07773600  0.93795000  1
  C  C74  1  0.26593600  0.70348100  0.16639500  1
  C  C75  1  0.51178500  0.83522700  0.15035500  1
  C  C76  1  0.33522700  0.98821500  0.65035500  1
  C  C77  1  0.19544500  0.32621300  0.98630800  1
  C  C78  1  0.51579300  0.76641400  0.64554600  1
  C  C79  1  0.78462600  0.27921900  0.66484900  1
  C  C80  1  0.76641400  0.48420700  0.35445400  1
  C  C81  1  0.92226400  0.88333700  0.06205000  1
  C  C82  1  0.92901700  0.88068000  0.43693100  1
  C  C83  1  0.30455500  0.17378700  0.51369200  1
  C  C84  1  0.28462600  0.77921900  0.83515100  1
  C  C85  1  0.57773600  0.61666300  0.43795000  1
  C  C86  1  0.10730200  0.63797100  0.99845300  1
  C  C87  1  0.71537400  0.22078100  0.83515100  1
  C  C88  1  0.73358600  0.01579300  0.14554600  1
  C  C89  1  0.17378700  0.69544500  0.48630800  1
  C  C90  1  0.61666300  0.42226400  0.56205000  1
  C  C91  1  0.13797100  0.39269800  0.49845300  1
