# generated using pymatgen
data_CuNi9C7
_symmetry_space_group_name_H-M   'P 1'
_cell_length_a   7.88270000
_cell_length_b   8.65137000
_cell_length_c   10.95802800
_cell_angle_alpha   90.00000000
_cell_angle_beta   90.00000000
_cell_angle_gamma   90.00000000
_symmetry_Int_Tables_number   1
_chemical_formula_structural   CuNi9C7
_chemical_formula_sum   'Cu4 Ni36 C28'
_cell_volume   747.29536830
_cell_formula_units_Z   4
loop_
 _symmetry_equiv_pos_site_id
 _symmetry_equiv_pos_as_xyz
  1  'x, y, z'
loop_
 _atom_site_type_symbol
 _atom_site_label
 _atom_site_symmetry_multiplicity
 _atom_site_fract_x
 _atom_site_fract_y
 _atom_site_fract_z
 _atom_site_occupancy
  C  C0  1  0.23754400  0.30076800  0.22646600  1
  C  C1  1  0.76245600  0.69923200  0.72646600  1
  C  C2  1  0.73754400  0.19923200  0.22646600  1
  C  C3  1  0.26245600  0.80076800  0.72646600  1
  C  C4  1  0.87164300  0.39741200  0.65413100  1
  C  C5  1  0.05814000  0.34844900  0.48695300  1
  C  C6  1  0.59435600  0.91292000  0.60299300  1
  C  C7  1  0.12835700  0.60258800  0.15413100  1
  C  C8  1  0.36302600  0.60648800  0.31308700  1
  C  C9  1  0.94186000  0.65155100  0.98695300  1
  C  C10  1  0.04665500  0.84186800  0.48313600  1
  C  C11  1  0.54665500  0.65813200  0.48313600  1
  C  C12  1  0.63697400  0.39351200  0.81308700  1
  C  C13  1  0.53859100  0.40405100  0.39438600  1
  C  C14  1  0.90564400  0.41292000  0.10299300  1
  C  C15  1  0.55814000  0.15155100  0.48695300  1
  C  C16  1  0.37164300  0.10258800  0.65413100  1
  C  C17  1  0.44186000  0.84844900  0.98695300  1
  C  C18  1  0.95334500  0.15813200  0.98313600  1
  C  C19  1  0.09435600  0.58708000  0.60299300  1
  C  C20  1  0.13697400  0.10648800  0.81308700  1
  C  C21  1  0.45334500  0.34186800  0.98313600  1
  C  C22  1  0.62835700  0.89741200  0.15413100  1
  C  C23  1  0.40564400  0.08708000  0.10299300  1
  C  C24  1  0.03859100  0.09594900  0.39438600  1
  C  C25  1  0.86302600  0.89351200  0.31308700  1
  C  C26  1  0.96140900  0.90405100  0.89438600  1
  C  C27  1  0.46140900  0.59594900  0.89438600  1
  Ni  Ni28  1  0.74980200  0.33831700  0.73067600  1
  Ni  Ni29  1  0.93239900  0.79148600  0.39557900  1
  Ni  Ni30  1  0.63271700  0.01140400  0.49826100  1
  Ni  Ni31  1  0.39509600  0.49449800  0.97752000  1
  Ni  Ni32  1  0.93545800  0.29620200  0.56800900  1
  Ni  Ni33  1  0.06832000  0.45445200  0.16301600  1
  Ni  Ni34  1  0.93168000  0.54554800  0.66301600  1
  Ni  Ni35  1  0.56760100  0.29148600  0.89557900  1
  Ni  Ni36  1  0.43239900  0.70851400  0.39557900  1
  Ni  Ni37  1  0.10490400  0.99449800  0.47752000  1
  Ni  Ni38  1  0.89787800  0.24750200  0.07554200  1
  Ni  Ni39  1  0.56454200  0.79620200  0.06800900  1
  Ni  Ni40  1  0.89509600  0.00550200  0.97752000  1
  Ni  Ni41  1  0.60490400  0.50550200  0.47752000  1
  Ni  Ni42  1  0.75019800  0.83831700  0.23067600  1
  Ni  Ni43  1  0.09524400  0.24821700  0.39053200  1
  Ni  Ni44  1  0.40475600  0.74821700  0.89053200  1
  Ni  Ni45  1  0.86728300  0.51140400  0.99826100  1
  Ni  Ni46  1  0.43545800  0.20379800  0.56800900  1
  Ni  Ni47  1  0.06760100  0.20851400  0.89557900  1
  Ni  Ni48  1  0.06454200  0.70379800  0.06800900  1
  Ni  Ni49  1  0.59524400  0.25178300  0.39053200  1
  Ni  Ni50  1  0.91493900  0.04898300  0.31156900  1
  Ni  Ni51  1  0.08506100  0.95101700  0.81156900  1
  Ni  Ni52  1  0.41493900  0.45101700  0.31156900  1
  Ni  Ni53  1  0.24980200  0.16168300  0.73067600  1
  Ni  Ni54  1  0.58506100  0.54898300  0.81156900  1
  Ni  Ni55  1  0.56832000  0.04554800  0.16301600  1
  Ni  Ni56  1  0.10212200  0.75249800  0.57554200  1
  Ni  Ni57  1  0.39787800  0.25249800  0.07554200  1
  Ni  Ni58  1  0.60212200  0.74750200  0.57554200  1
  Ni  Ni59  1  0.90475600  0.75178300  0.89053200  1
  Ni  Ni60  1  0.13271700  0.48859600  0.49826100  1
  Ni  Ni61  1  0.43168000  0.95445200  0.66301600  1
  Ni  Ni62  1  0.25019800  0.66168300  0.23067600  1
  Ni  Ni63  1  0.36728300  0.98859600  0.99826100  1
  Cu  Cu64  1  0.72843500  0.92814600  0.69484300  1
  Cu  Cu65  1  0.77156500  0.42814600  0.19484300  1
  Cu  Cu66  1  0.22843500  0.57185400  0.69484300  1
  Cu  Cu67  1  0.27156500  0.07185400  0.19484300  1
