# generated using pymatgen
data_Cu15Ni5C3
_symmetry_space_group_name_H-M   'P 1'
_cell_length_a   11.39015201
_cell_length_b   11.39015201
_cell_length_c   10.28252300
_cell_angle_alpha   90.00000000
_cell_angle_beta   90.00000000
_cell_angle_gamma   120.00000008
_symmetry_Int_Tables_number   1
_chemical_formula_structural   Cu15Ni5C3
_chemical_formula_sum   'Cu45 Ni15 C9'
_cell_volume   1155.28560339
_cell_formula_units_Z   3
loop_
 _symmetry_equiv_pos_site_id
 _symmetry_equiv_pos_as_xyz
  1  'x, y, z'
loop_
 _atom_site_type_symbol
 _atom_site_label
 _atom_site_symmetry_multiplicity
 _atom_site_fract_x
 _atom_site_fract_y
 _atom_site_fract_z
 _atom_site_occupancy
  C  C0  1  0.00000000  0.70329900  0.33333300  1
  C  C1  1  0.54011200  0.00000000  0.16666700  1
  C  C2  1  0.70329900  0.00000000  0.66666700  1
  C  C3  1  0.45988800  0.45988800  0.50000000  1
  C  C4  1  0.00000000  0.54011200  0.83333300  1
  C  C5  1  0.29670100  0.29670100  0.00000000  1
  C  C6  1  0.69194000  0.69194000  0.00000000  1
  C  C7  1  0.30806000  0.00000000  0.66666700  1
  C  C8  1  0.00000000  0.30806000  0.33333300  1
  Ni  Ni9  1  0.31674000  0.75735900  0.57920200  1
  Ni  Ni10  1  0.25013200  0.90634800  0.94292500  1
  Ni  Ni11  1  0.09365200  0.34378300  0.60959100  1
  Ni  Ni12  1  0.74986800  0.65621700  0.72374200  1
  Ni  Ni13  1  0.00000000  0.08895400  0.33333300  1
  Ni  Ni14  1  0.90634800  0.25013200  0.05707500  1
  Ni  Ni15  1  0.65621700  0.74986800  0.27625800  1
  Ni  Ni16  1  0.75735900  0.31674000  0.42079800  1
  Ni  Ni17  1  0.55938100  0.24264100  0.75413100  1
  Ni  Ni18  1  0.44061900  0.68326000  0.91253500  1
  Ni  Ni19  1  0.91104600  0.91104600  0.00000000  1
  Ni  Ni20  1  0.68326000  0.44061900  0.08746500  1
  Ni  Ni21  1  0.24264100  0.55938100  0.24586900  1
  Ni  Ni22  1  0.34378300  0.09365200  0.39040900  1
  Ni  Ni23  1  0.08895400  0.00000000  0.66666700  1
  Cu  Cu24  1  0.22880300  0.86980500  0.81849500  1
  Cu  Cu25  1  0.37462200  0.18540600  0.30976500  1
  Cu  Cu26  1  0.69877500  0.67128600  0.30438400  1
  Cu  Cu27  1  0.80942400  0.51149700  0.08935000  1
  Cu  Cu28  1  0.10751900  0.91152200  0.60403100  1
  Cu  Cu29  1  0.32871400  0.02748900  0.97105100  1
  Cu  Cu30  1  0.89248100  0.80400300  0.06263600  1
  Cu  Cu31  1  0.38153400  0.69815300  0.56250700  1
  Cu  Cu32  1  0.68338100  0.30184700  0.77082600  1
  Cu  Cu33  1  0.61846600  0.31661900  0.10415900  1
  Cu  Cu34  1  0.69815300  0.38153400  0.43749300  1
  Cu  Cu35  1  0.98211000  0.00000000  0.66666700  1
  Cu  Cu36  1  0.38950900  0.89018200  0.60007900  1
  Cu  Cu37  1  0.62537800  0.81078400  0.35690100  1
  Cu  Cu38  1  0.86980500  0.22880300  0.18150500  1
  Cu  Cu39  1  0.89018200  0.38950900  0.39992100  1
  Cu  Cu40  1  0.50067300  0.61049100  0.93341200  1
  Cu  Cu41  1  0.49932700  0.10981800  0.73325400  1
  Cu  Cu42  1  0.18921600  0.81459400  0.02356800  1
  Cu  Cu43  1  0.10981800  0.49932700  0.26674600  1
  Cu  Cu44  1  0.02748900  0.32871400  0.02894900  1
  Cu  Cu45  1  0.70207300  0.19057600  0.42268400  1
  Cu  Cu46  1  0.29792700  0.48850300  0.24398300  1
  Cu  Cu47  1  0.64100200  0.77119700  0.15182900  1
  Cu  Cu48  1  0.35899800  0.13019500  0.51483800  1
  Cu  Cu49  1  0.91152200  0.10751900  0.39596900  1
  Cu  Cu50  1  0.97251100  0.30122500  0.63771700  1
  Cu  Cu51  1  0.80400300  0.89248100  0.93736400  1
  Cu  Cu52  1  0.18540600  0.37462200  0.69023500  1
  Cu  Cu53  1  0.51149700  0.80942400  0.91065000  1
  Cu  Cu54  1  0.19599700  0.08847800  0.72930200  1
  Cu  Cu55  1  0.77119700  0.64100200  0.84817100  1
  Cu  Cu56  1  0.61049100  0.50067300  0.06658800  1
  Cu  Cu57  1  0.30184700  0.68338100  0.22917400  1
  Cu  Cu58  1  0.08847800  0.19599700  0.27069800  1
  Cu  Cu59  1  0.13019500  0.35899800  0.48516200  1
  Cu  Cu60  1  0.67128600  0.69877500  0.69561600  1
  Cu  Cu61  1  0.81459400  0.18921600  0.97643200  1
  Cu  Cu62  1  0.48850300  0.29792700  0.75601700  1
  Cu  Cu63  1  0.01789000  0.01789000  0.00000000  1
  Cu  Cu64  1  0.30122500  0.97251100  0.36228300  1
  Cu  Cu65  1  0.81078400  0.62537800  0.64309900  1
  Cu  Cu66  1  0.00000000  0.98211000  0.33333300  1
  Cu  Cu67  1  0.19057600  0.70207300  0.57731600  1
  Cu  Cu68  1  0.31661900  0.61846600  0.89584100  1
