# generated using pymatgen
data_Cu(Ni5C3)2
_symmetry_space_group_name_H-M   'P 1'
_cell_length_a   7.96500400
_cell_length_b   13.23490500
_cell_length_c   18.47804900
_cell_angle_alpha   90.00000000
_cell_angle_beta   90.00000000
_cell_angle_gamma   90.00000000
_symmetry_Int_Tables_number   1
_chemical_formula_structural   Cu(Ni5C3)2
_chemical_formula_sum   'Cu4 Ni40 C24'
_cell_volume   1947.88333022
_cell_formula_units_Z   4
loop_
 _symmetry_equiv_pos_site_id
 _symmetry_equiv_pos_as_xyz
  1  'x, y, z'
loop_
 _atom_site_type_symbol
 _atom_site_label
 _atom_site_symmetry_multiplicity
 _atom_site_fract_x
 _atom_site_fract_y
 _atom_site_fract_z
 _atom_site_occupancy
  C  C0  1  0.29081100  0.06285800  0.51692800  1
  C  C1  1  0.70918900  0.56285800  0.51692800  1
  C  C2  1  0.83368200  0.26607000  0.38462700  1
  C  C3  1  0.35287700  0.09374800  0.81246200  1
  C  C4  1  0.31580300  0.73901400  0.65118800  1
  C  C5  1  0.31580300  0.76098600  0.15118800  1
  C  C6  1  0.83368200  0.23393000  0.88462700  1
  C  C7  1  0.68419700  0.23901400  0.65118800  1
  C  C8  1  0.16631800  0.73393000  0.88462700  1
  C  C9  1  0.64712300  0.90625200  0.31246200  1
  C  C10  1  0.35287700  0.40625200  0.31246200  1
  C  C11  1  0.29081100  0.43714200  0.01692800  1
  C  C12  1  0.70918900  0.93714200  0.01692800  1
  C  C13  1  0.68419700  0.26098600  0.15118800  1
  C  C14  1  0.64712300  0.59374800  0.81246200  1
  C  C15  1  0.16631800  0.76607000  0.38462700  1
  C  C16  1  0.24205400  0.45911400  0.74435000  1
  C  C17  1  0.71890600  0.89716900  0.55660800  1
  C  C18  1  0.75794600  0.95911400  0.74435000  1
  C  C19  1  0.28109400  0.10283100  0.05660800  1
  C  C20  1  0.75794600  0.54088600  0.24435000  1
  C  C21  1  0.24205400  0.04088600  0.24435000  1
  C  C22  1  0.28109400  0.39716900  0.55660800  1
  C  C23  1  0.71890600  0.60283100  0.05660800  1
  Ni  Ni24  1  0.46140000  0.34789800  0.80022700  1
  Ni  Ni25  1  0.07097900  0.26313300  0.57308000  1
  Ni  Ni26  1  0.74718400  0.43331700  0.00187900  1
  Ni  Ni27  1  0.09440400  0.45968500  0.45565300  1
  Ni  Ni28  1  0.09440400  0.04031500  0.95565300  1
  Ni  Ni29  1  0.75647700  0.72805400  0.15714700  1
  Ni  Ni30  1  0.53666800  0.98651700  0.64842700  1
  Ni  Ni31  1  0.22791600  0.33979300  0.85037900  1
  Ni  Ni32  1  0.46333200  0.48651700  0.64842700  1
  Ni  Ni33  1  0.24352300  0.22805400  0.15714700  1
  Ni  Ni34  1  0.93420600  0.06416800  0.23166500  1
  Ni  Ni35  1  0.49111100  0.32539600  0.49107500  1
  Ni  Ni36  1  0.53860000  0.84789800  0.80022700  1
  Ni  Ni37  1  0.06579400  0.56416800  0.23166500  1
  Ni  Ni38  1  0.75647700  0.77194600  0.65714700  1
  Ni  Ni39  1  0.25281600  0.56668300  0.50187900  1
  Ni  Ni40  1  0.77208400  0.66020700  0.35037900  1
  Ni  Ni41  1  0.06579400  0.93583200  0.73166500  1
  Ni  Ni42  1  0.49111100  0.17460400  0.99107500  1
  Ni  Ni43  1  0.92902100  0.76313300  0.57308000  1
  Ni  Ni44  1  0.77208400  0.83979300  0.85037900  1
  Ni  Ni45  1  0.95353600  0.00932000  0.64436900  1
  Ni  Ni46  1  0.50888900  0.82539600  0.49107500  1
  Ni  Ni47  1  0.46140000  0.15210200  0.30022700  1
  Ni  Ni48  1  0.25281600  0.93331700  0.00187900  1
  Ni  Ni49  1  0.07097900  0.23686700  0.07308000  1
  Ni  Ni50  1  0.04646400  0.99068000  0.14436900  1
  Ni  Ni51  1  0.24352300  0.27194600  0.65714700  1
  Ni  Ni52  1  0.53666800  0.51348300  0.14842700  1
  Ni  Ni53  1  0.92902100  0.73686700  0.07308000  1
  Ni  Ni54  1  0.90559600  0.54031500  0.95565300  1
  Ni  Ni55  1  0.53860000  0.65210200  0.30022700  1
  Ni  Ni56  1  0.50888900  0.67460400  0.99107500  1
  Ni  Ni57  1  0.74718400  0.06668300  0.50187900  1
  Ni  Ni58  1  0.46333200  0.01348300  0.14842700  1
  Ni  Ni59  1  0.04646400  0.50932000  0.64436900  1
  Ni  Ni60  1  0.93420600  0.43583200  0.73166500  1
  Ni  Ni61  1  0.95353600  0.49068000  0.14436900  1
  Ni  Ni62  1  0.90559600  0.95968500  0.45565300  1
  Ni  Ni63  1  0.22791600  0.16020700  0.35037900  1
  Cu  Cu64  1  0.72861400  0.07697800  0.79075500  1
  Cu  Cu65  1  0.27138600  0.57697800  0.79075500  1
  Cu  Cu66  1  0.27138600  0.92302200  0.29075500  1
  Cu  Cu67  1  0.72861400  0.42302200  0.29075500  1
