# generated using pymatgen
data_Cu(NiC9)2
_symmetry_space_group_name_H-M   'P 1'
_cell_length_a   9.13217132
_cell_length_b   9.13217132
_cell_length_c   12.68921337
_cell_angle_alpha   77.30615341
_cell_angle_beta   77.30615341
_cell_angle_gamma   33.48252354
_symmetry_Int_Tables_number   1
_chemical_formula_structural   Cu(NiC9)2
_chemical_formula_sum   'Cu2 Ni4 C36'
_cell_volume   568.23256121
_cell_formula_units_Z   2
loop_
 _symmetry_equiv_pos_site_id
 _symmetry_equiv_pos_as_xyz
  1  'x, y, z'
loop_
 _atom_site_type_symbol
 _atom_site_label
 _atom_site_symmetry_multiplicity
 _atom_site_fract_x
 _atom_site_fract_y
 _atom_site_fract_z
 _atom_site_occupancy
  Ni  Ni0  1  0.40022500  0.08897100  0.36817000  1
  Ni  Ni1  1  0.91102900  0.59977500  0.13183000  1
  Ni  Ni2  1  0.59977500  0.91102900  0.63183000  1
  Ni  Ni3  1  0.08897100  0.40022500  0.86817000  1
  Cu  Cu4  1  0.13897500  0.86102500  0.75000000  1
  Cu  Cu5  1  0.86102500  0.13897500  0.25000000  1
  C  C6  1  0.95811700  0.30381200  0.58582100  1
  C  C7  1  0.69618800  0.04188300  0.91417900  1
  C  C8  1  0.04188300  0.69618800  0.41417900  1
  C  C9  1  0.30381200  0.95811700  0.08582100  1
  C  C10  1  0.76474000  0.47125400  0.37047100  1
  C  C11  1  0.52874600  0.23526000  0.12952900  1
  C  C12  1  0.23526000  0.52874600  0.62952900  1
  C  C13  1  0.47125400  0.76474000  0.87047100  1
  C  C14  1  0.02188200  0.10359800  0.67043900  1
  C  C15  1  0.89640200  0.97811800  0.82956100  1
  C  C16  1  0.97811800  0.89640200  0.32956100  1
  C  C17  1  0.10359800  0.02188200  0.17043900  1
  C  C18  1  0.87683200  0.30050400  0.48578600  1
  C  C19  1  0.69949600  0.12316800  0.01421400  1
  C  C20  1  0.12316800  0.69949600  0.51421400  1
  C  C21  1  0.30050400  0.87683200  0.98578600  1
  C  C22  1  0.72097400  0.36269300  0.32431300  1
  C  C23  1  0.63730700  0.27902600  0.17568700  1
  C  C24  1  0.27902600  0.63730700  0.67568700  1
  C  C25  1  0.36269300  0.72097400  0.82431300  1
  C  C26  1  0.72220700  0.57336300  0.62961900  1
  C  C27  1  0.42663700  0.27779300  0.87038100  1
  C  C28  1  0.27779300  0.42663700  0.37038100  1
  C  C29  1  0.57336300  0.72220700  0.12961900  1
  C  C30  1  0.21040200  0.18712200  0.54913300  1
  C  C31  1  0.81287800  0.78959800  0.95086700  1
  C  C32  1  0.78959800  0.81287800  0.45086700  1
  C  C33  1  0.18712200  0.21040200  0.04913300  1
  C  C34  1  0.98674300  0.38588800  0.30303200  1
  C  C35  1  0.61411200  0.01325700  0.19696800  1
  C  C36  1  0.01325700  0.61411200  0.69696800  1
  C  C37  1  0.38588800  0.98674300  0.80303200  1
  C  C38  1  0.50131000  0.76256400  0.38488300  1
  C  C39  1  0.23743600  0.49869000  0.11511700  1
  C  C40  1  0.49869000  0.23743600  0.61511700  1
  C  C41  1  0.76256400  0.50131000  0.88488300  1
