# generated using pymatgen
data_Cu2NiC4
_symmetry_space_group_name_H-M   'P 1'
_cell_length_a   6.07598400
_cell_length_b   6.07598400
_cell_length_c   8.51563600
_cell_angle_alpha   90.00000000
_cell_angle_beta   90.00000000
_cell_angle_gamma   90.00000000
_symmetry_Int_Tables_number   1
_chemical_formula_structural   Cu2NiC4
_chemical_formula_sum   'Cu8 Ni4 C16'
_cell_volume   314.37668664
_cell_formula_units_Z   4
loop_
 _symmetry_equiv_pos_site_id
 _symmetry_equiv_pos_as_xyz
  1  'x, y, z'
loop_
 _atom_site_type_symbol
 _atom_site_label
 _atom_site_symmetry_multiplicity
 _atom_site_fract_x
 _atom_site_fract_y
 _atom_site_fract_z
 _atom_site_occupancy
  Ni  Ni0  1  0.50000000  0.23927600  0.00000000  1
  Ni  Ni1  1  0.76072400  0.50000000  0.25000000  1
  Ni  Ni2  1  0.23927600  0.50000000  0.75000000  1
  Ni  Ni3  1  0.50000000  0.76072400  0.50000000  1
  Cu  Cu4  1  0.25275700  0.25275700  0.37500000  1
  Cu  Cu5  1  0.74724300  0.25275700  0.62500000  1
  Cu  Cu6  1  0.25275700  0.74724300  0.12500000  1
  Cu  Cu7  1  0.74724300  0.74724300  0.87500000  1
  Cu  Cu8  1  0.00000000  0.24489400  0.00000000  1
  Cu  Cu9  1  0.75510600  0.00000000  0.25000000  1
  Cu  Cu10  1  0.24489400  0.00000000  0.75000000  1
  Cu  Cu11  1  0.00000000  0.75510600  0.50000000  1
  C  C12  1  0.97386300  0.73428200  0.24933100  1
  C  C13  1  0.26571800  0.97386300  0.49933100  1
  C  C14  1  0.73428200  0.02613700  0.99933100  1
  C  C15  1  0.97386300  0.26571800  0.25066900  1
  C  C16  1  0.02613700  0.73428200  0.75066900  1
  C  C17  1  0.02613700  0.26571800  0.74933100  1
  C  C18  1  0.73428200  0.97386300  0.50066900  1
  C  C19  1  0.26571800  0.02613700  0.00066900  1
  C  C20  1  0.51422000  0.26633200  0.23197400  1
  C  C21  1  0.73366800  0.51422000  0.48197400  1
  C  C22  1  0.26633200  0.48578000  0.98197400  1
  C  C23  1  0.51422000  0.73366800  0.26802600  1
  C  C24  1  0.48578000  0.26633200  0.76802600  1
  C  C25  1  0.48578000  0.73366800  0.73197400  1
  C  C26  1  0.26633200  0.51422000  0.51802600  1
  C  C27  1  0.73366800  0.48578000  0.01802600  1
