# generated using pymatgen
data_Cu2Ni12C17
_symmetry_space_group_name_H-M   'P 1'
_cell_length_a   12.86981800
_cell_length_b   6.43421100
_cell_length_c   9.29136466
_cell_angle_alpha   73.70395597
_cell_angle_beta   90.00000000
_cell_angle_gamma   90.00000000
_symmetry_Int_Tables_number   1
_chemical_formula_structural   Cu2Ni12C17
_chemical_formula_sum   'Cu4 Ni24 C34'
_cell_volume   738.48064406
_cell_formula_units_Z   2
loop_
 _symmetry_equiv_pos_site_id
 _symmetry_equiv_pos_as_xyz
  1  'x, y, z'
loop_
 _atom_site_type_symbol
 _atom_site_label
 _atom_site_symmetry_multiplicity
 _atom_site_fract_x
 _atom_site_fract_y
 _atom_site_fract_z
 _atom_site_occupancy
  C  C0  1  0.35582500  0.64864000  0.12737700  1
  C  C1  1  0.85582500  0.35136000  0.37262300  1
  C  C2  1  0.64417500  0.35136000  0.87262300  1
  C  C3  1  0.14417500  0.64864000  0.62737700  1
  C  C4  1  0.00000000  0.00000000  0.00000000  1
  C  C5  1  0.50000000  0.00000000  0.50000000  1
  Ni  Ni6  1  0.09839000  0.68583600  0.20692100  1
  Ni  Ni7  1  0.59839000  0.31416400  0.29307900  1
  Ni  Ni8  1  0.90161000  0.31416400  0.79307900  1
  Ni  Ni9  1  0.40161000  0.68583600  0.70692100  1
  Ni  Ni10  1  0.12999400  0.91630800  0.23411400  1
  Ni  Ni11  1  0.62999400  0.08369200  0.26588600  1
  Ni  Ni12  1  0.87000600  0.08369200  0.76588600  1
  Ni  Ni13  1  0.37000600  0.91630800  0.73411400  1
  Ni  Ni14  1  0.09531200  0.07338900  0.72443500  1
  Ni  Ni15  1  0.59531200  0.92661100  0.77556500  1
  Ni  Ni16  1  0.90468800  0.92661100  0.27556500  1
  Ni  Ni17  1  0.40468800  0.07338900  0.22443500  1
  Ni  Ni18  1  0.18147800  0.01182900  0.85053800  1
  Ni  Ni19  1  0.68147800  0.98817100  0.64946200  1
  Ni  Ni20  1  0.81852200  0.98817100  0.14946200  1
  Ni  Ni21  1  0.31852200  0.01182900  0.35053800  1
  Ni  Ni22  1  0.94079500  0.67069200  0.90222500  1
  Ni  Ni23  1  0.44079500  0.32930800  0.59777500  1
  Ni  Ni24  1  0.05920500  0.32930800  0.09777500  1
  Ni  Ni25  1  0.55920500  0.67069200  0.40222500  1
  Ni  Ni26  1  0.86206000  0.69273400  0.02602500  1
  Ni  Ni27  1  0.36206000  0.30726600  0.47397500  1
  Ni  Ni28  1  0.13794000  0.30726600  0.97397500  1
  Ni  Ni29  1  0.63794000  0.69273400  0.52602500  1
  Cu  Cu30  1  0.14825300  0.25904000  0.39475500  1
  Cu  Cu31  1  0.64825300  0.74096000  0.10524500  1
  Cu  Cu32  1  0.85174700  0.74096000  0.60524500  1
  Cu  Cu33  1  0.35174700  0.25904000  0.89475500  1
  C  C34  1  0.24035400  0.38667900  0.41817200  1
  C  C35  1  0.74035400  0.61332100  0.08182800  1
  C  C36  1  0.75964600  0.61332100  0.58182800  1
  C  C37  1  0.25964600  0.38667900  0.91817200  1
  C  C38  1  0.08215900  0.20258200  0.53190400  1
  C  C39  1  0.58215900  0.79741800  0.96809600  1
  C  C40  1  0.91784100  0.79741800  0.46809600  1
  C  C41  1  0.41784100  0.20258200  0.03190400  1
  C  C42  1  0.08556000  0.39646500  0.26691100  1
  C  C43  1  0.58556000  0.60353500  0.23308900  1
  C  C44  1  0.91444000  0.60353500  0.73308900  1
  C  C45  1  0.41444000  0.39646500  0.76691100  1
  C  C46  1  0.18396900  0.05770700  0.35799400  1
  C  C47  1  0.68396900  0.94229300  0.14200600  1
  C  C48  1  0.81603100  0.94229300  0.64200600  1
  C  C49  1  0.31603100  0.05770700  0.85799400  1
  C  C50  1  0.11225100  0.84151900  0.15732400  1
  C  C51  1  0.61225100  0.15848100  0.34267600  1
  C  C52  1  0.88774900  0.15848100  0.84267600  1
  C  C53  1  0.38774900  0.84151900  0.65732400  1
  C  C54  1  0.10750200  0.98496600  0.82943200  1
  C  C55  1  0.60750200  0.01503400  0.67056800  1
  C  C56  1  0.89249800  0.01503400  0.17056800  1
  C  C57  1  0.39249800  0.98496600  0.32943200  1
  C  C58  1  0.93714500  0.70900600  0.99844300  1
  C  C59  1  0.43714500  0.29099400  0.50155700  1
  C  C60  1  0.06285500  0.29099400  0.00155700  1
  C  C61  1  0.56285500  0.70900600  0.49844300  1
