# generated using pymatgen
data_Cu4NiC7
_symmetry_space_group_name_H-M   'P 1'
_cell_length_a   9.61565900
_cell_length_b   10.27788400
_cell_length_c   12.79562800
_cell_angle_alpha   90.00000000
_cell_angle_beta   90.00000000
_cell_angle_gamma   90.00000000
_symmetry_Int_Tables_number   1
_chemical_formula_structural   Cu4NiC7
_chemical_formula_sum   'Cu16 Ni4 C28'
_cell_volume   1264.57435689
_cell_formula_units_Z   4
loop_
 _symmetry_equiv_pos_site_id
 _symmetry_equiv_pos_as_xyz
  1  'x, y, z'
loop_
 _atom_site_type_symbol
 _atom_site_label
 _atom_site_symmetry_multiplicity
 _atom_site_fract_x
 _atom_site_fract_y
 _atom_site_fract_z
 _atom_site_occupancy
  C  C0  1  0.88186100  0.50479600  0.68083100  1
  C  C1  1  0.38186100  0.99520400  0.81916900  1
  C  C2  1  0.91514100  0.25000000  0.96679200  1
  C  C3  1  0.88186100  0.99520400  0.68083100  1
  C  C4  1  0.61813900  0.49520400  0.18083100  1
  C  C5  1  0.11813900  0.49520400  0.31916900  1
  C  C6  1  0.08485900  0.75000000  0.03320800  1
  C  C7  1  0.61813900  0.00479600  0.18083100  1
  C  C8  1  0.58485900  0.75000000  0.46679200  1
  C  C9  1  0.41514100  0.25000000  0.53320800  1
  C  C10  1  0.11813900  0.00479600  0.31916900  1
  C  C11  1  0.38186100  0.50479600  0.81916900  1
  C  C12  1  0.67951100  0.75000000  0.90846300  1
  C  C13  1  0.17951100  0.75000000  0.59153700  1
  C  C14  1  0.82048900  0.25000000  0.40846300  1
  C  C15  1  0.32048900  0.25000000  0.09153700  1
  Ni  Ni16  1  0.65943600  0.25000000  0.72550200  1
  Ni  Ni17  1  0.84056400  0.75000000  0.22550200  1
  Ni  Ni18  1  0.15943600  0.25000000  0.77449800  1
  Ni  Ni19  1  0.34056400  0.75000000  0.27449800  1
  Cu  Cu20  1  0.19836000  0.43421300  0.05427600  1
  Cu  Cu21  1  0.87344200  0.25000000  0.23307400  1
  Cu  Cu22  1  0.80164000  0.56578700  0.94572400  1
  Cu  Cu23  1  0.30164000  0.93421300  0.55427600  1
  Cu  Cu24  1  0.30164000  0.56578700  0.55427600  1
  Cu  Cu25  1  0.69836000  0.43421300  0.44572400  1
  Cu  Cu26  1  0.19836000  0.06578700  0.05427600  1
  Cu  Cu27  1  0.52507800  0.25000000  0.99945200  1
  Cu  Cu28  1  0.80164000  0.93421300  0.94572400  1
  Cu  Cu29  1  0.69836000  0.06578700  0.44572400  1
  Cu  Cu30  1  0.47492200  0.75000000  0.00054800  1
  Cu  Cu31  1  0.37344200  0.25000000  0.26692600  1
  Cu  Cu32  1  0.02507800  0.25000000  0.50054800  1
  Cu  Cu33  1  0.97492200  0.75000000  0.49945200  1
  Cu  Cu34  1  0.62655800  0.75000000  0.73307400  1
  Cu  Cu35  1  0.12655800  0.75000000  0.76692600  1
  C  C36  1  0.59900500  0.14285400  0.70675300  1
  C  C37  1  0.59900500  0.35714600  0.70675300  1
  C  C38  1  0.90099500  0.64285400  0.20675300  1
  C  C39  1  0.28329600  0.25000000  0.73960300  1
  C  C40  1  0.71670400  0.75000000  0.26039700  1
  C  C41  1  0.09900500  0.14285400  0.79324700  1
  C  C42  1  0.21670400  0.75000000  0.23960300  1
  C  C43  1  0.78329600  0.25000000  0.76039700  1
  C  C44  1  0.40099500  0.64285400  0.29324700  1
  C  C45  1  0.90099500  0.85714600  0.20675300  1
  C  C46  1  0.40099500  0.85714600  0.29324700  1
  C  C47  1  0.09900500  0.35714600  0.79324700  1
