# generated using pymatgen
data_Cu2NiC5
_symmetry_space_group_name_H-M   'P 1'
_cell_length_a   9.31698100
_cell_length_b   9.31698100
_cell_length_c   8.25435600
_cell_angle_alpha   90.00000000
_cell_angle_beta   90.00000000
_cell_angle_gamma   90.00000000
_symmetry_Int_Tables_number   1
_chemical_formula_structural   Cu2NiC5
_chemical_formula_sum   'Cu16 Ni8 C40'
_cell_volume   716.52874090
_cell_formula_units_Z   8
loop_
 _symmetry_equiv_pos_site_id
 _symmetry_equiv_pos_as_xyz
  1  'x, y, z'
loop_
 _atom_site_type_symbol
 _atom_site_label
 _atom_site_symmetry_multiplicity
 _atom_site_fract_x
 _atom_site_fract_y
 _atom_site_fract_z
 _atom_site_occupancy
  C  C0  1  0.00000000  0.50000000  0.19696400  1
  C  C1  1  0.50000000  0.00000000  0.30303600  1
  C  C2  1  0.50000000  0.00000000  0.80303600  1
  C  C3  1  0.00000000  0.50000000  0.69696400  1
  Ni  Ni4  1  0.28494000  0.71506000  0.25000000  1
  Ni  Ni5  1  0.21506000  0.21506000  0.25000000  1
  Ni  Ni6  1  0.78494000  0.78494000  0.25000000  1
  Ni  Ni7  1  0.71506000  0.28494000  0.25000000  1
  Ni  Ni8  1  0.21506000  0.78494000  0.75000000  1
  Ni  Ni9  1  0.28494000  0.28494000  0.75000000  1
  Ni  Ni10  1  0.71506000  0.71506000  0.75000000  1
  Ni  Ni11  1  0.78494000  0.21506000  0.75000000  1
  Cu  Cu12  1  0.45881500  0.67203000  0.05307800  1
  Cu  Cu13  1  0.17203000  0.04118500  0.05307800  1
  Cu  Cu14  1  0.82797000  0.95881500  0.05307800  1
  Cu  Cu15  1  0.54118500  0.32797000  0.05307800  1
  Cu  Cu16  1  0.04118500  0.17203000  0.44692200  1
  Cu  Cu17  1  0.95881500  0.82797000  0.44692200  1
  Cu  Cu18  1  0.67203000  0.45881500  0.44692200  1
  Cu  Cu19  1  0.32797000  0.54118500  0.44692200  1
  Cu  Cu20  1  0.04118500  0.82797000  0.94692200  1
  Cu  Cu21  1  0.32797000  0.45881500  0.94692200  1
  Cu  Cu22  1  0.67203000  0.54118500  0.94692200  1
  Cu  Cu23  1  0.95881500  0.17203000  0.94692200  1
  Cu  Cu24  1  0.45881500  0.32797000  0.55307800  1
  Cu  Cu25  1  0.54118500  0.67203000  0.55307800  1
  Cu  Cu26  1  0.82797000  0.04118500  0.55307800  1
  Cu  Cu27  1  0.17203000  0.95881500  0.55307800  1
  C  C28  1  0.36177200  0.63399700  0.07695300  1
  C  C29  1  0.13399700  0.13822800  0.07695300  1
  C  C30  1  0.86600300  0.86177200  0.07695300  1
  C  C31  1  0.63822800  0.36600300  0.07695300  1
  C  C32  1  0.13822800  0.13399700  0.42304700  1
  C  C33  1  0.86177200  0.86600300  0.42304700  1
  C  C34  1  0.63399700  0.36177200  0.42304700  1
  C  C35  1  0.36600300  0.63822800  0.42304700  1
  C  C36  1  0.13822800  0.86600300  0.92304700  1
  C  C37  1  0.36600300  0.36177200  0.92304700  1
  C  C38  1  0.63399700  0.63822800  0.92304700  1
  C  C39  1  0.86177200  0.13399700  0.92304700  1
  C  C40  1  0.36177200  0.36600300  0.57695300  1
  C  C41  1  0.63822800  0.63399700  0.57695300  1
  C  C42  1  0.86600300  0.13822800  0.57695300  1
  C  C43  1  0.13399700  0.86177200  0.57695300  1
  C  C44  1  0.10644500  0.68297500  0.24384500  1
  C  C45  1  0.18297500  0.39355500  0.24384500  1
  C  C46  1  0.81702500  0.60644500  0.24384500  1
  C  C47  1  0.89355500  0.31702500  0.24384500  1
  C  C48  1  0.39355500  0.18297500  0.25615500  1
  C  C49  1  0.60644500  0.81702500  0.25615500  1
  C  C50  1  0.68297500  0.10644500  0.25615500  1
  C  C51  1  0.31702500  0.89355500  0.25615500  1
  C  C52  1  0.39355500  0.81702500  0.75615500  1
  C  C53  1  0.31702500  0.10644500  0.75615500  1
  C  C54  1  0.68297500  0.89355500  0.75615500  1
  C  C55  1  0.60644500  0.18297500  0.75615500  1
  C  C56  1  0.10644500  0.31702500  0.74384500  1
  C  C57  1  0.89355500  0.68297500  0.74384500  1
  C  C58  1  0.81702500  0.39355500  0.74384500  1
  C  C59  1  0.18297500  0.60644500  0.74384500  1
  C  C60  1  0.00000000  0.50000000  0.99709200  1
  C  C61  1  0.50000000  0.00000000  0.50290800  1
  C  C62  1  0.50000000  0.00000000  0.00290800  1
  C  C63  1  0.00000000  0.50000000  0.49709200  1
