# generated using pymatgen
data_Cu4Ni2C13
_symmetry_space_group_name_H-M   'P 1'
_cell_length_a   8.69951100
_cell_length_b   8.69951100
_cell_length_c   28.33558200
_cell_angle_alpha   90.00000000
_cell_angle_beta   90.00000000
_cell_angle_gamma   90.00000000
_symmetry_Int_Tables_number   1
_chemical_formula_structural   Cu4Ni2C13
_chemical_formula_sum   'Cu16 Ni8 C52'
_cell_volume   2144.47911222
_cell_formula_units_Z   4
loop_
 _symmetry_equiv_pos_site_id
 _symmetry_equiv_pos_as_xyz
  1  'x, y, z'
loop_
 _atom_site_type_symbol
 _atom_site_label
 _atom_site_symmetry_multiplicity
 _atom_site_fract_x
 _atom_site_fract_y
 _atom_site_fract_z
 _atom_site_occupancy
  Ni  Ni0  1  0.00000000  0.50000000  0.62743600  1
  Ni  Ni1  1  0.00000000  0.50000000  0.80393100  1
  Ni  Ni2  1  0.50000000  0.00000000  0.69606900  1
  Ni  Ni3  1  0.00000000  0.50000000  0.12743600  1
  Ni  Ni4  1  0.00000000  0.50000000  0.30393100  1
  Ni  Ni5  1  0.50000000  0.00000000  0.87256400  1
  Ni  Ni6  1  0.50000000  0.00000000  0.19606900  1
  Ni  Ni7  1  0.50000000  0.00000000  0.37256400  1
  Cu  Cu8  1  0.89361800  0.19881700  0.44554400  1
  Cu  Cu9  1  0.60638200  0.30118300  0.55445600  1
  Cu  Cu10  1  0.80118300  0.89361800  0.55445600  1
  Cu  Cu11  1  0.69881700  0.39361800  0.94554400  1
  Cu  Cu12  1  0.30118300  0.60638200  0.94554400  1
  Cu  Cu13  1  0.60638200  0.69881700  0.05445600  1
  Cu  Cu14  1  0.19881700  0.89361800  0.05445600  1
  Cu  Cu15  1  0.69881700  0.60638200  0.44554400  1
  Cu  Cu16  1  0.39361800  0.69881700  0.55445600  1
  Cu  Cu17  1  0.89361800  0.80118300  0.94554400  1
  Cu  Cu18  1  0.30118300  0.39361800  0.44554400  1
  Cu  Cu19  1  0.80118300  0.10638200  0.05445600  1
  Cu  Cu20  1  0.39361800  0.30118300  0.05445600  1
  Cu  Cu21  1  0.10638200  0.80118300  0.44554400  1
  Cu  Cu22  1  0.10638200  0.19881700  0.94554400  1
  Cu  Cu23  1  0.19881700  0.10638200  0.55445600  1
  C  C24  1  0.00000000  0.00000000  0.69062200  1
  C  C25  1  0.50000000  0.50000000  0.80937800  1
  C  C26  1  0.50000000  0.50000000  0.19062200  1
  C  C27  1  0.00000000  0.00000000  0.30937800  1
  C  C28  1  0.50000000  0.50000000  0.69062200  1
  C  C29  1  0.00000000  0.00000000  0.80937800  1
  C  C30  1  0.00000000  0.00000000  0.19062200  1
  C  C31  1  0.50000000  0.50000000  0.30937800  1
  C  C32  1  0.19005800  0.89468900  0.95506000  1
  C  C33  1  0.30994200  0.60531100  0.04494000  1
  C  C34  1  0.19005800  0.10531100  0.45506000  1
  C  C35  1  0.17565300  0.16091000  0.64796800  1
  C  C36  1  0.60531100  0.30994200  0.45506000  1
  C  C37  1  0.10531100  0.19005800  0.04494000  1
  C  C38  1  0.17565300  0.83909000  0.14796800  1
  C  C39  1  0.80994200  0.89468900  0.45506000  1
  C  C40  1  0.85261100  0.85261100  0.25000000  1
  C  C41  1  0.80994200  0.10531100  0.95506000  1
  C  C42  1  0.89468900  0.19005800  0.54494000  1
  C  C43  1  0.39468900  0.69005800  0.45506000  1
  C  C44  1  0.64738900  0.64738900  0.75000000  1
  C  C45  1  0.85261100  0.14738900  0.75000000  1
  C  C46  1  0.83909000  0.82434700  0.85203200  1
  C  C47  1  0.66091000  0.67565300  0.14796800  1
  C  C48  1  0.00000000  0.50000000  0.94145500  1
  C  C49  1  0.39468900  0.30994200  0.95506000  1
  C  C50  1  0.35261100  0.35261100  0.75000000  1
  C  C51  1  0.16091000  0.82434700  0.35203200  1
  C  C52  1  0.83909000  0.17565300  0.35203200  1
  C  C53  1  0.33909000  0.32434700  0.14796800  1
  C  C54  1  0.30994200  0.39468900  0.54494000  1
  C  C55  1  0.00000000  0.50000000  0.44145500  1
  C  C56  1  0.67565300  0.33909000  0.85203200  1
  C  C57  1  0.82434700  0.83909000  0.64796800  1
  C  C58  1  0.50000000  0.00000000  0.55854500  1
  C  C59  1  0.67565300  0.66091000  0.35203200  1
  C  C60  1  0.32434700  0.66091000  0.85203200  1
  C  C61  1  0.33909000  0.67565300  0.64796800  1
  C  C62  1  0.35261100  0.64738900  0.25000000  1
  C  C63  1  0.60531100  0.69005800  0.95506000  1
  C  C64  1  0.64738900  0.35261100  0.25000000  1
  C  C65  1  0.89468900  0.80994200  0.04494000  1
  C  C66  1  0.32434700  0.33909000  0.35203200  1
  C  C67  1  0.50000000  0.00000000  0.05854500  1
  C  C68  1  0.82434700  0.16091000  0.14796800  1
  C  C69  1  0.69005800  0.39468900  0.04494000  1
  C  C70  1  0.66091000  0.32434700  0.64796800  1
  C  C71  1  0.10531100  0.80994200  0.54494000  1
  C  C72  1  0.14738900  0.14738900  0.25000000  1
  C  C73  1  0.16091000  0.17565300  0.85203200  1
  C  C74  1  0.14738900  0.85261100  0.75000000  1
  C  C75  1  0.69005800  0.60531100  0.54494000  1
