# generated using pymatgen
data_Cu18NiC8
_symmetry_space_group_name_H-M   'P 1'
_cell_length_a   11.87740078
_cell_length_b   11.87740078
_cell_length_c   11.87740078
_cell_angle_alpha   96.46941803
_cell_angle_beta   96.46941803
_cell_angle_gamma   140.77369662
_symmetry_Int_Tables_number   1
_chemical_formula_structural   Cu18NiC8
_chemical_formula_sum   'Cu36 Ni2 C16'
_cell_volume   998.13129166
_cell_formula_units_Z   2
loop_
 _symmetry_equiv_pos_site_id
 _symmetry_equiv_pos_as_xyz
  1  'x, y, z'
loop_
 _atom_site_type_symbol
 _atom_site_label
 _atom_site_symmetry_multiplicity
 _atom_site_fract_x
 _atom_site_fract_y
 _atom_site_fract_z
 _atom_site_occupancy
  C  C0  1  0.23717100  0.73717100  0.50000000  1
  C  C1  1  0.73717100  0.23717100  0.50000000  1
  C  C2  1  0.18825800  0.88153600  0.13968200  1
  C  C3  1  0.04857500  0.18825800  0.30672200  1
  C  C4  1  0.88153600  0.74185300  0.69327800  1
  C  C5  1  0.74185300  0.04857500  0.86031800  1
  C  C6  1  0.38153600  0.68825800  0.13968200  1
  C  C7  1  0.54857500  0.24185300  0.86031800  1
  C  C8  1  0.68825800  0.54857500  0.30672200  1
  C  C9  1  0.24185300  0.38153600  0.69327800  1
  C  C10  1  0.34402300  0.15636200  0.50000000  1
  C  C11  1  0.84402300  0.34402300  0.18766200  1
  C  C12  1  0.15636200  0.65636200  0.81233800  1
  C  C13  1  0.65636200  0.84402300  0.50000000  1
  C  C14  1  0.73362500  0.73362500  0.00000000  1
  C  C15  1  0.23362500  0.23362500  0.00000000  1
  Ni  Ni16  1  0.00708500  0.00708500  0.00000000  1
  Ni  Ni17  1  0.50708500  0.50708500  0.00000000  1
  Cu  Cu18  1  0.60777600  0.37907100  0.50000000  1
  Cu  Cu19  1  0.10777600  0.60777600  0.22870500  1
  Cu  Cu20  1  0.37907100  0.87907100  0.77129500  1
  Cu  Cu21  1  0.87907100  0.10777600  0.50000000  1
  Cu  Cu22  1  0.01142700  0.62177100  0.66992500  1
  Cu  Cu23  1  0.34150200  0.01142700  0.38965600  1
  Cu  Cu24  1  0.62177100  0.95184600  0.61034400  1
  Cu  Cu25  1  0.95184600  0.34150200  0.33007500  1
  Cu  Cu26  1  0.12177100  0.51142700  0.66992500  1
  Cu  Cu27  1  0.84150200  0.45184600  0.33007500  1
  Cu  Cu28  1  0.51142700  0.84150200  0.38965600  1
  Cu  Cu29  1  0.45184600  0.12177100  0.61034400  1
  Cu  Cu30  1  0.39955600  0.60822300  0.50000000  1
  Cu  Cu31  1  0.89955600  0.39955600  0.79133300  1
  Cu  Cu32  1  0.60822300  0.10822300  0.20866700  1
  Cu  Cu33  1  0.10822300  0.89955600  0.50000000  1
  Cu  Cu34  1  0.64909100  0.71937600  0.84014600  1
  Cu  Cu35  1  0.80894500  0.64909100  0.92971500  1
  Cu  Cu36  1  0.71937600  0.87923000  0.07028500  1
  Cu  Cu37  1  0.87923000  0.80894500  0.15985400  1
  Cu  Cu38  1  0.21937600  0.14909100  0.84014600  1
  Cu  Cu39  1  0.30894500  0.37923000  0.15985400  1
  Cu  Cu40  1  0.14909100  0.30894500  0.92971500  1
  Cu  Cu41  1  0.37923000  0.21937600  0.07028500  1
  Cu  Cu42  1  0.80100400  0.45980300  0.12320100  1
  Cu  Cu43  1  0.67780300  0.80100400  0.34120100  1
  Cu  Cu44  1  0.45980300  0.33660200  0.65879900  1
  Cu  Cu45  1  0.33660200  0.67780300  0.87679900  1
  Cu  Cu46  1  0.95980300  0.30100400  0.12320100  1
  Cu  Cu47  1  0.17780300  0.83660200  0.87679900  1
  Cu  Cu48  1  0.30100400  0.17780300  0.34120100  1
  Cu  Cu49  1  0.83660200  0.95980300  0.65879900  1
  Cu  Cu50  1  0.65969800  0.67884900  0.50000000  1
  Cu  Cu51  1  0.15969800  0.65969800  0.98084900  1
  Cu  Cu52  1  0.67884900  0.17884900  0.01915100  1
  Cu  Cu53  1  0.17884900  0.15969800  0.50000000  1
