# generated using pymatgen
data_Cu3NiC6
_symmetry_space_group_name_H-M   'P 1'
_cell_length_a   4.32477100
_cell_length_b   4.50488300
_cell_length_c   18.61563100
_cell_angle_alpha   90.00000000
_cell_angle_beta   90.00000000
_cell_angle_gamma   90.00000000
_symmetry_Int_Tables_number   1
_chemical_formula_structural   Cu3NiC6
_chemical_formula_sum   'Cu12 Ni4 C24'
_cell_volume   362.68065716
_cell_formula_units_Z   4
loop_
 _symmetry_equiv_pos_site_id
 _symmetry_equiv_pos_as_xyz
  1  'x, y, z'
loop_
 _atom_site_type_symbol
 _atom_site_label
 _atom_site_symmetry_multiplicity
 _atom_site_fract_x
 _atom_site_fract_y
 _atom_site_fract_z
 _atom_site_occupancy
  Ni  Ni0  1  0.30246800  0.15671700  0.33757100  1
  Ni  Ni1  1  0.80246800  0.84328300  0.66242900  1
  Ni  Ni2  1  0.80246800  0.15671700  0.16242900  1
  Ni  Ni3  1  0.30246800  0.84328300  0.83757100  1
  Cu  Cu4  1  0.35582600  0.32789100  0.57234800  1
  Cu  Cu5  1  0.38424900  0.82490900  0.49849800  1
  Cu  Cu6  1  0.33141000  0.36407500  0.71279700  1
  Cu  Cu7  1  0.85582600  0.67210900  0.42765200  1
  Cu  Cu8  1  0.33141000  0.63592500  0.21279700  1
  Cu  Cu9  1  0.85582600  0.32789100  0.92765200  1
  Cu  Cu10  1  0.83141000  0.63592500  0.28720300  1
  Cu  Cu11  1  0.35582600  0.67210900  0.07234800  1
  Cu  Cu12  1  0.83141000  0.36407500  0.78720300  1
  Cu  Cu13  1  0.88424900  0.82490900  0.00150200  1
  Cu  Cu14  1  0.88424900  0.17509100  0.50150200  1
  Cu  Cu15  1  0.38424900  0.17509100  0.99849800  1
  C  C16  1  0.02985700  0.87293100  0.48167200  1
  C  C17  1  0.43035800  0.63777500  0.56018800  1
  C  C18  1  0.52985700  0.87293100  0.01832800  1
  C  C19  1  0.46388400  0.75642200  0.14579800  1
  C  C20  1  0.52985700  0.12706900  0.51832800  1
  C  C21  1  0.83580800  0.68874700  0.78840900  1
  C  C22  1  0.43035800  0.36222500  0.06018800  1
  C  C23  1  0.52656200  0.73810800  0.43223900  1
  C  C24  1  0.46388400  0.24357800  0.64579800  1
  C  C25  1  0.02985700  0.12706900  0.98167200  1
  C  C26  1  0.51367600  0.74804100  0.27541100  1
  C  C27  1  0.02656200  0.73810800  0.06776100  1
  C  C28  1  0.83580800  0.31125300  0.28840900  1
  C  C29  1  0.01367600  0.74804100  0.22458900  1
  C  C30  1  0.52656200  0.26189200  0.93223900  1
  C  C31  1  0.93035800  0.36222500  0.43981200  1
  C  C32  1  0.02656200  0.26189200  0.56776100  1
  C  C33  1  0.01367600  0.25195900  0.72458900  1
  C  C34  1  0.93035800  0.63777500  0.93981200  1
  C  C35  1  0.51367600  0.25195900  0.77541100  1
  C  C36  1  0.33580800  0.68874700  0.71159100  1
  C  C37  1  0.96388400  0.24357800  0.85420200  1
  C  C38  1  0.33580800  0.31125300  0.21159100  1
  C  C39  1  0.96388400  0.75642200  0.35420200  1
