# generated using pymatgen
data_Cu2Ni2C7
_symmetry_space_group_name_H-M   'P 1'
_cell_length_a   11.47477800
_cell_length_b   9.55073700
_cell_length_c   13.73940421
_cell_angle_alpha   86.02063563
_cell_angle_beta   90.00000000
_cell_angle_gamma   90.00000000
_symmetry_Int_Tables_number   1
_chemical_formula_structural   Cu2Ni2C7
_chemical_formula_sum   'Cu8 Ni8 C28'
_cell_volume   1502.10668076
_cell_formula_units_Z   4
loop_
 _symmetry_equiv_pos_site_id
 _symmetry_equiv_pos_as_xyz
  1  'x, y, z'
loop_
 _atom_site_type_symbol
 _atom_site_label
 _atom_site_symmetry_multiplicity
 _atom_site_fract_x
 _atom_site_fract_y
 _atom_site_fract_z
 _atom_site_occupancy
  Ni  Ni0  1  0.17740300  0.11798400  0.29547800  1
  Ni  Ni1  1  0.67740300  0.88201600  0.20452200  1
  Ni  Ni2  1  0.82259700  0.88201600  0.70452200  1
  Ni  Ni3  1  0.32259700  0.11798400  0.79547800  1
  Ni  Ni4  1  0.08227100  0.73916100  0.34396300  1
  Ni  Ni5  1  0.58227100  0.26083900  0.15603700  1
  Ni  Ni6  1  0.91772900  0.26083900  0.65603700  1
  Ni  Ni7  1  0.41772900  0.73916100  0.84396300  1
  Cu  Cu8  1  0.15372600  0.43323300  0.03488800  1
  Cu  Cu9  1  0.65372600  0.56676700  0.46511200  1
  Cu  Cu10  1  0.84627400  0.56676700  0.96511200  1
  Cu  Cu11  1  0.34627400  0.43323300  0.53488800  1
  Cu  Cu12  1  0.93523800  0.32410100  0.05066800  1
  Cu  Cu13  1  0.43523800  0.67589900  0.44933200  1
  Cu  Cu14  1  0.06476200  0.67589900  0.94933200  1
  Cu  Cu15  1  0.56476200  0.32410100  0.55066800  1
  C  C16  1  0.16805300  0.10986600  0.13862200  1
  C  C17  1  0.66805300  0.89013400  0.36137800  1
  C  C18  1  0.83194700  0.89013400  0.86137800  1
  C  C19  1  0.33194700  0.10986600  0.63862200  1
  C  C20  1  0.12289900  0.31675100  0.33844000  1
  C  C21  1  0.62289900  0.68324900  0.16156000  1
  C  C22  1  0.87710100  0.68324900  0.66156000  1
  C  C23  1  0.37710100  0.31675100  0.83844000  1
  C  C24  1  0.33279300  0.04178800  0.36404400  1
  C  C25  1  0.83279300  0.95821200  0.13595600  1
  C  C26  1  0.66720700  0.95821200  0.63595600  1
  C  C27  1  0.16720700  0.04178800  0.86404400  1
  C  C28  1  0.03177200  0.96982600  0.35265400  1
  C  C29  1  0.53177200  0.03017400  0.14734600  1
  C  C30  1  0.96822800  0.03017400  0.64734600  1
  C  C31  1  0.46822800  0.96982600  0.85265400  1
  C  C32  1  0.14684500  0.68286700  0.48912300  1
  C  C33  1  0.64684500  0.31713300  0.01087700  1
  C  C34  1  0.85315500  0.31713300  0.51087700  1
  C  C35  1  0.35315500  0.68286700  0.98912300  1
  C  C36  1  0.21614400  0.72464700  0.23850000  1
  C  C37  1  0.71614400  0.27535300  0.26150000  1
  C  C38  1  0.78385600  0.27535300  0.76150000  1
  C  C39  1  0.28385600  0.72464700  0.73850000  1
  C  C40  1  0.92437000  0.63761800  0.31045600  1
  C  C41  1  0.42437000  0.36238200  0.18954400  1
  C  C42  1  0.07563000  0.36238200  0.68954400  1
  C  C43  1  0.57563000  0.63761800  0.81045600  1
