# generated using pymatgen
data_CuNiC5
_symmetry_space_group_name_H-M   'P 1'
_cell_length_a   5.74999000
_cell_length_b   10.44863300
_cell_length_c   13.38104300
_cell_angle_alpha   90.00000000
_cell_angle_beta   90.00000000
_cell_angle_gamma   90.00000000
_symmetry_Int_Tables_number   1
_chemical_formula_structural   CuNiC5
_chemical_formula_sum   'Cu8 Ni8 C40'
_cell_volume   803.92684478
_cell_formula_units_Z   8
loop_
 _symmetry_equiv_pos_site_id
 _symmetry_equiv_pos_as_xyz
  1  'x, y, z'
loop_
 _atom_site_type_symbol
 _atom_site_label
 _atom_site_symmetry_multiplicity
 _atom_site_fract_x
 _atom_site_fract_y
 _atom_site_fract_z
 _atom_site_occupancy
  Ni  Ni0  1  0.75000000  0.18629700  0.29305500  1
  Ni  Ni1  1  0.75000000  0.59132800  0.57718500  1
  Ni  Ni2  1  0.25000000  0.40867200  0.42281500  1
  Ni  Ni3  1  0.75000000  0.31370300  0.79305500  1
  Ni  Ni4  1  0.25000000  0.68629700  0.20694500  1
  Ni  Ni5  1  0.75000000  0.90867200  0.07718500  1
  Ni  Ni6  1  0.25000000  0.81370300  0.70694500  1
  Ni  Ni7  1  0.25000000  0.09132800  0.92281500  1
  Cu  Cu8  1  0.25000000  0.31183600  0.14218400  1
  Cu  Cu9  1  0.25000000  0.01406600  0.41675900  1
  Cu  Cu10  1  0.75000000  0.81183600  0.35781600  1
  Cu  Cu11  1  0.75000000  0.68816400  0.85781600  1
  Cu  Cu12  1  0.25000000  0.18816400  0.64218400  1
  Cu  Cu13  1  0.25000000  0.48593400  0.91675900  1
  Cu  Cu14  1  0.75000000  0.51406600  0.08324100  1
  Cu  Cu15  1  0.75000000  0.98593400  0.58324100  1
  C  C16  1  0.75000000  0.23204100  0.03896900  1
  C  C17  1  0.75000000  0.26795900  0.53896900  1
  C  C18  1  0.25000000  0.76795900  0.96103100  1
  C  C19  1  0.25000000  0.73204100  0.46103100  1
  C  C20  1  0.75000000  0.53228600  0.30653800  1
  C  C21  1  0.75000000  0.96771400  0.80653800  1
  C  C22  1  0.25000000  0.03228600  0.19346200  1
  C  C23  1  0.25000000  0.46771400  0.69346200  1
  C  C24  1  0.00713000  0.63695700  0.99284500  1
  C  C25  1  0.49349000  0.36194600  0.61415200  1
  C  C26  1  0.75000000  0.81417600  0.70406300  1
  C  C27  1  0.99287000  0.13695700  0.50715500  1
  C  C28  1  0.50651000  0.86194600  0.88584800  1
  C  C29  1  0.75000000  0.39118500  0.41139400  1
  C  C30  1  0.00651000  0.13805400  0.11415200  1
  C  C31  1  0.75000000  0.68582400  0.20406300  1
  C  C32  1  0.50923700  0.44343400  0.21716700  1
  C  C33  1  0.49076300  0.94343400  0.28283300  1
  C  C34  1  0.99287000  0.36304300  0.00715500  1
  C  C35  1  0.49349000  0.13805400  0.11415200  1
  C  C36  1  0.25000000  0.31417600  0.79593700  1
  C  C37  1  0.00923700  0.55656600  0.78283300  1
  C  C38  1  0.50713000  0.36304300  0.00715500  1
  C  C39  1  0.99076300  0.44343400  0.21716700  1
  C  C40  1  0.25000000  0.60881500  0.58860600  1
  C  C41  1  0.50923700  0.05656600  0.71716700  1
  C  C42  1  0.00651000  0.36194600  0.61415200  1
  C  C43  1  0.49287000  0.86304300  0.49284500  1
  C  C44  1  0.00923700  0.94343400  0.28283300  1
  C  C45  1  0.99076300  0.05656600  0.71716700  1
  C  C46  1  0.99349000  0.63805400  0.38584800  1
  C  C47  1  0.99349000  0.86194600  0.88584800  1
  C  C48  1  0.50713000  0.13695700  0.50715500  1
  C  C49  1  0.50651000  0.63805400  0.38584800  1
  C  C50  1  0.49076300  0.55656600  0.78283300  1
  C  C51  1  0.00713000  0.86304300  0.49284500  1
  C  C52  1  0.75000000  0.10881500  0.91139400  1
  C  C53  1  0.49287000  0.63695700  0.99284500  1
  C  C54  1  0.25000000  0.18582400  0.29593700  1
  C  C55  1  0.25000000  0.89118500  0.08860600  1
