# generated using pymatgen
data_CuNiC10
_symmetry_space_group_name_H-M   'P 1'
_cell_length_a   10.06311714
_cell_length_b   10.06311714
_cell_length_c   11.54493000
_cell_angle_alpha   90.00000000
_cell_angle_beta   90.00000000
_cell_angle_gamma   111.43828377
_symmetry_Int_Tables_number   1
_chemical_formula_structural   CuNiC10
_chemical_formula_sum   'Cu8 Ni8 C80'
_cell_volume   1088.22385702
_cell_formula_units_Z   8
loop_
 _symmetry_equiv_pos_site_id
 _symmetry_equiv_pos_as_xyz
  1  'x, y, z'
loop_
 _atom_site_type_symbol
 _atom_site_label
 _atom_site_symmetry_multiplicity
 _atom_site_fract_x
 _atom_site_fract_y
 _atom_site_fract_z
 _atom_site_occupancy
  Ni  Ni0  1  0.38040300  0.38040300  0.12478600  1
  Ni  Ni1  1  0.88107100  0.88107100  0.87057600  1
  Ni  Ni2  1  0.61892900  0.61892900  0.37057600  1
  Ni  Ni3  1  0.11959700  0.11959700  0.62478600  1
  Ni  Ni4  1  0.61959700  0.61959700  0.87521400  1
  Ni  Ni5  1  0.88040300  0.88040300  0.37521400  1
  Ni  Ni6  1  0.11892900  0.11892900  0.12942400  1
  Ni  Ni7  1  0.38107100  0.38107100  0.62942400  1
  Cu  Cu8  1  0.56632800  0.93346300  0.87484100  1
  Cu  Cu9  1  0.43346300  0.06632800  0.62515800  1
  Cu  Cu10  1  0.56653700  0.93367200  0.37484200  1
  Cu  Cu11  1  0.93367200  0.56653700  0.37484200  1
  Cu  Cu12  1  0.43367200  0.06653700  0.12515800  1
  Cu  Cu13  1  0.06653700  0.43367200  0.12515800  1
  Cu  Cu14  1  0.06632800  0.43346300  0.62515800  1
  Cu  Cu15  1  0.93346300  0.56632800  0.87484200  1
  C  C16  1  0.25065200  0.74934800  0.00000000  1
  C  C17  1  0.76808800  0.98611700  0.62581000  1
  C  C18  1  0.73191200  0.51388300  0.12581000  1
  C  C19  1  0.48584100  0.26810300  0.37623300  1
  C  C20  1  0.26810300  0.48584100  0.37623300  1
  C  C21  1  0.24934800  0.75065200  0.50000000  1
  C  C22  1  0.76810300  0.98584100  0.12376700  1
  C  C23  1  0.75065200  0.24934800  0.50000000  1
  C  C24  1  0.73189700  0.51415900  0.62376700  1
  C  C25  1  0.51388300  0.73191200  0.12581000  1
  C  C26  1  0.25010100  0.75010100  0.75000000  1
  C  C27  1  0.75010100  0.25010100  0.75000000  1
  C  C28  1  0.48611700  0.26808800  0.87419000  1
  C  C29  1  0.74989900  0.24989900  0.25000000  1
  C  C30  1  0.01388300  0.23191200  0.37419000  1
  C  C31  1  0.24989900  0.74989900  0.25000000  1
  C  C32  1  0.26808800  0.48611700  0.87419000  1
  C  C33  1  0.74934800  0.25065200  0.00000000  1
  C  C34  1  0.98584100  0.76810300  0.12376700  1
  C  C35  1  0.23189700  0.01415900  0.87623300  1
  C  C36  1  0.51415900  0.73189700  0.62376700  1
  C  C37  1  0.01415900  0.23189700  0.87623300  1
  C  C38  1  0.23191200  0.01388300  0.37419000  1
  C  C39  1  0.98611700  0.76808800  0.62581000  1
  C  C40  1  0.37993400  0.85185000  0.12502400  1
  C  C41  1  0.36772800  0.63097700  0.74956200  1
  C  C42  1  0.35661700  0.14408900  0.26343700  1
  C  C43  1  0.62052500  0.14808900  0.37499200  1
  C  C44  1  0.64815000  0.12006600  0.62502400  1
  C  C45  1  0.63193100  0.36806900  0.50000000  1
  C  C46  1  0.87947500  0.35191100  0.87499200  1
  C  C47  1  0.37947500  0.85191100  0.62500800  1
  C  C48  1  0.13227200  0.86902300  0.24956200  1
  C  C49  1  0.14347200  0.35665100  0.98675200  1
  C  C50  1  0.14334900  0.35652800  0.48675200  1
  C  C51  1  0.08450100  0.08450100  0.37427200  1
  C  C52  1  0.85661700  0.64408900  0.23656300  1
  C  C53  1  0.35591100  0.14338300  0.76343700  1
  C  C54  1  0.63097700  0.36772800  0.74956200  1
  C  C55  1  0.14815000  0.62006600  0.87497600  1
  C  C56  1  0.41549900  0.41549900  0.87427200  1
  C  C57  1  0.86902300  0.13227200  0.24956200  1
  C  C58  1  0.14808900  0.62052500  0.37499200  1
  C  C59  1  0.85665100  0.64347200  0.51324800  1
  C  C60  1  0.63227200  0.36902300  0.25043800  1
  C  C61  1  0.36806900  0.63193100  0.50000000  1
  C  C62  1  0.91549900  0.91549900  0.62572800  1
  C  C63  1  0.13144100  0.86855900  0.50000000  1
  C  C64  1  0.36902300  0.63227200  0.25043800  1
  C  C65  1  0.13193100  0.86806900  0.00000000  1
  C  C66  1  0.64338300  0.85591100  0.73656300  1
  C  C67  1  0.36855900  0.63144100  0.00000000  1
  C  C68  1  0.85652800  0.64334900  0.01324800  1
  C  C69  1  0.08450200  0.08450200  0.87569500  1
  C  C70  1  0.85185000  0.37993400  0.12502400  1
  C  C71  1  0.14338300  0.35591100  0.76343700  1
  C  C72  1  0.87993400  0.35185000  0.37497600  1
  C  C73  1  0.12006600  0.64815000  0.62502400  1
  C  C74  1  0.35185000  0.87993400  0.37497600  1
  C  C75  1  0.12052500  0.64808900  0.12500800  1
  C  C76  1  0.35652800  0.14334900  0.48675200  1
  C  C77  1  0.41549800  0.41549800  0.37569500  1
  C  C78  1  0.86855900  0.13144100  0.50000000  1
  C  C79  1  0.86772800  0.13097700  0.75043800  1
  C  C80  1  0.58450100  0.58450100  0.12572800  1
  C  C81  1  0.14408900  0.35661700  0.26343700  1
  C  C82  1  0.64334900  0.85652800  0.01324800  1
  C  C83  1  0.64408900  0.85661700  0.23656300  1
  C  C84  1  0.35665100  0.14347200  0.98675200  1
  C  C85  1  0.85191100  0.37947500  0.62500800  1
  C  C86  1  0.58450200  0.58450200  0.62430500  1
  C  C87  1  0.63144100  0.36855900  0.00000000  1
  C  C88  1  0.86806900  0.13193100  0.00000000  1
  C  C89  1  0.85591100  0.64338300  0.73656300  1
  C  C90  1  0.64808900  0.12052500  0.12500800  1
  C  C91  1  0.13097700  0.86772800  0.75043800  1
  C  C92  1  0.35191100  0.87947500  0.87499200  1
  C  C93  1  0.91549800  0.91549800  0.12430500  1
  C  C94  1  0.64347200  0.85665100  0.51324800  1
  C  C95  1  0.62006600  0.14815000  0.87497600  1
