# generated using pymatgen
data_Cu2NiC6
_symmetry_space_group_name_H-M   'P 1'
_cell_length_a   5.67570700
_cell_length_b   7.01012200
_cell_length_c   12.24473600
_cell_angle_alpha   90.00000000
_cell_angle_beta   90.00000000
_cell_angle_gamma   90.00000000
_symmetry_Int_Tables_number   1
_chemical_formula_structural   Cu2NiC6
_chemical_formula_sum   'Cu8 Ni4 C24'
_cell_volume   487.18619084
_cell_formula_units_Z   4
loop_
 _symmetry_equiv_pos_site_id
 _symmetry_equiv_pos_as_xyz
  1  'x, y, z'
loop_
 _atom_site_type_symbol
 _atom_site_label
 _atom_site_symmetry_multiplicity
 _atom_site_fract_x
 _atom_site_fract_y
 _atom_site_fract_z
 _atom_site_occupancy
  Ni  Ni0  1  0.25000000  0.92464700  0.90205300  1
  Ni  Ni1  1  0.75000000  0.07535300  0.09794700  1
  Ni  Ni2  1  0.75000000  0.42464700  0.59794700  1
  Ni  Ni3  1  0.25000000  0.57535300  0.40205300  1
  Cu  Cu4  1  0.25000000  0.11943200  0.29150500  1
  Cu  Cu5  1  0.75000000  0.88056800  0.70849500  1
  Cu  Cu6  1  0.75000000  0.61943200  0.20849500  1
  Cu  Cu7  1  0.25000000  0.38056800  0.79150500  1
  Cu  Cu8  1  0.25000000  0.39838800  0.07377000  1
  Cu  Cu9  1  0.75000000  0.60161200  0.92623000  1
  Cu  Cu10  1  0.75000000  0.89838800  0.42623000  1
  Cu  Cu11  1  0.25000000  0.10161200  0.57377000  1
  C  C12  1  0.25000000  0.69738700  0.65575000  1
  C  C13  1  0.75000000  0.30261300  0.34425000  1
  C  C14  1  0.75000000  0.19738700  0.84425000  1
  C  C15  1  0.25000000  0.80261300  0.15575000  1
  C  C16  1  0.99782500  0.16487900  0.43421000  1
  C  C17  1  0.49782500  0.83512100  0.56579000  1
  C  C18  1  0.00217500  0.66487900  0.06579000  1
  C  C19  1  0.50217500  0.33512100  0.93421000  1
  C  C20  1  0.00217500  0.83512100  0.56579000  1
  C  C21  1  0.50217500  0.16487900  0.43421000  1
  C  C22  1  0.99782500  0.33512100  0.93421000  1
  C  C23  1  0.49782500  0.66487900  0.06579000  1
  C  C24  1  0.49959400  0.36149800  0.22527800  1
  C  C25  1  0.99959400  0.63850200  0.77472200  1
  C  C26  1  0.50040600  0.86149800  0.27472200  1
  C  C27  1  0.00040600  0.13850200  0.72527800  1
  C  C28  1  0.50040600  0.63850200  0.77472200  1
  C  C29  1  0.00040600  0.36149800  0.22527800  1
  C  C30  1  0.49959400  0.13850200  0.72527800  1
  C  C31  1  0.99959400  0.86149800  0.27472200  1
  C  C32  1  0.25000000  0.07549700  0.10358200  1
  C  C33  1  0.75000000  0.92450300  0.89641800  1
  C  C34  1  0.75000000  0.57549700  0.39641800  1
  C  C35  1  0.25000000  0.42450300  0.60358200  1
