# generated using pymatgen
data_Cu(NiC)4
_symmetry_space_group_name_H-M   'P 1'
_cell_length_a   7.60991994
_cell_length_b   7.60991994
_cell_length_c   7.60991994
_cell_angle_alpha   121.90274322
_cell_angle_beta   121.90274322
_cell_angle_gamma   86.73478200
_symmetry_Int_Tables_number   1
_chemical_formula_structural   Cu(NiC)4
_chemical_formula_sum   'Cu2 Ni8 C8'
_cell_volume   302.12396432
_cell_formula_units_Z   2
loop_
 _symmetry_equiv_pos_site_id
 _symmetry_equiv_pos_as_xyz
  1  'x, y, z'
loop_
 _atom_site_type_symbol
 _atom_site_label
 _atom_site_symmetry_multiplicity
 _atom_site_fract_x
 _atom_site_fract_y
 _atom_site_fract_z
 _atom_site_occupancy
  C  C0  1  0.19296200  0.69296200  0.88592400  1
  C  C1  1  0.75000000  0.75000000  0.00000000  1
  C  C2  1  0.30703800  0.19296200  0.50000000  1
  C  C3  1  0.80703800  0.30703800  0.11407600  1
  C  C4  1  0.69296200  0.80703800  0.50000000  1
  C  C5  1  0.25000000  0.25000000  0.00000000  1
  C  C6  1  0.75000000  0.25000000  0.50000000  1
  C  C7  1  0.25000000  0.75000000  0.50000000  1
  Ni  Ni8  1  0.05490000  0.78740100  0.50000000  1
  Ni  Ni9  1  0.44510000  0.94510000  0.73250100  1
  Ni  Ni10  1  0.78740100  0.28740100  0.73250100  1
  Ni  Ni11  1  0.21259900  0.71259900  0.26749900  1
  Ni  Ni12  1  0.28740100  0.55490000  0.50000000  1
  Ni  Ni13  1  0.55490000  0.05490000  0.26749900  1
  Ni  Ni14  1  0.71259900  0.44510000  0.50000000  1
  Ni  Ni15  1  0.94510000  0.21259900  0.50000000  1
  Cu  Cu16  1  0.50000000  0.50000000  0.00000000  1
  Cu  Cu17  1  0.00000000  0.00000000  0.00000000  1
