# generated using pymatgen
data_Cu6NiC17
_symmetry_space_group_name_H-M   'P 1'
_cell_length_a   15.63134400
_cell_length_b   8.43057200
_cell_length_c   12.06558169
_cell_angle_alpha   47.55691667
_cell_angle_beta   90.00000000
_cell_angle_gamma   90.00000000
_symmetry_Int_Tables_number   1
_chemical_formula_structural   Cu6NiC17
_chemical_formula_sum   'Cu24 Ni4 C68'
_cell_volume   1173.34963269
_cell_formula_units_Z   4
loop_
 _symmetry_equiv_pos_site_id
 _symmetry_equiv_pos_as_xyz
  1  'x, y, z'
loop_
 _atom_site_type_symbol
 _atom_site_label
 _atom_site_symmetry_multiplicity
 _atom_site_fract_x
 _atom_site_fract_y
 _atom_site_fract_z
 _atom_site_occupancy
  Ni  Ni0  1  0.89420500  0.88361900  0.93623500  1
  Ni  Ni1  1  0.10579500  0.11638100  0.06376500  1
  Ni  Ni2  1  0.39420500  0.11638100  0.56376500  1
  Ni  Ni3  1  0.60579500  0.88361900  0.43623500  1
  Cu  Cu4  1  0.66632400  0.41250200  0.16508000  1
  Cu  Cu5  1  0.82641300  0.01494200  0.44387100  1
  Cu  Cu6  1  0.17831400  0.45123200  0.69267900  1
  Cu  Cu7  1  0.51344400  0.66469000  0.28373800  1
  Cu  Cu8  1  0.82168600  0.54876800  0.30732100  1
  Cu  Cu9  1  0.64423900  0.14702400  0.57576600  1
  Cu  Cu10  1  0.67831400  0.54876800  0.80732100  1
  Cu  Cu11  1  0.83367600  0.41250200  0.66508000  1
  Cu  Cu12  1  0.35576100  0.85297600  0.42423400  1
  Cu  Cu13  1  0.32168600  0.45123200  0.19267900  1
  Cu  Cu14  1  0.85576100  0.14702400  0.07576600  1
  Cu  Cu15  1  0.01344400  0.33531000  0.21626200  1
  Cu  Cu16  1  0.98655600  0.66469000  0.78373800  1
  Cu  Cu17  1  0.50377300  0.23925200  0.06123500  1
  Cu  Cu18  1  0.14423900  0.85297600  0.92423400  1
  Cu  Cu19  1  0.32641300  0.98505800  0.05612900  1
  Cu  Cu20  1  0.17358700  0.98505800  0.55612900  1
  Cu  Cu21  1  0.49622700  0.76074800  0.93876500  1
  Cu  Cu22  1  0.16632400  0.58749800  0.33492000  1
  Cu  Cu23  1  0.67358700  0.01494200  0.94387100  1
  Cu  Cu24  1  0.00377300  0.76074800  0.43876500  1
  Cu  Cu25  1  0.99622700  0.23925200  0.56123500  1
  Cu  Cu26  1  0.33367600  0.58749800  0.83492000  1
  Cu  Cu27  1  0.48655600  0.33531000  0.71626200  1
  C  C28  1  0.80805400  0.95591500  0.72222200  1
  C  C29  1  0.67257400  0.54311200  0.52826200  1
  C  C30  1  0.32742600  0.45688800  0.47173800  1
  C  C31  1  0.00013900  0.21113700  0.85438100  1
  C  C32  1  0.82742600  0.54311200  0.02826200  1
  C  C33  1  0.69194600  0.95591500  0.22222200  1
  C  C34  1  0.17257400  0.45688800  0.97173800  1
  C  C35  1  0.49986100  0.21113700  0.35438100  1
  C  C36  1  0.30805400  0.04408500  0.77777800  1
  C  C37  1  0.50013900  0.78886300  0.64561900  1
  C  C38  1  0.99986100  0.78886300  0.14561900  1
  C  C39  1  0.19194600  0.04408500  0.27777800  1
  C  C40  1  0.39417000  0.05126900  0.80051600  1
  C  C41  1  0.58531800  0.84905100  0.61872300  1
  C  C42  1  0.41468200  0.15094900  0.38127700  1
  C  C43  1  0.26921000  0.55610800  0.49539700  1
  C  C44  1  0.73079000  0.44389200  0.50460300  1
  C  C45  1  0.20566500  0.36310200  0.92111900  1
  C  C46  1  0.58696100  0.53190300  0.50784000  1
  C  C47  1  0.03503000  0.69723800  0.09317400  1
  C  C48  1  0.90988600  0.52653100  0.46365400  1
  C  C49  1  0.55096300  0.18115400  0.27699300  1
  C  C50  1  0.09817200  0.29789800  0.39524500  1
  C  C51  1  0.77677100  0.04715100  0.77568100  1
  C  C52  1  0.41303900  0.46809700  0.49216000  1
  C  C53  1  0.91303900  0.53190300  0.00784000  1
  C  C54  1  0.27677100  0.95284900  0.72431900  1
  C  C55  1  0.24983800  0.11898300  0.82202400  1
  C  C56  1  0.75016200  0.88101700  0.17797600  1
  C  C57  1  0.79433500  0.63689800  0.07888100  1
  C  C58  1  0.96497000  0.30276200  0.90682600  1
  C  C59  1  0.59011400  0.52653100  0.96365400  1
  C  C60  1  0.57980100  0.06516900  0.77698400  1
  C  C61  1  0.72322900  0.04715100  0.27568100  1
  C  C62  1  0.29433500  0.36310200  0.42111900  1
  C  C63  1  0.09011400  0.47346900  0.53634600  1
  C  C64  1  0.94903700  0.18115400  0.77699300  1
  C  C65  1  0.23079000  0.55610800  0.99539700  1
  C  C66  1  0.44903700  0.81884600  0.72300700  1
  C  C67  1  0.89417000  0.94873100  0.69948400  1
  C  C68  1  0.92019900  0.06516900  0.27698400  1
  C  C69  1  0.91468200  0.84905100  0.11872300  1
  C  C70  1  0.25016200  0.11898300  0.32202400  1
  C  C71  1  0.42019900  0.93483100  0.22301600  1
  C  C72  1  0.90182800  0.70210200  0.60475500  1
  C  C73  1  0.41499100  0.71391000  0.12486200  1
  C  C74  1  0.58500900  0.28609000  0.87513800  1
  C  C75  1  0.76784700  0.27347700  0.87809600  1
  C  C76  1  0.60583000  0.94873100  0.19948400  1
  C  C77  1  0.59817200  0.70210200  0.10475500  1
  C  C78  1  0.05096300  0.81884600  0.22300700  1
  C  C79  1  0.70566500  0.63689800  0.57888100  1
  C  C80  1  0.74983800  0.88101700  0.67797600  1
  C  C81  1  0.23215300  0.72652300  0.12190400  1
  C  C82  1  0.73215300  0.27347700  0.37809600  1
  C  C83  1  0.26784700  0.72652300  0.62190400  1
  C  C84  1  0.91499100  0.28609000  0.37513800  1
  C  C85  1  0.40182800  0.29789800  0.89524500  1
  C  C86  1  0.10583000  0.05126900  0.30051600  1
  C  C87  1  0.46497000  0.69723800  0.59317400  1
  C  C88  1  0.40988600  0.47346900  0.03634600  1
  C  C89  1  0.53503000  0.30276200  0.40682600  1
  C  C90  1  0.07980100  0.93483100  0.72301600  1
  C  C91  1  0.76921000  0.44389200  0.00460300  1
  C  C92  1  0.08531800  0.15094900  0.88127700  1
  C  C93  1  0.08696100  0.46809700  0.99216000  1
  C  C94  1  0.08500900  0.71391000  0.62486200  1
  C  C95  1  0.22322900  0.95284900  0.22431900  1
