# generated using pymatgen
data_Cu2NiC7
_symmetry_space_group_name_H-M   'P 1'
_cell_length_a   12.07489351
_cell_length_b   12.07489351
_cell_length_c   12.07489351
_cell_angle_alpha   109.72552840
_cell_angle_beta   109.72552840
_cell_angle_gamma   108.96379363
_symmetry_Int_Tables_number   1
_chemical_formula_structural   Cu2NiC7
_chemical_formula_sum   'Cu16 Ni8 C56'
_cell_volume   1355.19726226
_cell_formula_units_Z   8
loop_
 _symmetry_equiv_pos_site_id
 _symmetry_equiv_pos_as_xyz
  1  'x, y, z'
loop_
 _atom_site_type_symbol
 _atom_site_label
 _atom_site_symmetry_multiplicity
 _atom_site_fract_x
 _atom_site_fract_y
 _atom_site_fract_z
 _atom_site_occupancy
  C  C0  1  0.87726300  0.37726300  0.25452600  1
  C  C1  1  0.12273700  0.62273700  0.74547400  1
  C  C2  1  0.37726300  0.12273700  0.50000000  1
  C  C3  1  0.37273700  0.12726300  0.00000000  1
  C  C4  1  0.62726300  0.62726300  0.75452600  1
  C  C5  1  0.87273700  0.87273700  0.24547400  1
  C  C6  1  0.62273700  0.87726300  0.50000000  1
  C  C7  1  0.12726300  0.37273700  0.00000000  1
  Ni  Ni8  1  0.33745700  0.83745700  0.17491400  1
  Ni  Ni9  1  0.08745700  0.08745700  0.67491400  1
  Ni  Ni10  1  0.16254300  0.33745700  0.50000000  1
  Ni  Ni11  1  0.91254300  0.58745700  0.00000000  1
  Ni  Ni12  1  0.66254300  0.16254300  0.82508600  1
  Ni  Ni13  1  0.58745700  0.91254300  0.00000000  1
  Ni  Ni14  1  0.83745700  0.66254300  0.50000000  1
  Ni  Ni15  1  0.41254300  0.41254300  0.32508600  1
  Cu  Cu16  1  0.16727100  0.69916800  0.28919400  1
  Cu  Cu17  1  0.30083200  0.59002600  0.46810300  1
  Cu  Cu18  1  0.34002600  0.37192300  0.78919400  1
  Cu  Cu19  1  0.84002600  0.05083200  0.96810300  1
  Cu  Cu20  1  0.40997400  0.87807700  0.71080600  1
  Cu  Cu21  1  0.80083200  0.33272900  0.71080600  1
  Cu  Cu22  1  0.44916800  0.65997400  0.03189700  1
  Cu  Cu23  1  0.66727100  0.37807700  0.46810300  1
  Cu  Cu24  1  0.08272900  0.87192300  0.03189700  1
  Cu  Cu25  1  0.62807700  0.41727100  0.96810300  1
  Cu  Cu26  1  0.12192300  0.83272900  0.53189700  1
  Cu  Cu27  1  0.62192300  0.09002600  0.28919400  1
  Cu  Cu28  1  0.12807700  0.15997400  0.21080600  1
  Cu  Cu29  1  0.94916800  0.91727100  0.78919400  1
  Cu  Cu30  1  0.58272900  0.55083200  0.21080600  1
  Cu  Cu31  1  0.90997400  0.19916800  0.53189700  1
  C  C32  1  0.13890300  0.79726400  0.39628800  1
  C  C33  1  0.61109700  0.45273600  0.10371200  1
  C  C34  1  0.71877400  0.65145700  0.35806600  1
  C  C35  1  0.70273600  0.36109700  0.60371200  1
  C  C36  1  0.51072500  0.00684500  0.71300600  1
  C  C37  1  0.49315500  0.98927500  0.28699400  1
  C  C38  1  0.79339100  0.15145700  0.93268300  1
  C  C39  1  0.40097600  0.74261500  0.60371200  1
  C  C40  1  0.23927500  0.24315500  0.78699400  1
  C  C41  1  0.75738500  0.09902400  0.39628800  1
  C  C42  1  0.45616100  0.45228100  0.21300600  1
  C  C43  1  0.53122600  0.38929200  0.43268300  1
  C  C44  1  0.84854300  0.78122600  0.64193400  1
  C  C45  1  0.04726400  0.88890300  0.89628800  1
  C  C46  1  0.13929200  0.20660900  0.35806600  1
  C  C47  1  0.25738500  0.86109700  0.65836100  1
  C  C48  1  0.90097600  0.29726400  0.65836100  1
  C  C49  1  0.49261500  0.38890300  0.84163900  1
  C  C50  1  0.29339100  0.36070800  0.64193400  1
  C  C51  1  0.03122600  0.59854300  0.14193400  1
  C  C52  1  0.45660900  0.88929200  0.85806600  1
  C  C53  1  0.01072500  0.29771900  0.50388000  1
  C  C54  1  0.79383900  0.50684500  0.49612000  1
  C  C55  1  0.25684500  0.26072500  0.21300600  1
  C  C56  1  0.99315500  0.70616100  0.50388000  1
  C  C57  1  0.40145700  0.54339100  0.43268300  1
  C  C58  1  0.21877400  0.86070800  0.06731700  1
  C  C59  1  0.34902400  0.50738500  0.89628800  1
  C  C60  1  0.54771900  0.76072500  0.00388000  1
  C  C61  1  0.11109700  0.00738500  0.15836100  1
  C  C62  1  0.61070800  0.04339100  0.14193400  1
  C  C63  1  0.95660900  0.09854300  0.56731700  1
  C  C64  1  0.90145700  0.46877400  0.85806600  1
  C  C65  1  0.04771900  0.04383900  0.78699400  1
  C  C66  1  0.63929200  0.28122600  0.93268300  1
  C  C67  1  0.11070800  0.96877400  0.56731700  1
  C  C68  1  0.29383900  0.79771900  0.28699400  1
  C  C69  1  0.20273600  0.59902400  0.34163900  1
  C  C70  1  0.99261500  0.15097600  0.10371200  1
  C  C71  1  0.73927500  0.95228100  0.99612000  1
  C  C72  1  0.20228100  0.48927500  0.49612000  1
  C  C73  1  0.63890300  0.24261500  0.34163900  1
  C  C74  1  0.34854300  0.70660900  0.06731700  1
  C  C75  1  0.84902400  0.95273600  0.84163900  1
  C  C76  1  0.54726400  0.65097600  0.15836100  1
  C  C77  1  0.70228100  0.20616100  0.71300600  1
  C  C78  1  0.75684500  0.54383900  0.99612000  1
  C  C79  1  0.95616100  0.74315500  0.00388000  1
