# generated using pymatgen
data_Cu2NiC7
_symmetry_space_group_name_H-M   'P 1'
_cell_length_a   6.61234050
_cell_length_b   6.61234050
_cell_length_c   14.73771000
_cell_angle_alpha   90.00000000
_cell_angle_beta   90.00000000
_cell_angle_gamma   120.00000504
_symmetry_Int_Tables_number   1
_chemical_formula_structural   Cu2NiC7
_chemical_formula_sum   'Cu4 Ni2 C14'
_cell_volume   558.04733082
_cell_formula_units_Z   2
loop_
 _symmetry_equiv_pos_site_id
 _symmetry_equiv_pos_as_xyz
  1  'x, y, z'
loop_
 _atom_site_type_symbol
 _atom_site_label
 _atom_site_symmetry_multiplicity
 _atom_site_fract_x
 _atom_site_fract_y
 _atom_site_fract_z
 _atom_site_occupancy
  C  C0  1  0.00000000  0.00000000  0.75000000  1
  C  C1  1  0.00000000  0.00000000  0.25000000  1
  Ni  Ni2  1  0.33333300  0.66666700  0.75000000  1
  Ni  Ni3  1  0.66666700  0.33333300  0.25000000  1
  Cu  Cu4  1  0.66666700  0.33333300  0.82743700  1
  Cu  Cu5  1  0.66666700  0.33333300  0.67256300  1
  Cu  Cu6  1  0.33333300  0.66666700  0.17256300  1
  Cu  Cu7  1  0.33333300  0.66666700  0.32743700  1
  C  C8  1  0.67496400  0.96901100  0.13231500  1
  C  C9  1  0.70595200  0.03098900  0.63231500  1
  C  C10  1  0.03098900  0.32503600  0.36768500  1
  C  C11  1  0.96901100  0.29404800  0.86768500  1
  C  C12  1  0.29404800  0.96901100  0.36768500  1
  C  C13  1  0.32503600  0.03098900  0.86768500  1
  C  C14  1  0.70595200  0.67496400  0.86768500  1
  C  C15  1  0.03098900  0.70595200  0.13231500  1
  C  C16  1  0.96901100  0.67496400  0.63231500  1
  C  C17  1  0.29404800  0.32503600  0.13231500  1
  C  C18  1  0.32503600  0.29404800  0.63231500  1
  C  C19  1  0.67496400  0.70595200  0.36768500  1
