# generated using pymatgen
data_CuNiC3
_symmetry_space_group_name_H-M   'P 1'
_cell_length_a   4.39913600
_cell_length_b   7.81253700
_cell_length_c   12.44219700
_cell_angle_alpha   90.00000000
_cell_angle_beta   90.00000000
_cell_angle_gamma   90.00000000
_symmetry_Int_Tables_number   1
_chemical_formula_structural   CuNiC3
_chemical_formula_sum   'Cu4 Ni4 C12'
_cell_volume   427.61856224
_cell_formula_units_Z   4
loop_
 _symmetry_equiv_pos_site_id
 _symmetry_equiv_pos_as_xyz
  1  'x, y, z'
loop_
 _atom_site_type_symbol
 _atom_site_label
 _atom_site_symmetry_multiplicity
 _atom_site_fract_x
 _atom_site_fract_y
 _atom_site_fract_z
 _atom_site_occupancy
  C  C0  1  0.25000000  0.64001000  0.59430100  1
  C  C1  1  0.75000000  0.35999000  0.40569900  1
  C  C2  1  0.75000000  0.85999000  0.09430100  1
  C  C3  1  0.25000000  0.14001000  0.90569900  1
  Ni  Ni4  1  0.75000000  0.56906900  0.89164600  1
  Ni  Ni5  1  0.75000000  0.06906900  0.60835400  1
  Ni  Ni6  1  0.25000000  0.93093100  0.39164600  1
  Ni  Ni7  1  0.25000000  0.43093100  0.10835400  1
  C  C8  1  0.75000000  0.91948300  0.69818700  1
  C  C9  1  0.25000000  0.08051700  0.30181300  1
  C  C10  1  0.25000000  0.58051700  0.19818700  1
  C  C11  1  0.75000000  0.41948300  0.80181300  1
  Cu  Cu12  1  0.75000000  0.18257700  0.54497900  1
  Cu  Cu13  1  0.25000000  0.81742300  0.45502100  1
  Cu  Cu14  1  0.25000000  0.31742300  0.04497900  1
  Cu  Cu15  1  0.75000000  0.68257700  0.95502100  1
  C  C16  1  0.25000000  0.92169100  0.02722500  1
  C  C17  1  0.75000000  0.57830900  0.52722500  1
  C  C18  1  0.25000000  0.42169100  0.47277500  1
  C  C19  1  0.75000000  0.07830900  0.97277500  1
