# generated using pymatgen
data_Cu5(Ni3C2)3
_symmetry_space_group_name_H-M   'P 1'
_cell_length_a   12.71593100
_cell_length_b   13.42696400
_cell_length_c   17.65692895
_cell_angle_alpha   60.22859850
_cell_angle_beta   90.00000000
_cell_angle_gamma   90.00000000
_symmetry_Int_Tables_number   1
_chemical_formula_structural   Cu5(Ni3C2)3
_chemical_formula_sum   'Cu20 Ni36 C24'
_cell_volume   2616.78226792
_cell_formula_units_Z   4
loop_
 _symmetry_equiv_pos_site_id
 _symmetry_equiv_pos_as_xyz
  1  'x, y, z'
loop_
 _atom_site_type_symbol
 _atom_site_label
 _atom_site_symmetry_multiplicity
 _atom_site_fract_x
 _atom_site_fract_y
 _atom_site_fract_z
 _atom_site_occupancy
  Ni  Ni0  1  0.89541500  0.75836000  0.26197500  1
  Ni  Ni1  1  0.18013900  0.64931000  0.27471800  1
  Ni  Ni2  1  0.47515000  0.59771100  0.42999300  1
  Ni  Ni3  1  0.09803000  0.12369000  0.28874900  1
  Ni  Ni4  1  0.52485000  0.40228900  0.57000700  1
  Ni  Ni5  1  0.44440400  0.55737600  0.19751100  1
  Ni  Ni6  1  0.72646900  0.78475500  0.53840900  1
  Ni  Ni7  1  0.68416700  0.10240200  0.68689400  1
  Ni  Ni8  1  0.40197000  0.12369000  0.78874900  1
  Ni  Ni9  1  0.10458500  0.24164000  0.73802500  1
  Ni  Ni10  1  0.17228200  0.87970400  0.54996600  1
  Ni  Ni11  1  0.90197000  0.87631000  0.71125100  1
  Ni  Ni12  1  0.82771800  0.12029600  0.45003400  1
  Ni  Ni13  1  0.02485000  0.59771100  0.92999300  1
  Ni  Ni14  1  0.77353100  0.78475500  0.03840900  1
  Ni  Ni15  1  0.31583300  0.89759800  0.31310600  1
  Ni  Ni16  1  0.18416700  0.89759800  0.81310600  1
  Ni  Ni17  1  0.67228200  0.12029600  0.95003400  1
  Ni  Ni18  1  0.59803000  0.87631000  0.21125100  1
  Ni  Ni19  1  0.60458500  0.75836000  0.76197500  1
  Ni  Ni20  1  0.05559600  0.55737600  0.69751100  1
  Ni  Ni21  1  0.32771800  0.87970400  0.04996600  1
  Ni  Ni22  1  0.97515000  0.40228900  0.07000700  1
  Ni  Ni23  1  0.50000000  0.00000000  0.50000000  1
  Ni  Ni24  1  0.68013900  0.35069000  0.22528200  1
  Ni  Ni25  1  0.27353100  0.21524500  0.46159100  1
  Ni  Ni26  1  0.55559600  0.44262400  0.80248900  1
  Ni  Ni27  1  0.39541500  0.24164000  0.23802500  1
  Ni  Ni28  1  0.81583300  0.10240200  0.18689400  1
  Ni  Ni29  1  0.22646900  0.21524500  0.96159100  1
  Ni  Ni30  1  0.81986100  0.35069000  0.72528200  1
  Ni  Ni31  1  0.31986100  0.64931000  0.77471800  1
  Ni  Ni32  1  0.00000000  0.00000000  0.00000000  1
  Ni  Ni33  1  0.94440400  0.44262400  0.30248900  1
  Ni  Ni34  1  0.50000000  0.50000000  0.00000000  1
  Ni  Ni35  1  0.00000000  0.50000000  0.50000000  1
  Cu  Cu36  1  0.00556700  0.58603700  0.34080700  1
  Cu  Cu37  1  0.99443300  0.41396300  0.65919300  1
  Cu  Cu38  1  0.14622300  0.71587000  0.70453000  1
  Cu  Cu39  1  0.85377700  0.28413000  0.29547000  1
  Cu  Cu40  1  0.30708000  0.03166800  0.46178600  1
  Cu  Cu41  1  0.64622300  0.28413000  0.79547000  1
  Cu  Cu42  1  0.49443300  0.58603700  0.84080700  1
  Cu  Cu43  1  0.19292000  0.03166800  0.96178600  1
  Cu  Cu44  1  0.28488600  0.07124800  0.32673000  1
  Cu  Cu45  1  0.06378800  0.77227500  0.78576300  1
  Cu  Cu46  1  0.50556700  0.41396300  0.15919300  1
  Cu  Cu47  1  0.21511400  0.07124800  0.82673000  1
  Cu  Cu48  1  0.93621200  0.22772500  0.21423700  1
  Cu  Cu49  1  0.69292000  0.96833200  0.53821400  1
  Cu  Cu50  1  0.35377700  0.71587000  0.20453000  1
  Cu  Cu51  1  0.80708000  0.96833200  0.03821400  1
  Cu  Cu52  1  0.71511400  0.92875200  0.67327000  1
  Cu  Cu53  1  0.43621200  0.77227500  0.28576300  1
  Cu  Cu54  1  0.78488600  0.92875200  0.17327000  1
  Cu  Cu55  1  0.56378800  0.22772500  0.71423700  1
  C  C56  1  0.81176000  0.61469500  0.72271900  1
  C  C57  1  0.50896200  0.29335000  0.40499500  1
  C  C58  1  0.18824000  0.38530500  0.27728100  1
  C  C59  1  0.75416300  0.65969600  0.45496700  1
  C  C60  1  0.00896200  0.70665000  0.09500500  1
  C  C61  1  0.31176000  0.38530500  0.77728100  1
  C  C62  1  0.68824000  0.61469500  0.22271900  1
  C  C63  1  0.02048400  0.09110100  0.56045800  1
  C  C64  1  0.25416300  0.34030400  0.04503300  1
  C  C65  1  0.88491800  0.04837400  0.80579000  1
  C  C66  1  0.28021300  0.68882100  0.97353200  1
  C  C67  1  0.47951600  0.09110100  0.06045800  1
  C  C68  1  0.21978700  0.68882100  0.47353200  1
  C  C69  1  0.38491800  0.95162600  0.69421000  1
  C  C70  1  0.11508200  0.95162600  0.19421000  1
  C  C71  1  0.74583700  0.65969600  0.95496700  1
  C  C72  1  0.61508200  0.04837400  0.30579000  1
  C  C73  1  0.24583700  0.34030400  0.54503300  1
  C  C74  1  0.97951600  0.90889900  0.43954200  1
  C  C75  1  0.78021300  0.31117900  0.52646800  1
  C  C76  1  0.99103800  0.29335000  0.90499500  1
  C  C77  1  0.52048400  0.90889900  0.93954200  1
  C  C78  1  0.49103800  0.70665000  0.59500500  1
  C  C79  1  0.71978700  0.31117900  0.02646800  1
