# generated using pymatgen
data_Cu7NiC16
_symmetry_space_group_name_H-M   'P 1'
_cell_length_a   15.17788800
_cell_length_b   7.47440400
_cell_length_c   9.91030274
_cell_angle_alpha   62.90536390
_cell_angle_beta   90.00000000
_cell_angle_gamma   90.00000000
_symmetry_Int_Tables_number   1
_chemical_formula_structural   Cu7NiC16
_chemical_formula_sum   'Cu28 Ni4 C64'
_cell_volume   1000.89719773
_cell_formula_units_Z   4
loop_
 _symmetry_equiv_pos_site_id
 _symmetry_equiv_pos_as_xyz
  1  'x, y, z'
loop_
 _atom_site_type_symbol
 _atom_site_label
 _atom_site_symmetry_multiplicity
 _atom_site_fract_x
 _atom_site_fract_y
 _atom_site_fract_z
 _atom_site_occupancy
  C  C0  1  0.17182900  0.99425900  0.90265900  1
  C  C1  1  0.32817100  0.99425900  0.40265900  1
  C  C2  1  0.82817100  0.00574100  0.09734100  1
  C  C3  1  0.67182900  0.00574100  0.59734100  1
  C  C4  1  0.42715000  0.42518400  0.27182300  1
  C  C5  1  0.17055100  0.77039100  0.30197400  1
  C  C6  1  0.57285000  0.57481600  0.72817700  1
  C  C7  1  0.34691500  0.10199800  0.04516600  1
  C  C8  1  0.67055100  0.22960900  0.19802600  1
  C  C9  1  0.92715000  0.57481600  0.22817700  1
  C  C10  1  0.15308500  0.10199800  0.54516600  1
  C  C11  1  0.82944900  0.22960900  0.69802600  1
  C  C12  1  0.65308500  0.89800200  0.95483400  1
  C  C13  1  0.84691500  0.89800200  0.45483400  1
  C  C14  1  0.07285000  0.42518400  0.77182300  1
  C  C15  1  0.32944900  0.77039100  0.80197400  1
  C  C16  1  0.42992900  0.18995800  0.98472300  1
  C  C17  1  0.53204700  0.62109800  0.83730800  1
  C  C18  1  0.19054800  0.53536000  0.04036100  1
  C  C19  1  0.34590200  0.51400300  0.20362100  1
  C  C20  1  0.46795300  0.37890200  0.16269200  1
  C  C21  1  0.18867100  0.32005800  0.21058200  1
  C  C22  1  0.63629100  0.10731600  0.88599200  1
  C  C23  1  0.00459800  0.84388600  0.95552300  1
  C  C24  1  0.11222800  0.90850300  0.31773300  1
  C  C25  1  0.90681300  0.55919300  0.86490000  1
  C  C26  1  0.50459800  0.15611400  0.54447700  1
  C  C27  1  0.86370900  0.10731600  0.38599200  1
  C  C28  1  0.99540200  0.15611400  0.04447700  1
  C  C29  1  0.61222800  0.09149700  0.18226700  1
  C  C30  1  0.81132900  0.67994200  0.78941800  1
  C  C31  1  0.37250100  0.58217400  0.88320000  1
  C  C32  1  0.80945200  0.46464000  0.95963900  1
  C  C33  1  0.38777200  0.90850300  0.81773300  1
  C  C34  1  0.88777200  0.09149700  0.68226700  1
  C  C35  1  0.15409800  0.51400300  0.70362100  1
  C  C36  1  0.87250100  0.41782600  0.61680000  1
  C  C37  1  0.57007100  0.81004200  0.01527700  1
  C  C38  1  0.85280400  0.67891500  0.94863200  1
  C  C39  1  0.45400600  0.76001200  0.34785000  1
  C  C40  1  0.65409800  0.48599700  0.79637900  1
  C  C41  1  0.35280400  0.32108500  0.55136800  1
  C  C42  1  0.07007100  0.18995800  0.48472300  1
  C  C43  1  0.13629100  0.89268400  0.61400800  1
  C  C44  1  0.54599400  0.23998800  0.65215000  1
  C  C45  1  0.95400600  0.23998800  0.15215000  1
  C  C46  1  0.84590200  0.48599700  0.29637900  1
  C  C47  1  0.69054800  0.46464000  0.45963900  1
  C  C48  1  0.49540200  0.84388600  0.45552300  1
  C  C49  1  0.96795300  0.62109800  0.33730800  1
  C  C50  1  0.31132900  0.32005800  0.71058200  1
  C  C51  1  0.03204700  0.37890200  0.66269200  1
  C  C52  1  0.68867100  0.67994200  0.28941800  1
  C  C53  1  0.40681300  0.44080700  0.63510000  1
  C  C54  1  0.30945200  0.53536000  0.54036100  1
  C  C55  1  0.59318700  0.55919300  0.36490000  1
  C  C56  1  0.12749900  0.58217400  0.38320000  1
  C  C57  1  0.92992900  0.81004200  0.51527700  1
  C  C58  1  0.09318700  0.44080700  0.13510000  1
  C  C59  1  0.04599400  0.76001200  0.84785000  1
  C  C60  1  0.62749900  0.41782600  0.11680000  1
  C  C61  1  0.14719600  0.32108500  0.05136800  1
  C  C62  1  0.64719600  0.67891500  0.44863200  1
  C  C63  1  0.36370900  0.89268400  0.11400800  1
  Ni  Ni64  1  0.15552800  0.40562400  0.10923200  1
  Ni  Ni65  1  0.84447200  0.59437600  0.89076800  1
  Ni  Ni66  1  0.34447200  0.40562400  0.60923200  1
  Ni  Ni67  1  0.65552800  0.59437600  0.39076800  1
  Cu  Cu68  1  0.40865300  0.22790800  0.41587600  1
  Cu  Cu69  1  0.21479700  0.15635900  0.40979900  1
  Cu  Cu70  1  0.90865300  0.77209200  0.08412400  1
  Cu  Cu71  1  0.51746600  0.42045600  0.70631700  1
  Cu  Cu72  1  0.98253400  0.42045600  0.20631700  1
  Cu  Cu73  1  0.05154200  0.86838500  0.87973800  1
  Cu  Cu74  1  0.59134700  0.77209200  0.58412400  1
  Cu  Cu75  1  0.82499700  0.18451700  0.86311100  1
  Cu  Cu76  1  0.28520300  0.15635900  0.90979900  1
  Cu  Cu77  1  0.71479700  0.84364100  0.09020100  1
  Cu  Cu78  1  0.32499700  0.81548300  0.63688900  1
  Cu  Cu79  1  0.74415500  0.24152100  0.61224200  1
  Cu  Cu80  1  0.48253400  0.57954400  0.29368300  1
  Cu  Cu81  1  0.94845800  0.13161500  0.12026200  1
  Cu  Cu82  1  0.31947700  0.16507800  0.16524000  1
  Cu  Cu83  1  0.18052300  0.16507800  0.66524000  1
  Cu  Cu84  1  0.55154200  0.13161500  0.62026200  1
  Cu  Cu85  1  0.44845800  0.86838500  0.37973800  1
  Cu  Cu86  1  0.01746600  0.57954400  0.79368300  1
  Cu  Cu87  1  0.68052300  0.83492200  0.83476000  1
  Cu  Cu88  1  0.24415500  0.75847900  0.88775800  1
  Cu  Cu89  1  0.75584500  0.24152100  0.11224200  1
  Cu  Cu90  1  0.81947700  0.83492200  0.33476000  1
  Cu  Cu91  1  0.17500300  0.81548300  0.13688900  1
  Cu  Cu92  1  0.25584500  0.75847900  0.38775800  1
  Cu  Cu93  1  0.09134700  0.22790800  0.91587600  1
  Cu  Cu94  1  0.67500300  0.18451700  0.36311100  1
  Cu  Cu95  1  0.78520300  0.84364100  0.59020100  1
