# generated using pymatgen
data_Cu13(NiC6)2
_symmetry_space_group_name_H-M   'P 1'
_cell_length_a   9.52925036
_cell_length_b   9.52925036
_cell_length_c   11.75329300
_cell_angle_alpha   90.00000000
_cell_angle_beta   90.00000000
_cell_angle_gamma   120.00000253
_symmetry_Int_Tables_number   1
_chemical_formula_structural   Cu13(NiC6)2
_chemical_formula_sum   'Cu26 Ni4 C24'
_cell_volume   924.28873157
_cell_formula_units_Z   2
loop_
 _symmetry_equiv_pos_site_id
 _symmetry_equiv_pos_as_xyz
  1  'x, y, z'
loop_
 _atom_site_type_symbol
 _atom_site_label
 _atom_site_symmetry_multiplicity
 _atom_site_fract_x
 _atom_site_fract_y
 _atom_site_fract_z
 _atom_site_occupancy
  C  C0  1  0.54976400  0.89774500  0.25000000  1
  C  C1  1  0.45023600  0.34798100  0.75000000  1
  C  C2  1  0.65201900  0.10225500  0.75000000  1
  C  C3  1  0.77999800  0.00000000  0.00000000  1
  C  C4  1  0.89774500  0.54976400  0.75000000  1
  C  C5  1  0.00000000  0.77999800  0.00000000  1
  C  C6  1  0.37470100  0.10748700  0.25000000  1
  C  C7  1  0.34798100  0.45023600  0.25000000  1
  C  C8  1  0.77999800  0.00000000  0.50000000  1
  C  C9  1  0.73278600  0.62529900  0.25000000  1
  C  C10  1  0.89251300  0.26721400  0.25000000  1
  C  C11  1  0.10225500  0.65201900  0.25000000  1
  C  C12  1  0.62529900  0.73278600  0.75000000  1
  C  C13  1  0.00000000  0.77999800  0.50000000  1
  C  C14  1  0.26721400  0.89251300  0.75000000  1
  C  C15  1  0.10748700  0.37470100  0.75000000  1
  C  C16  1  0.22000200  0.22000200  0.50000000  1
  C  C17  1  0.22000200  0.22000200  0.00000000  1
  C  C18  1  0.54030900  0.54030900  0.00000000  1
  C  C19  1  0.45969100  0.00000000  0.00000000  1
  C  C20  1  0.54030900  0.54030900  0.50000000  1
  C  C21  1  0.00000000  0.45969100  0.50000000  1
  C  C22  1  0.45969100  0.00000000  0.50000000  1
  C  C23  1  0.00000000  0.45969100  0.00000000  1
  Ni  Ni24  1  0.33333300  0.66666700  0.99040700  1
  Ni  Ni25  1  0.66666700  0.33333300  0.00959300  1
  Ni  Ni26  1  0.66666700  0.33333300  0.49040700  1
  Ni  Ni27  1  0.33333300  0.66666700  0.50959300  1
  Cu  Cu28  1  0.30168300  0.81571700  0.08380800  1
  Cu  Cu29  1  0.48596600  0.18428300  0.91619200  1
  Cu  Cu30  1  0.18428300  0.48596600  0.41619200  1
  Cu  Cu31  1  0.15181500  0.63213200  0.60069200  1
  Cu  Cu32  1  0.48031700  0.84818500  0.89930800  1
  Cu  Cu33  1  0.51968300  0.36786800  0.10069200  1
  Cu  Cu34  1  0.81571700  0.30168300  0.58380800  1
  Cu  Cu35  1  0.36786800  0.51968300  0.60069200  1
  Cu  Cu36  1  0.69831700  0.51403400  0.91619200  1
  Cu  Cu37  1  0.30168300  0.81571700  0.41619200  1
  Cu  Cu38  1  0.18428300  0.48596600  0.08380800  1
  Cu  Cu39  1  0.51968300  0.36786800  0.39930800  1
  Cu  Cu40  1  0.84818500  0.48031700  0.10069200  1
  Cu  Cu41  1  0.48596600  0.18428300  0.58380800  1
  Cu  Cu42  1  0.15181500  0.63213200  0.89930800  1
  Cu  Cu43  1  0.63213200  0.15181500  0.10069200  1
  Cu  Cu44  1  0.36786800  0.51968300  0.89930800  1
  Cu  Cu45  1  0.51403400  0.69831700  0.41619200  1
  Cu  Cu46  1  0.00000000  0.00000000  0.25000000  1
  Cu  Cu47  1  0.48031700  0.84818500  0.60069200  1
  Cu  Cu48  1  0.69831700  0.51403400  0.58380800  1
  Cu  Cu49  1  0.81571700  0.30168300  0.91619200  1
  Cu  Cu50  1  0.51403400  0.69831700  0.08380800  1
  Cu  Cu51  1  0.63213200  0.15181500  0.39930800  1
  Cu  Cu52  1  0.00000000  0.00000000  0.75000000  1
  Cu  Cu53  1  0.84818500  0.48031700  0.39930800  1
