# generated using pymatgen
data_CuNiC2
_symmetry_space_group_name_H-M   'P 1'
_cell_length_a   7.85186800
_cell_length_b   8.36954200
_cell_length_c   10.90697800
_cell_angle_alpha   90.00000000
_cell_angle_beta   90.00000000
_cell_angle_gamma   90.00000000
_symmetry_Int_Tables_number   1
_chemical_formula_structural   CuNiC2
_chemical_formula_sum   'Cu20 Ni20 C40'
_cell_volume   716.76884516
_cell_formula_units_Z   20
loop_
 _symmetry_equiv_pos_site_id
 _symmetry_equiv_pos_as_xyz
  1  'x, y, z'
loop_
 _atom_site_type_symbol
 _atom_site_label
 _atom_site_symmetry_multiplicity
 _atom_site_fract_x
 _atom_site_fract_y
 _atom_site_fract_z
 _atom_site_occupancy
  C  C0  1  0.06541800  0.48552500  0.24043800  1
  C  C1  1  0.43458200  0.51447500  0.24043800  1
  C  C2  1  0.43405000  0.80605900  0.89201100  1
  C  C3  1  0.06595000  0.19394100  0.89201100  1
  C  C4  1  0.72428000  0.14924800  0.61137400  1
  C  C5  1  0.22428000  0.35075200  0.88862600  1
  C  C6  1  0.04247600  0.36085600  0.10504100  1
  C  C7  1  0.93458200  0.51447500  0.75956200  1
  C  C8  1  0.56595000  0.30605900  0.60798900  1
  C  C9  1  0.95752400  0.86085600  0.39495900  1
  C  C10  1  0.14429200  0.45748300  0.55197600  1
  C  C11  1  0.27572000  0.85075200  0.38862600  1
  C  C12  1  0.27572000  0.64924800  0.88862600  1
  C  C13  1  0.95752400  0.63914400  0.89495900  1
  C  C14  1  0.93405000  0.69394100  0.60798900  1
  C  C15  1  0.56595000  0.19394100  0.10798900  1
  C  C16  1  0.45752400  0.63914400  0.10504100  1
  C  C17  1  0.35570800  0.95748300  0.05197600  1
  C  C18  1  0.56541800  0.01447500  0.25956200  1
  C  C19  1  0.43405000  0.69394100  0.39201100  1
  C  C20  1  0.22428000  0.14924800  0.38862600  1
  C  C21  1  0.45752400  0.86085600  0.60504100  1
  C  C22  1  0.43458200  0.98552500  0.74043800  1
  C  C23  1  0.93458200  0.98552500  0.25956200  1
  C  C24  1  0.54247600  0.36085600  0.89495900  1
  C  C25  1  0.14429200  0.04251700  0.05197600  1
  C  C26  1  0.77572000  0.85075200  0.61137400  1
  C  C27  1  0.54247600  0.13914400  0.39495900  1
  C  C28  1  0.06595000  0.30605900  0.39201100  1
  C  C29  1  0.93405000  0.80605900  0.10798900  1
  C  C30  1  0.56541800  0.48552500  0.75956200  1
  C  C31  1  0.72428000  0.35075200  0.11137400  1
  C  C32  1  0.85570800  0.95748300  0.94802400  1
  C  C33  1  0.64429200  0.45748300  0.44802400  1
  C  C34  1  0.85570800  0.54251700  0.44802400  1
  C  C35  1  0.77572000  0.64924800  0.11137400  1
  C  C36  1  0.04247600  0.13914400  0.60504100  1
  C  C37  1  0.35570800  0.54251700  0.55197600  1
  C  C38  1  0.06541800  0.01447500  0.74043800  1
  C  C39  1  0.64429200  0.04251700  0.94802400  1
  Ni  Ni40  1  0.25000000  0.00000000  0.99452400  1
  Ni  Ni41  1  0.19578300  0.27321900  0.36275100  1
  Ni  Ni42  1  0.86844400  0.90952900  0.32697800  1
  Ni  Ni43  1  0.75000000  0.00000000  0.00547600  1
  Ni  Ni44  1  0.30421700  0.77321900  0.86275100  1
  Ni  Ni45  1  0.30421700  0.72678100  0.36275100  1
  Ni  Ni46  1  0.19578300  0.22678100  0.86275100  1
  Ni  Ni47  1  0.63155600  0.40952900  0.82697800  1
  Ni  Ni48  1  0.69578300  0.22678100  0.13724900  1
  Ni  Ni49  1  0.80421700  0.72678100  0.63724900  1
  Ni  Ni50  1  0.13155600  0.40952900  0.17302200  1
  Ni  Ni51  1  0.13155600  0.09047100  0.67302200  1
  Ni  Ni52  1  0.69578300  0.27321900  0.63724900  1
  Ni  Ni53  1  0.36844400  0.90952900  0.67302200  1
  Ni  Ni54  1  0.25000000  0.50000000  0.49452400  1
  Ni  Ni55  1  0.36844400  0.59047100  0.17302200  1
  Ni  Ni56  1  0.75000000  0.50000000  0.50547600  1
  Ni  Ni57  1  0.63155600  0.09047100  0.32697800  1
  Ni  Ni58  1  0.86844400  0.59047100  0.82697800  1
  Ni  Ni59  1  0.80421700  0.77321900  0.13724900  1
  Cu  Cu60  1  0.25000000  0.50000000  0.10381400  1
  Cu  Cu61  1  0.68171300  0.62698200  0.57682800  1
  Cu  Cu62  1  0.81828700  0.12698200  0.07682800  1
  Cu  Cu63  1  0.78808100  0.77827200  0.26615900  1
  Cu  Cu64  1  0.31828700  0.12698200  0.92317200  1
  Cu  Cu65  1  0.78808100  0.72172800  0.76615900  1
  Cu  Cu66  1  0.25000000  0.00000000  0.60381400  1
  Cu  Cu67  1  0.75000000  0.00000000  0.39618600  1
  Cu  Cu68  1  0.31828700  0.37301800  0.42317200  1
  Cu  Cu69  1  0.18171300  0.62698200  0.42317200  1
  Cu  Cu70  1  0.75000000  0.50000000  0.89618600  1
  Cu  Cu71  1  0.18171300  0.87301800  0.92317200  1
  Cu  Cu72  1  0.28808100  0.72172800  0.23384100  1
  Cu  Cu73  1  0.71191900  0.27827200  0.76615900  1
  Cu  Cu74  1  0.28808100  0.77827200  0.73384100  1
  Cu  Cu75  1  0.21191900  0.27827200  0.23384100  1
  Cu  Cu76  1  0.81828700  0.37301800  0.57682800  1
  Cu  Cu77  1  0.68171300  0.87301800  0.07682800  1
  Cu  Cu78  1  0.71191900  0.22172800  0.26615900  1
  Cu  Cu79  1  0.21191900  0.22172800  0.73384100  1
