# generated using pymatgen
data_CuNiC8
_symmetry_space_group_name_H-M   'P 1'
_cell_length_a   6.40655800
_cell_length_b   9.70130700
_cell_length_c   10.01845600
_cell_angle_alpha   90.00000000
_cell_angle_beta   90.00000000
_cell_angle_gamma   90.00000000
_symmetry_Int_Tables_number   1
_chemical_formula_structural   CuNiC8
_chemical_formula_sum   'Cu4 Ni4 C32'
_cell_volume   622.66693677
_cell_formula_units_Z   4
loop_
 _symmetry_equiv_pos_site_id
 _symmetry_equiv_pos_as_xyz
  1  'x, y, z'
loop_
 _atom_site_type_symbol
 _atom_site_label
 _atom_site_symmetry_multiplicity
 _atom_site_fract_x
 _atom_site_fract_y
 _atom_site_fract_z
 _atom_site_occupancy
  C  C0  1  0.88527200  0.84382400  0.56055600  1
  C  C1  1  0.26913600  0.75000000  0.07591700  1
  C  C2  1  0.11472800  0.15617600  0.43944400  1
  C  C3  1  0.88527200  0.65617600  0.56055600  1
  C  C4  1  0.23086400  0.25000000  0.57591700  1
  C  C5  1  0.73086400  0.25000000  0.92408300  1
  C  C6  1  0.61472800  0.34382400  0.06055600  1
  C  C7  1  0.61472800  0.15617600  0.06055600  1
  C  C8  1  0.11472800  0.34382400  0.43944400  1
  C  C9  1  0.76913600  0.75000000  0.42408300  1
  C  C10  1  0.38527200  0.65617600  0.93944400  1
  C  C11  1  0.38527200  0.84382400  0.93944400  1
  Ni  Ni12  1  0.60693100  0.25000000  0.99981200  1
  Ni  Ni13  1  0.39306900  0.75000000  0.00018800  1
  Ni  Ni14  1  0.10693100  0.25000000  0.50018800  1
  Ni  Ni15  1  0.89306900  0.75000000  0.49981200  1
  Cu  Cu16  1  0.63045900  0.75000000  0.09181000  1
  Cu  Cu17  1  0.86954100  0.25000000  0.59181000  1
  Cu  Cu18  1  0.13045900  0.75000000  0.40819000  1
  Cu  Cu19  1  0.36954100  0.25000000  0.90819000  1
  C  C20  1  0.84149100  0.75000000  0.97501400  1
  C  C21  1  0.65850900  0.25000000  0.47501400  1
  C  C22  1  0.15850900  0.25000000  0.02498600  1
  C  C23  1  0.34149100  0.75000000  0.52498600  1
  C  C24  1  0.66721900  0.39755500  0.37452000  1
  C  C25  1  0.16721900  0.10244500  0.12548000  1
  C  C26  1  0.16721900  0.39755500  0.12548000  1
  C  C27  1  0.33278100  0.60244500  0.62548000  1
  C  C28  1  0.83278100  0.89755500  0.87452000  1
  C  C29  1  0.66721900  0.10244500  0.37452000  1
  C  C30  1  0.83278100  0.60244500  0.87452000  1
  C  C31  1  0.33278100  0.89755500  0.62548000  1
  C  C32  1  0.84329300  0.37895800  0.66126600  1
  C  C33  1  0.65670700  0.87895800  0.16126600  1
  C  C34  1  0.15670700  0.87895800  0.33873400  1
  C  C35  1  0.34329300  0.12104200  0.83873400  1
  C  C36  1  0.84329300  0.12104200  0.66126600  1
  C  C37  1  0.34329300  0.37895800  0.83873400  1
  C  C38  1  0.65670700  0.62104200  0.16126600  1
  C  C39  1  0.15670700  0.62104200  0.33873400  1
