# generated using pymatgen
data_Cu4NiC14
_symmetry_space_group_name_H-M   'P 1'
_cell_length_a   8.25864989
_cell_length_b   8.25864989
_cell_length_c   7.91001819
_cell_angle_alpha   87.02035718
_cell_angle_beta   87.02035718
_cell_angle_gamma   109.66820705
_symmetry_Int_Tables_number   1
_chemical_formula_structural   Cu4NiC14
_chemical_formula_sum   'Cu8 Ni2 C28'
_cell_volume   505.95568576
_cell_formula_units_Z   2
loop_
 _symmetry_equiv_pos_site_id
 _symmetry_equiv_pos_as_xyz
  1  'x, y, z'
loop_
 _atom_site_type_symbol
 _atom_site_label
 _atom_site_symmetry_multiplicity
 _atom_site_fract_x
 _atom_site_fract_y
 _atom_site_fract_z
 _atom_site_occupancy
  C  C0  1  0.18353700  0.47053000  0.69403200  1
  C  C1  1  0.81646300  0.52947000  0.30596800  1
  C  C2  1  0.47053000  0.18353700  0.19403200  1
  C  C3  1  0.52947000  0.81646300  0.80596800  1
  Ni  Ni4  1  0.13740000  0.86260000  0.25000000  1
  Ni  Ni5  1  0.86260000  0.13740000  0.75000000  1
  Cu  Cu6  1  0.21223900  0.06412700  0.82349800  1
  Cu  Cu7  1  0.93587300  0.78776100  0.67650200  1
  Cu  Cu8  1  0.06412700  0.21223900  0.32349800  1
  Cu  Cu9  1  0.23973200  0.55113700  0.12472800  1
  Cu  Cu10  1  0.55113700  0.23973200  0.62472800  1
  Cu  Cu11  1  0.44886300  0.76026800  0.37527200  1
  Cu  Cu12  1  0.78776100  0.93587300  0.17650200  1
  Cu  Cu13  1  0.76026800  0.44886300  0.87527200  1
  C  C14  1  0.91459100  0.83985300  0.16015800  1
  C  C15  1  0.12150700  0.87849300  0.75000000  1
  C  C16  1  0.30612900  0.04034800  0.97322400  1
  C  C17  1  0.39586600  0.60413400  0.25000000  1
  C  C18  1  0.89655200  0.37433500  0.81503300  1
  C  C19  1  0.95965200  0.69387100  0.52677500  1
  C  C20  1  0.83985300  0.91459100  0.66015800  1
  C  C21  1  0.16014700  0.08540900  0.33984200  1
  C  C22  1  0.34570500  0.16503000  0.66345600  1
  C  C23  1  0.62566500  0.10344800  0.68496700  1
  C  C24  1  0.58636800  0.31118300  0.44464000  1
  C  C25  1  0.10344800  0.62566500  0.18496700  1
  C  C26  1  0.68881700  0.41363200  0.05536000  1
  C  C27  1  0.31118300  0.58636800  0.94464000  1
  C  C28  1  0.87849300  0.12150700  0.25000000  1
  C  C29  1  0.16503000  0.34570500  0.16345600  1
  C  C30  1  0.65429500  0.83497000  0.33654400  1
  C  C31  1  0.69387100  0.95965200  0.02677500  1
  C  C32  1  0.37433500  0.89655200  0.31503300  1
  C  C33  1  0.83497000  0.65429500  0.83654400  1
  C  C34  1  0.41363200  0.68881700  0.55536000  1
  C  C35  1  0.08540900  0.16014700  0.83984200  1
  C  C36  1  0.60413400  0.39586600  0.75000000  1
  C  C37  1  0.04034800  0.30612900  0.47322500  1
