# generated using pymatgen
data_Cu2NiC5
_symmetry_space_group_name_H-M   'P 1'
_cell_length_a   10.44493800
_cell_length_b   7.81274000
_cell_length_c   7.90368696
_cell_angle_alpha   80.54884943
_cell_angle_beta   90.00000000
_cell_angle_gamma   90.00000000
_symmetry_Int_Tables_number   1
_chemical_formula_structural   Cu2NiC5
_chemical_formula_sum   'Cu8 Ni4 C20'
_cell_volume   636.21435260
_cell_formula_units_Z   4
loop_
 _symmetry_equiv_pos_site_id
 _symmetry_equiv_pos_as_xyz
  1  'x, y, z'
loop_
 _atom_site_type_symbol
 _atom_site_label
 _atom_site_symmetry_multiplicity
 _atom_site_fract_x
 _atom_site_fract_y
 _atom_site_fract_z
 _atom_site_occupancy
  C  C0  1  0.01072300  0.10617200  0.22689500  1
  C  C1  1  0.27856700  0.12534400  0.91662200  1
  C  C2  1  0.51072300  0.39382800  0.77310500  1
  C  C3  1  0.77856700  0.37465600  0.08337800  1
  C  C4  1  0.98927700  0.89382800  0.77310500  1
  C  C5  1  0.72143300  0.87465600  0.08337800  1
  C  C6  1  0.22143300  0.62534400  0.91662200  1
  C  C7  1  0.48927700  0.60617200  0.22689500  1
  Ni  Ni8  1  0.96746200  0.68741300  0.18353600  1
  Ni  Ni9  1  0.53253800  0.18741300  0.18353600  1
  Ni  Ni10  1  0.46746200  0.81258700  0.81646400  1
  Ni  Ni11  1  0.03253800  0.31258700  0.81646400  1
  Cu  Cu12  1  0.28116500  0.53794100  0.21954100  1
  Cu  Cu13  1  0.21883500  0.03794100  0.21954100  1
  Cu  Cu14  1  0.40302800  0.24183400  0.60452500  1
  Cu  Cu15  1  0.90302800  0.25816600  0.39547500  1
  Cu  Cu16  1  0.71883500  0.46205900  0.78045900  1
  Cu  Cu17  1  0.59697200  0.75816600  0.39547500  1
  Cu  Cu18  1  0.78116500  0.96205900  0.78045900  1
  Cu  Cu19  1  0.09697200  0.74183400  0.60452500  1
  C  C20  1  0.04689700  0.72142500  0.98544200  1
  C  C21  1  0.68202100  0.12139600  0.12246200  1
  C  C22  1  0.09117500  0.10555800  0.80789100  1
  C  C23  1  0.95310300  0.27857500  0.01455800  1
  C  C24  1  0.40882500  0.60555800  0.80789100  1
  C  C25  1  0.54689700  0.77857500  0.01455800  1
  C  C26  1  0.45310300  0.22142500  0.98544200  1
  C  C27  1  0.31797900  0.87860400  0.87753800  1
  C  C28  1  0.59117500  0.39444200  0.19210900  1
  C  C29  1  0.18202100  0.37860400  0.87753800  1
  C  C30  1  0.90882500  0.89444200  0.19210900  1
  C  C31  1  0.81797900  0.62139600  0.12246200  1
