# generated using pymatgen
data_Cu12Ni12C5
_symmetry_space_group_name_H-M   'P 1'
_cell_length_a   13.04970176
_cell_length_b   13.04970176
_cell_length_c   13.04970150
_cell_angle_alpha   58.32390517
_cell_angle_beta   58.32390517
_cell_angle_gamma   58.32390336
_symmetry_Int_Tables_number   1
_chemical_formula_structural   Cu12Ni12C5
_chemical_formula_sum   'Cu24 Ni24 C10'
_cell_volume   1511.09004756
_cell_formula_units_Z   2
loop_
 _symmetry_equiv_pos_site_id
 _symmetry_equiv_pos_as_xyz
  1  'x, y, z'
loop_
 _atom_site_type_symbol
 _atom_site_label
 _atom_site_symmetry_multiplicity
 _atom_site_fract_x
 _atom_site_fract_y
 _atom_site_fract_z
 _atom_site_occupancy
  C  C0  1  0.96067700  0.25000000  0.53932300  1
  C  C1  1  0.46067700  0.03932300  0.75000000  1
  C  C2  1  0.25000000  0.53932300  0.96067700  1
  C  C3  1  0.53932300  0.96067700  0.25000000  1
  C  C4  1  0.75000000  0.46067700  0.03932300  1
  C  C5  1  0.03932300  0.75000000  0.46067700  1
  C  C6  1  0.64585800  0.64585800  0.64585800  1
  C  C7  1  0.35414200  0.35414200  0.35414200  1
  C  C8  1  0.85414200  0.85414200  0.85414200  1
  C  C9  1  0.14585800  0.14585800  0.14585800  1
  Ni  Ni10  1  0.55156100  0.79427900  0.69463500  1
  Ni  Ni11  1  0.25146400  0.50329700  0.40141700  1
  Ni  Ni12  1  0.05156100  0.19463500  0.29427900  1
  Ni  Ni13  1  0.69463500  0.55156100  0.79427900  1
  Ni  Ni14  1  0.99670300  0.24853600  0.09858300  1
  Ni  Ni15  1  0.29427900  0.05156100  0.19463500  1
  Ni  Ni16  1  0.20572100  0.30536500  0.44843900  1
  Ni  Ni17  1  0.49670300  0.59858300  0.74853600  1
  Ni  Ni18  1  0.74853600  0.49670300  0.59858300  1
  Ni  Ni19  1  0.79427900  0.69463500  0.55156100  1
  Ni  Ni20  1  0.50329700  0.40141700  0.25146400  1
  Ni  Ni21  1  0.30536500  0.44843900  0.20572100  1
  Ni  Ni22  1  0.90141700  0.00329700  0.75146400  1
  Ni  Ni23  1  0.70572100  0.94843900  0.80536500  1
  Ni  Ni24  1  0.00329700  0.75146400  0.90141700  1
  Ni  Ni25  1  0.40141700  0.25146400  0.50329700  1
  Ni  Ni26  1  0.94843900  0.80536500  0.70572100  1
  Ni  Ni27  1  0.24853600  0.09858300  0.99670300  1
  Ni  Ni28  1  0.44843900  0.20572100  0.30536500  1
  Ni  Ni29  1  0.75146400  0.90141700  0.00329700  1
  Ni  Ni30  1  0.59858300  0.74853600  0.49670300  1
  Ni  Ni31  1  0.80536500  0.70572100  0.94843900  1
  Ni  Ni32  1  0.09858300  0.99670300  0.24853600  1
  Ni  Ni33  1  0.19463500  0.29427900  0.05156100  1
  Cu  Cu34  1  0.18384300  0.59568600  0.42917400  1
  Cu  Cu35  1  0.27531900  0.50096800  0.11535300  1
  Cu  Cu36  1  0.07082600  0.90431400  0.31615700  1
  Cu  Cu37  1  0.77531900  0.61535300  0.00096800  1
  Cu  Cu38  1  0.22468100  0.38464700  0.99903200  1
  Cu  Cu39  1  0.81615700  0.40431400  0.57082600  1
  Cu  Cu40  1  0.59568600  0.42917400  0.18384300  1
  Cu  Cu41  1  0.90431400  0.31615700  0.07082600  1
  Cu  Cu42  1  0.49903200  0.88464700  0.72468100  1
  Cu  Cu43  1  0.00096800  0.77531900  0.61535300  1
  Cu  Cu44  1  0.92917400  0.09568600  0.68384300  1
  Cu  Cu45  1  0.42917400  0.18384300  0.59568600  1
  Cu  Cu46  1  0.61535300  0.00096800  0.77531900  1
  Cu  Cu47  1  0.50096800  0.11535300  0.27531900  1
  Cu  Cu48  1  0.99903200  0.22468100  0.38464700  1
  Cu  Cu49  1  0.57082600  0.81615700  0.40431400  1
  Cu  Cu50  1  0.88464700  0.72468100  0.49903200  1
  Cu  Cu51  1  0.72468100  0.49903200  0.88464700  1
  Cu  Cu52  1  0.38464700  0.99903200  0.22468100  1
  Cu  Cu53  1  0.31615700  0.07082600  0.90431400  1
  Cu  Cu54  1  0.11535300  0.27531900  0.50096800  1
  Cu  Cu55  1  0.09568600  0.68384300  0.92917400  1
  Cu  Cu56  1  0.40431400  0.57082600  0.81615700  1
  Cu  Cu57  1  0.68384300  0.92917400  0.09568600  1
