# generated using pymatgen
data_CuNi2C7
_symmetry_space_group_name_H-M   'P 1'
_cell_length_a   7.62573300
_cell_length_b   7.62573300
_cell_length_c   18.81543700
_cell_angle_alpha   90.00000000
_cell_angle_beta   90.00000000
_cell_angle_gamma   90.00000000
_symmetry_Int_Tables_number   1
_chemical_formula_structural   CuNi2C7
_chemical_formula_sum   'Cu8 Ni16 C56'
_cell_volume   1094.15160060
_cell_formula_units_Z   8
loop_
 _symmetry_equiv_pos_site_id
 _symmetry_equiv_pos_as_xyz
  1  'x, y, z'
loop_
 _atom_site_type_symbol
 _atom_site_label
 _atom_site_symmetry_multiplicity
 _atom_site_fract_x
 _atom_site_fract_y
 _atom_site_fract_z
 _atom_site_occupancy
  C  C0  1  0.39867300  0.81914900  0.20096700  1
  C  C1  1  0.36101200  0.63567800  0.64047400  1
  C  C2  1  0.22745300  0.49815000  0.21638000  1
  C  C3  1  0.80561100  0.77009200  0.29268900  1
  C  C4  1  0.27009200  0.69438900  0.04268900  1
  C  C5  1  0.18085100  0.60132700  0.29903300  1
  C  C6  1  0.77254700  0.50185000  0.71638000  1
  C  C7  1  0.43458200  0.68182200  0.53361200  1
  C  C8  1  0.99815000  0.27254700  0.96638000  1
  C  C9  1  0.30561100  0.72990800  0.45731100  1
  C  C10  1  0.72990800  0.30561100  0.54268900  1
  C  C11  1  0.89867300  0.68085100  0.54903300  1
  C  C12  1  0.68085100  0.89867300  0.45096700  1
  C  C13  1  0.69438900  0.27009200  0.95731100  1
  C  C14  1  0.06541800  0.18182200  0.71638800  1
  C  C15  1  0.93458200  0.81817800  0.21638800  1
  C  C16  1  0.72745300  0.00185000  0.53362000  1
  C  C17  1  0.31914900  0.10132700  0.95096700  1
  C  C18  1  0.77009200  0.80561100  0.70731100  1
  C  C19  1  0.27254700  0.99815000  0.03362000  1
  C  C20  1  0.63567800  0.36101200  0.35952600  1
  C  C21  1  0.81914900  0.39867300  0.79903300  1
  C  C22  1  0.00185000  0.72745300  0.46638000  1
  C  C23  1  0.10132700  0.31914900  0.04903300  1
  C  C24  1  0.13567800  0.13898800  0.39047400  1
  C  C25  1  0.81817800  0.93458200  0.78361200  1
  C  C26  1  0.50185000  0.77254700  0.28362000  1
  C  C27  1  0.36432200  0.63898800  0.85952600  1
  C  C28  1  0.56541800  0.31817800  0.03361200  1
  C  C29  1  0.68182200  0.43458200  0.46638800  1
  C  C30  1  0.22990800  0.19438900  0.20731100  1
  C  C31  1  0.31817800  0.56541800  0.96638800  1
  C  C32  1  0.60132700  0.18085100  0.70096700  1
  C  C33  1  0.86432200  0.86101200  0.89047400  1
  C  C34  1  0.86101200  0.86432200  0.10952600  1
  C  C35  1  0.13898800  0.13567800  0.60952600  1
  C  C36  1  0.19438900  0.22990800  0.79268900  1
  C  C37  1  0.18182200  0.06541800  0.28361200  1
  C  C38  1  0.49815000  0.22745300  0.78362000  1
  C  C39  1  0.63898800  0.36432200  0.14047400  1
  C  C40  1  0.33096600  0.17886400  0.70171700  1
  C  C41  1  0.82113600  0.66903400  0.79828300  1
  C  C42  1  0.16903400  0.67886400  0.54828300  1
  C  C43  1  0.83096600  0.32113600  0.04828300  1
  C  C44  1  0.32113600  0.83096600  0.95171700  1
  C  C45  1  0.66903400  0.82113600  0.20171700  1
  C  C46  1  0.67886400  0.16903400  0.45171700  1
  C  C47  1  0.17886400  0.33096600  0.29828300  1
  C  C48  1  0.13109900  0.31936300  0.38885300  1
  C  C49  1  0.68063700  0.86890100  0.11114700  1
  C  C50  1  0.81936300  0.36890100  0.13885300  1
  C  C51  1  0.18063700  0.63109900  0.63885300  1
  C  C52  1  0.31936300  0.13109900  0.61114700  1
  C  C53  1  0.86890100  0.68063700  0.88885300  1
  C  C54  1  0.36890100  0.81936300  0.86114700  1
  C  C55  1  0.63109900  0.18063700  0.36114700  1
  Ni  Ni56  1  0.48888900  0.19535600  0.73078800  1
  Ni  Ni57  1  0.19732400  0.18612500  0.26020600  1
  Ni  Ni58  1  0.18612500  0.19732400  0.73979400  1
  Ni  Ni59  1  0.81387500  0.80267600  0.23979400  1
  Ni  Ni60  1  0.80464400  0.51111100  0.76921200  1
  Ni  Ni61  1  0.30267600  0.68612500  0.98979400  1
  Ni  Ni62  1  0.01111100  0.69535600  0.51921200  1
  Ni  Ni63  1  0.80267600  0.81387500  0.76020600  1
  Ni  Ni64  1  0.69732400  0.31387500  0.48979400  1
  Ni  Ni65  1  0.19535600  0.48888900  0.26921200  1
  Ni  Ni66  1  0.68612500  0.30267600  0.01020600  1
  Ni  Ni67  1  0.31387500  0.69732400  0.51020600  1
  Ni  Ni68  1  0.98888900  0.30464400  0.01921200  1
  Ni  Ni69  1  0.69535600  0.01111100  0.48078800  1
  Ni  Ni70  1  0.30464400  0.98888900  0.98078800  1
  Ni  Ni71  1  0.51111100  0.80464400  0.23078800  1
  Cu  Cu72  1  0.84626300  0.14487200  0.63740400  1
  Cu  Cu73  1  0.15373700  0.85512800  0.13740400  1
  Cu  Cu74  1  0.65373700  0.64487200  0.61259600  1
  Cu  Cu75  1  0.34626300  0.35512800  0.11259600  1
  Cu  Cu76  1  0.35512800  0.34626300  0.88740400  1
  Cu  Cu77  1  0.14487200  0.84626300  0.36259600  1
  Cu  Cu78  1  0.64487200  0.65373700  0.38740400  1
  Cu  Cu79  1  0.85512800  0.15373700  0.86259600  1
