# generated using pymatgen
data_Cu2Ni2C3
_symmetry_space_group_name_H-M   'P 1'
_cell_length_a   12.13352500
_cell_length_b   12.13352500
_cell_length_c   4.37539400
_cell_angle_alpha   90.00000000
_cell_angle_beta   90.00000000
_cell_angle_gamma   90.00000000
_symmetry_Int_Tables_number   1
_chemical_formula_structural   Cu2Ni2C3
_chemical_formula_sum   'Cu8 Ni8 C12'
_cell_volume   644.15613219
_cell_formula_units_Z   4
loop_
 _symmetry_equiv_pos_site_id
 _symmetry_equiv_pos_as_xyz
  1  'x, y, z'
loop_
 _atom_site_type_symbol
 _atom_site_label
 _atom_site_symmetry_multiplicity
 _atom_site_fract_x
 _atom_site_fract_y
 _atom_site_fract_z
 _atom_site_occupancy
  C  C0  1  0.63604800  0.13604800  0.00000000  1
  C  C1  1  0.36395200  0.86395200  0.00000000  1
  C  C2  1  0.13604800  0.36395200  0.00000000  1
  C  C3  1  0.86395200  0.63604800  0.00000000  1
  C  C4  1  0.67290000  0.42223400  0.50000000  1
  C  C5  1  0.32710000  0.57776600  0.50000000  1
  C  C6  1  0.17290000  0.07776600  0.50000000  1
  C  C7  1  0.57776600  0.67290000  0.50000000  1
  C  C8  1  0.82710000  0.92223400  0.50000000  1
  C  C9  1  0.07776600  0.82710000  0.50000000  1
  C  C10  1  0.92223400  0.17290000  0.50000000  1
  C  C11  1  0.42223400  0.32710000  0.50000000  1
  Ni  Ni12  1  0.50000000  0.00000000  0.50000000  1
  Ni  Ni13  1  0.32744600  0.17255400  0.00000000  1
  Ni  Ni14  1  0.67255400  0.82744600  0.00000000  1
  Ni  Ni15  1  0.82744600  0.32744600  0.00000000  1
  Ni  Ni16  1  0.00000000  0.00000000  0.00000000  1
  Ni  Ni17  1  0.50000000  0.50000000  0.00000000  1
  Ni  Ni18  1  0.17255400  0.67255400  0.00000000  1
  Ni  Ni19  1  0.00000000  0.50000000  0.50000000  1
  Cu  Cu20  1  0.58635000  0.27121800  0.50000000  1
  Cu  Cu21  1  0.41365000  0.72878200  0.50000000  1
  Cu  Cu22  1  0.27121800  0.41365000  0.50000000  1
  Cu  Cu23  1  0.91365000  0.77121800  0.50000000  1
  Cu  Cu24  1  0.22878200  0.91365000  0.50000000  1
  Cu  Cu25  1  0.08635000  0.22878200  0.50000000  1
  Cu  Cu26  1  0.77121800  0.08635000  0.50000000  1
  Cu  Cu27  1  0.72878200  0.58635000  0.50000000  1
