# generated using pymatgen
data_Cu4NiC
_symmetry_space_group_name_H-M   'P 1'
_cell_length_a   6.78547900
_cell_length_b   7.10598900
_cell_length_c   13.87544615
_cell_angle_alpha   75.17593531
_cell_angle_beta   90.00000000
_cell_angle_gamma   90.00000000
_symmetry_Int_Tables_number   1
_chemical_formula_structural   Cu4NiC
_chemical_formula_sum   'Cu32 Ni8 C8'
_cell_volume   646.77155440
_cell_formula_units_Z   8
loop_
 _symmetry_equiv_pos_site_id
 _symmetry_equiv_pos_as_xyz
  1  'x, y, z'
loop_
 _atom_site_type_symbol
 _atom_site_label
 _atom_site_symmetry_multiplicity
 _atom_site_fract_x
 _atom_site_fract_y
 _atom_site_fract_z
 _atom_site_occupancy
  C  C0  1  0.25384100  0.04345400  0.44590400  1
  C  C1  1  0.75384100  0.45654600  0.55409600  1
  C  C2  1  0.24615900  0.54345400  0.44590400  1
  C  C3  1  0.74615900  0.95654600  0.55409600  1
  C  C4  1  0.38891000  0.34556100  0.81600200  1
  C  C5  1  0.61109000  0.65443900  0.18399800  1
  C  C6  1  0.11109000  0.84556100  0.81600200  1
  C  C7  1  0.88891000  0.15443900  0.18399800  1
  Ni  Ni8  1  0.57180600  0.80656100  0.89520800  1
  Ni  Ni9  1  0.07180600  0.69343900  0.10479200  1
  Ni  Ni10  1  0.59600300  0.81649700  0.38264500  1
  Ni  Ni11  1  0.42819400  0.19343900  0.10479200  1
  Ni  Ni12  1  0.90399700  0.31649700  0.38264500  1
  Ni  Ni13  1  0.92819400  0.30656100  0.89520800  1
  Ni  Ni14  1  0.40399700  0.18350300  0.61735500  1
  Ni  Ni15  1  0.09600300  0.68350300  0.61735500  1
  Cu  Cu16  1  0.24592500  0.14476900  0.69734800  1
  Cu  Cu17  1  0.11202000  0.76160700  0.99787100  1
  Cu  Cu18  1  0.88798000  0.23839300  0.00212900  1
  Cu  Cu19  1  0.05330500  0.48669800  0.87239200  1
  Cu  Cu20  1  0.75641700  0.84197800  0.83766600  1
  Cu  Cu21  1  0.44522000  0.66152000  0.86121100  1
  Cu  Cu22  1  0.74592500  0.35523100  0.30265200  1
  Cu  Cu23  1  0.18612200  0.76226500  0.51795100  1
  Cu  Cu24  1  0.55330500  0.01330200  0.12760800  1
  Cu  Cu25  1  0.98794300  0.50400200  0.62134400  1
  Cu  Cu26  1  0.81387800  0.23773500  0.48204900  1
  Cu  Cu27  1  0.94669500  0.51330200  0.12760800  1
  Cu  Cu28  1  0.46824300  0.66396500  0.35523300  1
  Cu  Cu29  1  0.94522000  0.83848000  0.13878900  1
  Cu  Cu30  1  0.68612200  0.73773500  0.48204900  1
  Cu  Cu31  1  0.38798000  0.26160700  0.99787100  1
  Cu  Cu32  1  0.01205700  0.49599800  0.37865600  1
  Cu  Cu33  1  0.25407500  0.64476900  0.69734800  1
  Cu  Cu34  1  0.44669500  0.98669800  0.87239200  1
  Cu  Cu35  1  0.48794300  0.99599800  0.37865600  1
  Cu  Cu36  1  0.25641700  0.65802200  0.16233400  1
  Cu  Cu37  1  0.03175700  0.16396500  0.35523300  1
  Cu  Cu38  1  0.24358300  0.15802200  0.16233400  1
  Cu  Cu39  1  0.53175700  0.33603500  0.64476700  1
  Cu  Cu40  1  0.31387800  0.26226500  0.51795100  1
  Cu  Cu41  1  0.05478000  0.16152000  0.86121100  1
  Cu  Cu42  1  0.55478000  0.33848000  0.13878900  1
  Cu  Cu43  1  0.61202000  0.73839300  0.00212900  1
  Cu  Cu44  1  0.74358300  0.34197800  0.83766600  1
  Cu  Cu45  1  0.51205700  0.00400200  0.62134400  1
  Cu  Cu46  1  0.75407500  0.85523100  0.30265200  1
  Cu  Cu47  1  0.96824300  0.83603500  0.64476700  1
