# generated using pymatgen
data_Cu6NiC7
_symmetry_space_group_name_H-M   'P 1'
_cell_length_a   7.18407600
_cell_length_b   5.02707300
_cell_length_c   8.78653900
_cell_angle_alpha   82.24691323
_cell_angle_beta   90.00000000
_cell_angle_gamma   90.00000000
_symmetry_Int_Tables_number   1
_chemical_formula_structural   Cu6NiC7
_chemical_formula_sum   'Cu12 Ni2 C14'
_cell_volume   314.42397035
_cell_formula_units_Z   2
loop_
 _symmetry_equiv_pos_site_id
 _symmetry_equiv_pos_as_xyz
  1  'x, y, z'
loop_
 _atom_site_type_symbol
 _atom_site_label
 _atom_site_symmetry_multiplicity
 _atom_site_fract_x
 _atom_site_fract_y
 _atom_site_fract_z
 _atom_site_occupancy
  C  C0  1  0.25000000  0.06579600  0.70241800  1
  C  C1  1  0.75000000  0.93420400  0.29758200  1
  C  C2  1  0.62472600  0.43618800  0.90578300  1
  C  C3  1  0.63382200  0.38905300  0.64406900  1
  C  C4  1  0.86617800  0.38905300  0.64406900  1
  C  C5  1  0.13382200  0.61094700  0.35593100  1
  C  C6  1  0.25000000  0.86618100  0.12227600  1
  C  C7  1  0.36617800  0.61094700  0.35593100  1
  C  C8  1  0.87527400  0.43618800  0.90578300  1
  C  C9  1  0.12472600  0.56381200  0.09421700  1
  C  C10  1  0.75000000  0.13381900  0.87772400  1
  C  C11  1  0.37527400  0.56381200  0.09421700  1
  C  C12  1  0.25000000  0.64658400  0.13991200  1
  C  C13  1  0.75000000  0.35341600  0.86008800  1
  Ni  Ni14  1  0.75000000  0.45025400  0.69320100  1
  Ni  Ni15  1  0.25000000  0.54974600  0.30679900  1
  Cu  Cu16  1  0.25000000  0.91515900  0.53309600  1
  Cu  Cu17  1  0.42789500  0.84996500  0.78239800  1
  Cu  Cu18  1  0.25000000  0.23276800  0.86662300  1
  Cu  Cu19  1  0.92789500  0.15003500  0.21760200  1
  Cu  Cu20  1  0.57784000  0.69800800  0.38444100  1
  Cu  Cu21  1  0.75000000  0.08484100  0.46690400  1
  Cu  Cu22  1  0.42216000  0.30199200  0.61555900  1
  Cu  Cu23  1  0.75000000  0.76723200  0.13337700  1
  Cu  Cu24  1  0.57210500  0.15003500  0.21760200  1
  Cu  Cu25  1  0.07784000  0.30199200  0.61555900  1
  Cu  Cu26  1  0.07210500  0.84996500  0.78239800  1
  Cu  Cu27  1  0.92216000  0.69800800  0.38444100  1
