# generated using pymatgen
data_CuNiC4
_symmetry_space_group_name_H-M   'P 1'
_cell_length_a   9.61844262
_cell_length_b   9.61844262
_cell_length_c   9.61844262
_cell_angle_alpha   60.00000000
_cell_angle_beta   60.00000000
_cell_angle_gamma   60.00000000
_symmetry_Int_Tables_number   1
_chemical_formula_structural   CuNiC4
_chemical_formula_sum   'Cu4 Ni4 C16'
_cell_volume   629.21530444
_cell_formula_units_Z   4
loop_
 _symmetry_equiv_pos_site_id
 _symmetry_equiv_pos_as_xyz
  1  'x, y, z'
loop_
 _atom_site_type_symbol
 _atom_site_label
 _atom_site_symmetry_multiplicity
 _atom_site_fract_x
 _atom_site_fract_y
 _atom_site_fract_z
 _atom_site_occupancy
  C  C0  1  0.18789600  0.18789600  0.81210400  1
  C  C1  1  0.59956200  0.59956200  0.20131400  1
  C  C2  1  0.43943000  0.06057000  0.43943000  1
  C  C3  1  0.43943000  0.43943000  0.06057000  1
  C  C4  1  0.81210400  0.18789600  0.81210400  1
  C  C5  1  0.18789600  0.81210400  0.18789600  1
  C  C6  1  0.43943000  0.06057000  0.06057000  1
  C  C7  1  0.18789600  0.81210400  0.81210400  1
  C  C8  1  0.06057000  0.43943000  0.06057000  1
  C  C9  1  0.81210400  0.81210400  0.18789600  1
  C  C10  1  0.20131400  0.59956200  0.59956200  1
  C  C11  1  0.06057000  0.43943000  0.43943000  1
  C  C12  1  0.06057000  0.06057000  0.43943000  1
  C  C13  1  0.81210400  0.18789600  0.18789600  1
  C  C14  1  0.59956200  0.20131400  0.59956200  1
  C  C15  1  0.59956200  0.59956200  0.59956200  1
  Ni  Ni16  1  0.83275400  0.83275400  0.83275400  1
  Ni  Ni17  1  0.83275400  0.83275400  0.50173900  1
  Ni  Ni18  1  0.50173900  0.83275400  0.83275400  1
  Ni  Ni19  1  0.83275400  0.50173900  0.83275400  1
  Cu  Cu20  1  0.39228400  0.82314800  0.39228400  1
  Cu  Cu21  1  0.39228400  0.39228400  0.39228400  1
  Cu  Cu22  1  0.82314800  0.39228400  0.39228400  1
  Cu  Cu23  1  0.39228400  0.39228400  0.82314800  1
