# generated using pymatgen
data_Cu2Ni3C4
_symmetry_space_group_name_H-M   'P 1'
_cell_length_a   10.43850971
_cell_length_b   10.43850971
_cell_length_c   10.43850971
_cell_angle_alpha   60.00000000
_cell_angle_beta   60.00000000
_cell_angle_gamma   60.00000000
_symmetry_Int_Tables_number   1
_chemical_formula_structural   Cu2Ni3C4
_chemical_formula_sum   'Cu8 Ni12 C16'
_cell_volume   804.26746493
_cell_formula_units_Z   4
loop_
 _symmetry_equiv_pos_site_id
 _symmetry_equiv_pos_as_xyz
  1  'x, y, z'
loop_
 _atom_site_type_symbol
 _atom_site_label
 _atom_site_symmetry_multiplicity
 _atom_site_fract_x
 _atom_site_fract_y
 _atom_site_fract_z
 _atom_site_occupancy
  C  C0  1  0.78915900  0.40361400  0.40361400  1
  C  C1  1  0.46084100  0.84638600  0.84638600  1
  C  C2  1  0.84638600  0.84638600  0.84638600  1
  C  C3  1  0.40361400  0.40361400  0.78915900  1
  C  C4  1  0.84638600  0.84638600  0.46084100  1
  C  C5  1  0.84638600  0.46084100  0.84638600  1
  C  C6  1  0.40361400  0.40361400  0.40361400  1
  C  C7  1  0.40361400  0.78915900  0.40361400  1
  C  C8  1  0.12500000  0.12500000  0.12500000  1
  C  C9  1  0.12500000  0.12500000  0.62500000  1
  C  C10  1  0.62500000  0.12500000  0.12500000  1
  C  C11  1  0.12500000  0.62500000  0.12500000  1
  C  C12  1  0.12500000  0.62500000  0.62500000  1
  C  C13  1  0.62500000  0.12500000  0.62500000  1
  C  C14  1  0.62500000  0.62500000  0.12500000  1
  C  C15  1  0.62500000  0.62500000  0.62500000  1
  Ni  Ni16  1  0.05405500  0.44594500  0.44594500  1
  Ni  Ni17  1  0.80405500  0.19594500  0.19594500  1
  Ni  Ni18  1  0.44594500  0.05405500  0.05405500  1
  Ni  Ni19  1  0.80405500  0.80405500  0.19594500  1
  Ni  Ni20  1  0.05405500  0.44594500  0.05405500  1
  Ni  Ni21  1  0.44594500  0.05405500  0.44594500  1
  Ni  Ni22  1  0.19594500  0.80405500  0.80405500  1
  Ni  Ni23  1  0.19594500  0.19594500  0.80405500  1
  Ni  Ni24  1  0.80405500  0.19594500  0.80405500  1
  Ni  Ni25  1  0.44594500  0.44594500  0.05405500  1
  Ni  Ni26  1  0.19594500  0.80405500  0.19594500  1
  Ni  Ni27  1  0.05405500  0.05405500  0.44594500  1
  Cu  Cu28  1  0.26984000  0.57672000  0.57672000  1
  Cu  Cu29  1  0.67328000  0.67328000  0.98016000  1
  Cu  Cu30  1  0.67328000  0.98016000  0.67328000  1
  Cu  Cu31  1  0.57672000  0.57672000  0.57672000  1
  Cu  Cu32  1  0.57672000  0.26984000  0.57672000  1
  Cu  Cu33  1  0.98016000  0.67328000  0.67328000  1
  Cu  Cu34  1  0.57672000  0.57672000  0.26984000  1
  Cu  Cu35  1  0.67328000  0.67328000  0.67328000  1
