# generated using pymatgen
data_Cu2Ni2C19
_symmetry_space_group_name_H-M   'P 1'
_cell_length_a   6.40660000
_cell_length_b   7.30953100
_cell_length_c   9.48400100
_cell_angle_alpha   90.00000000
_cell_angle_beta   90.00000000
_cell_angle_gamma   90.00000000
_symmetry_Int_Tables_number   1
_chemical_formula_structural   Cu2Ni2C19
_chemical_formula_sum   'Cu4 Ni4 C38'
_cell_volume   444.12857136
_cell_formula_units_Z   2
loop_
 _symmetry_equiv_pos_site_id
 _symmetry_equiv_pos_as_xyz
  1  'x, y, z'
loop_
 _atom_site_type_symbol
 _atom_site_label
 _atom_site_symmetry_multiplicity
 _atom_site_fract_x
 _atom_site_fract_y
 _atom_site_fract_z
 _atom_site_occupancy
  C  C0  1  0.50000000  0.50000000  0.50000000  1
  C  C1  1  0.00000000  0.00000000  0.00000000  1
  C  C2  1  0.87002100  0.65831400  0.63273300  1
  C  C3  1  0.13931800  0.50131400  0.14086600  1
  C  C4  1  0.86068200  0.49868600  0.85913400  1
  C  C5  1  0.63931800  0.99868600  0.64086600  1
  C  C6  1  0.13931800  0.49868600  0.85913400  1
  C  C7  1  0.36068200  0.00131400  0.35913400  1
  C  C8  1  0.12997900  0.65831400  0.63273300  1
  C  C9  1  0.87002100  0.34168600  0.36726700  1
  C  C10  1  0.36068200  0.99868600  0.64086600  1
  C  C11  1  0.86068200  0.50131400  0.14086600  1
  C  C12  1  0.37002100  0.15831400  0.86726700  1
  C  C13  1  0.62997900  0.84168600  0.13273300  1
  C  C14  1  0.50000000  0.12896400  0.22802200  1
  C  C15  1  0.63931800  0.00131400  0.35913400  1
  C  C16  1  0.00000000  0.77926700  0.75568900  1
  C  C17  1  0.00000000  0.22073300  0.24431100  1
  C  C18  1  0.12997900  0.34168600  0.36726700  1
  C  C19  1  0.62997900  0.15831400  0.86726700  1
  C  C20  1  0.00000000  0.62896400  0.27197800  1
  C  C21  1  0.50000000  0.72073300  0.25568900  1
  C  C22  1  0.00000000  0.37103600  0.72802200  1
  C  C23  1  0.50000000  0.27926700  0.74431100  1
  C  C24  1  0.37002100  0.84168600  0.13273300  1
  C  C25  1  0.50000000  0.87103600  0.77197800  1
  Ni  Ni26  1  0.50000000  0.99481100  0.70722500  1
  Ni  Ni27  1  0.50000000  0.00518900  0.29277500  1
  Ni  Ni28  1  0.00000000  0.50518900  0.20722500  1
  Ni  Ni29  1  0.00000000  0.49481100  0.79277500  1
  Cu  Cu30  1  0.50000000  0.84220600  0.19870000  1
  Cu  Cu31  1  0.00000000  0.65779400  0.69870000  1
  Cu  Cu32  1  0.00000000  0.34220600  0.30130000  1
  Cu  Cu33  1  0.50000000  0.15779400  0.80130000  1
  C  C34  1  0.50000000  0.51156400  0.68128500  1
  C  C35  1  0.00000000  0.01156400  0.81871500  1
  C  C36  1  0.30950800  0.66608700  0.49262100  1
  C  C37  1  0.50000000  0.48843600  0.31871500  1
  C  C38  1  0.30950800  0.33391300  0.50737900  1
  C  C39  1  0.69049200  0.33391300  0.50737900  1
  C  C40  1  0.19049200  0.16608700  0.00737900  1
  C  C41  1  0.80950800  0.16608700  0.00737900  1
  C  C42  1  0.69049200  0.66608700  0.49262100  1
  C  C43  1  0.80950800  0.83391300  0.99262100  1
  C  C44  1  0.00000000  0.98843600  0.18128500  1
  C  C45  1  0.19049200  0.83391300  0.99262100  1
