# generated using pymatgen
data_Cu8Ni2C57
_symmetry_space_group_name_H-M   'P 1'
_cell_length_a   6.99560300
_cell_length_b   11.32338893
_cell_length_c   12.29864249
_cell_angle_alpha   99.02098192
_cell_angle_beta   106.27398770
_cell_angle_gamma   90.08317548
_symmetry_Int_Tables_number   1
_chemical_formula_structural   Cu8Ni2C57
_chemical_formula_sum   'Cu8 Ni2 C57'
_cell_volume   922.56267947
_cell_formula_units_Z   1
loop_
 _symmetry_equiv_pos_site_id
 _symmetry_equiv_pos_as_xyz
  1  'x, y, z'
loop_
 _atom_site_type_symbol
 _atom_site_label
 _atom_site_symmetry_multiplicity
 _atom_site_fract_x
 _atom_site_fract_y
 _atom_site_fract_z
 _atom_site_occupancy
  Ni  Ni0  1  0.99469900  0.69571900  0.00564400  1
  Ni  Ni1  1  0.00530100  0.30428100  0.99435500  1
  Cu  Cu2  1  0.51997800  0.13901700  0.98585700  1
  Cu  Cu3  1  0.79517200  0.26546300  0.49008300  1
  Cu  Cu4  1  0.81825900  0.57056300  0.50094300  1
  Cu  Cu5  1  0.26823500  0.11985900  0.48457700  1
  Cu  Cu6  1  0.18174100  0.42943700  0.49905700  1
  Cu  Cu7  1  0.20482800  0.73453700  0.50991700  1
  Cu  Cu8  1  0.48002200  0.86098300  0.01414300  1
  Cu  Cu9  1  0.73176500  0.88014100  0.51542300  1
  C  C10  1  0.29259200  0.23127500  0.26685000  1
  C  C11  1  0.22268400  0.64228200  0.75904300  1
  C  C12  1  0.69611800  0.14173800  0.72273700  1
  C  C13  1  0.30388200  0.85826200  0.27726300  1
  C  C14  1  0.19788600  0.95512500  0.72664000  1
  C  C15  1  0.77731600  0.35771800  0.24095700  1
  C  C16  1  0.21434900  0.27935000  0.74770300  1
  C  C17  1  0.78565100  0.72065000  0.25229700  1
  C  C18  1  0.50000000  0.50000000  0.00000000  1
  C  C19  1  0.70740800  0.76872500  0.73315000  1
  C  C20  1  0.80211400  0.04487500  0.27336000  1
  C  C21  1  0.28261800  0.54417400  0.27366500  1
  C  C22  1  0.71738200  0.45582600  0.72633500  1
  C  C23  1  0.35260700  0.68897300  0.91935900  1
  C  C24  1  0.64004800  0.01204500  0.12057300  1
  C  C25  1  0.71198500  0.52779400  0.17393200  1
  C  C26  1  0.65994900  0.72348700  0.09456900  1
  C  C27  1  0.64739300  0.31102700  0.08064100  1
  C  C28  1  0.26253600  0.19200400  0.11103400  1
  C  C29  1  0.29813300  0.05200500  0.30828800  1
  C  C30  1  0.73746400  0.80799600  0.88896600  1
  C  C31  1  0.95411700  0.19667400  0.22997800  1
  C  C32  1  0.47561100  0.66768000  0.27649700  1
  C  C33  1  0.30619800  0.28398500  0.42141400  1
  C  C34  1  0.70186700  0.94799500  0.69171200  1
  C  C35  1  0.64381100  0.89126100  0.31966600  1
  C  C36  1  0.69380200  0.71601500  0.57858600  1
  C  C37  1  0.35995200  0.98795500  0.87942700  1
  C  C38  1  0.47221800  0.42038200  0.27315800  1
  C  C39  1  0.91532100  0.58875800  0.78622100  1
  C  C40  1  0.08804600  0.65864100  0.21685300  1
  C  C41  1  0.03785500  0.91062600  0.57618100  1
  C  C42  1  0.71291000  0.49192800  0.93498500  1
  C  C43  1  0.89660000  0.41798700  0.39781800  1
  C  C44  1  0.04588300  0.80332600  0.77002200  1
  C  C45  1  0.66150500  0.14794200  0.56732700  1
  C  C46  1  0.09422200  0.30252900  0.59634900  1
  C  C47  1  0.03014900  0.11922000  0.74955600  1
  C  C48  1  0.28534300  0.56676700  0.42054300  1
  C  C49  1  0.08467900  0.41124200  0.21377900  1
  C  C50  1  0.72876900  0.15365800  0.88009700  1
  C  C51  1  0.96985100  0.88078000  0.25044400  1
  C  C52  1  0.90577800  0.69747100  0.40365100  1
  C  C53  1  0.96214500  0.08937400  0.42381900  1
  C  C54  1  0.27123100  0.84634200  0.11990300  1
  C  C55  1  0.34005100  0.27651300  0.90543100  1
  C  C56  1  0.10340000  0.58201300  0.60218200  1
  C  C57  1  0.91195400  0.34135900  0.78314700  1
  C  C58  1  0.71465700  0.43323300  0.57945700  1
  C  C59  1  0.28801500  0.47220600  0.82606800  1
  C  C60  1  0.35618900  0.10873900  0.68033400  1
  C  C61  1  0.33849500  0.85205800  0.43267300  1
  C  C62  1  0.28709000  0.50807200  0.06501500  1
  C  C63  1  0.63451300  0.21073500  0.30509700  1
  C  C64  1  0.52778200  0.57961800  0.72684200  1
  C  C65  1  0.36548700  0.78926500  0.69490300  1
  C  C66  1  0.52438900  0.33232000  0.72350300  1
