# generated using pymatgen
data_Cu2NiC5
_symmetry_space_group_name_H-M   'P 1'
_cell_length_a   9.16932800
_cell_length_b   9.16932800
_cell_length_c   7.88660900
_cell_angle_alpha   90.00000000
_cell_angle_beta   90.00000000
_cell_angle_gamma   90.00000000
_symmetry_Int_Tables_number   1
_chemical_formula_structural   Cu2NiC5
_chemical_formula_sum   'Cu16 Ni8 C40'
_cell_volume   663.07908075
_cell_formula_units_Z   8
loop_
 _symmetry_equiv_pos_site_id
 _symmetry_equiv_pos_as_xyz
  1  'x, y, z'
loop_
 _atom_site_type_symbol
 _atom_site_label
 _atom_site_symmetry_multiplicity
 _atom_site_fract_x
 _atom_site_fract_y
 _atom_site_fract_z
 _atom_site_occupancy
  C  C0  1  0.00000000  0.50000000  0.20437800  1
  C  C1  1  0.50000000  0.00000000  0.29562200  1
  C  C2  1  0.50000000  0.00000000  0.79562200  1
  C  C3  1  0.00000000  0.50000000  0.70437800  1
  Ni  Ni4  1  0.79569300  0.20430700  0.25000000  1
  Ni  Ni5  1  0.70430700  0.70430700  0.25000000  1
  Ni  Ni6  1  0.29569300  0.29569300  0.25000000  1
  Ni  Ni7  1  0.20430700  0.79569300  0.25000000  1
  Ni  Ni8  1  0.70430700  0.29569300  0.75000000  1
  Ni  Ni9  1  0.79569300  0.79569300  0.75000000  1
  Ni  Ni10  1  0.20430700  0.20430700  0.75000000  1
  Ni  Ni11  1  0.29569300  0.70430700  0.75000000  1
  Cu  Cu12  1  0.33411100  0.46506000  0.44812300  1
  Cu  Cu13  1  0.96506000  0.16588900  0.44812300  1
  Cu  Cu14  1  0.03494000  0.83411100  0.44812300  1
  Cu  Cu15  1  0.66588900  0.53494000  0.44812300  1
  Cu  Cu16  1  0.16588900  0.96506000  0.05187700  1
  Cu  Cu17  1  0.83411100  0.03494000  0.05187700  1
  Cu  Cu18  1  0.46506000  0.33411100  0.05187700  1
  Cu  Cu19  1  0.53494000  0.66588900  0.05187700  1
  Cu  Cu20  1  0.16588900  0.03494000  0.55187700  1
  Cu  Cu21  1  0.53494000  0.33411100  0.55187700  1
  Cu  Cu22  1  0.46506000  0.66588900  0.55187700  1
  Cu  Cu23  1  0.83411100  0.96506000  0.55187700  1
  Cu  Cu24  1  0.33411100  0.53494000  0.94812300  1
  Cu  Cu25  1  0.66588900  0.46506000  0.94812300  1
  Cu  Cu26  1  0.03494000  0.16588900  0.94812300  1
  Cu  Cu27  1  0.96506000  0.83411100  0.94812300  1
  C  C28  1  0.82919600  0.36581400  0.24331900  1
  C  C29  1  0.86581400  0.67080400  0.24331900  1
  C  C30  1  0.13418600  0.32919600  0.24331900  1
  C  C31  1  0.17080400  0.63418600  0.24331900  1
  C  C32  1  0.67080400  0.86581400  0.25668100  1
  C  C33  1  0.32919600  0.13418600  0.25668100  1
  C  C34  1  0.36581400  0.82919600  0.25668100  1
  C  C35  1  0.63418600  0.17080400  0.25668100  1
  C  C36  1  0.67080400  0.13418600  0.75668100  1
  C  C37  1  0.63418600  0.82919600  0.75668100  1
  C  C38  1  0.36581400  0.17080400  0.75668100  1
  C  C39  1  0.32919600  0.86581400  0.75668100  1
  C  C40  1  0.82919600  0.63418600  0.74331900  1
  C  C41  1  0.17080400  0.36581400  0.74331900  1
  C  C42  1  0.13418600  0.67080400  0.74331900  1
  C  C43  1  0.86581400  0.32919600  0.74331900  1
  C  C44  1  0.86963600  0.13236300  0.08694100  1
  C  C45  1  0.63236300  0.63036400  0.08694100  1
  C  C46  1  0.36763700  0.36963600  0.08694100  1
  C  C47  1  0.13036400  0.86763700  0.08694100  1
  C  C48  1  0.63036400  0.63236300  0.41305900  1
  C  C49  1  0.36963600  0.36763700  0.41305900  1
  C  C50  1  0.13236300  0.86963600  0.41305900  1
  C  C51  1  0.86763700  0.13036400  0.41305900  1
  C  C52  1  0.63036400  0.36763700  0.91305900  1
  C  C53  1  0.86763700  0.86963600  0.91305900  1
  C  C54  1  0.13236300  0.13036400  0.91305900  1
  C  C55  1  0.36963600  0.63236300  0.91305900  1
  C  C56  1  0.86963600  0.86763700  0.58694100  1
  C  C57  1  0.13036400  0.13236300  0.58694100  1
  C  C58  1  0.36763700  0.63036400  0.58694100  1
  C  C59  1  0.63236300  0.36963600  0.58694100  1
  C  C60  1  0.00000000  0.50000000  0.99359900  1
  C  C61  1  0.50000000  0.00000000  0.50640100  1
  C  C62  1  0.50000000  0.00000000  0.00640100  1
  C  C63  1  0.00000000  0.50000000  0.49359900  1
