# generated using pymatgen
data_CuNi8C5
_symmetry_space_group_name_H-M   'P 1'
_cell_length_a   8.85329534
_cell_length_b   8.85329534
_cell_length_c   10.80343671
_cell_angle_alpha   82.45814637
_cell_angle_beta   82.45814637
_cell_angle_gamma   52.19565589
_symmetry_Int_Tables_number   1
_chemical_formula_structural   CuNi8C5
_chemical_formula_sum   'Cu2 Ni16 C10'
_cell_volume   661.86592835
_cell_formula_units_Z   2
loop_
 _symmetry_equiv_pos_site_id
 _symmetry_equiv_pos_as_xyz
  1  'x, y, z'
loop_
 _atom_site_type_symbol
 _atom_site_label
 _atom_site_symmetry_multiplicity
 _atom_site_fract_x
 _atom_site_fract_y
 _atom_site_fract_z
 _atom_site_occupancy
  C  C0  1  0.07596200  0.32403500  0.81860000  1
  C  C1  1  0.92403800  0.67596500  0.18140000  1
  C  C2  1  0.32403500  0.07596200  0.31860000  1
  C  C3  1  0.39674000  0.60326000  0.75000000  1
  C  C4  1  0.67596500  0.92403800  0.68140000  1
  C  C5  1  0.60326000  0.39674000  0.25000000  1
  C  C6  1  0.30342100  0.37822000  0.52771400  1
  C  C7  1  0.62178000  0.69657900  0.97228600  1
  C  C8  1  0.37822000  0.30342100  0.02771400  1
  C  C9  1  0.69657900  0.62178000  0.47228600  1
  Ni  Ni10  1  0.60389800  0.10780500  0.14697900  1
  Ni  Ni11  1  0.44950000  0.25319200  0.83433200  1
  Ni  Ni12  1  0.14873300  0.28643400  0.08620800  1
  Ni  Ni13  1  0.74680800  0.55050000  0.66566800  1
  Ni  Ni14  1  0.39610200  0.89219500  0.85302100  1
  Ni  Ni15  1  0.85126700  0.71356600  0.91379200  1
  Ni  Ni16  1  0.10780500  0.60389800  0.64697900  1
  Ni  Ni17  1  0.55050000  0.74680800  0.16566800  1
  Ni  Ni18  1  0.71356600  0.85126700  0.41379200  1
  Ni  Ni19  1  0.28643400  0.14873300  0.58620800  1
  Ni  Ni20  1  0.58999000  0.27434400  0.53997300  1
  Ni  Ni21  1  0.41001000  0.72565600  0.46002700  1
  Ni  Ni22  1  0.25319200  0.44950000  0.33433200  1
  Ni  Ni23  1  0.89219500  0.39610200  0.35302100  1
  Ni  Ni24  1  0.72565600  0.41001000  0.96002700  1
  Ni  Ni25  1  0.27434400  0.58999000  0.03997300  1
  Cu  Cu26  1  0.98486200  0.01513800  0.75000000  1
  Cu  Cu27  1  0.01513800  0.98486200  0.25000000  1
