# generated using pymatgen
data_CuNi6C5
_symmetry_space_group_name_H-M   'P 1'
_cell_length_a   6.89925700
_cell_length_b   9.50011700
_cell_length_c   14.51067200
_cell_angle_alpha   90.00000000
_cell_angle_beta   90.00000000
_cell_angle_gamma   90.00000000
_symmetry_Int_Tables_number   1
_chemical_formula_structural   CuNi6C5
_chemical_formula_sum   'Cu8 Ni48 C40'
_cell_volume   951.08383923
_cell_formula_units_Z   8
loop_
 _symmetry_equiv_pos_site_id
 _symmetry_equiv_pos_as_xyz
  1  'x, y, z'
loop_
 _atom_site_type_symbol
 _atom_site_label
 _atom_site_symmetry_multiplicity
 _atom_site_fract_x
 _atom_site_fract_y
 _atom_site_fract_z
 _atom_site_occupancy
  C  C0  1  0.00000000  0.00000000  0.00000000  1
  C  C1  1  0.50000000  0.50000000  0.00000000  1
  C  C2  1  0.50000000  0.50000000  0.50000000  1
  C  C3  1  0.00000000  0.00000000  0.50000000  1
  Ni  Ni4  1  0.26788500  0.87734000  0.11150900  1
  Ni  Ni5  1  0.76788500  0.62266000  0.88849100  1
  Ni  Ni6  1  0.23211500  0.37734000  0.38849100  1
  Ni  Ni7  1  0.73211500  0.12266000  0.61150900  1
  Ni  Ni8  1  0.73211500  0.12266000  0.88849100  1
  Ni  Ni9  1  0.23211500  0.37734000  0.11150900  1
  Ni  Ni10  1  0.76788500  0.62266000  0.61150900  1
  Ni  Ni11  1  0.26788500  0.87734000  0.38849100  1
  Ni  Ni12  1  0.06455600  0.80575500  0.13186400  1
  Ni  Ni13  1  0.56455600  0.69424500  0.86813600  1
  Ni  Ni14  1  0.43544400  0.30575500  0.36813600  1
  Ni  Ni15  1  0.93544400  0.19424500  0.63186400  1
  Ni  Ni16  1  0.93544400  0.19424500  0.86813600  1
  Ni  Ni17  1  0.43544400  0.30575500  0.13186400  1
  Ni  Ni18  1  0.56455600  0.69424500  0.63186400  1
  Ni  Ni19  1  0.06455600  0.80575500  0.36813600  1
  Ni  Ni20  1  0.07251000  0.11718600  0.16254800  1
  Ni  Ni21  1  0.57251000  0.38281400  0.83745200  1
  Ni  Ni22  1  0.42749000  0.61718600  0.33745200  1
  Ni  Ni23  1  0.92749000  0.88281400  0.66254800  1
  Ni  Ni24  1  0.92749000  0.88281400  0.83745200  1
  Ni  Ni25  1  0.42749000  0.61718600  0.16254800  1
  Ni  Ni26  1  0.57251000  0.38281400  0.66254800  1
  Ni  Ni27  1  0.07251000  0.11718600  0.33745200  1
  Ni  Ni28  1  0.84966300  0.14943400  0.14927000  1
  Ni  Ni29  1  0.34966300  0.35056600  0.85073000  1
  Ni  Ni30  1  0.65033700  0.64943400  0.35073000  1
  Ni  Ni31  1  0.15033700  0.85056600  0.64927000  1
  Ni  Ni32  1  0.15033700  0.85056600  0.85073000  1
  Ni  Ni33  1  0.65033700  0.64943400  0.14927000  1
  Ni  Ni34  1  0.34966300  0.35056600  0.64927000  1
  Ni  Ni35  1  0.84966300  0.14943400  0.35073000  1
  Ni  Ni36  1  0.64887800  0.91512200  0.07570200  1
  Ni  Ni37  1  0.14887800  0.58487800  0.92429800  1
  Ni  Ni38  1  0.85112200  0.41512200  0.42429800  1
  Ni  Ni39  1  0.35112200  0.08487800  0.57570200  1
  Ni  Ni40  1  0.35112200  0.08487800  0.92429800  1
  Ni  Ni41  1  0.85112200  0.41512200  0.07570200  1
  Ni  Ni42  1  0.14887800  0.58487800  0.57570200  1
  Ni  Ni43  1  0.64887800  0.91512200  0.42429800  1
  Ni  Ni44  1  0.69920100  0.81296300  0.99101400  1
  Ni  Ni45  1  0.19920100  0.68703700  0.00898600  1
  Ni  Ni46  1  0.80079900  0.31296300  0.50898600  1
  Ni  Ni47  1  0.30079900  0.18703700  0.49101400  1
  Ni  Ni48  1  0.30079900  0.18703700  0.00898600  1
  Ni  Ni49  1  0.80079900  0.31296300  0.99101400  1
  Ni  Ni50  1  0.19920100  0.68703700  0.49101400  1
  Ni  Ni51  1  0.69920100  0.81296300  0.50898600  1
  Cu  Cu52  1  0.43559100  0.03743000  0.25000000  1
  Cu  Cu53  1  0.93559100  0.46257000  0.75000000  1
  Cu  Cu54  1  0.06440900  0.53743000  0.25000000  1
  Cu  Cu55  1  0.56440900  0.96257000  0.75000000  1
  Cu  Cu56  1  0.61043200  0.21025100  0.25000000  1
  Cu  Cu57  1  0.11043200  0.28974900  0.75000000  1
  Cu  Cu58  1  0.88956800  0.71025100  0.25000000  1
  Cu  Cu59  1  0.38956800  0.78974900  0.75000000  1
  C  C60  1  0.47161100  0.95397300  0.16532300  1
  C  C61  1  0.97161100  0.54602700  0.83467700  1
  C  C62  1  0.02838900  0.45397300  0.33467700  1
  C  C63  1  0.52838900  0.04602700  0.66532300  1
  C  C64  1  0.52838900  0.04602700  0.83467700  1
  C  C65  1  0.02838900  0.45397300  0.16532300  1
  C  C66  1  0.97161100  0.54602700  0.66532300  1
  C  C67  1  0.47161100  0.95397300  0.33467700  1
  C  C68  1  0.23146500  0.08998100  0.25000000  1
  C  C69  1  0.73146500  0.41001900  0.75000000  1
  C  C70  1  0.26853500  0.58998100  0.25000000  1
  C  C71  1  0.76853500  0.91001900  0.75000000  1
  C  C72  1  0.14750300  0.84221400  0.08105800  1
  C  C73  1  0.64750300  0.65778600  0.91894200  1
  C  C74  1  0.35249700  0.34221400  0.41894200  1
  C  C75  1  0.85249700  0.15778600  0.58105800  1
  C  C76  1  0.85249700  0.15778600  0.91894200  1
  C  C77  1  0.35249700  0.34221400  0.08105800  1
  C  C78  1  0.64750300  0.65778600  0.58105800  1
  C  C79  1  0.14750300  0.84221400  0.41894200  1
  C  C80  1  0.96916200  0.12557800  0.11505800  1
  C  C81  1  0.46916200  0.37442200  0.88494200  1
  C  C82  1  0.53083800  0.62557800  0.38494200  1
  C  C83  1  0.03083800  0.87442200  0.61505800  1
  C  C84  1  0.03083800  0.87442200  0.88494200  1
  C  C85  1  0.53083800  0.62557800  0.11505800  1
  C  C86  1  0.46916200  0.37442200  0.61505800  1
  C  C87  1  0.96916200  0.12557800  0.38494200  1
  C  C88  1  0.74027700  0.89850700  0.02465000  1
  C  C89  1  0.24027700  0.60149300  0.97535000  1
  C  C90  1  0.75972300  0.39850700  0.47535000  1
  C  C91  1  0.25972300  0.10149300  0.52465000  1
  C  C92  1  0.25972300  0.10149300  0.97535000  1
  C  C93  1  0.75972300  0.39850700  0.02465000  1
  C  C94  1  0.24027700  0.60149300  0.52465000  1
  C  C95  1  0.74027700  0.89850700  0.47535000  1
