# generated using pymatgen
data_Cu2Ni12C7
_symmetry_space_group_name_H-M   'P 1'
_cell_length_a   10.58895100
_cell_length_b   10.58895100
_cell_length_c   10.58895100
_cell_angle_alpha   90.00000000
_cell_angle_beta   90.00000000
_cell_angle_gamma   90.00000000
_symmetry_Int_Tables_number   1
_chemical_formula_structural   Cu2Ni12C7
_chemical_formula_sum   'Cu8 Ni48 C28'
_cell_volume   1187.29548389
_cell_formula_units_Z   4
loop_
 _symmetry_equiv_pos_site_id
 _symmetry_equiv_pos_as_xyz
  1  'x, y, z'
loop_
 _atom_site_type_symbol
 _atom_site_label
 _atom_site_symmetry_multiplicity
 _atom_site_fract_x
 _atom_site_fract_y
 _atom_site_fract_z
 _atom_site_occupancy
  C  C0  1  0.87500000  0.86383500  0.61383500  1
  C  C1  1  0.88616500  0.12500000  0.36383500  1
  C  C2  1  0.63616500  0.38616500  0.37500000  1
  C  C3  1  0.86383500  0.61383500  0.87500000  1
  C  C4  1  0.37500000  0.63616500  0.38616500  1
  C  C5  1  0.12500000  0.36383500  0.88616500  1
  C  C6  1  0.36383500  0.88616500  0.12500000  1
  C  C7  1  0.62500000  0.13616500  0.11383500  1
  C  C8  1  0.11383500  0.62500000  0.13616500  1
  C  C9  1  0.61383500  0.87500000  0.86383500  1
  C  C10  1  0.13616500  0.11383500  0.62500000  1
  C  C11  1  0.38616500  0.37500000  0.63616500  1
  C  C12  1  0.87500000  0.12384900  0.87384900  1
  C  C13  1  0.87384900  0.87500000  0.12384900  1
  C  C14  1  0.37384900  0.62500000  0.87615100  1
  C  C15  1  0.87500000  0.62500000  0.37500000  1
  C  C16  1  0.62615100  0.12500000  0.62384900  1
  C  C17  1  0.37500000  0.37615100  0.12615100  1
  C  C18  1  0.37500000  0.87500000  0.62500000  1
  C  C19  1  0.12615100  0.37500000  0.37615100  1
  C  C20  1  0.12384900  0.87384900  0.87500000  1
  C  C21  1  0.12500000  0.62384900  0.62615100  1
  C  C22  1  0.62500000  0.37500000  0.87500000  1
  C  C23  1  0.62384900  0.62615100  0.12500000  1
  C  C24  1  0.37615100  0.12615100  0.37500000  1
  C  C25  1  0.87615100  0.37384900  0.62500000  1
  C  C26  1  0.62500000  0.87615100  0.37384900  1
  C  C27  1  0.12500000  0.12500000  0.12500000  1
  Ni  Ni28  1  0.00165300  0.49531300  0.69713600  1
  Ni  Ni29  1  0.31234000  0.01009000  0.50823600  1
  Ni  Ni30  1  0.49176400  0.81234000  0.48991000  1
  Ni  Ni31  1  0.25165300  0.44713600  0.25468700  1
  Ni  Ni32  1  0.06234000  0.24176400  0.26009000  1
  Ni  Ni33  1  0.98991000  0.00823600  0.18766000  1
  Ni  Ni34  1  0.05286400  0.74531300  0.75165300  1
  Ni  Ni35  1  0.73991000  0.56234000  0.25823600  1
  Ni  Ni36  1  0.99176400  0.68766000  0.51009000  1
  Ni  Ni37  1  0.74176400  0.23991000  0.93766000  1
  Ni  Ni38  1  0.49531300  0.69713600  0.00165300  1
  Ni  Ni39  1  0.00468700  0.30286400  0.50165300  1
  Ni  Ni40  1  0.50165300  0.00468700  0.30286400  1
  Ni  Ni41  1  0.68766000  0.51009000  0.99176400  1
  Ni  Ni42  1  0.99531300  0.80286400  0.99834700  1
  Ni  Ni43  1  0.49834700  0.50468700  0.19713600  1
  Ni  Ni44  1  0.80286400  0.99834700  0.99531300  1
  Ni  Ni45  1  0.24176400  0.26009000  0.06234000  1
  Ni  Ni46  1  0.75823600  0.76009000  0.43766000  1
  Ni  Ni47  1  0.30286400  0.50165300  0.00468700  1
  Ni  Ni48  1  0.25468700  0.25165300  0.44713600  1
  Ni  Ni49  1  0.93766000  0.74176400  0.23991000  1
  Ni  Ni50  1  0.24834700  0.55286400  0.75468700  1
  Ni  Ni51  1  0.50468700  0.19713600  0.49834700  1
  Ni  Ni52  1  0.43766000  0.75823600  0.76009000  1
  Ni  Ni53  1  0.69713600  0.00165300  0.49531300  1
  Ni  Ni54  1  0.99834700  0.99531300  0.80286400  1
  Ni  Ni55  1  0.23991000  0.93766000  0.74176400  1
  Ni  Ni56  1  0.24531300  0.74834700  0.94713600  1
  Ni  Ni57  1  0.74531300  0.75165300  0.05286400  1
  Ni  Ni58  1  0.19713600  0.49834700  0.50468700  1
  Ni  Ni59  1  0.18766000  0.98991000  0.00823600  1
  Ni  Ni60  1  0.56234000  0.25823600  0.73991000  1
  Ni  Ni61  1  0.25823600  0.73991000  0.56234000  1
  Ni  Ni62  1  0.48991000  0.49176400  0.81234000  1
  Ni  Ni63  1  0.75165300  0.05286400  0.74531300  1
  Ni  Ni64  1  0.44713600  0.25468700  0.25165300  1
  Ni  Ni65  1  0.76009000  0.43766000  0.75823600  1
  Ni  Ni66  1  0.75468700  0.24834700  0.55286400  1
  Ni  Ni67  1  0.01009000  0.50823600  0.31234000  1
  Ni  Ni68  1  0.55286400  0.75468700  0.24834700  1
  Ni  Ni69  1  0.94713600  0.24531300  0.74834700  1
  Ni  Ni70  1  0.26009000  0.06234000  0.24176400  1
  Ni  Ni71  1  0.74834700  0.94713600  0.24531300  1
  Ni  Ni72  1  0.51009000  0.99176400  0.68766000  1
  Ni  Ni73  1  0.50823600  0.31234000  0.01009000  1
  Ni  Ni74  1  0.81234000  0.48991000  0.49176400  1
  Ni  Ni75  1  0.00823600  0.18766000  0.98991000  1
  Cu  Cu76  1  0.51165800  0.98834200  0.01165800  1
  Cu  Cu77  1  0.01165800  0.51165800  0.98834200  1
  Cu  Cu78  1  0.48834200  0.48834200  0.48834200  1
  Cu  Cu79  1  0.26165800  0.73834200  0.23834200  1
  Cu  Cu80  1  0.73834200  0.23834200  0.26165800  1
  Cu  Cu81  1  0.98834200  0.01165800  0.51165800  1
  Cu  Cu82  1  0.23834200  0.26165800  0.73834200  1
  Cu  Cu83  1  0.76165800  0.76165800  0.76165800  1
