# generated using pymatgen
data_Cu2NiC8
_symmetry_space_group_name_H-M   'P 1'
_cell_length_a   15.09747039
_cell_length_b   11.23609457
_cell_length_c   11.21512129
_cell_angle_alpha   84.51386089
_cell_angle_beta   47.80198063
_cell_angle_gamma   47.68415848
_symmetry_Int_Tables_number   1
_chemical_formula_structural   Cu2NiC8
_chemical_formula_sum   'Cu12 Ni6 C48'
_cell_volume   791.14721870
_cell_formula_units_Z   6
loop_
 _symmetry_equiv_pos_site_id
 _symmetry_equiv_pos_as_xyz
  1  'x, y, z'
loop_
 _atom_site_type_symbol
 _atom_site_label
 _atom_site_symmetry_multiplicity
 _atom_site_fract_x
 _atom_site_fract_y
 _atom_site_fract_z
 _atom_site_occupancy
  C  C0  1  0.44865000  0.11235300  0.89828300  1
  C  C1  1  0.99589000  0.33350500  0.18813100  1
  C  C2  1  0.01133200  0.01133200  0.48866800  1
  C  C3  1  0.39042300  0.39042300  0.60957700  1
  C  C4  1  0.76752600  0.06186900  0.91649500  1
  C  C5  1  0.33350500  0.99589000  0.48247400  1
  C  C6  1  0.70928600  0.35171700  0.13764700  1
  C  C7  1  0.06186900  0.76752600  0.25411000  1
  C  C8  1  0.11235300  0.44865000  0.54071400  1
  C  C9  1  0.64042400  0.64042300  0.85957700  1
  C  C10  1  0.76133200  0.76133200  0.23866800  1
  C  C11  1  0.35171700  0.70928600  0.80135000  1
  Ni  Ni12  1  0.92392200  0.22780100  0.73974800  1
  Ni  Ni13  1  0.22780100  0.92392200  0.10852900  1
  Ni  Ni14  1  0.14147100  0.51025200  0.02219900  1
  Ni  Ni15  1  0.51025200  0.14147100  0.32607800  1
  Ni  Ni16  1  0.61488400  0.61488400  0.38511600  1
  Ni  Ni17  1  0.86488400  0.86488400  0.63511600  1
  Cu  Cu18  1  0.82183700  0.20215100  0.31158500  1
  Cu  Cu19  1  0.28713700  0.56304000  0.41224300  1
  Cu  Cu20  1  0.91013700  0.91013700  0.08986300  1
  Cu  Cu21  1  0.56304000  0.28713700  0.73758000  1
  Cu  Cu22  1  0.93841500  0.58557300  0.42816300  1
  Cu  Cu23  1  0.58557300  0.93841500  0.04784900  1
  Cu  Cu24  1  0.83775700  0.51242000  0.96286300  1
  Cu  Cu25  1  0.50040500  0.50040500  0.99959500  1
  Cu  Cu26  1  0.20215100  0.82183700  0.66442700  1
  Cu  Cu27  1  0.25040500  0.25040500  0.74959500  1
  Cu  Cu28  1  0.51242000  0.83775700  0.68696000  1
  Cu  Cu29  1  0.16013700  0.16013700  0.33986300  1
  C  C30  1  0.07088400  0.47215900  0.19581600  1
  C  C31  1  0.47215900  0.07088400  0.26114100  1
  C  C32  1  0.13250900  0.78218400  0.83932200  1
  C  C33  1  0.00401500  0.41067800  0.46781600  1
  C  C34  1  0.68842900  0.63685800  0.20232500  1
  C  C35  1  0.78619500  0.67723500  0.91216800  1
  C  C36  1  0.04767500  0.77761200  0.56157100  1
  C  C37  1  0.78218400  0.13250900  0.24598500  1
  C  C38  1  0.74694100  0.33438300  0.78926200  1
  C  C39  1  0.77761200  0.04767500  0.61314200  1
  C  C40  1  0.98885900  0.05418400  0.77784100  1
  C  C41  1  0.67038700  0.97570400  0.88397600  1
  C  C42  1  0.63685800  0.68842900  0.47238800  1
  C  C43  1  0.46073800  0.12058600  0.50305900  1
  C  C44  1  0.41067800  0.00401500  0.11749100  1
  C  C45  1  0.36602400  0.78006700  0.57961300  1
  C  C46  1  0.81099800  0.41974600  0.91050800  1
  C  C47  1  0.10932500  0.13067200  0.26673800  1
  C  C48  1  0.33783200  0.62559800  0.46380500  1
  C  C49  1  0.97570400  0.67038700  0.46993300  1
  C  C50  1  0.98326200  0.75673500  0.14067500  1
  C  C51  1  0.13067200  0.10932500  0.49326500  1
  C  C52  1  0.33438300  0.74694100  0.12941400  1
  C  C53  1  0.67723500  0.78619500  0.62440200  1
  C  C54  1  0.12058600  0.46073800  0.91561700  1
  C  C55  1  0.78006700  0.36602400  0.27429600  1
  C  C56  1  0.31305600  0.09464900  0.80905600  1
  C  C57  1  0.62559800  0.33783200  0.57276500  1
  C  C58  1  0.75673500  0.98326200  0.11932800  1
  C  C59  1  0.39125200  0.33949200  0.83025400  1
  C  C60  1  0.05418400  0.98885900  0.17911600  1
  C  C61  1  0.09464900  0.31305600  0.78323900  1
  C  C62  1  0.44094400  0.46676100  0.93694400  1
  C  C63  1  0.33949200  0.39125200  0.43900200  1
  C  C64  1  0.41974600  0.81099800  0.85874800  1
  C  C65  1  0.46676100  0.44094400  0.15535100  1
