# generated using pymatgen
data_CuNiC12
_symmetry_space_group_name_H-M   'P 1'
_cell_length_a   5.89666900
_cell_length_b   7.25734100
_cell_length_c   19.93450599
_cell_angle_alpha   82.47652951
_cell_angle_beta   90.00000000
_cell_angle_gamma   90.00000000
_symmetry_Int_Tables_number   1
_chemical_formula_structural   CuNiC12
_chemical_formula_sum   'Cu4 Ni4 C48'
_cell_volume   845.73609272
_cell_formula_units_Z   4
loop_
 _symmetry_equiv_pos_site_id
 _symmetry_equiv_pos_as_xyz
  1  'x, y, z'
loop_
 _atom_site_type_symbol
 _atom_site_label
 _atom_site_symmetry_multiplicity
 _atom_site_fract_x
 _atom_site_fract_y
 _atom_site_fract_z
 _atom_site_occupancy
  C  C0  1  0.74942900  0.50107400  0.13504800  1
  C  C1  1  0.27999400  0.28814200  0.04613500  1
  C  C2  1  0.24944900  0.97531700  0.40300000  1
  C  C3  1  0.77999400  0.71185800  0.45386500  1
  C  C4  1  0.24942900  0.49892600  0.36495200  1
  C  C5  1  0.71498700  0.14042500  0.79098500  1
  C  C6  1  0.22000600  0.28814200  0.54613500  1
  C  C7  1  0.78501300  0.14042500  0.29098500  1
  C  C8  1  0.75057100  0.50107400  0.63504800  1
  C  C9  1  0.75055100  0.02468300  0.59700000  1
  C  C10  1  0.25057100  0.49892600  0.86495200  1
  C  C11  1  0.25055100  0.97531700  0.90300000  1
  C  C12  1  0.72000600  0.71185800  0.95386500  1
  C  C13  1  0.21498700  0.85957500  0.70901500  1
  C  C14  1  0.74944900  0.02468300  0.09700000  1
  C  C15  1  0.28501300  0.85957500  0.20901500  1
  Ni  Ni16  1  0.25819200  0.33870500  0.21069000  1
  Ni  Ni17  1  0.24180800  0.33870500  0.71069000  1
  Ni  Ni18  1  0.74180800  0.66129500  0.78931000  1
  Ni  Ni19  1  0.75819200  0.66129500  0.28931000  1
  Cu  Cu20  1  0.78485400  0.26694700  0.94290100  1
  Cu  Cu21  1  0.71514600  0.26694700  0.44290100  1
  Cu  Cu22  1  0.28485400  0.73305300  0.55709900  1
  Cu  Cu23  1  0.21514600  0.73305300  0.05709900  1
  C  C24  1  0.83909000  0.06091600  0.42086800  1
  C  C25  1  0.58543400  0.75171900  0.55703000  1
  C  C26  1  0.51240400  0.49813200  0.74380200  1
  C  C27  1  0.72001300  0.82262400  0.20540100  1
  C  C28  1  0.01240400  0.50186800  0.75619800  1
  C  C29  1  0.33909000  0.93908400  0.07913200  1
  C  C30  1  0.53122300  0.78777700  0.33942400  1
  C  C31  1  0.03122300  0.21222300  0.16057600  1
  C  C32  1  0.69755400  0.33578700  0.02200900  1
  C  C33  1  0.20915700  0.54942000  0.62459300  1
  C  C34  1  0.49004400  0.79676400  0.82164300  1
  C  C35  1  0.08543400  0.24828100  0.94297000  1
  C  C36  1  0.96877700  0.78777700  0.83942400  1
  C  C37  1  0.27998700  0.17737600  0.79459900  1
  C  C38  1  0.48759600  0.50186800  0.25619800  1
  C  C39  1  0.80244600  0.33578700  0.52200900  1
  C  C40  1  0.66091000  0.06091600  0.92086800  1
  C  C41  1  0.00995600  0.79676400  0.32164300  1
  C  C42  1  0.41456600  0.24828100  0.44297000  1
  C  C43  1  0.70915700  0.45058000  0.87540700  1
  C  C44  1  0.79084300  0.45058000  0.37540700  1
  C  C45  1  0.99004400  0.20323600  0.67835700  1
  C  C46  1  0.16091000  0.93908400  0.57913200  1
  C  C47  1  0.91456600  0.75171900  0.05703000  1
  C  C48  1  0.98759600  0.49813200  0.24380200  1
  C  C49  1  0.19755400  0.66421300  0.47799100  1
  C  C50  1  0.30244600  0.66421300  0.97799100  1
  C  C51  1  0.46877700  0.21222300  0.66057600  1
  C  C52  1  0.50995600  0.20323600  0.17835700  1
  C  C53  1  0.22001300  0.17737600  0.29459900  1
  C  C54  1  0.29084300  0.54942000  0.12459300  1
  C  C55  1  0.77998700  0.82262400  0.70540100  1
