# generated using pymatgen
data_Cu20Ni5C6
_symmetry_space_group_name_H-M   'P 1'
_cell_length_a   9.96628500
_cell_length_b   13.64958725
_cell_length_c   15.17121640
_cell_angle_alpha   101.35519162
_cell_angle_beta   96.01724457
_cell_angle_gamma   102.43534136
_symmetry_Int_Tables_number   1
_chemical_formula_structural   Cu20Ni5C6
_chemical_formula_sum   'Cu80 Ni20 C24'
_cell_volume   1952.45629171
_cell_formula_units_Z   4
loop_
 _symmetry_equiv_pos_site_id
 _symmetry_equiv_pos_as_xyz
  1  'x, y, z'
loop_
 _atom_site_type_symbol
 _atom_site_label
 _atom_site_symmetry_multiplicity
 _atom_site_fract_x
 _atom_site_fract_y
 _atom_site_fract_z
 _atom_site_occupancy
  C  C0  1  0.13807500  0.68775400  0.27546900  1
  C  C1  1  0.04457900  0.62247400  0.93886800  1
  C  C2  1  0.41801200  0.89014800  0.05743900  1
  C  C3  1  0.88071400  0.95571400  0.68658500  1
  C  C4  1  0.37150900  0.41818500  0.65579700  1
  C  C5  1  0.33032400  0.79578600  0.68541800  1
  C  C6  1  0.62849100  0.58181500  0.34420300  1
  C  C7  1  0.86192500  0.31224600  0.72453100  1
  C  C8  1  0.76296800  0.84900900  0.27231600  1
  C  C9  1  0.58198800  0.10985200  0.94256100  1
  C  C10  1  0.95542100  0.37752600  0.06113200  1
  C  C11  1  0.11928600  0.04428600  0.31341500  1
  C  C12  1  0.69063800  0.65312700  0.69163600  1
  C  C13  1  0.23703200  0.15099100  0.72768400  1
  C  C14  1  0.66967600  0.20421400  0.31458200  1
  C  C15  1  0.30936200  0.34687300  0.30836400  1
  C  C16  1  0.98947700  0.58568900  0.48460700  1
  C  C17  1  0.61814900  0.05877700  0.50454900  1
  C  C18  1  0.38185100  0.94122300  0.49545100  1
  C  C19  1  0.51411300  0.58512900  0.97676200  1
  C  C20  1  0.89488200  0.93064700  0.95674600  1
  C  C21  1  0.10511800  0.06935300  0.04325400  1
  C  C22  1  0.01052300  0.41431100  0.51539300  1
  C  C23  1  0.48588700  0.41487100  0.02323800  1
  Ni  Ni24  1  0.57281500  0.79050400  0.87727000  1
  Ni  Ni25  1  0.94912300  0.41349900  0.30785100  1
  Ni  Ni26  1  0.64051000  0.42808200  0.85529000  1
  Ni  Ni27  1  0.37754100  0.17060100  0.49249300  1
  Ni  Ni28  1  0.53403700  0.05021700  0.69282500  1
  Ni  Ni29  1  0.23494800  0.42162800  0.88631400  1
  Ni  Ni30  1  0.42718500  0.20949600  0.12273000  1
  Ni  Ni31  1  0.76505200  0.57837200  0.11368600  1
  Ni  Ni32  1  0.46596300  0.94978300  0.30717500  1
  Ni  Ni33  1  0.93159700  0.14260100  0.89819600  1
  Ni  Ni34  1  0.35949000  0.57191800  0.14471000  1
  Ni  Ni35  1  0.29185500  0.55199800  0.49058800  1
  Ni  Ni36  1  0.16098300  0.93079200  0.86852400  1
  Ni  Ni37  1  0.05087700  0.58650100  0.69214900  1
  Ni  Ni38  1  0.95897500  0.16671300  0.53077800  1
  Ni  Ni39  1  0.83901700  0.06920800  0.13147600  1
  Ni  Ni40  1  0.62245900  0.82939900  0.50750700  1
  Ni  Ni41  1  0.04102500  0.83328700  0.46922200  1
  Ni  Ni42  1  0.06840300  0.85739900  0.10180400  1
  Ni  Ni43  1  0.70814500  0.44800200  0.50941200  1
  Cu  Cu44  1  0.28282700  0.37035600  0.96207100  1
  Cu  Cu45  1  0.57876200  0.52432600  0.85866700  1
  Cu  Cu46  1  0.35306900  0.60122100  0.58450600  1
  Cu  Cu47  1  0.98350100  0.12214700  0.60991300  1
  Cu  Cu48  1  0.42123800  0.47567400  0.14133300  1
  Cu  Cu49  1  0.08498700  0.48285900  0.64943100  1
  Cu  Cu50  1  0.00608600  0.88587900  0.55331600  1
  Cu  Cu51  1  0.50355700  0.72097900  0.79028400  1
  Cu  Cu52  1  0.79380600  0.05544300  0.21737300  1
  Cu  Cu53  1  0.81236500  0.39150800  0.54656800  1
  Cu  Cu54  1  0.93918700  0.34700600  0.38059600  1
  Cu  Cu55  1  0.03417800  0.17783100  0.98848400  1
  Cu  Cu56  1  0.99865500  0.90237100  0.84887800  1
  Cu  Cu57  1  0.50539200  0.12018900  0.76995700  1
  Cu  Cu58  1  0.49460800  0.87981100  0.23004300  1
  Cu  Cu59  1  0.15215300  0.78198500  0.10165500  1
  Cu  Cu60  1  0.96582200  0.82216900  0.01151600  1
  Cu  Cu61  1  0.46344900  0.10970600  0.10449900  1
  Cu  Cu62  1  0.46372700  0.25756600  0.04310800  1
  Cu  Cu63  1  0.59918400  0.97065900  0.71402100  1
  Cu  Cu64  1  0.61005100  0.99950900  0.36873000  1
  Cu  Cu65  1  0.49644300  0.27902100  0.20971600  1
  Cu  Cu66  1  0.27111300  0.19565300  0.12637500  1
  Cu  Cu67  1  0.37495300  0.21653200  0.58695500  1
  Cu  Cu68  1  0.20781500  0.03877500  0.93457400  1
  Cu  Cu69  1  0.80851000  0.17656600  0.51583900  1
  Cu  Cu70  1  0.99500600  0.87161600  0.17954800  1
  Cu  Cu71  1  0.83871000  0.36002900  0.23309800  1
  Cu  Cu72  1  0.78539400  0.45744100  0.89817500  1
  Cu  Cu73  1  0.79218500  0.96122500  0.06542600  1
  Cu  Cu74  1  0.70595800  0.94377500  0.53182100  1
  Cu  Cu75  1  0.40081600  0.02934100  0.28597900  1
  Cu  Cu76  1  0.00134500  0.09762900  0.15112200  1
  Cu  Cu77  1  0.62504700  0.78346800  0.41304500  1
  Cu  Cu78  1  0.52865200  0.17209400  0.47523100  1
  Cu  Cu79  1  0.21460600  0.54255900  0.10182500  1
  Cu  Cu80  1  0.44971300  0.64457100  0.09515500  1
  Cu  Cu81  1  0.53655100  0.89029400  0.89550100  1
  Cu  Cu82  1  0.60988600  0.45689300  0.57296100  1
  Cu  Cu83  1  0.17100900  0.96032500  0.10000000  1
  Cu  Cu84  1  0.06081300  0.65299400  0.61940400  1
  Cu  Cu85  1  0.79054600  0.56096700  0.51415100  1
  Cu  Cu86  1  0.00499400  0.12838400  0.82045200  1
  Cu  Cu87  1  0.31926000  0.21977200  0.42616300  1
  Cu  Cu88  1  0.37460800  0.88207000  0.35999700  1
  Cu  Cu89  1  0.64693100  0.39877900  0.41549400  1
  Cu  Cu90  1  0.47134800  0.82790600  0.52476900  1
  Cu  Cu91  1  0.72888700  0.80434700  0.87362500  1
  Cu  Cu92  1  0.62539200  0.11793000  0.64000300  1
  Cu  Cu93  1  0.38314500  0.62423000  0.24028200  1
  Cu  Cu94  1  0.99391400  0.11412100  0.44668400  1
  Cu  Cu95  1  0.73576700  0.62976600  0.20075900  1
  Cu  Cu96  1  0.38994900  0.00049100  0.63127000  1
  Cu  Cu97  1  0.82899100  0.03967500  0.90000000  1
  Cu  Cu98  1  0.08811900  0.43363600  0.28290000  1
  Cu  Cu99  1  0.55028700  0.35542900  0.90484500  1
  Cu  Cu100  1  0.39011400  0.54310700  0.42703900  1
  Cu  Cu101  1  0.91501300  0.51714100  0.35056900  1
  Cu  Cu102  1  0.53627300  0.74243400  0.95689200  1
  Cu  Cu103  1  0.04388300  0.27908800  0.56088900  1
  Cu  Cu104  1  0.20972600  0.85432500  0.90836400  1
  Cu  Cu105  1  0.61685500  0.37577000  0.75971800  1
  Cu  Cu106  1  0.68803400  0.46264800  0.08797600  1
  Cu  Cu107  1  0.91214500  0.58150500  0.11203900  1
  Cu  Cu108  1  0.29404200  0.05622500  0.46817900  1
  Cu  Cu109  1  0.08785500  0.41849500  0.88796100  1
  Cu  Cu110  1  0.31196600  0.53735200  0.91202400  1
  Cu  Cu111  1  0.20945400  0.43903300  0.48584900  1
  Cu  Cu112  1  0.95611700  0.72091200  0.43911100  1
  Cu  Cu113  1  0.68074000  0.78022800  0.57383700  1
  Cu  Cu114  1  0.79027400  0.14567500  0.09163600  1
  Cu  Cu115  1  0.19149000  0.82343400  0.48416100  1
  Cu  Cu116  1  0.18763500  0.60849200  0.45343200  1
  Cu  Cu117  1  0.01649900  0.87785300  0.39008700  1
  Cu  Cu118  1  0.16129000  0.63997100  0.76690200  1
  Cu  Cu119  1  0.26423300  0.37023400  0.79924100  1
  Cu  Cu120  1  0.91188100  0.56636400  0.71710000  1
  Cu  Cu121  1  0.84784700  0.21801500  0.89834500  1
  Cu  Cu122  1  0.20619400  0.94455700  0.78262700  1
  Cu  Cu123  1  0.71717300  0.62964400  0.03792900  1
