# generated using pymatgen
data_CuNi2C9
_symmetry_space_group_name_H-M   'P 1'
_cell_length_a   7.21905541
_cell_length_b   7.21905541
_cell_length_c   15.25878583
_cell_angle_alpha   84.80083531
_cell_angle_beta   84.80083531
_cell_angle_gamma   59.78056205
_symmetry_Int_Tables_number   1
_chemical_formula_structural   CuNi2C9
_chemical_formula_sum   'Cu4 Ni8 C36'
_cell_volume   683.37874750
_cell_formula_units_Z   4
loop_
 _symmetry_equiv_pos_site_id
 _symmetry_equiv_pos_as_xyz
  1  'x, y, z'
loop_
 _atom_site_type_symbol
 _atom_site_label
 _atom_site_symmetry_multiplicity
 _atom_site_fract_x
 _atom_site_fract_y
 _atom_site_fract_z
 _atom_site_occupancy
  C  C0  1  0.15035600  0.90725200  0.11554700  1
  C  C1  1  0.90725200  0.15035600  0.61554700  1
  C  C2  1  0.84964400  0.09274800  0.88445300  1
  C  C3  1  0.09274800  0.84964400  0.38445300  1
  Ni  Ni4  1  0.62157200  0.87572200  0.24668100  1
  Ni  Ni5  1  0.19138200  0.45484500  0.93665100  1
  Ni  Ni6  1  0.45484500  0.19138200  0.43665100  1
  Ni  Ni7  1  0.37842800  0.12427800  0.75331900  1
  Ni  Ni8  1  0.80861800  0.54515500  0.06334900  1
  Ni  Ni9  1  0.87572200  0.62157200  0.74668100  1
  Ni  Ni10  1  0.12427800  0.37842800  0.25331900  1
  Ni  Ni11  1  0.54515500  0.80861800  0.56334900  1
  Cu  Cu12  1  0.71360500  0.48849600  0.39410300  1
  Cu  Cu13  1  0.51150400  0.28639500  0.10589700  1
  Cu  Cu14  1  0.48849600  0.71360500  0.89410300  1
  Cu  Cu15  1  0.28639500  0.51150400  0.60589700  1
  C  C16  1  0.40481800  0.24553500  0.03197400  1
  C  C17  1  0.25458500  0.41376900  0.35493700  1
  C  C18  1  0.67313400  0.07138800  0.15294300  1
  C  C19  1  0.32686600  0.92861200  0.84705700  1
  C  C20  1  0.97998200  0.33972000  0.15873600  1
  C  C21  1  0.56109900  0.66147800  0.32664400  1
  C  C22  1  0.00000800  0.33284400  0.97210500  1
  C  C23  1  0.66147800  0.56109900  0.82664400  1
  C  C24  1  0.43890100  0.33852200  0.67335600  1
  C  C25  1  0.24553500  0.40481800  0.53197400  1
  C  C26  1  0.92861200  0.32686600  0.34705700  1
  C  C27  1  0.06065800  0.30491900  0.75345700  1
  C  C28  1  0.02001800  0.66028000  0.84126400  1
  C  C29  1  0.33852200  0.43890100  0.17335600  1
  C  C30  1  0.99999200  0.66715600  0.02789500  1
  C  C31  1  0.30491900  0.06065800  0.25345700  1
  C  C32  1  0.38229700  0.64687400  0.56217000  1
  C  C33  1  0.66715600  0.99999200  0.52789500  1
  C  C34  1  0.33284400  0.00000800  0.47210500  1
  C  C35  1  0.35312600  0.61770300  0.93783000  1
  C  C36  1  0.69508100  0.93934200  0.74654300  1
  C  C37  1  0.66028000  0.02001800  0.34126400  1
  C  C38  1  0.74541500  0.58623100  0.64506300  1
  C  C39  1  0.64687400  0.38229700  0.06217000  1
  C  C40  1  0.59518200  0.75446500  0.96802600  1
  C  C41  1  0.33972000  0.97998200  0.65873600  1
  C  C42  1  0.75446500  0.59518200  0.46802600  1
  C  C43  1  0.61770300  0.35312600  0.43783000  1
  C  C44  1  0.58623100  0.74541500  0.14506300  1
  C  C45  1  0.07138800  0.67313400  0.65294300  1
  C  C46  1  0.93934200  0.69508100  0.24654300  1
  C  C47  1  0.41376900  0.25458500  0.85493700  1
