# generated using pymatgen
data_CuNiC5
_symmetry_space_group_name_H-M   'P 1'
_cell_length_a   10.05474518
_cell_length_b   10.05474518
_cell_length_c   16.41402029
_cell_angle_alpha   82.31185714
_cell_angle_beta   82.31185714
_cell_angle_gamma   58.90120848
_symmetry_Int_Tables_number   1
_chemical_formula_structural   CuNiC5
_chemical_formula_sum   'Cu16 Ni16 C80'
_cell_volume   1404.05793914
_cell_formula_units_Z   16
loop_
 _symmetry_equiv_pos_site_id
 _symmetry_equiv_pos_as_xyz
  1  'x, y, z'
loop_
 _atom_site_type_symbol
 _atom_site_label
 _atom_site_symmetry_multiplicity
 _atom_site_fract_x
 _atom_site_fract_y
 _atom_site_fract_z
 _atom_site_occupancy
  C  C0  1  0.68681200  0.85979300  0.49866500  1
  C  C1  1  0.18721400  0.80043300  0.49721300  1
  C  C2  1  0.24034000  0.91917100  0.74689200  1
  C  C3  1  0.79619200  0.43116600  0.74757800  1
  C  C4  1  0.18869300  0.29840200  0.49657200  1
  C  C5  1  0.29840200  0.18869300  0.99657200  1
  C  C6  1  0.29806000  0.42329100  0.74725800  1
  C  C7  1  0.42329100  0.29806000  0.24725800  1
  C  C8  1  0.43116600  0.79619200  0.24757800  1
  C  C9  1  0.80043300  0.18721400  0.99721300  1
  C  C10  1  0.85979300  0.68681200  0.99866500  1
  C  C11  1  0.92572300  0.74005400  0.24848900  1
  C  C12  1  0.91917100  0.24034000  0.24689200  1
  C  C13  1  0.36061600  0.68733400  0.99743900  1
  C  C14  1  0.68733400  0.36061600  0.49743900  1
  C  C15  1  0.74005400  0.92572300  0.74848900  1
  Ni  Ni16  1  0.23255700  0.05424900  0.37080700  1
  Ni  Ni17  1  0.99572400  0.67450400  0.62223100  1
  Ni  Ni18  1  0.61936600  0.49473100  0.12142200  1
  Ni  Ni19  1  0.48869500  0.12042300  0.62133700  1
  Ni  Ni20  1  0.61799900  0.72942800  0.87274700  1
  Ni  Ni21  1  0.72942800  0.61799900  0.37274700  1
  Ni  Ni22  1  0.12042300  0.48869500  0.12133700  1
  Ni  Ni23  1  0.49473100  0.61936600  0.62142200  1
  Ni  Ni24  1  0.17395300  0.99101300  0.12086100  1
  Ni  Ni25  1  0.05424900  0.23255700  0.87080700  1
  Ni  Ni26  1  0.23072700  0.55449100  0.37257900  1
  Ni  Ni27  1  0.11550000  0.73300700  0.87189400  1
  Ni  Ni28  1  0.55449100  0.23072700  0.87257900  1
  Ni  Ni29  1  0.73300700  0.11550000  0.37189400  1
  Ni  Ni30  1  0.99101300  0.17395300  0.62086100  1
  Ni  Ni31  1  0.67450400  0.99572400  0.12223100  1
  Cu  Cu32  1  0.95642800  0.58318300  0.81107400  1
  Cu  Cu33  1  0.08187200  0.39793600  0.30914100  1
  Cu  Cu34  1  0.51811600  0.83468600  0.06017300  1
  Cu  Cu35  1  0.89840500  0.08534900  0.80906500  1
  Cu  Cu36  1  0.45506700  0.58160400  0.81079600  1
  Cu  Cu37  1  0.58160400  0.45506700  0.31079600  1
  Cu  Cu38  1  0.01743500  0.83151900  0.06017900  1
  Cu  Cu39  1  0.96121800  0.33337600  0.05821800  1
  Cu  Cu40  1  0.46294200  0.33479500  0.05871900  1
  Cu  Cu41  1  0.33337600  0.96121800  0.55821800  1
  Cu  Cu42  1  0.39793600  0.08187200  0.80914100  1
  Cu  Cu43  1  0.83468600  0.51811600  0.56017300  1
  Cu  Cu44  1  0.33479500  0.46294200  0.55871900  1
  Cu  Cu45  1  0.83151900  0.01743500  0.56017900  1
  Cu  Cu46  1  0.58318300  0.95642800  0.31107400  1
  Cu  Cu47  1  0.08534900  0.89840500  0.30906500  1
  C  C48  1  0.86091800  0.65900500  0.54846700  1
  C  C49  1  0.99374900  0.36615100  0.57288600  1
  C  C50  1  0.99255200  0.86868500  0.57385900  1
  C  C51  1  0.55783000  0.11732300  0.32654600  1
  C  C52  1  0.15591800  0.40351400  0.38534900  1
  C  C53  1  0.58099800  0.25763000  0.98433900  1
  C  C54  1  0.19301200  0.39168200  0.23192800  1
  C  C55  1  0.21407900  0.02353200  0.63454300  1
  C  C56  1  0.52984600  0.71989400  0.13670800  1
  C  C57  1  0.06785400  0.75222000  0.32042700  1
  C  C58  1  0.25763000  0.58099800  0.48433900  1
  C  C59  1  0.33695600  0.66069300  0.88496500  1
  C  C60  1  0.89137500  0.20159300  0.73465300  1
  C  C61  1  0.40351400  0.15591800  0.88534900  1
  C  C62  1  0.47196700  0.42319600  0.79796200  1
  C  C63  1  0.75222000  0.06785400  0.82042700  1
  C  C64  1  0.25257200  0.06308800  0.82116300  1
  C  C65  1  0.49130300  0.44869400  0.57350500  1
  C  C66  1  0.79755800  0.36691800  0.04204700  1
  C  C67  1  0.36615100  0.99374900  0.07288600  1
  C  C68  1  0.75984600  0.51390900  0.48414600  1
  C  C69  1  0.88956700  0.69986800  0.73451600  1
  C  C70  1  0.30037700  0.36539400  0.04240000  1
  C  C71  1  0.61533300  0.55760300  0.82658200  1
  C  C72  1  0.06308800  0.25257200  0.32116300  1
  C  C73  1  0.92287200  0.04502000  0.29497200  1
  C  C74  1  0.90707500  0.15289000  0.88709800  1
  C  C75  1  0.36539400  0.30037700  0.54240000  1
  C  C76  1  0.54702800  0.92033100  0.79696800  1
  C  C77  1  0.97369600  0.42557500  0.79573100  1
  C  C78  1  0.65601100  0.83929700  0.38666700  1
  C  C79  1  0.39168200  0.19301200  0.73192800  1
  C  C80  1  0.42557500  0.97369600  0.29573100  1
  C  C81  1  0.69156200  0.39081800  0.23161600  1
  C  C82  1  0.07881300  0.25982500  0.98311500  1
  C  C83  1  0.39081800  0.69156200  0.73161600  1
  C  C84  1  0.85351100  0.16099500  0.54925900  1
  C  C85  1  0.42319600  0.47196700  0.29796200  1
  C  C86  1  0.36691800  0.79755800  0.54204700  1
  C  C87  1  0.52528900  0.21985400  0.13665000  1
  C  C88  1  0.44869400  0.49130300  0.07350500  1
  C  C89  1  0.02353200  0.21407900  0.13454300  1
  C  C90  1  0.20159300  0.89137500  0.23465300  1
  C  C91  1  0.04502000  0.92287200  0.79497200  1
  C  C92  1  0.71490200  0.02657600  0.63510700  1
  C  C93  1  0.66069300  0.33695600  0.38496500  1
  C  C94  1  0.69986800  0.88956700  0.23451600  1
  C  C95  1  0.83929700  0.65601100  0.88666700  1
  C  C96  1  0.71989400  0.52984600  0.63670800  1
  C  C97  1  0.11732300  0.55783000  0.82654600  1
  C  C98  1  0.21985400  0.52528900  0.63665000  1
  C  C99  1  0.86868500  0.99255200  0.07385900  1
  C  C100  1  0.48852900  0.94804000  0.57484000  1
  C  C101  1  0.16099500  0.85351100  0.04925900  1
  C  C102  1  0.65900500  0.86091800  0.04846700  1
  C  C103  1  0.15289000  0.90707500  0.38709800  1
  C  C104  1  0.55760300  0.61533300  0.32658200  1
  C  C105  1  0.92033100  0.54702800  0.29696800  1
  C  C106  1  0.25982500  0.07881300  0.48311500  1
  C  C107  1  0.02657600  0.71490200  0.13510700  1
  C  C108  1  0.01058500  0.76171400  0.98283300  1
  C  C109  1  0.76171400  0.01058500  0.48283300  1
  C  C110  1  0.51390900  0.75984600  0.98414600  1
  C  C111  1  0.94804000  0.48852900  0.07484000  1
