# generated using pymatgen
data_Cu3NiC7
_symmetry_space_group_name_H-M   'P 1'
_cell_length_a   9.38823064
_cell_length_b   9.38823064
_cell_length_c   9.38823064
_cell_angle_alpha   103.41750413
_cell_angle_beta   103.41750413
_cell_angle_gamma   122.40563555
_symmetry_Int_Tables_number   1
_chemical_formula_structural   Cu3NiC7
_chemical_formula_sum   'Cu12 Ni4 C28'
_cell_volume   612.21385789
_cell_formula_units_Z   4
loop_
 _symmetry_equiv_pos_site_id
 _symmetry_equiv_pos_as_xyz
  1  'x, y, z'
loop_
 _atom_site_type_symbol
 _atom_site_label
 _atom_site_symmetry_multiplicity
 _atom_site_fract_x
 _atom_site_fract_y
 _atom_site_fract_z
 _atom_site_occupancy
  C  C0  1  0.62500000  0.85090600  0.72590600  1
  C  C1  1  0.10090600  0.37500000  0.22590600  1
  C  C2  1  0.12500000  0.89909400  0.27409400  1
  C  C3  1  0.14909400  0.87500000  0.77409400  1
  Ni  Ni4  1  0.56248900  0.87500000  0.18748900  1
  Ni  Ni5  1  0.68751100  0.37500000  0.81251100  1
  Ni  Ni6  1  0.12500000  0.31248900  0.68748900  1
  Ni  Ni7  1  0.62500000  0.43751100  0.31251100  1
  Cu  Cu8  1  0.54159700  0.87332200  0.33252900  1
  Cu  Cu9  1  0.62500000  0.55759500  0.43259500  1
  Cu  Cu10  1  0.70840300  0.54093100  0.83172400  1
  Cu  Cu11  1  0.70920700  0.87667800  0.16827600  1
  Cu  Cu12  1  0.12332200  0.29159700  0.83252900  1
  Cu  Cu13  1  0.12500000  0.19240500  0.56740500  1
  Cu  Cu14  1  0.12667800  0.45920700  0.66827600  1
  Cu  Cu15  1  0.54079300  0.20906900  0.66747100  1
  Cu  Cu16  1  0.44240500  0.87500000  0.06740500  1
  Cu  Cu17  1  0.79093100  0.45840300  0.33172400  1
  Cu  Cu18  1  0.80759500  0.37500000  0.93259500  1
  Cu  Cu19  1  0.45906900  0.29079300  0.16747100  1
  C  C20  1  0.47752300  0.24851600  0.04023500  1
  C  C21  1  0.49851600  0.22752300  0.54023500  1
  C  C22  1  0.44933400  0.85243100  0.93276400  1
  C  C23  1  0.20828100  0.43728800  0.95976500  1
  C  C24  1  0.68728800  0.95828100  0.45976500  1
  C  C25  1  0.10243100  0.19933400  0.43276400  1
  C  C26  1  0.21049800  0.53876500  0.59247800  1
  C  C27  1  0.76657000  0.66966700  0.56723600  1
  C  C28  1  0.78876500  0.96049800  0.09247800  1
  C  C29  1  0.94628800  0.61802000  0.40752200  1
  C  C30  1  0.80066600  0.23343000  0.90309700  1
  C  C31  1  0.33033300  0.89756900  0.09690300  1
  C  C32  1  0.91966700  0.51657000  0.06723600  1
  C  C33  1  0.04171900  0.50148400  0.72900700  1
  C  C34  1  0.03950200  0.13198000  0.82826800  1
  C  C35  1  0.75148400  0.79171900  0.22900700  1
  C  C36  1  0.38198000  0.78950200  0.32826800  1
  C  C37  1  0.48343000  0.55066600  0.40309700  1
  C  C38  1  0.14756900  0.08033300  0.59690300  1
  C  C39  1  0.86802000  0.69628800  0.90752200  1
  C  C40  1  0.30371200  0.21123500  0.17173200  1
  C  C41  1  0.56271200  0.52247700  0.77099300  1
  C  C42  1  0.77247700  0.31271200  0.27099300  1
  C  C43  1  0.46123500  0.05371200  0.67173200  1
