# generated using pymatgen
data_Cu2Ni4C3
_symmetry_space_group_name_H-M   'P 1'
_cell_length_a   12.44168400
_cell_length_b   5.26642400
_cell_length_c   7.83870127
_cell_angle_alpha   62.44052465
_cell_angle_beta   90.00000000
_cell_angle_gamma   90.00000000
_symmetry_Int_Tables_number   1
_chemical_formula_structural   Cu2Ni4C3
_chemical_formula_sum   'Cu8 Ni16 C12'
_cell_volume   455.33711202
_cell_formula_units_Z   4
loop_
 _symmetry_equiv_pos_site_id
 _symmetry_equiv_pos_as_xyz
  1  'x, y, z'
loop_
 _atom_site_type_symbol
 _atom_site_label
 _atom_site_symmetry_multiplicity
 _atom_site_fract_x
 _atom_site_fract_y
 _atom_site_fract_z
 _atom_site_occupancy
  C  C0  1  0.79377200  0.85451000  0.68752900  1
  C  C1  1  0.20622800  0.14549000  0.31247100  1
  C  C2  1  0.29377200  0.14549000  0.81247100  1
  C  C3  1  0.70622800  0.85451000  0.18752900  1
  C  C4  1  0.00000000  0.00000000  0.00000000  1
  C  C5  1  0.50000000  0.00000000  0.50000000  1
  C  C6  1  0.50000000  0.50000000  0.00000000  1
  C  C7  1  0.00000000  0.50000000  0.50000000  1
  C  C8  1  0.61477300  0.37043900  0.69524600  1
  C  C9  1  0.11477300  0.62956100  0.80475400  1
  C  C10  1  0.38522700  0.62956100  0.30475400  1
  C  C11  1  0.88522700  0.37043900  0.19524600  1
  Ni  Ni12  1  0.87724100  0.70416800  0.05777300  1
  Ni  Ni13  1  0.71836100  0.26270200  0.81135700  1
  Ni  Ni14  1  0.28163900  0.73729800  0.18864300  1
  Ni  Ni15  1  0.62275900  0.70416800  0.55777300  1
  Ni  Ni16  1  0.39935600  0.77607500  0.43533100  1
  Ni  Ni17  1  0.51509100  0.31803400  0.82821700  1
  Ni  Ni18  1  0.01509100  0.68196600  0.67178300  1
  Ni  Ni19  1  0.10064400  0.77607500  0.93533100  1
  Ni  Ni20  1  0.78163900  0.26270200  0.31135700  1
  Ni  Ni21  1  0.12275900  0.29583200  0.94222700  1
  Ni  Ni22  1  0.98490900  0.31803400  0.32821700  1
  Ni  Ni23  1  0.60064400  0.22392500  0.56466900  1
  Ni  Ni24  1  0.48490900  0.68196600  0.17178300  1
  Ni  Ni25  1  0.37724100  0.29583200  0.44222700  1
  Ni  Ni26  1  0.21836100  0.73729800  0.68864300  1
  Ni  Ni27  1  0.89935600  0.22392500  0.06466900  1
  Cu  Cu28  1  0.85526500  0.66904500  0.44917500  1
  Cu  Cu29  1  0.35526500  0.33095500  0.05082500  1
  Cu  Cu30  1  0.44063500  0.83997300  0.77176200  1
  Cu  Cu31  1  0.64473500  0.66904500  0.94917500  1
  Cu  Cu32  1  0.14473500  0.33095500  0.55082500  1
  Cu  Cu33  1  0.05936500  0.83997300  0.27176200  1
  Cu  Cu34  1  0.94063500  0.16002700  0.72823800  1
  Cu  Cu35  1  0.55936500  0.16002700  0.22823800  1
