# generated using pymatgen
data_Cu2Ni12C7
_symmetry_space_group_name_H-M   'P 1'
_cell_length_a   10.53827700
_cell_length_b   10.53827700
_cell_length_c   10.53827700
_cell_angle_alpha   90.00000000
_cell_angle_beta   90.00000000
_cell_angle_gamma   90.00000000
_symmetry_Int_Tables_number   1
_chemical_formula_structural   Cu2Ni12C7
_chemical_formula_sum   'Cu8 Ni48 C28'
_cell_volume   1170.33132539
_cell_formula_units_Z   4
loop_
 _symmetry_equiv_pos_site_id
 _symmetry_equiv_pos_as_xyz
  1  'x, y, z'
loop_
 _atom_site_type_symbol
 _atom_site_label
 _atom_site_symmetry_multiplicity
 _atom_site_fract_x
 _atom_site_fract_y
 _atom_site_fract_z
 _atom_site_occupancy
  C  C0  1  0.38702900  0.37500000  0.63702900  1
  C  C1  1  0.63702900  0.38702900  0.37500000  1
  C  C2  1  0.61297100  0.87500000  0.86297100  1
  C  C3  1  0.37500000  0.63702900  0.38702900  1
  C  C4  1  0.87500000  0.86297100  0.61297100  1
  C  C5  1  0.12500000  0.36297100  0.88702900  1
  C  C6  1  0.86297100  0.61297100  0.87500000  1
  C  C7  1  0.88702900  0.12500000  0.36297100  1
  C  C8  1  0.62500000  0.13702900  0.11297100  1
  C  C9  1  0.13702900  0.11297100  0.62500000  1
  C  C10  1  0.11297100  0.62500000  0.13702900  1
  C  C11  1  0.36297100  0.88702900  0.12500000  1
  C  C12  1  0.87630600  0.37369400  0.62500000  1
  C  C13  1  0.37369400  0.62500000  0.87630600  1
  C  C14  1  0.12500000  0.12500000  0.12500000  1
  C  C15  1  0.12369400  0.87369400  0.87500000  1
  C  C16  1  0.87369400  0.87500000  0.12369400  1
  C  C17  1  0.87500000  0.12369400  0.87369400  1
  C  C18  1  0.12500000  0.62369400  0.62630600  1
  C  C19  1  0.37500000  0.87500000  0.62500000  1
  C  C20  1  0.12630600  0.37500000  0.37630600  1
  C  C21  1  0.37630600  0.12630600  0.37500000  1
  C  C22  1  0.62369400  0.62630600  0.12500000  1
  C  C23  1  0.62630600  0.12500000  0.62369400  1
  C  C24  1  0.37500000  0.37630600  0.12630600  1
  C  C25  1  0.62500000  0.37500000  0.87500000  1
  C  C26  1  0.62500000  0.87630600  0.37369400  1
  C  C27  1  0.87500000  0.62500000  0.37500000  1
  Ni  Ni28  1  0.24212700  0.25967100  0.06261400  1
  Ni  Ni29  1  0.75787200  0.75967100  0.43738600  1
  Ni  Ni30  1  0.30385100  0.50161000  0.00429900  1
  Ni  Ni31  1  0.99032900  0.00787300  0.18738600  1
  Ni  Ni32  1  0.74212800  0.24032900  0.93738600  1
  Ni  Ni33  1  0.49570100  0.69614900  0.00161000  1
  Ni  Ni34  1  0.49839000  0.50429900  0.19614900  1
  Ni  Ni35  1  0.81261400  0.49032900  0.49212700  1
  Ni  Ni36  1  0.50967100  0.99212800  0.68738600  1
  Ni  Ni37  1  0.49032900  0.49212700  0.81261400  1
  Ni  Ni38  1  0.25787300  0.74032900  0.56261400  1
  Ni  Ni39  1  0.31261400  0.00967100  0.50787200  1
  Ni  Ni40  1  0.69614900  0.00161000  0.49570100  1
  Ni  Ni41  1  0.99212800  0.68738600  0.50967100  1
  Ni  Ni42  1  0.00161000  0.49570100  0.69614900  1
  Ni  Ni43  1  0.24032900  0.93738600  0.74212800  1
  Ni  Ni44  1  0.80385100  0.99839000  0.99570100  1
  Ni  Ni45  1  0.50429900  0.19614900  0.49839000  1
  Ni  Ni46  1  0.24839000  0.55385100  0.75429900  1
  Ni  Ni47  1  0.00429900  0.30385100  0.50161000  1
  Ni  Ni48  1  0.19614900  0.49839000  0.50429900  1
  Ni  Ni49  1  0.50161000  0.00429900  0.30385100  1
  Ni  Ni50  1  0.24570100  0.74839000  0.94614900  1
  Ni  Ni51  1  0.93738600  0.74212800  0.24032900  1
  Ni  Ni52  1  0.43738600  0.75787200  0.75967100  1
  Ni  Ni53  1  0.05385100  0.74570100  0.75161000  1
  Ni  Ni54  1  0.75161000  0.05385100  0.74570100  1
  Ni  Ni55  1  0.49212700  0.81261400  0.49032900  1
  Ni  Ni56  1  0.75967100  0.43738600  0.75787200  1
  Ni  Ni57  1  0.74032900  0.56261400  0.25787300  1
  Ni  Ni58  1  0.99570100  0.80385100  0.99839000  1
  Ni  Ni59  1  0.55385100  0.75429900  0.24839000  1
  Ni  Ni60  1  0.68738600  0.50967100  0.99212800  1
  Ni  Ni61  1  0.25429900  0.25161000  0.44614900  1
  Ni  Ni62  1  0.18738600  0.99032900  0.00787300  1
  Ni  Ni63  1  0.75429900  0.24839000  0.55385100  1
  Ni  Ni64  1  0.00967100  0.50787200  0.31261400  1
  Ni  Ni65  1  0.56261400  0.25787300  0.74032900  1
  Ni  Ni66  1  0.50787200  0.31261400  0.00967100  1
  Ni  Ni67  1  0.25967100  0.06261400  0.24212700  1
  Ni  Ni68  1  0.25161000  0.44614900  0.25429900  1
  Ni  Ni69  1  0.44614900  0.25429900  0.25161000  1
  Ni  Ni70  1  0.74570100  0.75161000  0.05385100  1
  Ni  Ni71  1  0.74839000  0.94614900  0.24570100  1
  Ni  Ni72  1  0.94614900  0.24570100  0.74839000  1
  Ni  Ni73  1  0.06261400  0.24212700  0.25967100  1
  Ni  Ni74  1  0.00787300  0.18738600  0.99032900  1
  Ni  Ni75  1  0.99839000  0.99570100  0.80385100  1
  Cu  Cu76  1  0.98810400  0.01189600  0.51189600  1
  Cu  Cu77  1  0.01189600  0.51189600  0.98810400  1
  Cu  Cu78  1  0.23810400  0.26189600  0.73810400  1
  Cu  Cu79  1  0.51189600  0.98810400  0.01189600  1
  Cu  Cu80  1  0.73810400  0.23810400  0.26189600  1
  Cu  Cu81  1  0.48810400  0.48810400  0.48810400  1
  Cu  Cu82  1  0.26189600  0.73810400  0.23810400  1
  Cu  Cu83  1  0.76189600  0.76189600  0.76189600  1
