# generated using pymatgen
data_CuNi2C3
_symmetry_space_group_name_H-M   'P 1'
_cell_length_a   13.72007400
_cell_length_b   5.79476900
_cell_length_c   6.92986745
_cell_angle_alpha   66.72478862
_cell_angle_beta   90.00000000
_cell_angle_gamma   90.00000000
_symmetry_Int_Tables_number   1
_chemical_formula_structural   CuNi2C3
_chemical_formula_sum   'Cu4 Ni8 C12'
_cell_volume   506.11847335
_cell_formula_units_Z   4
loop_
 _symmetry_equiv_pos_site_id
 _symmetry_equiv_pos_as_xyz
  1  'x, y, z'
loop_
 _atom_site_type_symbol
 _atom_site_label
 _atom_site_symmetry_multiplicity
 _atom_site_fract_x
 _atom_site_fract_y
 _atom_site_fract_z
 _atom_site_occupancy
  C  C0  1  0.36051300  0.45527000  0.60390000  1
  C  C1  1  0.94217800  0.35208700  0.78611700  1
  C  C2  1  0.13948700  0.95527000  0.60390000  1
  C  C3  1  0.44217800  0.14791300  0.21388300  1
  C  C4  1  0.55782200  0.85208700  0.78611700  1
  C  C5  1  0.86051300  0.04473000  0.39610000  1
  C  C6  1  0.05782200  0.64791300  0.21388300  1
  C  C7  1  0.63948700  0.54473000  0.39610000  1
  C  C8  1  0.31707100  0.83743900  0.97861300  1
  C  C9  1  0.68292900  0.16256100  0.02138700  1
  C  C10  1  0.18292900  0.33743900  0.97861300  1
  C  C11  1  0.81707100  0.66256100  0.02138700  1
  Ni  Ni12  1  0.55830900  0.35217400  0.80840300  1
  Ni  Ni13  1  0.35702100  0.94116700  0.63961700  1
  Ni  Ni14  1  0.85702100  0.55883300  0.36038300  1
  Ni  Ni15  1  0.94169100  0.85217400  0.80840300  1
  Ni  Ni16  1  0.64297900  0.05883300  0.36038300  1
  Ni  Ni17  1  0.14297900  0.44116700  0.63961700  1
  Ni  Ni18  1  0.44169100  0.64782600  0.19159700  1
  Ni  Ni19  1  0.05830900  0.14782600  0.19159700  1
  Cu  Cu20  1  0.70857500  0.86864800  0.97994400  1
  Cu  Cu21  1  0.20857500  0.63135200  0.02005600  1
  Cu  Cu22  1  0.79142500  0.36864800  0.97994400  1
  Cu  Cu23  1  0.29142500  0.13135200  0.02005600  1
