# generated using pymatgen
data_Cu6NiC4
_symmetry_space_group_name_H-M   'P 1'
_cell_length_a   3.49252700
_cell_length_b   6.89016700
_cell_length_c   11.87929300
_cell_angle_alpha   90.00000000
_cell_angle_beta   90.00000000
_cell_angle_gamma   90.00000000
_symmetry_Int_Tables_number   1
_chemical_formula_structural   Cu6NiC4
_chemical_formula_sum   'Cu12 Ni2 C8'
_cell_volume   285.86442676
_cell_formula_units_Z   2
loop_
 _symmetry_equiv_pos_site_id
 _symmetry_equiv_pos_as_xyz
  1  'x, y, z'
loop_
 _atom_site_type_symbol
 _atom_site_label
 _atom_site_symmetry_multiplicity
 _atom_site_fract_x
 _atom_site_fract_y
 _atom_site_fract_z
 _atom_site_occupancy
  Ni  Ni0  1  0.50000000  0.00000000  0.68139100  1
  Ni  Ni1  1  0.00000000  0.50000000  0.31860900  1
  Cu  Cu2  1  0.50000000  0.80592200  0.42385200  1
  Cu  Cu3  1  0.00000000  0.80329100  0.08942100  1
  Cu  Cu4  1  0.50000000  0.30329100  0.91057900  1
  Cu  Cu5  1  0.00000000  0.00000000  0.88407400  1
  Cu  Cu6  1  0.50000000  0.19407800  0.42385200  1
  Cu  Cu7  1  0.00000000  0.19670900  0.08942100  1
  Cu  Cu8  1  0.50000000  0.50000000  0.71879900  1
  Cu  Cu9  1  0.00000000  0.69407800  0.57614800  1
  Cu  Cu10  1  0.00000000  0.30592200  0.57614800  1
  Cu  Cu11  1  0.00000000  0.00000000  0.28120100  1
  Cu  Cu12  1  0.50000000  0.69670900  0.91057900  1
  Cu  Cu13  1  0.50000000  0.50000000  0.11592600  1
  C  C14  1  0.50000000  0.00000000  0.01140400  1
  C  C15  1  0.50000000  0.78294500  0.22631900  1
  C  C16  1  0.50000000  0.21705500  0.22631900  1
  C  C17  1  0.00000000  0.00000000  0.48971400  1
  C  C18  1  0.00000000  0.50000000  0.98859600  1
  C  C19  1  0.50000000  0.50000000  0.51028600  1
  C  C20  1  0.00000000  0.71705500  0.77368100  1
  C  C21  1  0.00000000  0.28294500  0.77368100  1
