# generated using pymatgen
data_Cu3Ni4C13
_symmetry_space_group_name_H-M   'P 1'
_cell_length_a   8.26899200
_cell_length_b   9.78868600
_cell_length_c   14.06553800
_cell_angle_alpha   90.00000000
_cell_angle_beta   90.00000000
_cell_angle_gamma   90.00000000
_symmetry_Int_Tables_number   1
_chemical_formula_structural   Cu3Ni4C13
_chemical_formula_sum   'Cu12 Ni16 C52'
_cell_volume   1138.50074105
_cell_formula_units_Z   4
loop_
 _symmetry_equiv_pos_site_id
 _symmetry_equiv_pos_as_xyz
  1  'x, y, z'
loop_
 _atom_site_type_symbol
 _atom_site_label
 _atom_site_symmetry_multiplicity
 _atom_site_fract_x
 _atom_site_fract_y
 _atom_site_fract_z
 _atom_site_occupancy
  C  C0  1  0.75000000  0.19399000  0.25000000  1
  C  C1  1  0.25000000  0.80601000  0.75000000  1
  C  C2  1  0.25000000  0.30601000  0.75000000  1
  C  C3  1  0.75000000  0.69399000  0.25000000  1
  Ni  Ni4  1  0.60547800  0.69210600  0.94894200  1
  Ni  Ni5  1  0.89452200  0.19210600  0.94894200  1
  Ni  Ni6  1  0.10547800  0.80789400  0.05105800  1
  Ni  Ni7  1  0.41269300  0.00334100  0.14524900  1
  Ni  Ni8  1  0.58730700  0.99665900  0.85475100  1
  Ni  Ni9  1  0.41269300  0.50334100  0.35475100  1
  Ni  Ni10  1  0.39452200  0.30789400  0.05105800  1
  Ni  Ni11  1  0.58730700  0.49665900  0.64524900  1
  Ni  Ni12  1  0.10547800  0.30789400  0.44894200  1
  Ni  Ni13  1  0.89452200  0.69210600  0.55105800  1
  Ni  Ni14  1  0.08730700  0.50334100  0.14524900  1
  Ni  Ni15  1  0.91269300  0.49665900  0.85475100  1
  Ni  Ni16  1  0.39452200  0.80789400  0.44894200  1
  Ni  Ni17  1  0.60547800  0.19210600  0.55105800  1
  Ni  Ni18  1  0.08730700  0.00334100  0.35475100  1
  Ni  Ni19  1  0.91269300  0.99665900  0.64524900  1
  Cu  Cu20  1  0.24584300  0.56560700  0.56479300  1
  Cu  Cu21  1  0.75415700  0.43439300  0.43520700  1
  Cu  Cu22  1  0.25415700  0.06560700  0.56479300  1
  Cu  Cu23  1  0.25000000  0.24602100  0.25000000  1
  Cu  Cu24  1  0.75000000  0.25397900  0.75000000  1
  Cu  Cu25  1  0.74584300  0.93439300  0.43520700  1
  Cu  Cu26  1  0.75000000  0.75397900  0.75000000  1
  Cu  Cu27  1  0.25415700  0.56560700  0.93520700  1
  Cu  Cu28  1  0.24584300  0.06560700  0.93520700  1
  Cu  Cu29  1  0.75415700  0.93439300  0.06479300  1
  Cu  Cu30  1  0.74584300  0.43439300  0.06479300  1
  Cu  Cu31  1  0.25000000  0.74602100  0.25000000  1
  C  C32  1  0.90255700  0.34220300  0.76284200  1
  C  C33  1  0.61860600  0.32409600  0.08742000  1
  C  C34  1  0.38139400  0.67590400  0.91258000  1
  C  C35  1  0.36747400  0.56369000  0.64863000  1
  C  C36  1  0.36747400  0.06369000  0.85137000  1
  C  C37  1  0.73551800  0.15640000  0.83917200  1
  C  C38  1  0.76448200  0.15640000  0.66082800  1
  C  C39  1  0.17082000  0.42385500  0.55154500  1
  C  C40  1  0.82918000  0.07614500  0.05154500  1
  C  C41  1  0.15896100  0.10872400  0.47074300  1
  C  C42  1  0.26448200  0.84360000  0.16082800  1
  C  C43  1  0.88139400  0.32409600  0.41258000  1
  C  C44  1  0.40255700  0.65779700  0.26284200  1
  C  C45  1  0.11860600  0.17590400  0.91258000  1
  C  C46  1  0.17082000  0.92385500  0.94845500  1
  C  C47  1  0.67082000  0.07614500  0.44845500  1
  C  C48  1  0.32918000  0.92385500  0.55154500  1
  C  C49  1  0.59744300  0.84220300  0.76284200  1
  C  C50  1  0.11860600  0.67590400  0.58742000  1
  C  C51  1  0.34103900  0.10872400  0.02925700  1
  C  C52  1  0.38139400  0.17590400  0.58742000  1
  C  C53  1  0.86747400  0.93631000  0.35137000  1
  C  C54  1  0.09744300  0.65779700  0.23715800  1
  C  C55  1  0.88139400  0.82409600  0.08742000  1
  C  C56  1  0.82918000  0.57614500  0.44845500  1
  C  C57  1  0.86747400  0.43631000  0.14863000  1
  C  C58  1  0.63252600  0.43631000  0.35137000  1
  C  C59  1  0.13252600  0.56369000  0.85137000  1
  C  C60  1  0.65896100  0.39127600  0.52925700  1
  C  C61  1  0.15896100  0.60872400  0.02925700  1
  C  C62  1  0.67082000  0.57614500  0.05154500  1
  C  C63  1  0.34103900  0.60872400  0.47074300  1
  C  C64  1  0.09744300  0.15779700  0.26284200  1
  C  C65  1  0.73551800  0.65640000  0.66082800  1
  C  C66  1  0.65896100  0.89127600  0.97074300  1
  C  C67  1  0.63252600  0.93631000  0.14863000  1
  C  C68  1  0.23551800  0.84360000  0.33917200  1
  C  C69  1  0.59744300  0.34220300  0.73715800  1
  C  C70  1  0.84103900  0.39127600  0.97074300  1
  C  C71  1  0.13252600  0.06369000  0.64863000  1
  C  C72  1  0.40255700  0.15779700  0.23715800  1
  C  C73  1  0.23551800  0.34360000  0.16082800  1
  C  C74  1  0.90255700  0.84220300  0.73715800  1
  C  C75  1  0.32918000  0.42385500  0.94845500  1
  C  C76  1  0.26448200  0.34360000  0.33917200  1
  C  C77  1  0.84103900  0.89127600  0.52925700  1
  C  C78  1  0.61860600  0.82409600  0.41258000  1
  C  C79  1  0.76448200  0.65640000  0.83917200  1
