# generated using pymatgen
data_Cu2NiC10
_symmetry_space_group_name_H-M   'P 1'
_cell_length_a   12.92466420
_cell_length_b   12.92466420
_cell_length_c   13.03766797
_cell_angle_alpha   81.72957251
_cell_angle_beta   81.72957251
_cell_angle_gamma   127.69200568
_symmetry_Int_Tables_number   1
_chemical_formula_structural   Cu2NiC10
_chemical_formula_sum   'Cu8 Ni4 C40'
_cell_volume   1629.04260820
_cell_formula_units_Z   4
loop_
 _symmetry_equiv_pos_site_id
 _symmetry_equiv_pos_as_xyz
  1  'x, y, z'
loop_
 _atom_site_type_symbol
 _atom_site_label
 _atom_site_symmetry_multiplicity
 _atom_site_fract_x
 _atom_site_fract_y
 _atom_site_fract_z
 _atom_site_occupancy
  C  C0  1  0.12759500  0.24633200  0.07176800  1
  C  C1  1  0.95821000  0.35847700  0.34670800  1
  C  C2  1  0.39407700  0.79286200  0.32207700  1
  C  C3  1  0.35847700  0.95821000  0.84670800  1
  C  C4  1  0.24633200  0.12759500  0.57176800  1
  C  C5  1  0.74218100  0.85078900  0.01734100  1
  C  C6  1  0.85078900  0.74218100  0.51734100  1
  C  C7  1  0.79286200  0.39407700  0.82207700  1
  Ni  Ni8  1  0.37666200  0.13353800  0.19012100  1
  Ni  Ni9  1  0.49986800  0.73538900  0.68368900  1
  Ni  Ni10  1  0.13353800  0.37666200  0.69012100  1
  Ni  Ni11  1  0.73538900  0.49986800  0.18368900  1
  Cu  Cu12  1  0.40311800  0.45509000  0.20493400  1
  Cu  Cu13  1  0.03698800  0.87154400  0.13354200  1
  Cu  Cu14  1  0.70675800  0.17455400  0.16958800  1
  Cu  Cu15  1  0.75151500  0.07761400  0.74209100  1
  Cu  Cu16  1  0.17455400  0.70675800  0.66958800  1
  Cu  Cu17  1  0.45509000  0.40311800  0.70493400  1
  Cu  Cu18  1  0.87154400  0.03698800  0.63354200  1
  Cu  Cu19  1  0.07761400  0.75151500  0.24209100  1
  C  C20  1  0.25579200  0.22927500  0.28698500  1
  C  C21  1  0.13170200  0.62091400  0.85091300  1
  C  C22  1  0.86155000  0.39959100  0.09639700  1
  C  C23  1  0.49206900  0.47857100  0.52236800  1
  C  C24  1  0.87995200  0.18157900  0.84986800  1
  C  C25  1  0.06973700  0.53302000  0.59887200  1
  C  C26  1  0.23536700  0.52053100  0.84282500  1
  C  C27  1  0.24438100  0.06328700  0.03160800  1
  C  C28  1  0.58592600  0.39504000  0.03231100  1
  C  C29  1  0.22927500  0.25579200  0.78698500  1
  C  C30  1  0.18157900  0.87995200  0.34986800  1
  C  C31  1  0.90424900  0.91662900  0.73370700  1
  C  C32  1  0.78904600  0.06932400  0.18676100  1
  C  C33  1  0.47857100  0.49206900  0.02236800  1
  C  C34  1  0.19237200  0.71335000  0.14294300  1
  C  C35  1  0.94109400  0.74699100  0.02241700  1
  C  C36  1  0.86756900  0.56488900  0.34591000  1
  C  C37  1  0.53860900  0.29857200  0.69815300  1
  C  C38  1  0.58527100  0.59179200  0.75610400  1
  C  C39  1  0.56488900  0.86756900  0.84591000  1
  C  C40  1  0.06932400  0.78904600  0.68676100  1
  C  C41  1  0.62091400  0.13170200  0.35091300  1
  C  C42  1  0.29857200  0.53860900  0.19815300  1
  C  C43  1  0.91662900  0.90424900  0.23370700  1
  C  C44  1  0.74699100  0.94109400  0.52241700  1
  C  C45  1  0.06328700  0.24438100  0.53160800  1
  C  C46  1  0.39504000  0.58592600  0.53231100  1
  C  C47  1  0.59179200  0.58527100  0.25610400  1
  C  C48  1  0.52053100  0.23536700  0.34282500  1
  C  C49  1  0.71335000  0.19237200  0.64294300  1
  C  C50  1  0.53302000  0.06973700  0.09887200  1
  C  C51  1  0.39959100  0.86155000  0.59639700  1
