# generated using pymatgen
data_Cu4NiC4
_symmetry_space_group_name_H-M   'P 1'
_cell_length_a   3.57455600
_cell_length_b   11.46255400
_cell_length_c   14.05060800
_cell_angle_alpha   90.00000000
_cell_angle_beta   90.00000000
_cell_angle_gamma   90.00000000
_symmetry_Int_Tables_number   1
_chemical_formula_structural   Cu4NiC4
_chemical_formula_sum   'Cu16 Ni4 C16'
_cell_volume   575.70316544
_cell_formula_units_Z   4
loop_
 _symmetry_equiv_pos_site_id
 _symmetry_equiv_pos_as_xyz
  1  'x, y, z'
loop_
 _atom_site_type_symbol
 _atom_site_label
 _atom_site_symmetry_multiplicity
 _atom_site_fract_x
 _atom_site_fract_y
 _atom_site_fract_z
 _atom_site_occupancy
  C  C0  1  0.25000000  0.63850100  0.26131200  1
  C  C1  1  0.75000000  0.36149900  0.73868800  1
  C  C2  1  0.25000000  0.13850100  0.23868800  1
  C  C3  1  0.75000000  0.86149900  0.76131200  1
  C  C4  1  0.25000000  0.87578700  0.38271500  1
  C  C5  1  0.75000000  0.12421300  0.61728500  1
  C  C6  1  0.25000000  0.37578700  0.11728500  1
  C  C7  1  0.75000000  0.62421300  0.88271500  1
  C  C8  1  0.25000000  0.37995900  0.54044800  1
  C  C9  1  0.75000000  0.62004100  0.45955200  1
  C  C10  1  0.25000000  0.87995900  0.95955200  1
  C  C11  1  0.75000000  0.12004100  0.04044800  1
  C  C12  1  0.25000000  0.61569200  0.67002500  1
  C  C13  1  0.75000000  0.38430800  0.32997500  1
  C  C14  1  0.25000000  0.11569200  0.82997500  1
  C  C15  1  0.75000000  0.88430800  0.17002500  1
  Ni  Ni16  1  0.25000000  0.86118900  0.58620800  1
  Ni  Ni17  1  0.75000000  0.13881100  0.41379200  1
  Ni  Ni18  1  0.25000000  0.36118900  0.91379200  1
  Ni  Ni19  1  0.75000000  0.63881100  0.08620800  1
  Cu  Cu20  1  0.25000000  0.95416600  0.63201500  1
  Cu  Cu21  1  0.75000000  0.04583400  0.36798500  1
  Cu  Cu22  1  0.25000000  0.45416600  0.86798500  1
  Cu  Cu23  1  0.75000000  0.54583400  0.13201500  1
  Cu  Cu24  1  0.25000000  0.76876000  0.53996900  1
  Cu  Cu25  1  0.75000000  0.23124000  0.46003100  1
  Cu  Cu26  1  0.25000000  0.26876000  0.96003100  1
  Cu  Cu27  1  0.75000000  0.73124000  0.03996900  1
  Cu  Cu28  1  0.25000000  0.49915100  0.38409500  1
  Cu  Cu29  1  0.75000000  0.50084900  0.61590500  1
  Cu  Cu30  1  0.25000000  0.99915100  0.11590500  1
  Cu  Cu31  1  0.75000000  0.00084900  0.88409500  1
  Cu  Cu32  1  0.75000000  0.26606600  0.18586700  1
  Cu  Cu33  1  0.25000000  0.73393400  0.81413300  1
  Cu  Cu34  1  0.75000000  0.76606600  0.31413300  1
  Cu  Cu35  1  0.25000000  0.23393400  0.68586700  1
