# generated using pymatgen
data_Cu2NiC11
_symmetry_space_group_name_H-M   'P 1'
_cell_length_a   10.69763202
_cell_length_b   9.38300323
_cell_length_c   7.28526177
_cell_angle_alpha   78.74802085
_cell_angle_beta   59.34477231
_cell_angle_gamma   41.90720684
_symmetry_Int_Tables_number   1
_chemical_formula_structural   Cu2NiC11
_chemical_formula_sum   'Cu4 Ni2 C22'
_cell_volume   397.96346825
_cell_formula_units_Z   2
loop_
 _symmetry_equiv_pos_site_id
 _symmetry_equiv_pos_as_xyz
  1  'x, y, z'
loop_
 _atom_site_type_symbol
 _atom_site_label
 _atom_site_symmetry_multiplicity
 _atom_site_fract_x
 _atom_site_fract_y
 _atom_site_fract_z
 _atom_site_occupancy
  C  C0  1  0.75000000  0.75000000  0.75000000  1
  C  C1  1  0.50000000  0.50000000  0.50000000  1
  Ni  Ni2  1  0.25000000  0.25000000  0.25000000  1
  Ni  Ni3  1  0.00000000  0.00000000  0.00000000  1
  Cu  Cu4  1  0.02941800  0.02941800  0.47058200  1
  Cu  Cu5  1  0.77941800  0.77941800  0.22058200  1
  Cu  Cu6  1  0.47058200  0.47058200  0.02941800  1
  Cu  Cu7  1  0.22058200  0.22058200  0.77941800  1
  C  C8  1  0.70336400  0.29663600  0.70336400  1
  C  C9  1  0.95336400  0.54663600  0.95336400  1
  C  C10  1  0.95096300  0.55169400  0.34685500  1
  C  C11  1  0.60443800  0.60443800  0.39556200  1
  C  C12  1  0.09951200  0.90314500  0.69830600  1
  C  C13  1  0.69830600  0.29903700  0.09951200  1
  C  C14  1  0.29663600  0.70336400  0.29663600  1
  C  C15  1  0.55169400  0.95096300  0.15048800  1
  C  C16  1  0.54663600  0.95336400  0.54663600  1
  C  C17  1  0.90314500  0.09951200  0.29903700  1
  C  C18  1  0.15048800  0.34685500  0.55169400  1
  C  C19  1  0.13427900  0.13427900  0.36572100  1
  C  C20  1  0.36572100  0.36572100  0.13427900  1
  C  C21  1  0.85443800  0.85443800  0.64556200  1
  C  C22  1  0.39556200  0.39556200  0.60443800  1
  C  C23  1  0.11572100  0.11572100  0.88427900  1
  C  C24  1  0.64556200  0.64556200  0.85443800  1
  C  C25  1  0.88427900  0.88427900  0.11572100  1
  C  C26  1  0.34685500  0.15048800  0.95096300  1
  C  C27  1  0.29903700  0.69830600  0.90314500  1
