# generated using pymatgen
data_Cu2NiC5
_symmetry_space_group_name_H-M   'P 1'
_cell_length_a   7.91248100
_cell_length_b   8.74209700
_cell_length_c   12.23606700
_cell_angle_alpha   90.00000000
_cell_angle_beta   90.00000000
_cell_angle_gamma   90.00000000
_symmetry_Int_Tables_number   1
_chemical_formula_structural   Cu2NiC5
_chemical_formula_sum   'Cu8 Ni4 C20'
_cell_volume   846.38926709
_cell_formula_units_Z   4
loop_
 _symmetry_equiv_pos_site_id
 _symmetry_equiv_pos_as_xyz
  1  'x, y, z'
loop_
 _atom_site_type_symbol
 _atom_site_label
 _atom_site_symmetry_multiplicity
 _atom_site_fract_x
 _atom_site_fract_y
 _atom_site_fract_z
 _atom_site_occupancy
  C  C0  1  0.15616900  0.75000000  0.20259300  1
  C  C1  1  0.34383100  0.75000000  0.70259300  1
  C  C2  1  0.84383100  0.25000000  0.79740700  1
  C  C3  1  0.65616900  0.25000000  0.29740700  1
  C  C4  1  0.45194200  0.75000000  0.99837900  1
  C  C5  1  0.04805800  0.75000000  0.49837900  1
  C  C6  1  0.54805800  0.25000000  0.00162100  1
  C  C7  1  0.95194200  0.25000000  0.50162100  1
  C  C8  1  0.61935600  0.75000000  0.30718000  1
  C  C9  1  0.88064400  0.75000000  0.80718000  1
  C  C10  1  0.38064400  0.25000000  0.69282000  1
  C  C11  1  0.11935600  0.25000000  0.19282000  1
  C  C12  1  0.82108600  0.53649100  0.06519600  1
  C  C13  1  0.67891400  0.96350900  0.56519600  1
  C  C14  1  0.17891400  0.03649100  0.93480400  1
  C  C15  1  0.32108600  0.46350900  0.43480400  1
  C  C16  1  0.17891400  0.46350900  0.93480400  1
  C  C17  1  0.32108600  0.03649100  0.43480400  1
  C  C18  1  0.82108600  0.96350900  0.06519600  1
  C  C19  1  0.67891400  0.53649100  0.56519600  1
  Ni  Ni20  1  0.43249100  0.75000000  0.49089100  1
  Ni  Ni21  1  0.06750900  0.75000000  0.99089100  1
  Ni  Ni22  1  0.56750900  0.25000000  0.50910900  1
  Ni  Ni23  1  0.93249100  0.25000000  0.00910900  1
  Cu  Cu24  1  0.92878300  0.50961700  0.32669100  1
  Cu  Cu25  1  0.57121700  0.99038300  0.82669100  1
  Cu  Cu26  1  0.07121700  0.00961700  0.67330900  1
  Cu  Cu27  1  0.42878300  0.49038300  0.17330900  1
  Cu  Cu28  1  0.07121700  0.49038300  0.67330900  1
  Cu  Cu29  1  0.42878300  0.00961700  0.17330900  1
  Cu  Cu30  1  0.92878300  0.99038300  0.32669100  1
  Cu  Cu31  1  0.57121700  0.50961700  0.82669100  1
