# generated using pymatgen
data_Cu4NiC
_symmetry_space_group_name_H-M   'P 1'
_cell_length_a   12.17213816
_cell_length_b   12.17213816
_cell_length_c   12.17213816
_cell_angle_alpha   127.60425184
_cell_angle_beta   127.60425184
_cell_angle_gamma   77.26700713
_symmetry_Int_Tables_number   1
_chemical_formula_structural   Cu4NiC
_chemical_formula_sum   'Cu32 Ni8 C8'
_cell_volume   1098.26097424
_cell_formula_units_Z   8
loop_
 _symmetry_equiv_pos_site_id
 _symmetry_equiv_pos_as_xyz
  1  'x, y, z'
loop_
 _atom_site_type_symbol
 _atom_site_label
 _atom_site_symmetry_multiplicity
 _atom_site_fract_x
 _atom_site_fract_y
 _atom_site_fract_z
 _atom_site_occupancy
  C  C0  1  0.00000000  0.00000000  0.00000000  1
  C  C1  1  0.75000000  0.25000000  0.50000000  1
  C  C2  1  0.25000000  0.75000000  0.50000000  1
  C  C3  1  0.50000000  0.50000000  0.00000000  1
  C  C4  1  0.75000000  0.75000000  0.00000000  1
  C  C5  1  0.50000000  0.00000000  0.50000000  1
  C  C6  1  0.00000000  0.50000000  0.50000000  1
  C  C7  1  0.25000000  0.25000000  0.00000000  1
  Ni  Ni8  1  0.12500000  0.41303800  0.78803800  1
  Ni  Ni9  1  0.12500000  0.91303800  0.28803800  1
  Ni  Ni10  1  0.66303800  0.87500000  0.28803800  1
  Ni  Ni11  1  0.58696200  0.37500000  0.71196200  1
  Ni  Ni12  1  0.62500000  0.83696200  0.71196200  1
  Ni  Ni13  1  0.62500000  0.33696200  0.21196200  1
  Ni  Ni14  1  0.08696200  0.37500000  0.21196200  1
  Ni  Ni15  1  0.16303800  0.87500000  0.78803800  1
  Cu  Cu16  1  0.48595200  0.20807200  0.45044600  1
  Cu  Cu17  1  0.75762700  0.03550700  0.54955400  1
  Cu  Cu18  1  0.78550700  0.73595200  0.77788000  1
  Cu  Cu19  1  0.95807200  0.00762700  0.22212000  1
  Cu  Cu20  1  0.49237300  0.54192800  0.77788000  1
  Cu  Cu21  1  0.76404800  0.71449300  0.22212000  1
  Cu  Cu22  1  0.29192800  0.01404800  0.54955400  1
  Cu  Cu23  1  0.46449300  0.74237300  0.45044500  1
  Cu  Cu24  1  0.27977400  0.46980200  0.31852300  1
  Cu  Cu25  1  0.21980200  0.40127900  0.69002800  1
  Cu  Cu26  1  0.71125100  0.52977400  0.30997200  1
  Cu  Cu27  1  0.97022600  0.78874900  0.69002800  1
  Cu  Cu28  1  0.09872100  0.28019800  0.30997200  1
  Cu  Cu29  1  0.53874900  0.34872100  0.31852300  1
  Cu  Cu30  1  0.03019800  0.22022600  0.68147700  1
  Cu  Cu31  1  0.15127900  0.96125100  0.68147700  1
  Cu  Cu32  1  0.47022600  0.78019800  0.18147700  1
  Cu  Cu33  1  0.53019800  0.84872100  0.80997200  1
  Cu  Cu34  1  0.03874900  0.72022600  0.19002800  1
  Cu  Cu35  1  0.77977400  0.46125100  0.80997200  1
  Cu  Cu36  1  0.65127900  0.96980200  0.19002800  1
  Cu  Cu37  1  0.21125100  0.90127900  0.18147700  1
  Cu  Cu38  1  0.71980200  0.02977400  0.81852300  1
  Cu  Cu39  1  0.59872100  0.28874900  0.81852300  1
  Cu  Cu40  1  0.99237300  0.21449300  0.95044600  1
  Cu  Cu41  1  0.96449300  0.51404800  0.72212000  1
  Cu  Cu42  1  0.79192800  0.24237300  0.27788000  1
  Cu  Cu43  1  0.25762700  0.70807200  0.72212000  1
  Cu  Cu44  1  0.98595200  0.53550700  0.27788000  1
  Cu  Cu45  1  0.45807200  0.23595200  0.95044600  1
  Cu  Cu46  1  0.28550700  0.50762700  0.04955400  1
  Cu  Cu47  1  0.26404800  0.04192800  0.04955400  1
