# generated using pymatgen
data_Cu4NiC20
_symmetry_space_group_name_H-M   'P 1'
_cell_length_a   10.18177095
_cell_length_b   10.18177095
_cell_length_c   10.18177095
_cell_angle_alpha   110.81801909
_cell_angle_beta   110.81801909
_cell_angle_gamma   106.80995467
_symmetry_Int_Tables_number   1
_chemical_formula_structural   Cu4NiC20
_chemical_formula_sum   'Cu8 Ni2 C40'
_cell_volume   811.23918266
_cell_formula_units_Z   2
loop_
 _symmetry_equiv_pos_site_id
 _symmetry_equiv_pos_as_xyz
  1  'x, y, z'
loop_
 _atom_site_type_symbol
 _atom_site_label
 _atom_site_symmetry_multiplicity
 _atom_site_fract_x
 _atom_site_fract_y
 _atom_site_fract_z
 _atom_site_occupancy
  C  C0  1  0.24570400  0.08655400  0.39596600  1
  C  C1  1  0.59973800  0.49570400  0.65915000  1
  C  C2  1  0.05941200  0.40026200  0.89596600  1
  C  C3  1  0.83655400  0.94058800  0.34085000  1
  C  C4  1  0.50429600  0.16344600  0.10403400  1
  C  C5  1  0.15026200  0.75429600  0.84085000  1
  C  C6  1  0.69058800  0.84973800  0.60403400  1
  C  C7  1  0.91344600  0.30941200  0.15915000  1
  Ni  Ni8  1  0.25000000  0.75000000  0.50000000  1
  Ni  Ni9  1  0.50000000  0.50000000  0.00000000  1
  Cu  Cu10  1  0.81443400  0.58459600  0.41221400  1
  Cu  Cu11  1  0.57761800  0.84778000  0.91221400  1
  Cu  Cu12  1  0.17238200  0.40222000  0.58778600  1
  Cu  Cu13  1  0.59778000  0.18556600  0.77016100  1
  Cu  Cu14  1  0.93556600  0.66540400  0.08778600  1
  Cu  Cu15  1  0.41540400  0.82761800  0.22983900  1
  Cu  Cu16  1  0.33459500  0.42238200  0.27016100  1
  Cu  Cu17  1  0.15222000  0.06443400  0.72983900  1
  C  C18  1  0.21592000  0.01854200  0.88515700  1
  C  C19  1  0.06908800  0.19094800  0.46479100  1
  C  C20  1  0.59852100  0.77113300  0.05212400  1
  C  C21  1  0.00968600  0.59834500  0.23225600  1
  C  C22  1  0.34834500  0.61608800  0.08865900  1
  C  C23  1  0.52113300  0.96900900  0.67261200  1
  C  C24  1  0.76854200  0.38338400  0.30262200  1
  C  C25  1  0.13338400  0.33076300  0.11484300  1
  C  C26  1  0.02384300  0.64570300  0.96479100  1
  C  C27  1  0.15147900  0.47886700  0.44787600  1
  C  C28  1  0.22886700  0.28099100  0.82738800  1
  C  C29  1  0.71900900  0.54639700  0.94787600  1
  C  C30  1  0.03099100  0.70360300  0.55212400  1
  C  C31  1  0.45360300  0.40147900  0.17261200  1
  C  C32  1  0.98145800  0.86661600  0.19737800  1
  C  C33  1  0.66923700  0.78408000  0.80262200  1
  C  C34  1  0.52742900  0.25968600  0.91134100  1
  C  C35  1  0.68091200  0.05905200  0.03520900  1
  C  C36  1  0.80905200  0.27384300  0.87814000  1
  C  C37  1  0.53408000  0.23145800  0.61484300  1
  C  C38  1  0.72615700  0.60429700  0.53520900  1
  C  C39  1  0.08076300  0.46592000  0.69737800  1
  C  C40  1  0.40165500  0.63391200  0.41134100  1
  C  C41  1  0.94094800  0.97615700  0.62186000  1
  C  C42  1  0.22257100  0.99031400  0.58865900  1
  C  C43  1  0.29639700  0.84852100  0.32738800  1
  C  C44  1  0.35429700  0.31908800  0.37814000  1
  C  C45  1  0.39570300  0.93091200  0.12186000  1
  C  C46  1  0.36608800  0.77742900  0.76774400  1
  C  C47  1  0.38391200  0.47257100  0.73225600  1
  C  C48  1  0.74031400  0.65165500  0.26774400  1
  C  C49  1  0.61661600  0.91923700  0.38515700  1
