# generated using pymatgen
data_Cu4Ni2C5
_symmetry_space_group_name_H-M   'P 1'
_cell_length_a   7.35545000
_cell_length_b   10.66005400
_cell_length_c   11.03153400
_cell_angle_alpha   90.00000000
_cell_angle_beta   90.00000000
_cell_angle_gamma   90.00000000
_symmetry_Int_Tables_number   1
_chemical_formula_structural   Cu4Ni2C5
_chemical_formula_sum   'Cu16 Ni8 C20'
_cell_volume   864.97700113
_cell_formula_units_Z   4
loop_
 _symmetry_equiv_pos_site_id
 _symmetry_equiv_pos_as_xyz
  1  'x, y, z'
loop_
 _atom_site_type_symbol
 _atom_site_label
 _atom_site_symmetry_multiplicity
 _atom_site_fract_x
 _atom_site_fract_y
 _atom_site_fract_z
 _atom_site_occupancy
  C  C0  1  0.72671400  0.85890300  0.20670800  1
  C  C1  1  0.28938300  0.04332400  0.08722800  1
  C  C2  1  0.77328600  0.35890300  0.20670800  1
  C  C3  1  0.50499800  0.99852500  0.55341300  1
  C  C4  1  0.99500200  0.49852500  0.55341300  1
  C  C5  1  0.00499800  0.99852500  0.44658700  1
  C  C6  1  0.49500200  0.49852500  0.44658700  1
  C  C7  1  0.78938300  0.04332400  0.91277200  1
  C  C8  1  0.71061700  0.54332400  0.91277200  1
  C  C9  1  0.21061700  0.54332400  0.08722800  1
  C  C10  1  0.22671400  0.85890300  0.79329200  1
  C  C11  1  0.27328600  0.35890300  0.79329200  1
  Ni  Ni12  1  0.88939200  0.29830500  0.95839500  1
  Ni  Ni13  1  0.64967500  0.23896900  0.44134800  1
  Ni  Ni14  1  0.11060800  0.79830500  0.04160500  1
  Ni  Ni15  1  0.38939200  0.29830500  0.04160500  1
  Ni  Ni16  1  0.35032500  0.73896900  0.55865200  1
  Ni  Ni17  1  0.61060800  0.79830500  0.95839500  1
  Ni  Ni18  1  0.14967500  0.23896900  0.55865200  1
  Ni  Ni19  1  0.85032500  0.73896900  0.44134800  1
  Cu  Cu20  1  0.64254300  0.34035900  0.38333700  1
  Cu  Cu21  1  0.45141800  0.20963700  0.09704600  1
  Cu  Cu22  1  0.17570600  0.14392900  0.50135300  1
  Cu  Cu23  1  0.95141800  0.20963700  0.90295400  1
  Cu  Cu24  1  0.83859300  0.39369600  0.01623400  1
  Cu  Cu25  1  0.35745700  0.84035900  0.61666300  1
  Cu  Cu26  1  0.33859300  0.39369600  0.98376600  1
  Cu  Cu27  1  0.54858200  0.70963700  0.90295400  1
  Cu  Cu28  1  0.85745700  0.84035900  0.38333700  1
  Cu  Cu29  1  0.66140700  0.89369600  0.01623400  1
  Cu  Cu30  1  0.32429400  0.64392900  0.50135300  1
  Cu  Cu31  1  0.04858200  0.70963700  0.09704600  1
  Cu  Cu32  1  0.82429400  0.64392900  0.49864700  1
  Cu  Cu33  1  0.67570600  0.14392900  0.49864700  1
  Cu  Cu34  1  0.14254300  0.34035900  0.61666300  1
  Cu  Cu35  1  0.16140700  0.89369600  0.98376600  1
  C  C36  1  0.11991000  0.42252900  0.29595400  1
  C  C37  1  0.88009000  0.92252900  0.70404600  1
  C  C38  1  0.43042600  0.09771400  0.79750400  1
  C  C39  1  0.61991000  0.42252900  0.70404600  1
  C  C40  1  0.93042600  0.09771400  0.20249600  1
  C  C41  1  0.38009000  0.92252900  0.29595400  1
  C  C42  1  0.56957400  0.59771400  0.20249600  1
  C  C43  1  0.06957400  0.59771400  0.79750400  1
