# generated using pymatgen
data_Cu3NiC10
_symmetry_space_group_name_H-M   'P 1'
_cell_length_a   7.87167050
_cell_length_b   7.87167050
_cell_length_c   16.14132800
_cell_angle_alpha   90.00000000
_cell_angle_beta   90.00000000
_cell_angle_gamma   114.67485171
_symmetry_Int_Tables_number   1
_chemical_formula_structural   Cu3NiC10
_chemical_formula_sum   'Cu12 Ni4 C40'
_cell_volume   908.84441394
_cell_formula_units_Z   4
loop_
 _symmetry_equiv_pos_site_id
 _symmetry_equiv_pos_as_xyz
  1  'x, y, z'
loop_
 _atom_site_type_symbol
 _atom_site_label
 _atom_site_symmetry_multiplicity
 _atom_site_fract_x
 _atom_site_fract_y
 _atom_site_fract_z
 _atom_site_occupancy
  Ni  Ni0  1  0.50000000  0.50000000  0.00000000  1
  Ni  Ni1  1  0.00000000  0.00000000  0.00000000  1
  Ni  Ni2  1  0.00000000  0.00000000  0.50000000  1
  Ni  Ni3  1  0.50000000  0.50000000  0.50000000  1
  Cu  Cu4  1  0.47993700  0.02346200  0.11289100  1
  Cu  Cu5  1  0.97653800  0.52006300  0.11289100  1
  Cu  Cu6  1  0.75104300  0.74895700  0.75000000  1
  Cu  Cu7  1  0.02346200  0.47993700  0.88710900  1
  Cu  Cu8  1  0.25104300  0.24895700  0.75000000  1
  Cu  Cu9  1  0.52006300  0.97653800  0.88710900  1
  Cu  Cu10  1  0.74895700  0.75104300  0.25000000  1
  Cu  Cu11  1  0.97993700  0.52346200  0.38710900  1
  Cu  Cu12  1  0.24895700  0.25104300  0.25000000  1
  Cu  Cu13  1  0.47653800  0.02006300  0.38710900  1
  Cu  Cu14  1  0.52346200  0.97993700  0.61289100  1
  Cu  Cu15  1  0.02006300  0.47653800  0.61289100  1
  C  C16  1  0.43054200  0.06945800  0.25000000  1
  C  C17  1  0.23192500  0.76807500  0.11349300  1
  C  C18  1  0.99515000  0.00485000  0.73218300  1
  C  C19  1  0.08911000  0.40748100  0.48752200  1
  C  C20  1  0.29170100  0.70829900  0.89424500  1
  C  C21  1  0.70222400  0.82994300  0.87287800  1
  C  C22  1  0.41089000  0.09251900  0.98752200  1
  C  C23  1  0.09251900  0.41089000  0.01247800  1
  C  C24  1  0.93054200  0.56945800  0.25000000  1
  C  C25  1  0.70829900  0.29170100  0.10575500  1
  C  C26  1  0.91089000  0.59251900  0.51247800  1
  C  C27  1  0.20829900  0.79170100  0.39424500  1
  C  C28  1  0.08194300  0.34326900  0.17222000  1
  C  C29  1  0.84326900  0.58194300  0.67222000  1
  C  C30  1  0.76807500  0.23192500  0.88650700  1
  C  C31  1  0.82994300  0.70222400  0.12712200  1
  C  C32  1  0.50485000  0.49515000  0.23218300  1
  C  C33  1  0.58194300  0.84326900  0.32778000  1
  C  C34  1  0.00485000  0.99515000  0.26781700  1
  C  C35  1  0.56945800  0.93054200  0.75000000  1
  C  C36  1  0.91805700  0.65673100  0.82778000  1
  C  C37  1  0.79777600  0.67005700  0.37287800  1
  C  C38  1  0.06945800  0.43054200  0.75000000  1
  C  C39  1  0.49515000  0.50485000  0.76781700  1
  C  C40  1  0.20222400  0.32994300  0.62712200  1
  C  C41  1  0.59251900  0.91089000  0.48752200  1
  C  C42  1  0.58911000  0.90748100  0.01247800  1
  C  C43  1  0.26807500  0.73192500  0.61349300  1
  C  C44  1  0.32994300  0.20222400  0.37287800  1
  C  C45  1  0.40748100  0.08911000  0.51247800  1
  C  C46  1  0.17005700  0.29777600  0.87287800  1
  C  C47  1  0.73192500  0.26807500  0.38650700  1
  C  C48  1  0.15673100  0.41805700  0.32778000  1
  C  C49  1  0.65673100  0.91805700  0.17222000  1
  C  C50  1  0.79170100  0.20829900  0.60575500  1
  C  C51  1  0.34326900  0.08194300  0.82778000  1
  C  C52  1  0.67005700  0.79777600  0.62712200  1
  C  C53  1  0.90748100  0.58911000  0.98752200  1
  C  C54  1  0.41805700  0.15673100  0.67222000  1
  C  C55  1  0.29777600  0.17005700  0.12712200  1
