# generated using pymatgen
data_CuNiC16
_symmetry_space_group_name_H-M   'P 1'
_cell_length_a   8.95727100
_cell_length_b   10.38659400
_cell_length_c   12.87860859
_cell_angle_alpha   55.59344269
_cell_angle_beta   90.00000000
_cell_angle_gamma   90.00000000
_symmetry_Int_Tables_number   1
_chemical_formula_structural   CuNiC16
_chemical_formula_sum   'Cu4 Ni4 C64'
_cell_volume   988.54733311
_cell_formula_units_Z   4
loop_
 _symmetry_equiv_pos_site_id
 _symmetry_equiv_pos_as_xyz
  1  'x, y, z'
loop_
 _atom_site_type_symbol
 _atom_site_label
 _atom_site_symmetry_multiplicity
 _atom_site_fract_x
 _atom_site_fract_y
 _atom_site_fract_z
 _atom_site_occupancy
  Ni  Ni0  1  0.43362000  0.26683300  0.54225600  1
  Ni  Ni1  1  0.06638000  0.26683300  0.04225600  1
  Ni  Ni2  1  0.56638000  0.73316700  0.45774400  1
  Ni  Ni3  1  0.93362000  0.73316700  0.95774400  1
  Cu  Cu4  1  0.72691200  0.18346700  0.81812600  1
  Cu  Cu5  1  0.77308800  0.18346700  0.31812600  1
  Cu  Cu6  1  0.27308800  0.81653300  0.18187400  1
  Cu  Cu7  1  0.22691200  0.81653300  0.68187400  1
  C  C8  1  0.32877000  0.17484100  0.86566800  1
  C  C9  1  0.17123000  0.17484100  0.36566800  1
  C  C10  1  0.67123000  0.82515900  0.13433200  1
  C  C11  1  0.82877000  0.82515900  0.63433200  1
  C  C12  1  0.59187700  0.88862600  0.75835400  1
  C  C13  1  0.90812300  0.88862600  0.25835400  1
  C  C14  1  0.40812300  0.11137400  0.24164600  1
  C  C15  1  0.09187700  0.11137400  0.74164600  1
  C  C16  1  0.52502500  0.52520800  0.22146200  1
  C  C17  1  0.97497500  0.52520800  0.72146200  1
  C  C18  1  0.47497500  0.47479200  0.77853800  1
  C  C19  1  0.02502500  0.47479200  0.27853800  1
  C  C20  1  0.88961700  0.30151500  0.52347800  1
  C  C21  1  0.61038300  0.30151500  0.02347800  1
  C  C22  1  0.11038300  0.69848500  0.47652200  1
  C  C23  1  0.38961700  0.69848500  0.97652200  1
  C  C24  1  0.25659500  0.07043400  0.99204000  1
  C  C25  1  0.24340500  0.07043400  0.49204000  1
  C  C26  1  0.74340500  0.92956600  0.00796000  1
  C  C27  1  0.75659500  0.92956600  0.50796000  1
  C  C28  1  0.20884300  0.22129700  0.75467800  1
  C  C29  1  0.29115700  0.22129700  0.25467800  1
  C  C30  1  0.79115700  0.77870300  0.24532200  1
  C  C31  1  0.70884300  0.77870300  0.74532200  1
  C  C32  1  0.47210100  0.13160600  0.83293600  1
  C  C33  1  0.02789900  0.13160600  0.33293600  1
  C  C34  1  0.52789900  0.86839400  0.16706400  1
  C  C35  1  0.97210100  0.86839400  0.66706400  1
  C  C36  1  0.45852000  0.92430200  0.67562600  1
  C  C37  1  0.04148000  0.92430200  0.17562600  1
  C  C38  1  0.54148000  0.07569800  0.32437400  1
  C  C39  1  0.95852000  0.07569800  0.82437400  1
  C  C40  1  0.67698400  0.02051300  0.74604700  1
  C  C41  1  0.82301600  0.02051300  0.24604700  1
  C  C42  1  0.32301600  0.97948700  0.25395300  1
  C  C43  1  0.17698400  0.97948700  0.75395300  1
  C  C44  1  0.41426200  0.57162700  0.28272000  1
  C  C45  1  0.08573800  0.57162700  0.78272000  1
  C  C46  1  0.58573800  0.42837300  0.71728000  1
  C  C47  1  0.91426200  0.42837300  0.21728000  1
  C  C48  1  0.65741100  0.65492300  0.15740800  1
  C  C49  1  0.84258900  0.65492300  0.65740800  1
  C  C50  1  0.34258900  0.34507700  0.84259200  1
  C  C51  1  0.15741100  0.34507700  0.34259200  1
  C  C52  1  0.83262600  0.20205000  0.48194700  1
  C  C53  1  0.66737400  0.20205000  0.98194700  1
  C  C54  1  0.16737400  0.79795000  0.51805300  1
  C  C55  1  0.33262600  0.79795000  0.01805300  1
  C  C56  1  0.78767600  0.33712500  0.59686100  1
  C  C57  1  0.71232400  0.33712500  0.09686100  1
  C  C58  1  0.21232400  0.66287500  0.40313900  1
  C  C59  1  0.28767600  0.66287500  0.90313900  1
  C  C60  1  0.95206200  0.46203500  0.39975200  1
  C  C61  1  0.54793800  0.46203500  0.89975200  1
  C  C62  1  0.04793800  0.53796500  0.60024800  1
  C  C63  1  0.45206200  0.53796500  0.10024800  1
  C  C64  1  0.90579600  0.36656900  0.80170000  1
  C  C65  1  0.59420400  0.36656900  0.30170000  1
  C  C66  1  0.09420400  0.63343100  0.19830000  1
  C  C67  1  0.40579600  0.63343100  0.69830000  1
  C  C68  1  0.04774700  0.23442500  0.59638500  1
  C  C69  1  0.45225300  0.23442500  0.09638500  1
  C  C70  1  0.95225300  0.76557500  0.40361500  1
  C  C71  1  0.54774700  0.76557500  0.90361500  1
