# generated using pymatgen
data_Cu5Ni2
_symmetry_space_group_name_H-M   'P 1'
_cell_length_a   7.73873962
_cell_length_b   7.73873962
_cell_length_c   14.10340300
_cell_angle_alpha   90.00000000
_cell_angle_beta   90.00000000
_cell_angle_gamma   119.99999679
_symmetry_Int_Tables_number   1
_chemical_formula_structural   Cu5Ni2
_chemical_formula_sum   'Cu30 Ni12'
_cell_volume   731.46749414
_cell_formula_units_Z   6
loop_
 _symmetry_equiv_pos_site_id
 _symmetry_equiv_pos_as_xyz
  1  'x, y, z'
loop_
 _atom_site_type_symbol
 _atom_site_label
 _atom_site_symmetry_multiplicity
 _atom_site_fract_x
 _atom_site_fract_y
 _atom_site_fract_z
 _atom_site_occupancy
  Ni  Ni0  1  0.66666700  0.33333300  0.29182200  1
  Ni  Ni1  1  0.33333300  0.66666700  0.79182200  1
  Ni  Ni2  1  0.33255800  0.33255800  0.01707400  1
  Ni  Ni3  1  0.00000000  0.66744200  0.01707400  1
  Ni  Ni4  1  0.00000000  0.00000000  0.74239100  1
  Ni  Ni5  1  0.00000000  0.00000000  0.24239100  1
  Ni  Ni6  1  0.66744200  0.66744200  0.51707400  1
  Ni  Ni7  1  0.33255800  0.00000000  0.51707400  1
  Ni  Ni8  1  0.00000000  0.33255800  0.51707400  1
  Ni  Ni9  1  0.66666700  0.33333300  0.79182200  1
  Ni  Ni10  1  0.66744200  0.00000000  0.01707400  1
  Ni  Ni11  1  0.33333300  0.66666700  0.29182200  1
  Cu  Cu12  1  0.62777800  0.62777800  0.92252000  1
  Cu  Cu13  1  0.62806100  0.00000000  0.21299300  1
  Cu  Cu14  1  0.33333300  0.66666700  0.08961300  1
  Cu  Cu15  1  0.73711300  0.73711300  0.11439300  1
  Cu  Cu16  1  0.30831900  0.00000000  0.32211600  1
  Cu  Cu17  1  0.30831900  0.30831900  0.82211600  1
  Cu  Cu18  1  0.66666700  0.33333300  0.08961300  1
  Cu  Cu19  1  0.26288700  0.00000000  0.11439300  1
  Cu  Cu20  1  0.26288700  0.26288700  0.61439300  1
  Cu  Cu21  1  0.37222200  0.37222200  0.42252000  1
  Cu  Cu22  1  0.00000000  0.30831900  0.32211600  1
  Cu  Cu23  1  0.00000000  0.37222200  0.92252000  1
  Cu  Cu24  1  0.69168100  0.69168100  0.32211600  1
  Cu  Cu25  1  0.37193900  0.00000000  0.71299300  1
  Cu  Cu26  1  0.00000000  0.62777800  0.42252000  1
  Cu  Cu27  1  0.66666700  0.33333300  0.58961300  1
  Cu  Cu28  1  0.62806100  0.62806100  0.71299300  1
  Cu  Cu29  1  0.00000000  0.00000000  0.94545500  1
  Cu  Cu30  1  0.73711300  0.00000000  0.61439300  1
  Cu  Cu31  1  0.00000000  0.73711300  0.61439300  1
  Cu  Cu32  1  0.33333300  0.66666700  0.58961300  1
  Cu  Cu33  1  0.69168100  0.00000000  0.82211600  1
  Cu  Cu34  1  0.62777800  0.00000000  0.42252000  1
  Cu  Cu35  1  0.00000000  0.00000000  0.44545500  1
  Cu  Cu36  1  0.37193900  0.37193900  0.21299300  1
  Cu  Cu37  1  0.37222200  0.00000000  0.92252000  1
  Cu  Cu38  1  0.00000000  0.62806100  0.21299300  1
  Cu  Cu39  1  0.00000000  0.37193900  0.71299300  1
  Cu  Cu40  1  0.00000000  0.69168100  0.82211600  1
  Cu  Cu41  1  0.00000000  0.26288700  0.11439300  1
