# generated using pymatgen
data_Cu3(NiC2)2
_symmetry_space_group_name_H-M   'P 1'
_cell_length_a   12.82355600
_cell_length_b   12.92772200
_cell_length_c   13.21954800
_cell_angle_alpha   90.00000000
_cell_angle_beta   90.00000000
_cell_angle_gamma   90.00000000
_symmetry_Int_Tables_number   1
_chemical_formula_structural   Cu3(NiC2)2
_chemical_formula_sum   'Cu24 Ni16 C32'
_cell_volume   2191.52829972
_cell_formula_units_Z   8
loop_
 _symmetry_equiv_pos_site_id
 _symmetry_equiv_pos_as_xyz
  1  'x, y, z'
loop_
 _atom_site_type_symbol
 _atom_site_label
 _atom_site_symmetry_multiplicity
 _atom_site_fract_x
 _atom_site_fract_y
 _atom_site_fract_z
 _atom_site_occupancy
  C  C0  1  0.79747500  0.42374000  0.90891600  1
  C  C1  1  0.79747500  0.92374000  0.59108400  1
  C  C2  1  0.58706400  0.20842600  0.93919300  1
  C  C3  1  0.59461100  0.56881200  0.01733400  1
  C  C4  1  0.09461100  0.93118800  0.01733400  1
  C  C5  1  0.91293600  0.70842600  0.06080700  1
  C  C6  1  0.95752200  0.42906100  0.21398600  1
  C  C7  1  0.95752200  0.92906100  0.28601400  1
  C  C8  1  0.45752200  0.07093900  0.21398600  1
  C  C9  1  0.04247800  0.57093900  0.78601400  1
  C  C10  1  0.08706400  0.29157400  0.93919300  1
  C  C11  1  0.04247800  0.07093900  0.71398600  1
  C  C12  1  0.70252500  0.92374000  0.09108400  1
  C  C13  1  0.54247800  0.42906100  0.71398600  1
  C  C14  1  0.59461100  0.06881200  0.48266600  1
  C  C15  1  0.45752200  0.57093900  0.28601400  1
  C  C16  1  0.40538900  0.43118800  0.98266600  1
  C  C17  1  0.91293600  0.20842600  0.43919300  1
  C  C18  1  0.58706400  0.70842600  0.56080700  1
  C  C19  1  0.90538900  0.56881200  0.51733400  1
  C  C20  1  0.20252500  0.57626000  0.09108400  1
  C  C21  1  0.09461100  0.43118800  0.48266600  1
  C  C22  1  0.41293600  0.79157400  0.06080700  1
  C  C23  1  0.70252500  0.42374000  0.40891600  1
  C  C24  1  0.40538900  0.93118800  0.51733400  1
  C  C25  1  0.41293600  0.29157400  0.43919300  1
  C  C26  1  0.54247800  0.92906100  0.78601400  1
  C  C27  1  0.90538900  0.06881200  0.98266600  1
  C  C28  1  0.29747500  0.07626000  0.90891600  1
  C  C29  1  0.20252500  0.07626000  0.40891600  1
  C  C30  1  0.08706400  0.79157400  0.56080700  1
  C  C31  1  0.29747500  0.57626000  0.59108400  1
  Ni  Ni32  1  0.55221600  0.54766500  0.45344800  1
  Ni  Ni33  1  0.09585700  0.09787500  0.89681500  1
  Ni  Ni34  1  0.55221600  0.04766500  0.04655200  1
  Ni  Ni35  1  0.90414300  0.40212500  0.39681500  1
  Ni  Ni36  1  0.44778400  0.45233500  0.54655200  1
  Ni  Ni37  1  0.59585700  0.40212500  0.89681500  1
  Ni  Ni38  1  0.09585700  0.59787500  0.60318500  1
  Ni  Ni39  1  0.59585700  0.90212500  0.60318500  1
  Ni  Ni40  1  0.94778400  0.04766500  0.54655200  1
  Ni  Ni41  1  0.40414300  0.59787500  0.10318500  1
  Ni  Ni42  1  0.44778400  0.95233500  0.95344800  1
  Ni  Ni43  1  0.40414300  0.09787500  0.39681500  1
  Ni  Ni44  1  0.94778400  0.54766500  0.95344800  1
  Ni  Ni45  1  0.05221600  0.95233500  0.45344800  1
  Ni  Ni46  1  0.05221600  0.45233500  0.04655200  1
  Ni  Ni47  1  0.90414300  0.90212500  0.10318500  1
  Cu  Cu48  1  0.68239300  0.25287600  0.57344700  1
  Cu  Cu49  1  0.24797700  0.43042200  0.32117100  1
  Cu  Cu50  1  0.18239300  0.24712400  0.57344700  1
  Cu  Cu51  1  0.25202300  0.93042200  0.67882900  1
  Cu  Cu52  1  0.81760700  0.75287600  0.42655300  1
  Cu  Cu53  1  0.06174200  0.17508500  0.25685800  1
  Cu  Cu54  1  0.31760700  0.24712400  0.07344700  1
  Cu  Cu55  1  0.74797700  0.06957800  0.32117100  1
  Cu  Cu56  1  0.06174200  0.67508500  0.24314200  1
  Cu  Cu57  1  0.56174200  0.32491500  0.25685800  1
  Cu  Cu58  1  0.18239300  0.74712400  0.92655300  1
  Cu  Cu59  1  0.93825800  0.82491500  0.74314200  1
  Cu  Cu60  1  0.31760700  0.74712400  0.42655300  1
  Cu  Cu61  1  0.93825800  0.32491500  0.75685800  1
  Cu  Cu62  1  0.25202300  0.43042200  0.82117100  1
  Cu  Cu63  1  0.75202300  0.06957800  0.82117100  1
  Cu  Cu64  1  0.43825800  0.17508500  0.75685800  1
  Cu  Cu65  1  0.81760700  0.25287600  0.07344700  1
  Cu  Cu66  1  0.75202300  0.56957800  0.67882900  1
  Cu  Cu67  1  0.43825800  0.67508500  0.74314200  1
  Cu  Cu68  1  0.24797700  0.93042200  0.17882900  1
  Cu  Cu69  1  0.68239300  0.75287600  0.92655300  1
  Cu  Cu70  1  0.56174200  0.82491500  0.24314200  1
  Cu  Cu71  1  0.74797700  0.56957800  0.17882900  1
