# generated using pymatgen
data_CuNiC8
_symmetry_space_group_name_H-M   'P 1'
_cell_length_a   6.61504800
_cell_length_b   8.07624100
_cell_length_c   11.34950200
_cell_angle_alpha   90.00000000
_cell_angle_beta   90.00000000
_cell_angle_gamma   90.00000000
_symmetry_Int_Tables_number   1
_chemical_formula_structural   CuNiC8
_chemical_formula_sum   'Cu4 Ni4 C32'
_cell_volume   606.34398776
_cell_formula_units_Z   4
loop_
 _symmetry_equiv_pos_site_id
 _symmetry_equiv_pos_as_xyz
  1  'x, y, z'
loop_
 _atom_site_type_symbol
 _atom_site_label
 _atom_site_symmetry_multiplicity
 _atom_site_fract_x
 _atom_site_fract_y
 _atom_site_fract_z
 _atom_site_occupancy
  C  C0  1  0.26341400  0.00000000  0.25000000  1
  C  C1  1  0.73658600  0.00000000  0.75000000  1
  C  C2  1  0.23658600  0.50000000  0.25000000  1
  C  C3  1  0.76341400  0.50000000  0.75000000  1
  Ni  Ni4  1  0.75000000  0.75000000  0.40683500  1
  Ni  Ni5  1  0.25000000  0.25000000  0.59316500  1
  Ni  Ni6  1  0.25000000  0.75000000  0.90683500  1
  Ni  Ni7  1  0.75000000  0.25000000  0.09316500  1
  Cu  Cu8  1  0.75000000  0.25000000  0.40225900  1
  Cu  Cu9  1  0.25000000  0.25000000  0.90225900  1
  Cu  Cu10  1  0.25000000  0.75000000  0.59774100  1
  Cu  Cu11  1  0.75000000  0.75000000  0.09774100  1
  C  C12  1  0.05124900  0.19444100  0.04350000  1
  C  C13  1  0.05124900  0.80555900  0.45650000  1
  C  C14  1  0.44875100  0.69444100  0.45650000  1
  C  C15  1  0.44875100  0.30555900  0.04350000  1
  C  C16  1  0.94875100  0.80555900  0.95650000  1
  C  C17  1  0.94875100  0.19444100  0.54350000  1
  C  C18  1  0.55124900  0.30555900  0.54350000  1
  C  C19  1  0.55124900  0.69444100  0.95650000  1
  C  C20  1  0.25000000  0.75000000  0.08591000  1
  C  C21  1  0.25000000  0.25000000  0.41409000  1
  C  C22  1  0.75000000  0.25000000  0.91409000  1
  C  C23  1  0.75000000  0.75000000  0.58591000  1
  C  C24  1  0.93066500  0.78817600  0.25038300  1
  C  C25  1  0.93066500  0.21182400  0.24961700  1
  C  C26  1  0.56933500  0.28817600  0.24961700  1
  C  C27  1  0.56933500  0.71182400  0.25038300  1
  C  C28  1  0.06933500  0.21182400  0.74961700  1
  C  C29  1  0.06933500  0.78817600  0.75038300  1
  C  C30  1  0.43066500  0.71182400  0.75038300  1
  C  C31  1  0.43066500  0.28817600  0.74961700  1
  C  C32  1  0.66756200  0.00412700  0.10206900  1
  C  C33  1  0.66756200  0.99587300  0.39793100  1
  C  C34  1  0.83243800  0.50412700  0.39793100  1
  C  C35  1  0.83243800  0.49587300  0.10206900  1
  C  C36  1  0.33243800  0.99587300  0.89793100  1
  C  C37  1  0.33243800  0.00412700  0.60206900  1
  C  C38  1  0.16756200  0.49587300  0.60206900  1
  C  C39  1  0.16756200  0.50412700  0.89793100  1
