# generated using pymatgen
data_Cu3Ni2C15
_symmetry_space_group_name_H-M   'P 1'
_cell_length_a   9.29015575
_cell_length_b   9.29015575
_cell_length_c   7.32417169
_cell_angle_alpha   74.28556418
_cell_angle_beta   74.28556418
_cell_angle_gamma   96.09912704
_symmetry_Int_Tables_number   1
_chemical_formula_structural   Cu3Ni2C15
_chemical_formula_sum   'Cu6 Ni4 C30'
_cell_volume   574.64897990
_cell_formula_units_Z   2
loop_
 _symmetry_equiv_pos_site_id
 _symmetry_equiv_pos_as_xyz
  1  'x, y, z'
loop_
 _atom_site_type_symbol
 _atom_site_label
 _atom_site_symmetry_multiplicity
 _atom_site_fract_x
 _atom_site_fract_y
 _atom_site_fract_z
 _atom_site_occupancy
  C  C0  1  0.50891900  0.49108200  0.25000000  1
  C  C1  1  0.49108100  0.50891800  0.75000000  1
  C  C2  1  0.76759300  0.23240700  0.75000000  1
  C  C3  1  0.23240700  0.76759300  0.25000000  1
  C  C4  1  0.00000000  0.00000000  0.00000000  1
  C  C5  1  0.00000000  0.00000000  0.50000000  1
  Ni  Ni6  1  0.44592800  0.12610500  0.62949500  1
  Ni  Ni7  1  0.87389500  0.55407200  0.87050500  1
  Ni  Ni8  1  0.55407200  0.87389500  0.37050500  1
  Ni  Ni9  1  0.12610500  0.44592800  0.12949500  1
  Cu  Cu10  1  0.83699200  0.61926100  0.37302400  1
  Cu  Cu11  1  0.38073900  0.16300800  0.12697600  1
  Cu  Cu12  1  0.16300800  0.38073900  0.62697600  1
  Cu  Cu13  1  0.61926100  0.83699200  0.87302400  1
  Cu  Cu14  1  0.78013200  0.21986800  0.25000000  1
  Cu  Cu15  1  0.21986800  0.78013200  0.75000000  1
  C  C16  1  0.65880400  0.25816700  0.47642000  1
  C  C17  1  0.74183300  0.34119600  0.02358000  1
  C  C18  1  0.34119600  0.74183300  0.52358000  1
  C  C19  1  0.25816700  0.65880400  0.97642000  1
  C  C20  1  0.96345300  0.79474800  0.30534600  1
  C  C21  1  0.20525200  0.03654700  0.19465400  1
  C  C22  1  0.03654700  0.20525200  0.69465400  1
  C  C23  1  0.79474800  0.96345300  0.80534600  1
  C  C24  1  0.83918700  0.50265200  0.61163500  1
  C  C25  1  0.49734800  0.16081300  0.88836500  1
  C  C26  1  0.16081300  0.49734800  0.38836500  1
  C  C27  1  0.50265200  0.83918700  0.11163500  1
  C  C28  1  0.64492000  0.65515300  0.40001300  1
  C  C29  1  0.34484700  0.35508000  0.09998700  1
  C  C30  1  0.35508000  0.34484700  0.59998700  1
  C  C31  1  0.65515300  0.64492000  0.90001300  1
  C  C32  1  0.75808300  0.02173300  0.23130800  1
  C  C33  1  0.97826700  0.24191700  0.26869200  1
  C  C34  1  0.24191700  0.97826700  0.76869200  1
  C  C35  1  0.02173300  0.75808300  0.73130800  1
  C  C36  1  0.89947200  0.53729300  0.17209600  1
  C  C37  1  0.46270700  0.10052800  0.32790400  1
  C  C38  1  0.10052800  0.46270700  0.82790400  1
  C  C39  1  0.53729300  0.89947200  0.67209600  1
