# generated using pymatgen
data_Cu2NiC15
_symmetry_space_group_name_H-M   'P 1'
_cell_length_a   10.41314650
_cell_length_b   10.41314650
_cell_length_c   5.34780073
_cell_angle_alpha   75.58856022
_cell_angle_beta   75.58856022
_cell_angle_gamma   69.25210574
_symmetry_Int_Tables_number   1
_chemical_formula_structural   Cu2NiC15
_chemical_formula_sum   'Cu4 Ni2 C30'
_cell_volume   516.87694795
_cell_formula_units_Z   2
loop_
 _symmetry_equiv_pos_site_id
 _symmetry_equiv_pos_as_xyz
  1  'x, y, z'
loop_
 _atom_site_type_symbol
 _atom_site_label
 _atom_site_symmetry_multiplicity
 _atom_site_fract_x
 _atom_site_fract_y
 _atom_site_fract_z
 _atom_site_occupancy
  Ni  Ni0  1  0.88190800  0.11809200  0.25000000  1
  Ni  Ni1  1  0.11809200  0.88190800  0.75000000  1
  C  C2  1  0.03955700  0.26431200  0.58996600  1
  C  C3  1  0.34414200  0.65585800  0.25000000  1
  C  C4  1  0.65585800  0.34414200  0.75000000  1
  C  C5  1  0.96044300  0.73568800  0.41003400  1
  C  C6  1  0.26431200  0.03955700  0.08996600  1
  C  C7  1  0.73568800  0.96044300  0.91003400  1
  Cu  Cu8  1  0.46020600  0.20350200  0.42437900  1
  Cu  Cu9  1  0.20350200  0.46020600  0.92437900  1
  Cu  Cu10  1  0.53979400  0.79649800  0.57562100  1
  Cu  Cu11  1  0.79649800  0.53979400  0.07562100  1
  C  C12  1  0.07086300  0.49565400  0.73704200  1
  C  C13  1  0.59372300  0.17475500  0.62309000  1
  C  C14  1  0.87060300  0.95366200  0.50763900  1
  C  C15  1  0.36207000  0.45715500  0.69694600  1
  C  C16  1  0.15348000  0.74691900  0.52934900  1
  C  C17  1  0.82524500  0.40627700  0.87691000  1
  C  C18  1  0.74691900  0.15348000  0.02934900  1
  C  C19  1  0.63793000  0.54284500  0.30305400  1
  C  C20  1  0.92913700  0.50434600  0.26295800  1
  C  C21  1  0.78854500  0.70542800  0.85826500  1
  C  C22  1  0.17475500  0.59372300  0.12309000  1
  C  C23  1  0.50434600  0.92913700  0.76295800  1
  C  C24  1  0.84652000  0.25308100  0.47065100  1
  C  C25  1  0.12939700  0.04633800  0.49236100  1
  C  C26  1  0.21145500  0.29457200  0.14173500  1
  C  C27  1  0.54284500  0.63793000  0.80305400  1
  C  C28  1  0.29457200  0.21145500  0.64173500  1
  C  C29  1  0.40627700  0.82524500  0.37691000  1
  C  C30  1  0.25308100  0.84652000  0.97065100  1
  C  C31  1  0.45715500  0.36207000  0.19694600  1
  C  C32  1  0.49565400  0.07086300  0.23704200  1
  C  C33  1  0.04633800  0.12939700  0.99236100  1
  C  C34  1  0.95366200  0.87060300  0.00763900  1
  C  C35  1  0.70542800  0.78854500  0.35826500  1
