# generated using pymatgen
data_Cu12Ni2C9
_symmetry_space_group_name_H-M   'P 1'
_cell_length_a   10.74064935
_cell_length_b   10.74064935
_cell_length_c   16.55806177
_cell_angle_alpha   56.78258215
_cell_angle_beta   56.78258215
_cell_angle_gamma   28.75380679
_symmetry_Int_Tables_number   1
_chemical_formula_structural   Cu12Ni2C9
_chemical_formula_sum   'Cu24 Ni4 C18'
_cell_volume   757.82583856
_cell_formula_units_Z   2
loop_
 _symmetry_equiv_pos_site_id
 _symmetry_equiv_pos_as_xyz
  1  'x, y, z'
loop_
 _atom_site_type_symbol
 _atom_site_label
 _atom_site_symmetry_multiplicity
 _atom_site_fract_x
 _atom_site_fract_y
 _atom_site_fract_z
 _atom_site_occupancy
  C  C0  1  0.23627300  0.76372700  0.75000000  1
  C  C1  1  0.69700900  0.13047900  0.47314900  1
  C  C2  1  0.77336200  0.20947300  0.61885000  1
  C  C3  1  0.30299100  0.86952100  0.52685100  1
  C  C4  1  0.20947300  0.77336200  0.11885000  1
  C  C5  1  0.86952100  0.30299100  0.02685100  1
  C  C6  1  0.13047900  0.69700900  0.97314900  1
  C  C7  1  0.76372700  0.23627300  0.25000000  1
  C  C8  1  0.22663800  0.79052700  0.38115000  1
  C  C9  1  0.79052700  0.22663800  0.88115000  1
  C  C10  1  0.14878800  0.56851200  0.37666400  1
  C  C11  1  0.56268400  0.19390900  0.13773800  1
  C  C12  1  0.80609100  0.43731600  0.36226200  1
  C  C13  1  0.43148800  0.85121200  0.12333600  1
  C  C14  1  0.43731500  0.80609100  0.86226200  1
  C  C15  1  0.19390900  0.56268400  0.63773800  1
  C  C16  1  0.85121200  0.43148800  0.62333600  1
  C  C17  1  0.56851200  0.14878800  0.87666400  1
  Ni  Ni18  1  0.56494800  0.90623800  0.40148200  1
  Ni  Ni19  1  0.43505200  0.09376200  0.59851800  1
  Ni  Ni20  1  0.90623800  0.56494800  0.90148200  1
  Ni  Ni21  1  0.09376200  0.43505200  0.09851800  1
  Cu  Cu22  1  0.56839100  0.55453500  0.13283600  1
  Cu  Cu23  1  0.23681400  0.94948200  0.97992200  1
  Cu  Cu24  1  0.68273800  0.45366500  0.93141800  1
  Cu  Cu25  1  0.79780100  0.12284900  0.14234800  1
  Cu  Cu26  1  0.12284900  0.79780100  0.64234800  1
  Cu  Cu27  1  0.55453500  0.56839100  0.63283600  1
  Cu  Cu28  1  0.54886900  0.22995300  0.74798800  1
  Cu  Cu29  1  0.93330500  0.91529700  0.35524900  1
  Cu  Cu30  1  0.20219900  0.87715100  0.85765200  1
  Cu  Cu31  1  0.31726200  0.54633500  0.06858200  1
  Cu  Cu32  1  0.22995300  0.54886900  0.24798800  1
  Cu  Cu33  1  0.06669500  0.08470300  0.64475100  1
  Cu  Cu34  1  0.08470300  0.06669500  0.14475100  1
  Cu  Cu35  1  0.76318600  0.05051800  0.02007800  1
  Cu  Cu36  1  0.05051800  0.76318600  0.52007800  1
  Cu  Cu37  1  0.45113100  0.77004700  0.25201200  1
  Cu  Cu38  1  0.45366500  0.68273800  0.43141800  1
  Cu  Cu39  1  0.91529700  0.93330500  0.85524900  1
  Cu  Cu40  1  0.94948200  0.23681400  0.47992200  1
  Cu  Cu41  1  0.87715100  0.20219900  0.35765200  1
  Cu  Cu42  1  0.54633500  0.31726200  0.56858200  1
  Cu  Cu43  1  0.43160900  0.44546500  0.86716400  1
  Cu  Cu44  1  0.44546500  0.43160900  0.36716400  1
  Cu  Cu45  1  0.77004700  0.45113100  0.75201200  1
