# generated using pymatgen
data_CuNi3C8
_symmetry_space_group_name_H-M   'P 1'
_cell_length_a   5.14548456
_cell_length_b   5.14548456
_cell_length_c   6.53413299
_cell_angle_alpha   89.48294690
_cell_angle_beta   89.48294690
_cell_angle_gamma   66.62818138
_symmetry_Int_Tables_number   1
_chemical_formula_structural   CuNi3C8
_chemical_formula_sum   'Cu1 Ni3 C8'
_cell_volume   158.79402717
_cell_formula_units_Z   1
loop_
 _symmetry_equiv_pos_site_id
 _symmetry_equiv_pos_as_xyz
  1  'x, y, z'
loop_
 _atom_site_type_symbol
 _atom_site_label
 _atom_site_symmetry_multiplicity
 _atom_site_fract_x
 _atom_site_fract_y
 _atom_site_fract_z
 _atom_site_occupancy
  Ni  Ni0  1  0.35684700  0.35684700  0.73485000  1
  Ni  Ni1  1  0.64315300  0.64315300  0.26515000  1
  Ni  Ni2  1  0.00000000  0.00000000  0.50000000  1
  Cu  Cu3  1  0.00000000  0.00000000  0.00000000  1
  C  C4  1  0.21135600  0.73392900  0.73185200  1
  C  C5  1  0.24776400  0.24776400  0.95108400  1
  C  C6  1  0.26607100  0.78864400  0.26814800  1
  C  C7  1  0.22670300  0.22670300  0.54530100  1
  C  C8  1  0.78864400  0.26607100  0.26814800  1
  C  C9  1  0.73392900  0.21135600  0.73185200  1
  C  C10  1  0.77329700  0.77329700  0.45469900  1
  C  C11  1  0.75223600  0.75223600  0.04891600  1
