# generated using pymatgen
data_Cu3Ni4C7
_symmetry_space_group_name_H-M   'P 1'
_cell_length_a   19.44566845
_cell_length_b   19.44566845
_cell_length_c   6.89233800
_cell_angle_alpha   90.00000000
_cell_angle_beta   90.00000000
_cell_angle_gamma   120.00000153
_symmetry_Int_Tables_number   1
_chemical_formula_structural   Cu3Ni4C7
_chemical_formula_sum   'Cu18 Ni24 C42'
_cell_volume   2257.05917529
_cell_formula_units_Z   6
loop_
 _symmetry_equiv_pos_site_id
 _symmetry_equiv_pos_as_xyz
  1  'x, y, z'
loop_
 _atom_site_type_symbol
 _atom_site_label
 _atom_site_symmetry_multiplicity
 _atom_site_fract_x
 _atom_site_fract_y
 _atom_site_fract_z
 _atom_site_occupancy
  C  C0  1  0.87178700  0.87178700  0.80961100  1
  C  C1  1  0.87178700  0.00000000  0.30961100  1
  C  C2  1  0.33255500  0.53623100  0.98758900  1
  C  C3  1  0.00000000  0.12821300  0.80961100  1
  C  C4  1  0.46376900  0.79632400  0.98758900  1
  C  C5  1  0.66744500  0.20367600  0.98758900  1
  C  C6  1  0.46376900  0.66744500  0.48758900  1
  C  C7  1  0.53623100  0.20367600  0.48758900  1
  C  C8  1  0.66744500  0.46376900  0.48758900  1
  C  C9  1  0.79632400  0.33255500  0.48758900  1
  C  C10  1  0.33255500  0.79632400  0.48758900  1
  C  C11  1  0.12821300  0.00000000  0.80961100  1
  C  C12  1  0.20367600  0.53623100  0.48758900  1
  C  C13  1  0.79632400  0.46376900  0.98758900  1
  C  C14  1  0.12821300  0.12821300  0.30961100  1
  C  C15  1  0.53623100  0.33255500  0.98758900  1
  C  C16  1  0.00000000  0.87178700  0.30961100  1
  C  C17  1  0.20367600  0.66744500  0.98758900  1
  C  C18  1  0.42723400  0.33551600  0.06895200  1
  C  C19  1  0.42723400  0.09171900  0.56895200  1
  C  C20  1  0.33551600  0.90828100  0.56895200  1
  C  C21  1  0.39994500  0.00000000  0.81038800  1
  C  C22  1  0.09171900  0.66448400  0.06895200  1
  C  C23  1  0.00000000  0.76301300  0.21819900  1
  C  C24  1  0.33551600  0.42723400  0.06895200  1
  C  C25  1  0.00000000  0.23698700  0.71819900  1
  C  C26  1  0.60005500  0.60005500  0.81038800  1
  C  C27  1  0.76301300  0.00000000  0.21819900  1
  C  C28  1  0.76301300  0.76301300  0.71819900  1
  C  C29  1  0.66448400  0.57276600  0.56895200  1
  C  C30  1  0.90828100  0.33551600  0.56895200  1
  C  C31  1  0.00000000  0.39994500  0.81038800  1
  C  C32  1  0.60005500  0.00000000  0.31038800  1
  C  C33  1  0.09171900  0.42723400  0.56895200  1
  C  C34  1  0.39994500  0.39994500  0.31038800  1
  C  C35  1  0.90828100  0.57276600  0.06895200  1
  C  C36  1  0.00000000  0.60005500  0.31038800  1
  C  C37  1  0.57276600  0.90828100  0.06895200  1
  C  C38  1  0.57276600  0.66448400  0.56895200  1
  C  C39  1  0.66448400  0.09171900  0.06895200  1
  C  C40  1  0.23698700  0.23698700  0.21819900  1
  C  C41  1  0.23698700  0.00000000  0.71819900  1
  Ni  Ni42  1  0.30736900  0.30736900  0.45792000  1
  Ni  Ni43  1  0.89770300  0.67635000  0.06671800  1
  Ni  Ni44  1  0.41040900  0.41040900  0.86993600  1
  Ni  Ni45  1  0.41040900  0.00000000  0.36993600  1
  Ni  Ni46  1  0.69263100  0.00000000  0.45792000  1
  Ni  Ni47  1  0.89770300  0.22135200  0.56671800  1
  Ni  Ni48  1  0.00000000  0.41040900  0.36993600  1
  Ni  Ni49  1  0.67635000  0.77864800  0.56671800  1
  Ni  Ni50  1  0.58959100  0.00000000  0.86993600  1
  Ni  Ni51  1  0.00000000  0.69263100  0.45792000  1
  Ni  Ni52  1  0.00000000  0.58959100  0.86993600  1
  Ni  Ni53  1  0.67635000  0.89770300  0.06671800  1
  Ni  Ni54  1  0.10229700  0.77864800  0.06671800  1
  Ni  Ni55  1  0.77864800  0.67635000  0.56671800  1
  Ni  Ni56  1  0.22135200  0.89770300  0.56671800  1
  Ni  Ni57  1  0.10229700  0.32365000  0.56671800  1
  Ni  Ni58  1  0.32365000  0.22135200  0.06671800  1
  Ni  Ni59  1  0.69263100  0.69263100  0.95792000  1
  Ni  Ni60  1  0.30736900  0.00000000  0.95792000  1
  Ni  Ni61  1  0.32365000  0.10229700  0.56671800  1
  Ni  Ni62  1  0.58959100  0.58959100  0.36993600  1
  Ni  Ni63  1  0.00000000  0.30736900  0.95792000  1
  Ni  Ni64  1  0.22135200  0.32365000  0.06671800  1
  Ni  Ni65  1  0.77864800  0.10229700  0.06671800  1
  Cu  Cu66  1  0.33415500  0.79713200  0.09943000  1
  Cu  Cu67  1  0.20286800  0.66584500  0.59943000  1
  Cu  Cu68  1  0.66584500  0.46297700  0.09943000  1
  Cu  Cu69  1  0.87089900  0.00000000  0.69398700  1
  Cu  Cu70  1  0.33415500  0.53702300  0.59943000  1
  Cu  Cu71  1  0.46297700  0.79713200  0.59943000  1
  Cu  Cu72  1  0.53702300  0.20286800  0.09943000  1
  Cu  Cu73  1  0.53702300  0.33415500  0.59943000  1
  Cu  Cu74  1  0.87089900  0.87089900  0.19398700  1
  Cu  Cu75  1  0.79713200  0.46297700  0.59943000  1
  Cu  Cu76  1  0.00000000  0.87089900  0.69398700  1
  Cu  Cu77  1  0.46297700  0.66584500  0.09943000  1
  Cu  Cu78  1  0.66584500  0.20286800  0.59943000  1
  Cu  Cu79  1  0.12910100  0.12910100  0.69398700  1
  Cu  Cu80  1  0.20286800  0.53702300  0.09943000  1
  Cu  Cu81  1  0.00000000  0.12910100  0.19398700  1
  Cu  Cu82  1  0.12910100  0.00000000  0.19398700  1
  Cu  Cu83  1  0.79713200  0.33415500  0.09943000  1
