# generated using pymatgen
data_Cu4NiC7
_symmetry_space_group_name_H-M   'P 1'
_cell_length_a   6.33350800
_cell_length_b   6.45252596
_cell_length_c   7.48753600
_cell_angle_alpha   90.00000000
_cell_angle_beta   90.00000000
_cell_angle_gamma   119.39169153
_symmetry_Int_Tables_number   1
_chemical_formula_structural   Cu4NiC7
_chemical_formula_sum   'Cu4 Ni1 C7'
_cell_volume   266.60803775
_cell_formula_units_Z   1
loop_
 _symmetry_equiv_pos_site_id
 _symmetry_equiv_pos_as_xyz
  1  'x, y, z'
loop_
 _atom_site_type_symbol
 _atom_site_label
 _atom_site_symmetry_multiplicity
 _atom_site_fract_x
 _atom_site_fract_y
 _atom_site_fract_z
 _atom_site_occupancy
  C  C0  1  0.93816600  0.61805400  0.78127500  1
  C  C1  1  0.59532000  0.00000000  0.50000000  1
  C  C2  1  0.93816600  0.61805400  0.21872600  1
  C  C3  1  0.32011200  0.38194600  0.21872600  1
  C  C4  1  0.32011200  0.38194600  0.78127400  1
  Ni  Ni5  1  0.53888300  0.00000000  0.00000000  1
  Cu  Cu6  1  0.34997800  0.00000000  0.77218900  1
  Cu  Cu7  1  0.34997800  0.00000000  0.22781100  1
  Cu  Cu8  1  0.58930500  0.70403900  0.00000000  1
  Cu  Cu9  1  0.88526600  0.29596100  0.00000000  1
  C  C10  1  0.05651900  0.34451300  0.50000000  1
  C  C11  1  0.71200600  0.65548700  0.50000000  1
