# generated using pymatgen
data_Cu20(NiC6)3
_symmetry_space_group_name_H-M   'P 1'
_cell_length_a   7.56067778
_cell_length_b   7.56067778
_cell_length_c   18.39173739
_cell_angle_alpha   78.81751592
_cell_angle_beta   78.81751592
_cell_angle_gamma   53.15743836
_symmetry_Int_Tables_number   1
_chemical_formula_structural   Cu20(NiC6)3
_chemical_formula_sum   'Cu40 Ni6 C36'
_cell_volume   821.35406720
_cell_formula_units_Z   2
loop_
 _symmetry_equiv_pos_site_id
 _symmetry_equiv_pos_as_xyz
  1  'x, y, z'
loop_
 _atom_site_type_symbol
 _atom_site_label
 _atom_site_symmetry_multiplicity
 _atom_site_fract_x
 _atom_site_fract_y
 _atom_site_fract_z
 _atom_site_occupancy
  C  C0  1  0.81152000  0.85348700  0.39253600  1
  C  C1  1  0.14651300  0.18848000  0.10746400  1
  C  C2  1  0.18848000  0.14651300  0.60746400  1
  C  C3  1  0.85348700  0.81152000  0.89253600  1
  C  C4  1  0.28924400  0.69851200  0.33908500  1
  C  C5  1  0.30148800  0.71075600  0.16091500  1
  C  C6  1  0.71075600  0.30148800  0.66091500  1
  C  C7  1  0.69851200  0.28924400  0.83908500  1
  C  C8  1  0.15122800  0.95702900  0.35026600  1
  C  C9  1  0.04297100  0.84877200  0.14973400  1
  C  C10  1  0.84877200  0.04297100  0.64973400  1
  C  C11  1  0.95702900  0.15122800  0.85026600  1
  C  C12  1  0.71800800  0.62501900  0.30254000  1
  C  C13  1  0.37498100  0.28199200  0.19746000  1
  C  C14  1  0.28199200  0.37498100  0.69746000  1
  C  C15  1  0.62501900  0.71800800  0.80254000  1
  C  C16  1  0.76100900  0.78684500  0.24484400  1
  C  C17  1  0.21315500  0.23899100  0.25515600  1
  C  C18  1  0.23899100  0.21315500  0.75515600  1
  C  C19  1  0.78684500  0.76100900  0.74484400  1
  C  C20  1  0.53674500  0.70931100  0.49155000  1
  C  C21  1  0.29068900  0.46325500  0.00845000  1
  C  C22  1  0.46325500  0.29068900  0.50845000  1
  C  C23  1  0.70931100  0.53674500  0.99155000  1
  C  C24  1  0.78820100  0.49862300  0.48277100  1
  C  C25  1  0.50137700  0.21179900  0.01722900  1
  C  C26  1  0.21179900  0.50137700  0.51722900  1
  C  C27  1  0.49862300  0.78820100  0.98277100  1
  C  C28  1  0.66584800  0.31816900  0.39361700  1
  C  C29  1  0.68183100  0.33415200  0.10638300  1
  C  C30  1  0.33415200  0.68183100  0.60638300  1
  C  C31  1  0.31816900  0.66584800  0.89361700  1
  C  C32  1  0.83716800  0.18841900  0.45436500  1
  C  C33  1  0.81158100  0.16283200  0.04563500  1
  C  C34  1  0.16283200  0.81158100  0.54563500  1
  C  C35  1  0.18841900  0.83716800  0.95436500  1
  Ni  Ni36  1  0.67430500  0.32569500  0.25000000  1
  Ni  Ni37  1  0.32569500  0.67430500  0.75000000  1
  Ni  Ni38  1  0.81068000  0.75412700  0.59027800  1
  Ni  Ni39  1  0.24587300  0.18932000  0.90972200  1
  Ni  Ni40  1  0.18932000  0.24587300  0.40972200  1
  Ni  Ni41  1  0.75412700  0.81068000  0.09027800  1
  Cu  Cu42  1  0.14356800  0.82772000  0.35750600  1
  Cu  Cu43  1  0.17228000  0.85643200  0.14249400  1
  Cu  Cu44  1  0.85643200  0.17228000  0.64249400  1
  Cu  Cu45  1  0.82772000  0.14356800  0.85750600  1
  Cu  Cu46  1  0.75849700  0.72912900  0.29799300  1
  Cu  Cu47  1  0.27087100  0.24150300  0.20200700  1
  Cu  Cu48  1  0.24150300  0.27087100  0.70200700  1
  Cu  Cu49  1  0.72912900  0.75849700  0.79799300  1
  Cu  Cu50  1  0.67432100  0.64116600  0.45719000  1
  Cu  Cu51  1  0.35883400  0.32567900  0.04281000  1
  Cu  Cu52  1  0.32567900  0.35883400  0.54281000  1
  Cu  Cu53  1  0.64116600  0.67432100  0.95719000  1
  Cu  Cu54  1  0.71723300  0.19861200  0.43593500  1
  Cu  Cu55  1  0.80138800  0.28276700  0.06406500  1
  Cu  Cu56  1  0.28276700  0.80138800  0.56406500  1
  Cu  Cu57  1  0.19861200  0.71723300  0.93593500  1
  Cu  Cu58  1  0.71578000  0.11332800  0.28737000  1
  Cu  Cu59  1  0.88667200  0.28422000  0.21263000  1
  Cu  Cu60  1  0.28422000  0.88667200  0.71263000  1
  Cu  Cu61  1  0.11332800  0.71578000  0.78737000  1
  Cu  Cu62  1  0.58247000  0.48519700  0.30705300  1
  Cu  Cu63  1  0.51480300  0.41753000  0.19294700  1
  Cu  Cu64  1  0.41753000  0.51480300  0.69294700  1
  Cu  Cu65  1  0.48519700  0.58247000  0.80705300  1
  Cu  Cu66  1  0.93430300  0.77819600  0.51774500  1
  Cu  Cu67  1  0.22180400  0.06569700  0.98225500  1
  Cu  Cu68  1  0.06569700  0.22180400  0.48225500  1
  Cu  Cu69  1  0.77819600  0.93430300  0.01774500  1
  Cu  Cu70  1  0.57054700  0.91041500  0.58171300  1
  Cu  Cu71  1  0.08958500  0.42945300  0.91828700  1
  Cu  Cu72  1  0.42945300  0.08958500  0.41828700  1
  Cu  Cu73  1  0.91041500  0.57054700  0.08171300  1
  Cu  Cu74  1  0.87615200  0.52312100  0.60315700  1
  Cu  Cu75  1  0.47687900  0.12384800  0.89684300  1
  Cu  Cu76  1  0.12384800  0.47687900  0.39684300  1
  Cu  Cu77  1  0.52312100  0.87615200  0.10315700  1
  Cu  Cu78  1  0.87004900  0.80499600  0.65141500  1
  Cu  Cu79  1  0.19500400  0.12995100  0.84858500  1
  Cu  Cu80  1  0.12995100  0.19500400  0.34858500  1
  Cu  Cu81  1  0.80499600  0.87004900  0.15141500  1
