# generated using pymatgen
data_Cu4NiC4
_symmetry_space_group_name_H-M   'P 1'
_cell_length_a   7.74934167
_cell_length_b   7.74934167
_cell_length_c   10.87382671
_cell_angle_alpha   77.17654049
_cell_angle_beta   77.17654049
_cell_angle_gamma   51.08342836
_symmetry_Int_Tables_number   1
_chemical_formula_structural   Cu4NiC4
_chemical_formula_sum   'Cu16 Ni4 C16'
_cell_volume   492.46121984
_cell_formula_units_Z   4
loop_
 _symmetry_equiv_pos_site_id
 _symmetry_equiv_pos_as_xyz
  1  'x, y, z'
loop_
 _atom_site_type_symbol
 _atom_site_label
 _atom_site_symmetry_multiplicity
 _atom_site_fract_x
 _atom_site_fract_y
 _atom_site_fract_z
 _atom_site_occupancy
  C  C0  1  0.17686300  0.66470200  0.44025400  1
  C  C1  1  0.33529800  0.82313700  0.05974600  1
  C  C2  1  0.82313700  0.33529800  0.55974600  1
  C  C3  1  0.66470200  0.17686300  0.94025400  1
  C  C4  1  0.50000000  0.00000000  0.50000000  1
  C  C5  1  0.00000000  0.50000000  0.00000000  1
  C  C6  1  0.75695100  0.24304900  0.25000000  1
  C  C7  1  0.24304900  0.75695100  0.75000000  1
  C  C8  1  0.26405700  0.09593200  0.30166300  1
  C  C9  1  0.90406800  0.73594300  0.19833700  1
  C  C10  1  0.73594300  0.90406800  0.69833700  1
  C  C11  1  0.09593200  0.26405700  0.80166300  1
  C  C12  1  0.40594800  0.18412000  0.25222900  1
  C  C13  1  0.81588000  0.59405200  0.24777100  1
  C  C14  1  0.59405200  0.81588000  0.74777100  1
  C  C15  1  0.18412000  0.40594800  0.75222900  1
  Ni  Ni16  1  0.40922700  0.06129100  0.30533400  1
  Ni  Ni17  1  0.93870900  0.59077300  0.19466600  1
  Ni  Ni18  1  0.59077300  0.93870900  0.69466600  1
  Ni  Ni19  1  0.06129100  0.40922700  0.80533400  1
  Cu  Cu20  1  0.64422500  0.14454200  0.43529200  1
  Cu  Cu21  1  0.85545800  0.35577500  0.06470800  1
  Cu  Cu22  1  0.35577500  0.85545800  0.56470800  1
  Cu  Cu23  1  0.14454200  0.64422500  0.93529200  1
  Cu  Cu24  1  0.76908800  0.72809000  0.46403700  1
  Cu  Cu25  1  0.27191000  0.23091200  0.03596300  1
  Cu  Cu26  1  0.23091200  0.27191000  0.53596300  1
  Cu  Cu27  1  0.72809000  0.76908800  0.96403700  1
  Cu  Cu28  1  0.89037700  0.97155200  0.18550900  1
  Cu  Cu29  1  0.02844800  0.10962300  0.31449100  1
  Cu  Cu30  1  0.10962300  0.02844800  0.81449100  1
  Cu  Cu31  1  0.97155200  0.89037700  0.68550900  1
  Cu  Cu32  1  0.48413400  0.37091100  0.19075900  1
  Cu  Cu33  1  0.62908900  0.51586600  0.30924100  1
  Cu  Cu34  1  0.51586600  0.62908900  0.80924100  1
  Cu  Cu35  1  0.37091100  0.48413400  0.69075900  1
