# generated using pymatgen
data_CuNiC9
_symmetry_space_group_name_H-M   'P 1'
_cell_length_a   12.24627876
_cell_length_b   12.81334719
_cell_length_c   18.14487301
_cell_angle_alpha   90.00000000
_cell_angle_beta   90.00000000
_cell_angle_gamma   90.00000000
_symmetry_Int_Tables_number   1
_chemical_formula_structural   CuNiC9
_chemical_formula_sum   'Cu12 Ni12 C108'
_cell_volume   2847.21765506
_cell_formula_units_Z   12
loop_
 _symmetry_equiv_pos_site_id
 _symmetry_equiv_pos_as_xyz
  1  'x, y, z'
loop_
 _atom_site_type_symbol
 _atom_site_label
 _atom_site_symmetry_multiplicity
 _atom_site_fract_x
 _atom_site_fract_y
 _atom_site_fract_z
 _atom_site_occupancy
  C  C0  1  0.63206785  0.49440792  0.40303255  1
  C  C1  1  0.63950255  0.95815292  0.40523477  1
  C  C2  1  0.36793215  0.50559208  0.90303255  1
  C  C3  1  0.86455148  0.52081256  0.24140539  1
  C  C4  1  0.86623712  0.51626213  0.56879545  1
  C  C5  1  0.63544852  0.52081256  0.74140539  1
  C  C6  1  0.13376288  0.48373787  0.06879545  1
  C  C7  1  0.37585854  0.99771683  0.56500754  1
  C  C8  1  0.13950255  0.04184708  0.40523477  1
  C  C9  1  0.87585854  0.00228317  0.56500754  1
  C  C10  1  0.12414146  0.99771683  0.06500754  1
  C  C11  1  0.63376288  0.51626213  0.06879545  1
  C  C12  1  0.13206785  0.50559208  0.40303255  1
  C  C13  1  0.36049745  0.04184708  0.90523477  1
  C  C14  1  0.87231625  0.00113564  0.24461371  1
  C  C15  1  0.13544852  0.47918744  0.74140539  1
  C  C16  1  0.12768375  0.99886436  0.74461371  1
  C  C17  1  0.37231625  0.99886436  0.24461371  1
  C  C18  1  0.86793215  0.49440792  0.90303255  1
  C  C19  1  0.86049745  0.95815292  0.90523477  1
  C  C20  1  0.62768375  0.00113564  0.74461371  1
  C  C21  1  0.62414146  0.00228317  0.06500754  1
  C  C22  1  0.36455148  0.47918744  0.24140539  1
  C  C23  1  0.36623712  0.48373787  0.56879545  1
  Ni  Ni24  1  0.86354631  0.26261668  0.40484805  1
  Ni  Ni25  1  0.37047892  0.75906137  0.73616169  1
  Ni  Ni26  1  0.12964953  0.75438092  0.57287240  1
  Ni  Ni27  1  0.13645369  0.73738332  0.90484805  1
  Ni  Ni28  1  0.63645369  0.26261668  0.90484805  1
  Ni  Ni29  1  0.62952108  0.24093863  0.23616169  1
  Ni  Ni30  1  0.87035047  0.24561908  0.07287240  1
  Ni  Ni31  1  0.36354631  0.73738332  0.40484805  1
  Ni  Ni32  1  0.37035047  0.75438092  0.07287240  1
  Ni  Ni33  1  0.87047892  0.24093863  0.73616169  1
  Ni  Ni34  1  0.12952108  0.75906137  0.23616169  1
  Ni  Ni35  1  0.62964953  0.24561908  0.57287240  1
  Cu  Cu36  1  0.91412489  0.74542238  0.40521998  1
  Cu  Cu37  1  0.41260343  0.24576338  0.73752657  1
  Cu  Cu38  1  0.08587511  0.25457762  0.90521998  1
  Cu  Cu39  1  0.40922923  0.24011063  0.07399891  1
  Cu  Cu40  1  0.59077077  0.75988937  0.57399891  1
  Cu  Cu41  1  0.58739657  0.75423662  0.23752657  1
  Cu  Cu42  1  0.58587511  0.74542238  0.90521998  1
  Cu  Cu43  1  0.41412489  0.25457762  0.40521998  1
  Cu  Cu44  1  0.91260343  0.75423662  0.73752657  1
  Cu  Cu45  1  0.09077077  0.24011063  0.57399891  1
  Cu  Cu46  1  0.08739657  0.24576338  0.23752657  1
  Cu  Cu47  1  0.90922923  0.75988937  0.07399891  1
  C  C48  1  0.62248643  0.10750437  0.53933606  1
  C  C49  1  0.11237608  0.11879890  0.90741981  1
  C  C50  1  0.50249786  0.76685246  0.49295764  1
  C  C51  1  0.29175591  0.17242124  0.74846320  1
  C  C52  1  0.20185370  0.15513496  0.55888134  1
  C  C53  1  0.38266204  0.62248004  0.70156452  1
  C  C54  1  0.37447217  0.89826437  0.76847445  1
  C  C55  1  0.75261100  0.28783315  0.81792562  1
  C  C56  1  0.49304750  0.29490067  0.48626261  1
  C  C57  1  0.99750214  0.76685246  0.99295764  1
  C  C58  1  0.61237608  0.88120110  0.90741981  1
  C  C59  1  0.98605552  0.80709614  0.15423165  1
  C  C60  1  0.49997377  0.22047587  0.81736326  1
  C  C61  1  0.38762392  0.11879890  0.40741981  1
  C  C62  1  0.01394448  0.19290386  0.65423165  1
  C  C63  1  0.00894278  0.28862310  0.82201977  1
  C  C64  1  0.88052969  0.61952956  0.73231082  1
  C  C65  1  0.40261918  0.59472130  0.40195514  1
  C  C66  1  0.13873247  0.36920616  0.58726312  1
  C  C67  1  0.00249786  0.23314754  0.49295764  1
  C  C68  1  0.11947031  0.38047044  0.23231082  1
  C  C69  1  0.09738082  0.59472130  0.90195514  1
  C  C70  1  0.87751357  0.10750437  0.03933606  1
  C  C71  1  0.61733796  0.37751996  0.20156452  1
  C  C72  1  0.62071116  0.38248186  0.60750920  1
  C  C73  1  0.16376805  0.88075320  0.90778432  1
  C  C74  1  0.51594584  0.79898044  0.15436289  1
  C  C75  1  0.70824409  0.82757876  0.24846320  1
  C  C76  1  0.36126753  0.36920616  0.08726312  1
  C  C77  1  0.87447217  0.10173563  0.76847445  1
  C  C78  1  0.63873247  0.63079384  0.58726312  1
  C  C79  1  0.70975621  0.67458214  0.90501283  1
  C  C80  1  0.79814630  0.84486504  0.05888134  1
  C  C81  1  0.99105722  0.71137690  0.32201977  1
  C  C82  1  0.48405416  0.20101956  0.65436289  1
  C  C83  1  0.24906015  0.70707658  0.49167889  1
  C  C84  1  0.37928884  0.61751814  0.10750920  1
  C  C85  1  0.99304750  0.70509933  0.48626261  1
  C  C86  1  0.83623195  0.11924680  0.40778432  1
  C  C87  1  0.01594584  0.20101956  0.15436289  1
  C  C88  1  0.29024379  0.32541786  0.40501283  1
  C  C89  1  0.88266204  0.37751996  0.70156452  1
  C  C90  1  0.50002623  0.77952413  0.31736326  1
  C  C91  1  0.12248643  0.89249563  0.53933606  1
  C  C92  1  0.25078246  0.79924219  0.15454584  1
  C  C93  1  0.38052969  0.38047044  0.73231082  1
  C  C94  1  0.20975621  0.32541786  0.90501283  1
  C  C95  1  0.33623195  0.88075320  0.40778432  1
  C  C96  1  0.25093985  0.70707658  0.99167889  1
  C  C97  1  0.74906015  0.29292342  0.49167889  1
  C  C98  1  0.51394448  0.80709614  0.65423165  1
  C  C99  1  0.24738900  0.71216685  0.31792562  1
  C  C100  1  0.11733796  0.62248004  0.20156452  1
  C  C101  1  0.99997377  0.77952413  0.81736326  1
  C  C102  1  0.88762392  0.88120110  0.40741981  1
  C  C103  1  0.00695250  0.29490067  0.98626261  1
  C  C104  1  0.74738900  0.28783315  0.31792562  1
  C  C105  1  0.29814630  0.15513496  0.05888134  1
  C  C106  1  0.24921754  0.79924219  0.65454584  1
  C  C107  1  0.75078246  0.20075781  0.15454584  1
  C  C108  1  0.62552783  0.10173563  0.26847445  1
  C  C109  1  0.66376805  0.11924680  0.90778432  1
  C  C110  1  0.61947031  0.61952956  0.23231082  1
  C  C111  1  0.20824409  0.17242124  0.24846320  1
  C  C112  1  0.49750214  0.23314754  0.99295764  1
  C  C113  1  0.12552783  0.89826437  0.26847445  1
  C  C114  1  0.00002623  0.22047587  0.31736326  1
  C  C115  1  0.79175591  0.82757876  0.74846320  1
  C  C116  1  0.79024379  0.67458214  0.40501283  1
  C  C117  1  0.86126753  0.63079384  0.08726312  1
  C  C118  1  0.48605552  0.19290386  0.15423165  1
  C  C119  1  0.70185370  0.84486504  0.55888134  1
  C  C120  1  0.37751357  0.89249563  0.03933606  1
  C  C121  1  0.90261918  0.40527870  0.40195514  1
  C  C122  1  0.75093985  0.29292342  0.99167889  1
  C  C123  1  0.50894278  0.71137690  0.82201977  1
  C  C124  1  0.59738082  0.40527870  0.90195514  1
  C  C125  1  0.87928884  0.38248186  0.10750920  1
  C  C126  1  0.25261100  0.71216685  0.81792562  1
  C  C127  1  0.49105722  0.28862310  0.32201977  1
  C  C128  1  0.98405416  0.79898044  0.65436289  1
  C  C129  1  0.12071116  0.61751814  0.60750920  1
  C  C130  1  0.74921754  0.20075781  0.65454584  1
  C  C131  1  0.50695250  0.70509933  0.98626261  1
