# generated using pymatgen
data_Cu5NiC6
_symmetry_space_group_name_H-M   'P 1'
_cell_length_a   3.98442000
_cell_length_b   8.94111600
_cell_length_c   17.87615561
_cell_angle_alpha   85.05099250
_cell_angle_beta   90.00000000
_cell_angle_gamma   90.00000000
_symmetry_Int_Tables_number   1
_chemical_formula_structural   Cu5NiC6
_chemical_formula_sum   'Cu10 Ni2 C12'
_cell_volume   634.46670406
_cell_formula_units_Z   2
loop_
 _symmetry_equiv_pos_site_id
 _symmetry_equiv_pos_as_xyz
  1  'x, y, z'
loop_
 _atom_site_type_symbol
 _atom_site_label
 _atom_site_symmetry_multiplicity
 _atom_site_fract_x
 _atom_site_fract_y
 _atom_site_fract_z
 _atom_site_occupancy
  Ni  Ni0  1  0.75000000  0.37524800  0.21551900  1
  Ni  Ni1  1  0.25000000  0.62475200  0.78448100  1
  Cu  Cu2  1  0.75000000  0.65750900  0.54438600  1
  Cu  Cu3  1  0.25000000  0.34249100  0.45561400  1
  Cu  Cu4  1  0.75000000  0.76591700  0.31468400  1
  Cu  Cu5  1  0.25000000  0.23408300  0.68531600  1
  Cu  Cu6  1  0.75000000  0.03450200  0.38335000  1
  Cu  Cu7  1  0.25000000  0.96549800  0.61665000  1
  Cu  Cu8  1  0.75000000  0.11352200  0.88585800  1
  Cu  Cu9  1  0.25000000  0.88647800  0.11414200  1
  Cu  Cu10  1  0.75000000  0.30461000  0.00448400  1
  Cu  Cu11  1  0.25000000  0.69539000  0.99551600  1
  C  C12  1  0.75000000  0.79767300  0.66759400  1
  C  C13  1  0.25000000  0.20232700  0.33240600  1
  C  C14  1  0.75000000  0.16315300  0.50496400  1
  C  C15  1  0.25000000  0.83684700  0.49503600  1
  C  C16  1  0.75000000  0.30591400  0.76510800  1
  C  C17  1  0.25000000  0.69408600  0.23489200  1
  C  C18  1  0.75000000  0.59471900  0.92596100  1
  C  C19  1  0.25000000  0.40528100  0.07403900  1
  C  C20  1  0.75000000  0.53359500  0.41362700  1
  C  C21  1  0.25000000  0.46640500  0.58637300  1
  C  C22  1  0.75000000  0.05204200  0.13182200  1
  C  C23  1  0.25000000  0.94795800  0.86817800  1
