# generated using pymatgen
data_Cu3NiC16
_symmetry_space_group_name_H-M   'P 1'
_cell_length_a   10.78215611
_cell_length_b   10.78215611
_cell_length_c   10.78215674
_cell_angle_alpha   33.97782139
_cell_angle_beta   33.97782139
_cell_angle_gamma   33.97782520
_symmetry_Int_Tables_number   1
_chemical_formula_structural   Cu3NiC16
_chemical_formula_sum   'Cu3 Ni1 C16'
_cell_volume   348.96872051
_cell_formula_units_Z   1
loop_
 _symmetry_equiv_pos_site_id
 _symmetry_equiv_pos_as_xyz
  1  'x, y, z'
loop_
 _atom_site_type_symbol
 _atom_site_label
 _atom_site_symmetry_multiplicity
 _atom_site_fract_x
 _atom_site_fract_y
 _atom_site_fract_z
 _atom_site_occupancy
  C  C0  1  0.71492400  0.71492400  0.71492400  1
  C  C1  1  0.86981700  0.86981700  0.86981700  1
  C  C2  1  0.28507600  0.28507600  0.28507600  1
  C  C3  1  0.13018300  0.13018300  0.13018300  1
  Ni  Ni4  1  0.00000000  0.00000000  0.00000000  1
  Cu  Cu5  1  0.41020700  0.41020700  0.41020700  1
  Cu  Cu6  1  0.58979300  0.58979300  0.58979300  1
  Cu  Cu7  1  0.50000000  0.50000000  0.50000000  1
  C  C8  1  0.17455300  0.59713300  0.59713300  1
  C  C9  1  0.59713300  0.59713300  0.17455300  1
  C  C10  1  0.69271000  0.21629500  0.21629500  1
  C  C11  1  0.30729000  0.78370500  0.78370500  1
  C  C12  1  0.21629500  0.21629500  0.69271000  1
  C  C13  1  0.82544700  0.40286700  0.40286700  1
  C  C14  1  0.78370500  0.78370500  0.30729000  1
  C  C15  1  0.40286700  0.40286700  0.82544700  1
  C  C16  1  0.40286700  0.82544700  0.40286700  1
  C  C17  1  0.21629500  0.69271000  0.21629500  1
  C  C18  1  0.78370500  0.30729000  0.78370500  1
  C  C19  1  0.59713300  0.17455300  0.59713300  1
