# generated using pymatgen
data_Cu2Ni2C7
_symmetry_space_group_name_H-M   'P 1'
_cell_length_a   7.98172100
_cell_length_b   7.98172100
_cell_length_c   6.42250000
_cell_angle_alpha   90.00000000
_cell_angle_beta   90.00000000
_cell_angle_gamma   90.00000000
_symmetry_Int_Tables_number   1
_chemical_formula_structural   Cu2Ni2C7
_chemical_formula_sum   'Cu4 Ni4 C14'
_cell_volume   409.16379586
_cell_formula_units_Z   2
loop_
 _symmetry_equiv_pos_site_id
 _symmetry_equiv_pos_as_xyz
  1  'x, y, z'
loop_
 _atom_site_type_symbol
 _atom_site_label
 _atom_site_symmetry_multiplicity
 _atom_site_fract_x
 _atom_site_fract_y
 _atom_site_fract_z
 _atom_site_occupancy
  Ni  Ni0  1  0.72423400  0.53450100  0.15306500  1
  Ni  Ni1  1  0.46549900  0.72423400  0.84693500  1
  Ni  Ni2  1  0.53450100  0.27576600  0.84693500  1
  Ni  Ni3  1  0.27576600  0.46549900  0.15306500  1
  Cu  Cu4  1  0.63620800  0.18058400  0.36562200  1
  Cu  Cu5  1  0.81941600  0.63620800  0.63437800  1
  Cu  Cu6  1  0.18058400  0.36379200  0.63437800  1
  Cu  Cu7  1  0.36379200  0.81941600  0.36562200  1
  C  C8  1  0.91532300  0.76531500  0.18682500  1
  C  C9  1  0.23468500  0.91532300  0.81317500  1
  C  C10  1  0.76531500  0.08467700  0.81317500  1
  C  C11  1  0.08467700  0.23468500  0.18682500  1
  C  C12  1  0.57014600  0.33101600  0.14172400  1
  C  C13  1  0.66898400  0.57014600  0.85827600  1
  C  C14  1  0.33101600  0.42985400  0.85827600  1
  C  C15  1  0.42985400  0.66898400  0.14172400  1
  C  C16  1  0.46442500  0.24166400  0.55902300  1
  C  C17  1  0.75833600  0.46442500  0.44097700  1
  C  C18  1  0.24166400  0.53557500  0.44097700  1
  C  C19  1  0.53557500  0.75833600  0.55902300  1
  C  C20  1  0.50000000  0.00000000  0.24126300  1
  C  C21  1  0.00000000  0.50000000  0.75873700  1
