# generated using pymatgen
data_Cu3NiC6
_symmetry_space_group_name_H-M   'P 1'
_cell_length_a   7.36305500
_cell_length_b   8.77217500
_cell_length_c   10.74273700
_cell_angle_alpha   90.00000000
_cell_angle_beta   90.00000000
_cell_angle_gamma   90.00000000
_symmetry_Int_Tables_number   1
_chemical_formula_structural   Cu3NiC6
_chemical_formula_sum   'Cu24 Ni8 C48'
_cell_volume   693.87345797
_cell_formula_units_Z   8
loop_
 _symmetry_equiv_pos_site_id
 _symmetry_equiv_pos_as_xyz
  1  'x, y, z'
loop_
 _atom_site_type_symbol
 _atom_site_label
 _atom_site_symmetry_multiplicity
 _atom_site_fract_x
 _atom_site_fract_y
 _atom_site_fract_z
 _atom_site_occupancy
  C  C0  1  0.63278700  0.36754200  0.46659200  1
  C  C1  1  0.86721300  0.86754200  0.46659200  1
  C  C2  1  0.66260500  0.44833500  0.06126800  1
  C  C3  1  0.01837800  0.37801200  0.76526900  1
  C  C4  1  0.63278700  0.86754200  0.03340800  1
  C  C5  1  0.70149400  0.00829500  0.93844100  1
  C  C6  1  0.01837800  0.87801200  0.73473100  1
  C  C7  1  0.30943300  0.66376100  0.06598000  1
  C  C8  1  0.80943300  0.33623900  0.56598000  1
  C  C9  1  0.69056700  0.83623900  0.56598000  1
  C  C10  1  0.16260500  0.05166500  0.93873200  1
  C  C11  1  0.13278700  0.13245800  0.53340800  1
  C  C12  1  0.70149400  0.50829500  0.56155900  1
  C  C13  1  0.30943300  0.16376100  0.43402000  1
  C  C14  1  0.80943300  0.83623900  0.93402000  1
  C  C15  1  0.19056700  0.66376100  0.43402000  1
  C  C16  1  0.83739500  0.94833500  0.06126800  1
  C  C17  1  0.20149400  0.49170500  0.06155900  1
  C  C18  1  0.86721300  0.36754200  0.03340800  1
  C  C19  1  0.20149400  0.99170500  0.43844100  1
  C  C20  1  0.79850600  0.50829500  0.93844100  1
  C  C21  1  0.33739500  0.05166500  0.56126800  1
  C  C22  1  0.98162200  0.62198800  0.23473100  1
  C  C23  1  0.19056700  0.16376100  0.06598000  1
  C  C24  1  0.69056700  0.33623900  0.93402000  1
  C  C25  1  0.36721300  0.63245800  0.53340800  1
  C  C26  1  0.29850600  0.99170500  0.06155900  1
  C  C27  1  0.83739500  0.44833500  0.43873200  1
  C  C28  1  0.36721300  0.13245800  0.96659200  1
  C  C29  1  0.29850600  0.49170500  0.43844100  1
  C  C30  1  0.33739500  0.55166500  0.93873200  1
  C  C31  1  0.51837800  0.12198800  0.23473100  1
  C  C32  1  0.98162200  0.12198800  0.26526900  1
  C  C33  1  0.79850600  0.00829500  0.56155900  1
  C  C34  1  0.48162200  0.87801200  0.76526900  1
  C  C35  1  0.16260500  0.55166500  0.56126800  1
  C  C36  1  0.48162200  0.37801200  0.73473100  1
  C  C37  1  0.13278700  0.63245800  0.96659200  1
  C  C38  1  0.66260500  0.94833500  0.43873200  1
  C  C39  1  0.51837800  0.62198800  0.26526900  1
  C  C40  1  0.48965900  0.84485300  0.25147400  1
  C  C41  1  0.51034100  0.65514700  0.75147400  1
  C  C42  1  0.98965900  0.15514700  0.75147400  1
  C  C43  1  0.48965900  0.34485300  0.24852600  1
  C  C44  1  0.98965900  0.65514700  0.74852600  1
  C  C45  1  0.01034100  0.34485300  0.25147400  1
  C  C46  1  0.01034100  0.84485300  0.24852600  1
  C  C47  1  0.51034100  0.15514700  0.74852600  1
  Ni  Ni48  1  0.74573100  0.91582600  0.99116200  1
  Ni  Ni49  1  0.74573100  0.41582600  0.50883800  1
  Ni  Ni50  1  0.24573100  0.08417400  0.49116200  1
  Ni  Ni51  1  0.75426900  0.41582600  0.99116200  1
  Ni  Ni52  1  0.24573100  0.58417400  0.00883800  1
  Ni  Ni53  1  0.25426900  0.58417400  0.49116200  1
  Ni  Ni54  1  0.75426900  0.91582600  0.50883800  1
  Ni  Ni55  1  0.25426900  0.08417400  0.00883800  1
  Cu  Cu56  1  0.96894500  0.21984600  0.31785100  1
  Cu  Cu57  1  0.48305500  0.52856400  0.80775600  1
  Cu  Cu58  1  0.53105500  0.21984600  0.18214900  1
  Cu  Cu59  1  0.92983800  0.66826900  0.85982800  1
  Cu  Cu60  1  0.42983800  0.33173100  0.35982800  1
  Cu  Cu61  1  0.03105500  0.78015400  0.68214900  1
  Cu  Cu62  1  0.57016200  0.66826900  0.64017200  1
  Cu  Cu63  1  0.01694500  0.02856400  0.80775600  1
  Cu  Cu64  1  0.07016200  0.83173100  0.35982800  1
  Cu  Cu65  1  0.42983800  0.83173100  0.14017200  1
  Cu  Cu66  1  0.96894500  0.71984600  0.18214900  1
  Cu  Cu67  1  0.51694500  0.97143600  0.30775600  1
  Cu  Cu68  1  0.03105500  0.28015400  0.81785100  1
  Cu  Cu69  1  0.92983800  0.16826900  0.64017200  1
  Cu  Cu70  1  0.46894500  0.78015400  0.81785100  1
  Cu  Cu71  1  0.57016200  0.16826900  0.85982800  1
  Cu  Cu72  1  0.48305500  0.02856400  0.69224400  1
  Cu  Cu73  1  0.46894500  0.28015400  0.68214900  1
  Cu  Cu74  1  0.98305500  0.97143600  0.19224400  1
  Cu  Cu75  1  0.98305500  0.47143600  0.30775600  1
  Cu  Cu76  1  0.51694500  0.47143600  0.19224400  1
  Cu  Cu77  1  0.07016200  0.33173100  0.14017200  1
  Cu  Cu78  1  0.53105500  0.71984600  0.31785100  1
  Cu  Cu79  1  0.01694500  0.52856400  0.69224400  1
