# generated using pymatgen
data_Cu(Ni3C5)2
_symmetry_space_group_name_H-M   'P 1'
_cell_length_a   15.26866180
_cell_length_b   15.26866180
_cell_length_c   15.26866180
_cell_angle_alpha   109.47122063
_cell_angle_beta   109.47122063
_cell_angle_gamma   109.47122063
_symmetry_Int_Tables_number   1
_chemical_formula_structural   Cu(Ni3C5)2
_chemical_formula_sum   'Cu8 Ni48 C80'
_cell_volume   2740.19226463
_cell_formula_units_Z   8
loop_
 _symmetry_equiv_pos_site_id
 _symmetry_equiv_pos_as_xyz
  1  'x, y, z'
loop_
 _atom_site_type_symbol
 _atom_site_label
 _atom_site_symmetry_multiplicity
 _atom_site_fract_x
 _atom_site_fract_y
 _atom_site_fract_z
 _atom_site_occupancy
  C  C0  1  0.00000000  0.50000000  0.50000000  1
  C  C1  1  0.00000000  0.50000000  0.00000000  1
  C  C2  1  0.50000000  0.50000000  0.50000000  1
  C  C3  1  0.50000000  0.00000000  0.00000000  1
  C  C4  1  0.00000000  0.00000000  0.50000000  1
  C  C5  1  0.50000000  0.00000000  0.50000000  1
  C  C6  1  0.00000000  0.00000000  0.00000000  1
  C  C7  1  0.50000000  0.50000000  0.00000000  1
  Ni  Ni8  1  0.73951100  0.25000000  0.98951100  1
  Ni  Ni9  1  0.01959000  0.48041000  0.25000000  1
  Ni  Ni10  1  0.98951100  0.75000000  0.73951100  1
  Ni  Ni11  1  0.26959000  0.23041000  0.75000000  1
  Ni  Ni12  1  0.76048900  0.75000000  0.51048900  1
  Ni  Ni13  1  0.98041000  0.96082000  0.23041000  1
  Ni  Ni14  1  0.25000000  0.76048900  0.51048900  1
  Ni  Ni15  1  0.25000000  0.73041000  0.76959000  1
  Ni  Ni16  1  0.23041000  0.98041000  0.96082000  1
  Ni  Ni17  1  0.48041000  0.73041000  0.46082000  1
  Ni  Ni18  1  0.75000000  0.01048900  0.26048900  1
  Ni  Ni19  1  0.48951100  0.75000000  0.23951100  1
  Ni  Ni20  1  0.75000000  0.98041000  0.51959000  1
  Ni  Ni21  1  0.25000000  0.26048900  0.01048900  1
  Ni  Ni22  1  0.51959000  0.26959000  0.53918000  1
  Ni  Ni23  1  0.26048900  0.01048900  0.25000000  1
  Ni  Ni24  1  0.76048900  0.51048900  0.25000000  1
  Ni  Ni25  1  0.23951100  0.25000000  0.48951100  1
  Ni  Ni26  1  0.26959000  0.53918000  0.51959000  1
  Ni  Ni27  1  0.48951100  0.23951100  0.25000000  1
  Ni  Ni28  1  0.98041000  0.51959000  0.75000000  1
  Ni  Ni29  1  0.23951100  0.48951100  0.75000000  1
  Ni  Ni30  1  0.96082000  0.23041000  0.98041000  1
  Ni  Ni31  1  0.25000000  0.48951100  0.23951100  1
  Ni  Ni32  1  0.73041000  0.46082000  0.48041000  1
  Ni  Ni33  1  0.51048900  0.76048900  0.75000000  1
  Ni  Ni34  1  0.73041000  0.76959000  0.25000000  1
  Ni  Ni35  1  0.51959000  0.75000000  0.98041000  1
  Ni  Ni36  1  0.53918000  0.51959000  0.26959000  1
  Ni  Ni37  1  0.98951100  0.73951100  0.25000000  1
  Ni  Ni38  1  0.25000000  0.98951100  0.73951100  1
  Ni  Ni39  1  0.76959000  0.25000000  0.73041000  1
  Ni  Ni40  1  0.75000000  0.51048900  0.76048900  1
  Ni  Ni41  1  0.01959000  0.03918000  0.76959000  1
  Ni  Ni42  1  0.46082000  0.48041000  0.73041000  1
  Ni  Ni43  1  0.23041000  0.75000000  0.26959000  1
  Ni  Ni44  1  0.75000000  0.23951100  0.48951100  1
  Ni  Ni45  1  0.26048900  0.75000000  0.01048900  1
  Ni  Ni46  1  0.48041000  0.25000000  0.01959000  1
  Ni  Ni47  1  0.75000000  0.73951100  0.98951100  1
  Ni  Ni48  1  0.51048900  0.25000000  0.76048900  1
  Ni  Ni49  1  0.75000000  0.26959000  0.23041000  1
  Ni  Ni50  1  0.03918000  0.76959000  0.01959000  1
  Ni  Ni51  1  0.76959000  0.01959000  0.03918000  1
  Ni  Ni52  1  0.01048900  0.26048900  0.75000000  1
  Ni  Ni53  1  0.73951100  0.98951100  0.75000000  1
  Ni  Ni54  1  0.01048900  0.25000000  0.26048900  1
  Ni  Ni55  1  0.25000000  0.01959000  0.48041000  1
  Cu  Cu56  1  0.25000000  0.25000000  0.25000000  1
  Cu  Cu57  1  0.25000000  0.50000000  0.00000000  1
  Cu  Cu58  1  0.50000000  0.00000000  0.75000000  1
  Cu  Cu59  1  0.00000000  0.25000000  0.50000000  1
  Cu  Cu60  1  0.75000000  0.75000000  0.75000000  1
  Cu  Cu61  1  0.00000000  0.75000000  0.50000000  1
  Cu  Cu62  1  0.75000000  0.50000000  0.00000000  1
  Cu  Cu63  1  0.50000000  0.00000000  0.25000000  1
  C  C64  1  0.71080900  0.60540500  0.35540500  1
  C  C65  1  0.06244700  0.71481100  0.15058500  1
  C  C66  1  0.91186200  0.34941500  0.06422600  1
  C  C67  1  0.43755300  0.58813800  0.65236400  1
  C  C68  1  0.28919100  0.39459500  0.64459500  1
  C  C69  1  0.64459500  0.85540500  0.25000000  1
  C  C70  1  0.41186200  0.34763600  0.56244700  1
  C  C71  1  0.35540500  0.71080900  0.60540500  1
  C  C72  1  0.35540500  0.14459500  0.75000000  1
  C  C73  1  0.08813800  0.93755300  0.15236400  1
  C  C74  1  0.34941500  0.78518900  0.43755300  1
  C  C75  1  0.21481100  0.15236400  0.56422600  1
  C  C76  1  0.34763600  0.28518900  0.93577400  1
  C  C77  1  0.71481100  0.06422600  0.65236400  1
  C  C78  1  0.65058500  0.21481100  0.56244700  1
  C  C79  1  0.15236400  0.08813800  0.93755300  1
  C  C80  1  0.58813800  0.43577400  0.15058500  1
  C  C81  1  0.56422600  0.21481100  0.15236400  1
  C  C82  1  0.06422600  0.65236400  0.71481100  1
  C  C83  1  0.93577400  0.08813800  0.65058500  1
  C  C84  1  0.14459500  0.75000000  0.35540500  1
  C  C85  1  0.93755300  0.15236400  0.08813800  1
  C  C86  1  0.34763600  0.56244700  0.41186200  1
  C  C87  1  0.56422600  0.84941500  0.41186200  1
  C  C88  1  0.75000000  0.35540500  0.14459500  1
  C  C89  1  0.65058500  0.93577400  0.08813800  1
  C  C90  1  0.89459500  0.78919100  0.14459500  1
  C  C91  1  0.65236400  0.71481100  0.06422600  1
  C  C92  1  0.93755300  0.28518900  0.84941500  1
  C  C93  1  0.43577400  0.15058500  0.58813800  1
  C  C94  1  0.25000000  0.64459500  0.85540500  1
  C  C95  1  0.34941500  0.06422600  0.91186200  1
  C  C96  1  0.15058500  0.06244700  0.71481100  1
  C  C97  1  0.43755300  0.34941500  0.78518900  1
  C  C98  1  0.21481100  0.56244700  0.65058500  1
  C  C99  1  0.78919100  0.14459500  0.89459500  1
  C  C100  1  0.84763600  0.91186200  0.06244700  1
  C  C101  1  0.10540500  0.39459500  0.25000000  1
  C  C102  1  0.78518900  0.43755300  0.34941500  1
  C  C103  1  0.60540500  0.35540500  0.71080900  1
  C  C104  1  0.85540500  0.10540500  0.21080900  1
  C  C105  1  0.39459500  0.64459500  0.28919100  1
  C  C106  1  0.84941500  0.93755300  0.28518900  1
  C  C107  1  0.64459500  0.28919100  0.39459500  1
  C  C108  1  0.71481100  0.15058500  0.06244700  1
  C  C109  1  0.15236400  0.56422600  0.21481100  1
  C  C110  1  0.84941500  0.41186200  0.56422600  1
  C  C111  1  0.85540500  0.25000000  0.64459500  1
  C  C112  1  0.39459500  0.25000000  0.10540500  1
  C  C113  1  0.84763600  0.43577400  0.78518900  1
  C  C114  1  0.78518900  0.84763600  0.43577400  1
  C  C115  1  0.06422600  0.91186200  0.34941500  1
  C  C116  1  0.43577400  0.78518900  0.84763600  1
  C  C117  1  0.14459500  0.89459500  0.78919100  1
  C  C118  1  0.93577400  0.34763600  0.28518900  1
  C  C119  1  0.56244700  0.65058500  0.21481100  1
  C  C120  1  0.89459500  0.60540500  0.75000000  1
  C  C121  1  0.06244700  0.84763600  0.91186200  1
  C  C122  1  0.75000000  0.89459500  0.60540500  1
  C  C123  1  0.41186200  0.56422600  0.84941500  1
  C  C124  1  0.21080900  0.85540500  0.10540500  1
  C  C125  1  0.56244700  0.41186200  0.34763600  1
  C  C126  1  0.08813800  0.65058500  0.93577400  1
  C  C127  1  0.28518900  0.84941500  0.93755300  1
  C  C128  1  0.65236400  0.43755300  0.58813800  1
  C  C129  1  0.25000000  0.10540500  0.39459500  1
  C  C130  1  0.10540500  0.21080900  0.85540500  1
  C  C131  1  0.91186200  0.06244700  0.84763600  1
  C  C132  1  0.28518900  0.93577400  0.34763600  1
  C  C133  1  0.15058500  0.58813800  0.43577400  1
  C  C134  1  0.58813800  0.65236400  0.43755300  1
  C  C135  1  0.60540500  0.75000000  0.89459500  1
