# generated using pymatgen
data_Cu15NiC10
_symmetry_space_group_name_H-M   'P 1'
_cell_length_a   10.73243444
_cell_length_b   10.73243444
_cell_length_c   5.98860600
_cell_angle_alpha   90.00000000
_cell_angle_beta   90.00000000
_cell_angle_gamma   120.00000273
_symmetry_Int_Tables_number   1
_chemical_formula_structural   Cu15NiC10
_chemical_formula_sum   'Cu30 Ni2 C20'
_cell_volume   597.38298628
_cell_formula_units_Z   2
loop_
 _symmetry_equiv_pos_site_id
 _symmetry_equiv_pos_as_xyz
  1  'x, y, z'
loop_
 _atom_site_type_symbol
 _atom_site_label
 _atom_site_symmetry_multiplicity
 _atom_site_fract_x
 _atom_site_fract_y
 _atom_site_fract_z
 _atom_site_occupancy
  C  C0  1  0.69806800  0.86871700  0.17996400  1
  C  C1  1  0.86871700  0.17064900  0.67996400  1
  C  C2  1  0.13128300  0.82935100  0.17996400  1
  C  C3  1  0.66666700  0.33333300  0.68468500  1
  C  C4  1  0.33333300  0.66666700  0.18468500  1
  C  C5  1  0.17064900  0.30193200  0.17996400  1
  C  C6  1  0.82935100  0.69806800  0.67996400  1
  C  C7  1  0.30193200  0.13128300  0.67996400  1
  C  C8  1  0.50028400  0.49974600  0.93053800  1
  C  C9  1  0.49971600  0.50025400  0.43053800  1
  C  C10  1  0.49974600  0.99946200  0.43053800  1
  C  C11  1  0.50025400  0.00053800  0.93053800  1
  C  C12  1  0.00053800  0.50028400  0.43053800  1
  C  C13  1  0.99946200  0.49971600  0.93053800  1
  C  C14  1  0.55302400  0.78317300  0.68048700  1
  C  C15  1  0.23014800  0.44697600  0.68048700  1
  C  C16  1  0.78317300  0.23014800  0.18048700  1
  C  C17  1  0.21682700  0.76985200  0.68048700  1
  C  C18  1  0.44697600  0.21682700  0.18048700  1
  C  C19  1  0.76985200  0.55302400  0.18048700  1
  Ni  Ni20  1  0.00000000  0.00000000  0.49547000  1
  Ni  Ni21  1  0.00000000  0.00000000  0.99547000  1
  Cu  Cu22  1  0.47145800  0.17012400  0.97651100  1
  Cu  Cu23  1  0.86192200  0.95003000  0.49938700  1
  Cu  Cu24  1  0.39973600  0.31586600  0.18246100  1
  Cu  Cu25  1  0.08810800  0.13807800  0.49938700  1
  Cu  Cu26  1  0.17012400  0.69866600  0.47651100  1
  Cu  Cu27  1  0.09575800  0.47427800  0.18006000  1
  Cu  Cu28  1  0.91613000  0.60026400  0.18246100  1
  Cu  Cu29  1  0.68413400  0.08387000  0.18246100  1
  Cu  Cu30  1  0.30057700  0.46703000  0.88454100  1
  Cu  Cu31  1  0.13807800  0.04997000  0.99938700  1
  Cu  Cu32  1  0.16645300  0.69942300  0.88454100  1
  Cu  Cu33  1  0.52854200  0.82987600  0.47651100  1
  Cu  Cu34  1  0.31586600  0.91613000  0.68246100  1
  Cu  Cu35  1  0.82987600  0.30133400  0.97651100  1
  Cu  Cu36  1  0.91189200  0.86192200  0.99938700  1
  Cu  Cu37  1  0.83354700  0.30057700  0.38454100  1
  Cu  Cu38  1  0.30133400  0.47145800  0.47651100  1
  Cu  Cu39  1  0.53297000  0.83354700  0.88454100  1
  Cu  Cu40  1  0.46703000  0.16645300  0.38454100  1
  Cu  Cu41  1  0.60026400  0.68413400  0.68246100  1
  Cu  Cu42  1  0.08387000  0.39973600  0.68246100  1
  Cu  Cu43  1  0.04997000  0.91189200  0.49938700  1
  Cu  Cu44  1  0.52572200  0.62148000  0.18006000  1
  Cu  Cu45  1  0.62148000  0.09575800  0.68006000  1
  Cu  Cu46  1  0.47427800  0.37852000  0.68006000  1
  Cu  Cu47  1  0.69942300  0.53297000  0.38454100  1
  Cu  Cu48  1  0.90424200  0.52572200  0.68006000  1
  Cu  Cu49  1  0.69866600  0.52854200  0.97651100  1
  Cu  Cu50  1  0.95003000  0.08810800  0.99938700  1
  Cu  Cu51  1  0.37852000  0.90424200  0.18006000  1
