# generated using pymatgen
data_Cu17NiC9
_symmetry_space_group_name_H-M   'P 1'
_cell_length_a   10.88786639
_cell_length_b   10.88786639
_cell_length_c   13.02938700
_cell_angle_alpha   90.00000000
_cell_angle_beta   90.00000000
_cell_angle_gamma   120.00000237
_symmetry_Int_Tables_number   1
_chemical_formula_structural   Cu17NiC9
_chemical_formula_sum   'Cu51 Ni3 C27'
_cell_volume   1337.64284444
_cell_formula_units_Z   3
loop_
 _symmetry_equiv_pos_site_id
 _symmetry_equiv_pos_as_xyz
  1  'x, y, z'
loop_
 _atom_site_type_symbol
 _atom_site_label
 _atom_site_symmetry_multiplicity
 _atom_site_fract_x
 _atom_site_fract_y
 _atom_site_fract_z
 _atom_site_occupancy
  C  C0  1  0.00000000  0.26856900  0.30854100  1
  C  C1  1  0.66666700  0.33333300  0.83959900  1
  C  C2  1  0.73143100  0.73143100  0.30854100  1
  C  C3  1  0.33333300  0.66666700  0.83959900  1
  C  C4  1  0.33333300  0.66666700  0.16040100  1
  C  C5  1  0.73143100  0.73143100  0.69145900  1
  C  C6  1  0.00000000  0.26856900  0.69145900  1
  C  C7  1  0.66666700  0.33333300  0.16040100  1
  C  C8  1  0.00000000  0.75593800  0.00000000  1
  C  C9  1  0.26856900  0.00000000  0.69145900  1
  C  C10  1  0.24406200  0.24406200  0.00000000  1
  C  C11  1  0.75593800  0.00000000  0.00000000  1
  C  C12  1  0.66666700  0.33333300  0.50000000  1
  C  C13  1  0.33333300  0.66666700  0.50000000  1
  C  C14  1  0.26856900  0.00000000  0.30854100  1
  C  C15  1  0.00000000  0.76210600  0.50000000  1
  C  C16  1  0.42112800  0.00000000  0.00000000  1
  C  C17  1  0.76210600  0.00000000  0.50000000  1
  C  C18  1  0.59596500  0.00000000  0.73456000  1
  C  C19  1  0.00000000  0.42112800  0.00000000  1
  C  C20  1  0.40403500  0.40403500  0.26544000  1
  C  C21  1  0.00000000  0.59596500  0.73456000  1
  C  C22  1  0.57887200  0.57887200  0.00000000  1
  C  C23  1  0.23789400  0.23789400  0.50000000  1
  C  C24  1  0.00000000  0.59596500  0.26544000  1
  C  C25  1  0.59596500  0.00000000  0.26544000  1
  C  C26  1  0.40403500  0.40403500  0.73456000  1
  Ni  Ni27  1  0.00000000  0.00000000  0.16576700  1
  Ni  Ni28  1  0.00000000  0.00000000  0.83423300  1
  Ni  Ni29  1  0.00000000  0.00000000  0.50000000  1
  Cu  Cu30  1  0.75822200  0.14454200  0.19013200  1
  Cu  Cu31  1  0.36887800  0.16298300  0.50000000  1
  Cu  Cu32  1  0.57005800  0.14394100  0.66507600  1
  Cu  Cu33  1  0.24380600  0.00000000  0.00000000  1
  Cu  Cu34  1  0.85545800  0.61368000  0.80986800  1
  Cu  Cu35  1  0.14394100  0.57005800  0.66507600  1
  Cu  Cu36  1  0.57388400  0.42994200  0.66507600  1
  Cu  Cu37  1  0.85605900  0.42611600  0.66507600  1
  Cu  Cu38  1  0.14394100  0.57005800  0.33492400  1
  Cu  Cu39  1  0.63320600  0.16145900  0.00000000  1
  Cu  Cu40  1  0.20589500  0.83701700  0.50000000  1
  Cu  Cu41  1  0.00000000  0.24380600  0.00000000  1
  Cu  Cu42  1  0.42994200  0.57388400  0.66507600  1
  Cu  Cu43  1  0.85545800  0.61368000  0.19013200  1
  Cu  Cu44  1  0.83701700  0.20589500  0.50000000  1
  Cu  Cu45  1  0.75822200  0.14454200  0.80986800  1
  Cu  Cu46  1  0.52825300  0.36679400  0.00000000  1
  Cu  Cu47  1  0.22782400  0.22782400  0.35567200  1
  Cu  Cu48  1  0.42962400  0.00000000  0.85240700  1
  Cu  Cu49  1  0.38632000  0.24177800  0.80986800  1
  Cu  Cu50  1  0.42611600  0.85605900  0.33492400  1
  Cu  Cu51  1  0.42611600  0.85605900  0.66507600  1
  Cu  Cu52  1  0.61368000  0.85545800  0.80986800  1
  Cu  Cu53  1  0.57388400  0.42994200  0.33492400  1
  Cu  Cu54  1  0.14454200  0.75822200  0.19013200  1
  Cu  Cu55  1  0.42994200  0.57388400  0.33492400  1
  Cu  Cu56  1  0.61368000  0.85545800  0.19013200  1
  Cu  Cu57  1  0.00000000  0.77217600  0.64432800  1
  Cu  Cu58  1  0.36679400  0.52825300  0.00000000  1
  Cu  Cu59  1  0.00000000  0.42962400  0.85240700  1
  Cu  Cu60  1  0.16145900  0.63320600  0.00000000  1
  Cu  Cu61  1  0.16298300  0.36887800  0.50000000  1
  Cu  Cu62  1  0.42962400  0.00000000  0.14759300  1
  Cu  Cu63  1  0.24177800  0.38632000  0.19013200  1
  Cu  Cu64  1  0.77217600  0.00000000  0.35567200  1
  Cu  Cu65  1  0.24177800  0.38632000  0.80986800  1
  Cu  Cu66  1  0.00000000  0.42962400  0.14759300  1
  Cu  Cu67  1  0.38632000  0.24177800  0.19013200  1
  Cu  Cu68  1  0.57037600  0.57037600  0.14759300  1
  Cu  Cu69  1  0.22782400  0.22782400  0.64432800  1
  Cu  Cu70  1  0.79410500  0.63112200  0.50000000  1
  Cu  Cu71  1  0.85605900  0.42611600  0.33492400  1
  Cu  Cu72  1  0.57037600  0.57037600  0.85240700  1
  Cu  Cu73  1  0.63112200  0.79410500  0.50000000  1
  Cu  Cu74  1  0.00000000  0.77217600  0.35567200  1
  Cu  Cu75  1  0.14454200  0.75822200  0.80986800  1
  Cu  Cu76  1  0.47174700  0.83854100  0.00000000  1
  Cu  Cu77  1  0.77217600  0.00000000  0.64432800  1
  Cu  Cu78  1  0.83854100  0.47174700  0.00000000  1
  Cu  Cu79  1  0.57005800  0.14394100  0.33492400  1
  Cu  Cu80  1  0.75619400  0.75619400  0.00000000  1
