# generated using pymatgen
data_Cu2NiC9
_symmetry_space_group_name_H-M   'P 1'
_cell_length_a   6.88209800
_cell_length_b   10.02094600
_cell_length_c   13.37016372
_cell_angle_alpha   62.35424951
_cell_angle_beta   90.00000000
_cell_angle_gamma   90.00000000
_symmetry_Int_Tables_number   1
_chemical_formula_structural   Cu2NiC9
_chemical_formula_sum   'Cu8 Ni4 C36'
_cell_volume   816.80489061
_cell_formula_units_Z   4
loop_
 _symmetry_equiv_pos_site_id
 _symmetry_equiv_pos_as_xyz
  1  'x, y, z'
loop_
 _atom_site_type_symbol
 _atom_site_label
 _atom_site_symmetry_multiplicity
 _atom_site_fract_x
 _atom_site_fract_y
 _atom_site_fract_z
 _atom_site_occupancy
  C  C0  1  0.12897700  0.51531800  0.85313200  1
  C  C1  1  0.87102300  0.48468200  0.14686800  1
  C  C2  1  0.14681500  0.02107300  0.15986500  1
  C  C3  1  0.62897700  0.48468200  0.64686800  1
  C  C4  1  0.85318500  0.97892700  0.84013500  1
  C  C5  1  0.37102300  0.51531800  0.35313200  1
  C  C6  1  0.35318500  0.02107300  0.65986500  1
  C  C7  1  0.64681500  0.97892700  0.34013500  1
  Ni  Ni8  1  0.15270900  0.74802500  0.50504400  1
  Ni  Ni9  1  0.34729100  0.74802500  0.00504400  1
  Ni  Ni10  1  0.84729100  0.25197500  0.49495600  1
  Ni  Ni11  1  0.65270900  0.25197500  0.99495600  1
  Cu  Cu12  1  0.35899000  0.15141000  0.85544300  1
  Cu  Cu13  1  0.14101000  0.15141000  0.35544300  1
  Cu  Cu14  1  0.63258700  0.63774000  0.85063600  1
  Cu  Cu15  1  0.86741300  0.63774000  0.35063600  1
  Cu  Cu16  1  0.36741300  0.36226000  0.14936400  1
  Cu  Cu17  1  0.85899000  0.84859000  0.64455700  1
  Cu  Cu18  1  0.64101000  0.84859000  0.14455700  1
  Cu  Cu19  1  0.13258700  0.36226000  0.64936400  1
  C  C20  1  0.12061000  0.16773500  0.46553200  1
  C  C21  1  0.47563500  0.50399000  0.13622300  1
  C  C22  1  0.45166000  0.81988900  0.20883400  1
  C  C23  1  0.52436500  0.49601000  0.86377700  1
  C  C24  1  0.19041900  0.38984100  0.07604500  1
  C  C25  1  0.37939000  0.16773500  0.96553200  1
  C  C26  1  0.97563500  0.49601000  0.36377700  1
  C  C27  1  0.69041900  0.61015900  0.42395500  1
  C  C28  1  0.79923900  0.71429800  0.21698600  1
  C  C29  1  0.87939000  0.83226500  0.53446800  1
  C  C30  1  0.70076100  0.71429800  0.71698600  1
  C  C31  1  0.01217200  0.75452200  0.35608200  1
  C  C32  1  0.02436500  0.50399000  0.63622300  1
  C  C33  1  0.54834000  0.18011100  0.79116600  1
  C  C34  1  0.20076100  0.28570200  0.78301400  1
  C  C35  1  0.80958100  0.61015900  0.92395500  1
  C  C36  1  0.04834000  0.81988900  0.70883400  1
  C  C37  1  0.62061000  0.83226500  0.03446800  1
  C  C38  1  0.95166000  0.18011100  0.29116600  1
  C  C39  1  0.74563600  0.99567400  0.12158000  1
  C  C40  1  0.29923900  0.28570200  0.28301400  1
  C  C41  1  0.30958100  0.38984100  0.57604500  1
  C  C42  1  0.48782800  0.75452200  0.85608200  1
  C  C43  1  0.75436400  0.99567400  0.62158000  1
  C  C44  1  0.51217200  0.24547800  0.14391800  1
  C  C45  1  0.24563600  0.00432600  0.37842000  1
  C  C46  1  0.98782800  0.24547800  0.64391800  1
  C  C47  1  0.25436400  0.00432600  0.87842000  1
