# generated using pymatgen
data_Cu2Ni2C11
_symmetry_space_group_name_H-M   'P 1'
_cell_length_a   7.14952228
_cell_length_b   7.14952228
_cell_length_c   13.05880000
_cell_angle_alpha   90.00000000
_cell_angle_beta   90.00000000
_cell_angle_gamma   120.00000259
_symmetry_Int_Tables_number   1
_chemical_formula_structural   Cu2Ni2C11
_chemical_formula_sum   'Cu6 Ni6 C33'
_cell_volume   578.07999261
_cell_formula_units_Z   3
loop_
 _symmetry_equiv_pos_site_id
 _symmetry_equiv_pos_as_xyz
  1  'x, y, z'
loop_
 _atom_site_type_symbol
 _atom_site_label
 _atom_site_symmetry_multiplicity
 _atom_site_fract_x
 _atom_site_fract_y
 _atom_site_fract_z
 _atom_site_occupancy
  C  C0  1  0.52783400  0.52783400  0.50000000  1
  C  C1  1  0.47216600  0.00000000  0.83333300  1
  C  C2  1  0.00000000  0.47216600  0.16666700  1
  C  C3  1  0.56430800  0.56430800  0.00000000  1
  C  C4  1  0.00000000  0.43569200  0.66666700  1
  C  C5  1  0.43569200  0.00000000  0.33333300  1
  Ni  Ni6  1  0.04678500  0.09588200  0.37229900  1
  Ni  Ni7  1  0.04909700  0.95321500  0.03896600  1
  Ni  Ni8  1  0.95090300  0.90411800  0.29436800  1
  Ni  Ni9  1  0.95321500  0.04909700  0.96103400  1
  Ni  Ni10  1  0.09588200  0.04678500  0.62770100  1
  Ni  Ni11  1  0.90411800  0.95090300  0.70563200  1
  Cu  Cu12  1  0.45279400  0.01217900  0.08732400  1
  Cu  Cu13  1  0.98782100  0.44061500  0.42065800  1
  Cu  Cu14  1  0.54720600  0.55938500  0.24600900  1
  Cu  Cu15  1  0.55938500  0.54720600  0.75399100  1
  Cu  Cu16  1  0.44061500  0.98782100  0.57934200  1
  Cu  Cu17  1  0.01217900  0.45279400  0.91267600  1
  C  C18  1  0.88000500  0.49588500  0.98621000  1
  C  C19  1  0.87275000  0.25973200  0.84739200  1
  C  C20  1  0.13125000  0.63702000  0.84030800  1
  C  C21  1  0.74026800  0.61301800  0.18072500  1
  C  C22  1  0.83664300  0.24643400  0.36023200  1
  C  C23  1  0.38698200  0.12725000  0.51405800  1
  C  C24  1  0.12725000  0.38698200  0.48594200  1
  C  C25  1  0.36298000  0.49423000  0.17364200  1
  C  C26  1  0.75356600  0.59020900  0.69356600  1
  C  C27  1  0.50577000  0.86875000  0.50697500  1
  C  C28  1  0.16335700  0.40979100  0.97310100  1
  C  C29  1  0.59020900  0.75356600  0.30643400  1
  C  C30  1  0.00000000  0.08072500  0.66666700  1
  C  C31  1  0.38412000  0.50411500  0.68045700  1
  C  C32  1  0.11999500  0.61588000  0.34712400  1
  C  C33  1  0.50411500  0.38412000  0.31954300  1
  C  C34  1  0.24643400  0.83664300  0.63976800  1
  C  C35  1  0.08072500  0.00000000  0.33333300  1
  C  C36  1  0.49423000  0.36298000  0.82635800  1
  C  C37  1  0.86875000  0.50577000  0.49302500  1
  C  C38  1  0.91927500  0.91927500  0.00000000  1
  C  C39  1  0.49588500  0.88000500  0.01379000  1
  C  C40  1  0.61301800  0.74026800  0.81927500  1
  C  C41  1  0.25973200  0.87275000  0.15260800  1
  C  C42  1  0.40979100  0.16335700  0.02689900  1
  C  C43  1  0.61588000  0.11999500  0.65287600  1
  C  C44  1  0.63702000  0.13125000  0.15969200  1
