# generated using pymatgen
data_Cu4NiC4
_symmetry_space_group_name_H-M   'P 1'
_cell_length_a   7.81792100
_cell_length_b   11.41166000
_cell_length_c   20.27572500
_cell_angle_alpha   90.00000000
_cell_angle_beta   90.00000000
_cell_angle_gamma   90.00000000
_symmetry_Int_Tables_number   1
_chemical_formula_structural   Cu4NiC4
_chemical_formula_sum   'Cu32 Ni8 C32'
_cell_volume   1808.90805888
_cell_formula_units_Z   8
loop_
 _symmetry_equiv_pos_site_id
 _symmetry_equiv_pos_as_xyz
  1  'x, y, z'
loop_
 _atom_site_type_symbol
 _atom_site_label
 _atom_site_symmetry_multiplicity
 _atom_site_fract_x
 _atom_site_fract_y
 _atom_site_fract_z
 _atom_site_occupancy
  C  C0  1  0.89046200  0.18733000  0.89642100  1
  C  C1  1  0.60953800  0.68733000  0.89642100  1
  C  C2  1  0.60953800  0.81267000  0.39642100  1
  C  C3  1  0.89046200  0.31267000  0.39642100  1
  C  C4  1  0.39046200  0.18733000  0.60357900  1
  C  C5  1  0.10953800  0.68733000  0.60357900  1
  C  C6  1  0.10953800  0.81267000  0.10357900  1
  C  C7  1  0.39046200  0.31267000  0.10357900  1
  C  C8  1  0.38462600  0.48741100  0.88628300  1
  C  C9  1  0.88462600  0.48741100  0.61371700  1
  C  C10  1  0.61537400  0.98741100  0.61371700  1
  C  C11  1  0.38462600  0.01258900  0.38628300  1
  C  C12  1  0.11537400  0.51258900  0.38628300  1
  C  C13  1  0.11537400  0.98741100  0.88628300  1
  C  C14  1  0.61537400  0.51258900  0.11371700  1
  C  C15  1  0.88462600  0.01258900  0.11371700  1
  Ni  Ni16  1  0.54367300  0.10606500  0.58294900  1
  Ni  Ni17  1  0.04367300  0.10606500  0.91705100  1
  Ni  Ni18  1  0.95632700  0.89393500  0.08294900  1
  Ni  Ni19  1  0.45632700  0.60606500  0.91705100  1
  Ni  Ni20  1  0.54367300  0.39393500  0.08294900  1
  Ni  Ni21  1  0.04367300  0.39393500  0.41705100  1
  Ni  Ni22  1  0.45632700  0.89393500  0.41705100  1
  Ni  Ni23  1  0.95632700  0.60606500  0.58294900  1
  Cu  Cu24  1  0.42868500  0.22025300  0.18582100  1
  Cu  Cu25  1  0.24481900  0.04322100  0.80115000  1
  Cu  Cu26  1  0.33527900  0.89065300  0.11701500  1
  Cu  Cu27  1  0.24481900  0.45677900  0.30115000  1
  Cu  Cu28  1  0.64267700  0.80220300  0.96793700  1
  Cu  Cu29  1  0.16472100  0.39065300  0.11701500  1
  Cu  Cu30  1  0.14267700  0.69779700  0.03206300  1
  Cu  Cu31  1  0.33527900  0.60934700  0.61701500  1
  Cu  Cu32  1  0.75518100  0.95677900  0.19885000  1
  Cu  Cu33  1  0.92868500  0.22025300  0.31417900  1
  Cu  Cu34  1  0.07131500  0.77974700  0.68582100  1
  Cu  Cu35  1  0.92868500  0.27974700  0.81417900  1
  Cu  Cu36  1  0.74481900  0.45677900  0.19885000  1
  Cu  Cu37  1  0.64267700  0.69779700  0.46793700  1
  Cu  Cu38  1  0.85732300  0.30220300  0.96793700  1
  Cu  Cu39  1  0.25518100  0.54322100  0.80115000  1
  Cu  Cu40  1  0.57131500  0.72025300  0.31417900  1
  Cu  Cu41  1  0.83527900  0.89065300  0.38298500  1
  Cu  Cu42  1  0.14267700  0.80220300  0.53206300  1
  Cu  Cu43  1  0.25518100  0.95677900  0.30115000  1
  Cu  Cu44  1  0.83527900  0.60934700  0.88298500  1
  Cu  Cu45  1  0.74481900  0.04322100  0.69885000  1
  Cu  Cu46  1  0.35732300  0.19779700  0.03206300  1
  Cu  Cu47  1  0.66472100  0.39065300  0.38298500  1
  Cu  Cu48  1  0.35732300  0.30220300  0.53206300  1
  Cu  Cu49  1  0.75518100  0.54322100  0.69885000  1
  Cu  Cu50  1  0.16472100  0.10934700  0.61701500  1
  Cu  Cu51  1  0.85732300  0.19779700  0.46793700  1
  Cu  Cu52  1  0.07131500  0.72025300  0.18582100  1
  Cu  Cu53  1  0.66472100  0.10934700  0.88298500  1
  Cu  Cu54  1  0.57131500  0.77974700  0.81417900  1
  Cu  Cu55  1  0.42868500  0.27974700  0.68582100  1
  C  C56  1  0.48453800  0.90920500  0.63746000  1
  C  C57  1  0.51546200  0.40920500  0.86254000  1
  C  C58  1  0.24788600  0.55543700  0.42911400  1
  C  C59  1  0.98453800  0.59079500  0.36254000  1
  C  C60  1  0.25211400  0.05543700  0.42911400  1
  C  C61  1  0.51546200  0.09079500  0.36254000  1
  C  C62  1  0.98453800  0.90920500  0.86254000  1
  C  C63  1  0.74788600  0.55543700  0.07088600  1
  C  C64  1  0.75211400  0.44456300  0.57088600  1
  C  C65  1  0.74788600  0.94456300  0.57088600  1
  C  C66  1  0.01546200  0.40920500  0.63746000  1
  C  C67  1  0.01546200  0.09079500  0.13746000  1
  C  C68  1  0.48453800  0.59079500  0.13746000  1
  C  C69  1  0.25211400  0.44456300  0.92911400  1
  C  C70  1  0.75211400  0.05543700  0.07088600  1
  C  C71  1  0.24788600  0.94456300  0.92911400  1
