# generated using pymatgen
data_Cu2Ni2C9
_symmetry_space_group_name_H-M   'P 1'
_cell_length_a   8.67961741
_cell_length_b   8.67961741
_cell_length_c   8.86565600
_cell_angle_alpha   90.00000000
_cell_angle_beta   90.00000000
_cell_angle_gamma   119.99999549
_symmetry_Int_Tables_number   1
_chemical_formula_structural   Cu2Ni2C9
_chemical_formula_sum   'Cu6 Ni6 C27'
_cell_volume   578.41918855
_cell_formula_units_Z   3
loop_
 _symmetry_equiv_pos_site_id
 _symmetry_equiv_pos_as_xyz
  1  'x, y, z'
loop_
 _atom_site_type_symbol
 _atom_site_label
 _atom_site_symmetry_multiplicity
 _atom_site_fract_x
 _atom_site_fract_y
 _atom_site_fract_z
 _atom_site_occupancy
  C  C0  1  0.68420800  0.00000000  0.00000000  1
  C  C1  1  0.00000000  0.64387300  0.50000000  1
  C  C2  1  0.00000000  0.68420800  0.00000000  1
  C  C3  1  0.35612700  0.35612700  0.50000000  1
  C  C4  1  0.64387300  0.00000000  0.50000000  1
  C  C5  1  0.31579200  0.31579200  0.00000000  1
  Ni  Ni6  1  0.33333300  0.66666700  0.81690000  1
  Ni  Ni7  1  0.66666700  0.33333300  0.77288000  1
  Ni  Ni8  1  0.33333300  0.66666700  0.22712000  1
  Ni  Ni9  1  0.00000000  0.00000000  0.70363800  1
  Ni  Ni10  1  0.66666700  0.33333300  0.18310000  1
  Ni  Ni11  1  0.00000000  0.00000000  0.29636200  1
  Cu  Cu12  1  0.66459000  0.66501800  0.25700100  1
  Cu  Cu13  1  0.66501800  0.66459000  0.74299900  1
  Cu  Cu14  1  0.33541000  0.00042800  0.74299900  1
  Cu  Cu15  1  0.33498200  0.99957200  0.25700100  1
  Cu  Cu16  1  0.00042800  0.33541000  0.25700100  1
  Cu  Cu17  1  0.99957200  0.33498200  0.74299900  1
  C  C18  1  0.74004100  0.56199200  0.70193800  1
  C  C19  1  0.43800800  0.17804900  0.70193800  1
  C  C20  1  0.58456900  0.48152900  0.25203100  1
  C  C21  1  0.17804900  0.43800800  0.29806200  1
  C  C22  1  0.22798400  0.07139100  0.22319800  1
  C  C23  1  0.10304000  0.51847100  0.74796900  1
  C  C24  1  0.51847100  0.10304000  0.25203100  1
  C  C25  1  0.84340700  0.77201600  0.22319800  1
  C  C26  1  0.15659300  0.92860900  0.77680200  1
  C  C27  1  0.25995900  0.82195100  0.29806200  1
  C  C28  1  0.89696000  0.41543100  0.25203100  1
  C  C29  1  0.92860900  0.15659300  0.22319800  1
  C  C30  1  0.00000000  0.00000000  0.50000000  1
  C  C31  1  0.82195100  0.25995900  0.70193800  1
  C  C32  1  0.07139100  0.22798400  0.77680200  1
  C  C33  1  0.66666700  0.33333300  0.97786200  1
  C  C34  1  0.41543100  0.89696000  0.74796900  1
  C  C35  1  0.77201600  0.84340700  0.77680200  1
  C  C36  1  0.33333300  0.66666700  0.02213800  1
  C  C37  1  0.56199200  0.74004100  0.29806200  1
  C  C38  1  0.48152900  0.58456900  0.74796900  1
