# generated using pymatgen
data_Cu6Ni2C3
_symmetry_space_group_name_H-M   'P 1'
_cell_length_a   12.94495500
_cell_length_b   6.76315400
_cell_length_c   9.72549126
_cell_angle_alpha   54.57619634
_cell_angle_beta   90.00000000
_cell_angle_gamma   90.00000000
_symmetry_Int_Tables_number   1
_chemical_formula_structural   Cu6Ni2C3
_chemical_formula_sum   'Cu12 Ni4 C6'
_cell_volume   693.83913531
_cell_formula_units_Z   2
loop_
 _symmetry_equiv_pos_site_id
 _symmetry_equiv_pos_as_xyz
  1  'x, y, z'
loop_
 _atom_site_type_symbol
 _atom_site_label
 _atom_site_symmetry_multiplicity
 _atom_site_fract_x
 _atom_site_fract_y
 _atom_site_fract_z
 _atom_site_occupancy
  C  C0  1  0.17884500  0.27841800  0.97885500  1
  C  C1  1  0.67884500  0.72158200  0.52114500  1
  C  C2  1  0.82115500  0.72158200  0.02114500  1
  C  C3  1  0.32115500  0.27841800  0.47885500  1
  C  C4  1  0.00000000  0.00000000  0.50000000  1
  C  C5  1  0.50000000  0.00000000  0.00000000  1
  Ni  Ni6  1  0.04071000  0.64786100  0.37681200  1
  Ni  Ni7  1  0.54071000  0.35213900  0.12318800  1
  Ni  Ni8  1  0.95929000  0.35213900  0.62318800  1
  Ni  Ni9  1  0.45929000  0.64786100  0.87681200  1
  Cu  Cu10  1  0.17776900  0.75742400  0.45179100  1
  Cu  Cu11  1  0.67776900  0.24257600  0.04820900  1
  Cu  Cu12  1  0.82223100  0.24257600  0.54820900  1
  Cu  Cu13  1  0.32223100  0.75742400  0.95179100  1
  Cu  Cu14  1  0.93079800  0.95327600  0.23847700  1
  Cu  Cu15  1  0.43079800  0.04672400  0.26152300  1
  Cu  Cu16  1  0.06920200  0.04672400  0.76152300  1
  Cu  Cu17  1  0.56920200  0.95327600  0.73847700  1
  Cu  Cu18  1  0.42644300  0.46987800  0.75015600  1
  Cu  Cu19  1  0.92644300  0.53012200  0.74984400  1
  Cu  Cu20  1  0.57355700  0.53012200  0.24984400  1
  Cu  Cu21  1  0.07355700  0.46987800  0.25015600  1
