# generated using pymatgen
data_Cu9Ni3C19
_symmetry_space_group_name_H-M   'P 1'
_cell_length_a   8.07613300
_cell_length_b   8.97714300
_cell_length_c   11.59979400
_cell_angle_alpha   90.00000000
_cell_angle_beta   90.00000000
_cell_angle_gamma   90.00000000
_symmetry_Int_Tables_number   1
_chemical_formula_structural   Cu9Ni3C19
_chemical_formula_sum   'Cu18 Ni6 C38'
_cell_volume   840.99203448
_cell_formula_units_Z   2
loop_
 _symmetry_equiv_pos_site_id
 _symmetry_equiv_pos_as_xyz
  1  'x, y, z'
loop_
 _atom_site_type_symbol
 _atom_site_label
 _atom_site_symmetry_multiplicity
 _atom_site_fract_x
 _atom_site_fract_y
 _atom_site_fract_z
 _atom_site_occupancy
  C  C0  1  0.50000000  0.33588100  0.00000000  1
  C  C1  1  0.00000000  0.66411900  0.50000000  1
  C  C2  1  0.21477700  0.51934100  0.10029400  1
  C  C3  1  0.71477700  0.48065900  0.39970600  1
  C  C4  1  0.78522300  0.51934100  0.89970600  1
  C  C5  1  0.28522300  0.48065900  0.60029400  1
  C  C6  1  0.28522300  0.48065900  0.39970600  1
  C  C7  1  0.78522300  0.51934100  0.10029400  1
  C  C8  1  0.71477700  0.48065900  0.60029400  1
  C  C9  1  0.21477700  0.51934100  0.89970600  1
  C  C10  1  0.20983800  0.36939400  0.17023500  1
  C  C11  1  0.70983800  0.63060600  0.32976500  1
  C  C12  1  0.79016200  0.36939400  0.82976500  1
  C  C13  1  0.29016200  0.63060600  0.67023500  1
  C  C14  1  0.29016200  0.63060600  0.32976500  1
  C  C15  1  0.79016200  0.36939400  0.17023500  1
  C  C16  1  0.70983800  0.63060600  0.67023500  1
  C  C17  1  0.20983800  0.36939400  0.82976500  1
  C  C18  1  0.50000000  0.68118000  0.93153600  1
  C  C19  1  0.00000000  0.31882000  0.56846400  1
  C  C20  1  0.50000000  0.68118000  0.06846400  1
  C  C21  1  0.00000000  0.31882000  0.43153600  1
  C  C22  1  0.77959100  0.11637300  0.93236000  1
  C  C23  1  0.27959100  0.88362700  0.56764000  1
  C  C24  1  0.22040900  0.11637300  0.06764000  1
  C  C25  1  0.72040900  0.88362700  0.43236000  1
  C  C26  1  0.72040900  0.88362700  0.56764000  1
  C  C27  1  0.22040900  0.11637300  0.93236000  1
  C  C28  1  0.27959100  0.88362700  0.43236000  1
  C  C29  1  0.77959100  0.11637300  0.06764000  1
  C  C30  1  0.50000000  0.09503800  0.20103100  1
  C  C31  1  0.00000000  0.90496200  0.29896900  1
  C  C32  1  0.50000000  0.09503800  0.79896900  1
  C  C33  1  0.00000000  0.90496200  0.70103100  1
  C  C34  1  0.50000000  0.24809800  0.26642700  1
  C  C35  1  0.00000000  0.75190200  0.23357300  1
  C  C36  1  0.50000000  0.24809800  0.73357300  1
  C  C37  1  0.00000000  0.75190200  0.76642700  1
  Ni  Ni38  1  0.00000000  0.17147000  0.23725600  1
  Ni  Ni39  1  0.50000000  0.82853000  0.26274400  1
  Ni  Ni40  1  0.00000000  0.17147000  0.76274400  1
  Ni  Ni41  1  0.50000000  0.82853000  0.73725600  1
  Ni  Ni42  1  0.50000000  0.30681700  0.50000000  1
  Ni  Ni43  1  0.00000000  0.69318300  0.00000000  1
  Cu  Cu44  1  0.28555100  0.43774700  0.12922200  1
  Cu  Cu45  1  0.78555100  0.56225300  0.37077800  1
  Cu  Cu46  1  0.71444900  0.43774700  0.87077800  1
  Cu  Cu47  1  0.21444900  0.56225300  0.62922200  1
  Cu  Cu48  1  0.21444900  0.56225300  0.37077800  1
  Cu  Cu49  1  0.71444900  0.43774700  0.12922200  1
  Cu  Cu50  1  0.78555100  0.56225300  0.62922200  1
  Cu  Cu51  1  0.28555100  0.43774700  0.87077800  1
  Cu  Cu52  1  0.50000000  0.61607600  0.00000000  1
  Cu  Cu53  1  0.00000000  0.38392400  0.50000000  1
  Cu  Cu54  1  0.70720100  0.12915900  0.00000000  1
  Cu  Cu55  1  0.20720100  0.87084100  0.50000000  1
  Cu  Cu56  1  0.29279900  0.12915900  0.00000000  1
  Cu  Cu57  1  0.79279900  0.87084100  0.50000000  1
  Cu  Cu58  1  0.50000000  0.20419200  0.18887400  1
  Cu  Cu59  1  0.00000000  0.79580800  0.31112600  1
  Cu  Cu60  1  0.50000000  0.20419200  0.81112600  1
  Cu  Cu61  1  0.00000000  0.79580800  0.68887400  1
