# generated using pymatgen
data_Cu3(NiC12)2
_symmetry_space_group_name_H-M   'P 1'
_cell_length_a   7.73596415
_cell_length_b   8.38731300
_cell_length_c   12.64243376
_cell_angle_alpha   90.00000000
_cell_angle_beta   96.00092709
_cell_angle_gamma   90.00000000
_symmetry_Int_Tables_number   1
_chemical_formula_structural   Cu3(NiC12)2
_chemical_formula_sum   'Cu6 Ni4 C48'
_cell_volume   815.79604611
_cell_formula_units_Z   2
loop_
 _symmetry_equiv_pos_site_id
 _symmetry_equiv_pos_as_xyz
  1  'x, y, z'
loop_
 _atom_site_type_symbol
 _atom_site_label
 _atom_site_symmetry_multiplicity
 _atom_site_fract_x
 _atom_site_fract_y
 _atom_site_fract_z
 _atom_site_occupancy
  Ni  Ni0  1  0.86514900  0.99482400  0.17580800  1
  Ni  Ni1  1  0.36514900  0.50517600  0.17580800  1
  Ni  Ni2  1  0.63485100  0.49482400  0.82419200  1
  Ni  Ni3  1  0.13485100  0.00517600  0.82419200  1
  Cu  Cu4  1  0.63329400  0.37295300  0.38144800  1
  Cu  Cu5  1  0.86670600  0.87295300  0.61855200  1
  Cu  Cu6  1  0.13329400  0.12704700  0.38144800  1
  Cu  Cu7  1  0.50000000  0.00000000  0.50000000  1
  Cu  Cu8  1  0.36670600  0.62704700  0.61855200  1
  Cu  Cu9  1  0.00000000  0.50000000  0.50000000  1
  C  C10  1  0.19109000  0.19091500  0.60646300  1
  C  C11  1  0.69109000  0.30908500  0.60646300  1
  C  C12  1  0.13556000  0.80141300  0.04380400  1
  C  C13  1  0.36444000  0.30141300  0.95619600  1
  C  C14  1  0.44439600  0.10018600  0.21698700  1
  C  C15  1  0.86444000  0.19858700  0.95619600  1
  C  C16  1  0.30891000  0.69091500  0.39353700  1
  C  C17  1  0.80891000  0.80908500  0.39353700  1
  C  C18  1  0.63556000  0.69858700  0.04380400  1
  C  C19  1  0.94439600  0.39981400  0.21698700  1
  C  C20  1  0.05560400  0.60018600  0.78301300  1
  C  C21  1  0.55560400  0.89981400  0.78301300  1
  C  C22  1  0.45042200  0.76880900  0.50256000  1
  C  C23  1  0.54957800  0.23119100  0.49744000  1
  C  C24  1  0.96045200  0.90303600  0.32653100  1
  C  C25  1  0.30653900  0.73001700  0.13002100  1
  C  C26  1  0.25025300  0.04153500  0.51579100  1
  C  C27  1  0.15748100  0.53246600  0.67672600  1
  C  C28  1  0.58937100  0.52783200  0.11292500  1
  C  C29  1  0.41062900  0.47216800  0.88707500  1
  C  C30  1  0.04957800  0.26880900  0.49744000  1
  C  C31  1  0.08937100  0.97216800  0.11292500  1
  C  C32  1  0.19346100  0.23001700  0.86998000  1
  C  C33  1  0.48747600  0.30267500  0.25409100  1
  C  C34  1  0.01252400  0.80267500  0.74590900  1
  C  C35  1  0.85571400  0.51547800  0.74741600  1
  C  C36  1  0.25180000  0.88409000  0.94557300  1
  C  C37  1  0.75025300  0.45846500  0.51579100  1
  C  C38  1  0.80653900  0.76998300  0.13002100  1
  C  C39  1  0.24820000  0.38409000  0.05442700  1
  C  C40  1  0.65748100  0.96753400  0.67672600  1
  C  C41  1  0.24974700  0.54153500  0.48420900  1
  C  C42  1  0.74820000  0.11591000  0.05442700  1
  C  C43  1  0.95042200  0.73119100  0.50256000  1
  C  C44  1  0.14428600  0.48452200  0.25258400  1
  C  C45  1  0.84251900  0.46753400  0.32327400  1
  C  C46  1  0.34251900  0.03246600  0.32327400  1
  C  C47  1  0.69346100  0.26998300  0.86998000  1
  C  C48  1  0.74974700  0.95846500  0.48420900  1
  C  C49  1  0.03954800  0.09696400  0.67346900  1
  C  C50  1  0.75180000  0.61591000  0.94557300  1
  C  C51  1  0.51252400  0.69732500  0.74590900  1
  C  C52  1  0.98747600  0.19732500  0.25409100  1
  C  C53  1  0.46045200  0.59696400  0.32653100  1
  C  C54  1  0.91062900  0.02783200  0.88707500  1
  C  C55  1  0.64428600  0.01547800  0.25258400  1
  C  C56  1  0.53954800  0.40303600  0.67346900  1
  C  C57  1  0.35571400  0.98452200  0.74741600  1
