# generated using pymatgen
data_Cu8Ni4C11
_symmetry_space_group_name_H-M   'P 1'
_cell_length_a   8.94074991
_cell_length_b   8.94074991
_cell_length_c   12.16499400
_cell_angle_alpha   90.00000000
_cell_angle_beta   90.00000000
_cell_angle_gamma   98.39302766
_symmetry_Int_Tables_number   1
_chemical_formula_structural   Cu8Ni4C11
_chemical_formula_sum   'Cu16 Ni8 C22'
_cell_volume   962.01857354
_cell_formula_units_Z   2
loop_
 _symmetry_equiv_pos_site_id
 _symmetry_equiv_pos_as_xyz
  1  'x, y, z'
loop_
 _atom_site_type_symbol
 _atom_site_label
 _atom_site_symmetry_multiplicity
 _atom_site_fract_x
 _atom_site_fract_y
 _atom_site_fract_z
 _atom_site_occupancy
  C  C0  1  0.87930900  0.12069100  0.75000000  1
  C  C1  1  0.19277200  0.43277600  0.75000000  1
  C  C2  1  0.66708500  0.97089200  0.44953800  1
  C  C3  1  0.43277600  0.19277200  0.25000000  1
  C  C4  1  0.34052400  0.65947600  0.40803500  1
  C  C5  1  0.33291500  0.02910800  0.55046200  1
  C  C6  1  0.02910800  0.33291500  0.05046200  1
  C  C7  1  0.34052400  0.65947600  0.09196500  1
  C  C8  1  0.80722800  0.56722400  0.25000000  1
  C  C9  1  0.65947600  0.34052400  0.90803500  1
  C  C10  1  0.65947600  0.34052400  0.59196500  1
  C  C11  1  0.12069100  0.87930900  0.25000000  1
  C  C12  1  0.33291500  0.02910800  0.94953800  1
  C  C13  1  0.97089200  0.66708500  0.94953800  1
  C  C14  1  0.02910800  0.33291500  0.44953800  1
  C  C15  1  0.97089200  0.66708500  0.55046200  1
  C  C16  1  0.56722400  0.80722800  0.75000000  1
  C  C17  1  0.66708500  0.97089200  0.05046200  1
  C  C18  1  0.91505600  0.41762800  0.75000000  1
  C  C19  1  0.08494400  0.58237200  0.25000000  1
  C  C20  1  0.41762800  0.91505600  0.25000000  1
  C  C21  1  0.58237200  0.08494400  0.75000000  1
  Ni  Ni22  1  0.06315700  0.59727900  0.36795500  1
  Ni  Ni23  1  0.93684300  0.40272100  0.63204500  1
  Ni  Ni24  1  0.06315700  0.59727900  0.13204500  1
  Ni  Ni25  1  0.59727900  0.06315700  0.63204500  1
  Ni  Ni26  1  0.40272100  0.93684300  0.13204500  1
  Ni  Ni27  1  0.93684300  0.40272100  0.86795500  1
  Ni  Ni28  1  0.40272100  0.93684300  0.36795500  1
  Ni  Ni29  1  0.59727900  0.06315700  0.86795500  1
  Cu  Cu30  1  0.87617400  0.80173100  0.75000000  1
  Cu  Cu31  1  0.48750800  0.51249200  0.25000000  1
  Cu  Cu32  1  0.80173100  0.87617400  0.25000000  1
  Cu  Cu33  1  0.27612000  0.72388000  0.87918800  1
  Cu  Cu34  1  0.72388000  0.27612000  0.37918800  1
  Cu  Cu35  1  0.19826900  0.12382600  0.75000000  1
  Cu  Cu36  1  0.33958900  0.33958900  0.50000000  1
  Cu  Cu37  1  0.66041100  0.66041100  0.00000000  1
  Cu  Cu38  1  0.33958900  0.33958900  0.00000000  1
  Cu  Cu39  1  0.27612000  0.72388000  0.62081200  1
  Cu  Cu40  1  0.00000000  0.00000000  0.50000000  1
  Cu  Cu41  1  0.66041100  0.66041100  0.50000000  1
  Cu  Cu42  1  0.72388000  0.27612000  0.12081200  1
  Cu  Cu43  1  0.12382600  0.19826900  0.25000000  1
  Cu  Cu44  1  0.51249200  0.48750800  0.75000000  1
  Cu  Cu45  1  0.00000000  0.00000000  0.00000000  1
