# generated using pymatgen
data_Cu3(Ni3C2)16
_symmetry_space_group_name_H-M   'P 1'
_cell_length_a   6.96955300
_cell_length_b   9.53247700
_cell_length_c   16.56412170
_cell_angle_alpha   89.89906894
_cell_angle_beta   90.00000000
_cell_angle_gamma   90.00000000
_symmetry_Int_Tables_number   1
_chemical_formula_structural   Cu3(Ni3C2)16
_chemical_formula_sum   'Cu3 Ni48 C32'
_cell_volume   1100.47056320
_cell_formula_units_Z   1
loop_
 _symmetry_equiv_pos_site_id
 _symmetry_equiv_pos_as_xyz
  1  'x, y, z'
loop_
 _atom_site_type_symbol
 _atom_site_label
 _atom_site_symmetry_multiplicity
 _atom_site_fract_x
 _atom_site_fract_y
 _atom_site_fract_z
 _atom_site_occupancy
  C  C0  1  0.00000000  0.71163300  0.00493000  1
  C  C1  1  0.24240400  0.49577100  0.16766400  1
  C  C2  1  0.75759600  0.49577100  0.16766400  1
  C  C3  1  0.50000000  0.37347100  0.37805200  1
  C  C4  1  0.00000000  0.14466900  0.13422100  1
  C  C5  1  0.00000000  0.12872800  0.85828500  1
  C  C6  1  0.74707800  0.00723800  0.33137400  1
  C  C7  1  0.24015700  0.99507800  0.66912900  1
  C  C8  1  0.25292200  0.00723800  0.33137400  1
  C  C9  1  0.75984300  0.99507800  0.66912900  1
  C  C10  1  0.00000000  0.63115700  0.62347300  1
  C  C11  1  0.75465800  0.50039100  0.83174100  1
  C  C12  1  0.24534200  0.50039100  0.83174100  1
  C  C13  1  0.00000000  0.62001900  0.37465300  1
  C  C14  1  0.00000000  0.26215400  0.50261500  1
  C  C15  1  0.50000000  0.88028600  0.12427300  1
  C  C16  1  0.50000000  0.87459500  0.87882400  1
  C  C17  1  0.50000000  0.74509700  0.49918100  1
  C  C18  1  0.50000000  0.38430000  0.62196100  1
  C  C19  1  0.50000000  0.24341700  0.99820800  1
  C  C20  1  0.50000000  0.67445200  0.30560500  1
  C  C21  1  0.50000000  0.62242300  0.01257600  1
  C  C22  1  0.00000000  0.29039800  0.32168000  1
  C  C23  1  0.50000000  0.20897200  0.18103200  1
  C  C24  1  0.50000000  0.17071300  0.80436000  1
  C  C25  1  0.50000000  0.11977700  0.51259900  1
  C  C26  1  0.00000000  0.88123000  0.48759700  1
  C  C27  1  0.00000000  0.82843400  0.19292000  1
  C  C28  1  0.00000000  0.79717000  0.82158300  1
  C  C29  1  0.50000000  0.71053900  0.68253900  1
  C  C30  1  0.00000000  0.36395100  0.98795700  1
  C  C31  1  0.00000000  0.33167200  0.69046300  1
  Ni  Ni32  1  0.67113900  0.70146100  0.04199700  1
  Ni  Ni33  1  0.32886100  0.70146100  0.04199700  1
  Ni  Ni34  1  0.00000000  0.68299600  0.16089400  1
  Ni  Ni35  1  0.50000000  0.68568000  0.21572800  1
  Ni  Ni36  1  0.67291400  0.59459400  0.33198900  1
  Ni  Ni37  1  0.32708600  0.59459400  0.33198900  1
  Ni  Ni38  1  0.50000000  0.47875100  0.04818400  1
  Ni  Ni39  1  0.00000000  0.42060500  0.27119100  1
  Ni  Ni40  1  0.00000000  0.39499200  0.07593900  1
  Ni  Ni41  1  0.50000000  0.33627600  0.23205600  1
  Ni  Ni42  1  0.17216700  0.28890400  0.37549700  1
  Ni  Ni43  1  0.82783300  0.28890400  0.37549700  1
  Ni  Ni44  1  0.67127000  0.20947400  0.12637900  1
  Ni  Ni45  1  0.32873000  0.20947400  0.12637900  1
  Ni  Ni46  1  0.32890400  0.20255800  0.54006000  1
  Ni  Ni47  1  0.67109600  0.20255800  0.54006000  1
  Ni  Ni48  1  0.00000000  0.18754400  0.65500900  1
  Ni  Ni49  1  0.50000000  0.18897800  0.71501300  1
  Ni  Ni50  1  0.00000000  0.16279300  0.27066400  1
  Ni  Ni51  1  0.50000000  0.10103600  0.42427900  1
  Ni  Ni52  1  0.67106100  0.08682700  0.82924100  1
  Ni  Ni53  1  0.32893900  0.08682700  0.82924100  1
  Ni  Ni54  1  0.50000000  0.07789200  0.23068800  1
  Ni  Ni55  1  0.00000000  0.02092400  0.44715600  1
  Ni  Ni56  1  0.50000000  0.98131500  0.55494600  1
  Ni  Ni57  1  0.00000000  0.91830400  0.76485500  1
  Ni  Ni58  1  0.17202600  0.90738400  0.16421500  1
  Ni  Ni59  1  0.82797400  0.90738400  0.16421500  1
  Ni  Ni60  1  0.00000000  0.89601300  0.57609900  1
  Ni  Ni61  1  0.50000000  0.83468200  0.73725000  1
  Ni  Ni62  1  0.00000000  0.82549000  0.28346300  1
  Ni  Ni63  1  0.50000000  0.81605100  0.34404600  1
  Ni  Ni64  1  0.17142000  0.79915700  0.45926700  1
  Ni  Ni65  1  0.82858000  0.79915700  0.45926700  1
  Ni  Ni66  1  0.17219400  0.80337000  0.87564400  1
  Ni  Ni67  1  0.82780600  0.80337000  0.87564400  1
  Ni  Ni68  1  0.67176900  0.71704800  0.62891700  1
  Ni  Ni69  1  0.32823100  0.71704800  0.62891700  1
  Ni  Ni70  1  0.00000000  0.66210300  0.77649100  1
  Ni  Ni71  1  0.50000000  0.61535300  0.92259500  1
  Ni  Ni72  1  0.50000000  0.57763700  0.73034700  1
  Ni  Ni73  1  0.00000000  0.49691000  0.94023900  1
  Ni  Ni74  1  0.17262200  0.40946500  0.66121900  1
  Ni  Ni75  1  0.82737800  0.40946500  0.66121900  1
  Ni  Ni76  1  0.00000000  0.32771500  0.77997000  1
  Ni  Ni77  1  0.50000000  0.30966300  0.84582400  1
  Ni  Ni78  1  0.17190500  0.27874700  0.96542700  1
  Ni  Ni79  1  0.82809500  0.27874700  0.96542700  1
  Cu  Cu80  1  0.50000000  0.99818600  0.00009700  1
  Cu  Cu81  1  0.00000000  0.49726600  0.49027700  1
  Cu  Cu82  1  0.50000000  0.51064700  0.50760200  1
