# generated using pymatgen
data_Cu2NiC2
_symmetry_space_group_name_H-M   'P 1'
_cell_length_a   12.12269800
_cell_length_b   7.11877600
_cell_length_c   9.49483021
_cell_angle_alpha   60.49793451
_cell_angle_beta   90.00000000
_cell_angle_gamma   90.00000000
_symmetry_Int_Tables_number   1
_chemical_formula_structural   Cu2NiC2
_chemical_formula_sum   'Cu16 Ni8 C16'
_cell_volume   713.14810797
_cell_formula_units_Z   8
loop_
 _symmetry_equiv_pos_site_id
 _symmetry_equiv_pos_as_xyz
  1  'x, y, z'
loop_
 _atom_site_type_symbol
 _atom_site_label
 _atom_site_symmetry_multiplicity
 _atom_site_fract_x
 _atom_site_fract_y
 _atom_site_fract_z
 _atom_site_occupancy
  Ni  Ni0  1  0.97083900  0.31011200  0.92300900  1
  Ni  Ni1  1  0.02916100  0.68988800  0.07699100  1
  Ni  Ni2  1  0.47083900  0.68988800  0.57699100  1
  Ni  Ni3  1  0.94851500  0.76578300  0.94433700  1
  Ni  Ni4  1  0.55148500  0.76578300  0.44433700  1
  Ni  Ni5  1  0.05148500  0.23421700  0.05566300  1
  Ni  Ni6  1  0.52916100  0.31011200  0.42300900  1
  Ni  Ni7  1  0.44851500  0.23421700  0.55566300  1
  Cu  Cu8  1  0.77439000  0.38518800  0.82560900  1
  Cu  Cu9  1  0.22561000  0.61481200  0.17439100  1
  Cu  Cu10  1  0.90012500  0.50336900  0.63892700  1
  Cu  Cu11  1  0.40012500  0.49663100  0.86107300  1
  Cu  Cu12  1  0.50017600  0.12153900  0.75376700  1
  Cu  Cu13  1  0.00017600  0.87846100  0.74623300  1
  Cu  Cu14  1  0.27835700  0.16962200  0.71464900  1
  Cu  Cu15  1  0.72164300  0.83037800  0.28535100  1
  Cu  Cu16  1  0.22164300  0.16962200  0.21464900  1
  Cu  Cu17  1  0.72561000  0.38518800  0.32560900  1
  Cu  Cu18  1  0.27439000  0.61481200  0.67439100  1
  Cu  Cu19  1  0.99982400  0.12153900  0.25376700  1
  Cu  Cu20  1  0.49982400  0.87846100  0.24623300  1
  Cu  Cu21  1  0.77835700  0.83037800  0.78535100  1
  Cu  Cu22  1  0.59987500  0.50336900  0.13892700  1
  Cu  Cu23  1  0.09987500  0.49663100  0.36107300  1
  C  C24  1  0.62070100  0.92008500  0.15468500  1
  C  C25  1  0.49741200  0.42109100  0.26834000  1
  C  C26  1  0.36490400  0.72948700  0.52991000  1
  C  C27  1  0.12070100  0.07991500  0.34531500  1
  C  C28  1  0.86490400  0.27051300  0.97009000  1
  C  C29  1  0.13509600  0.72948700  0.02991000  1
  C  C30  1  0.63509600  0.27051300  0.47009000  1
  C  C31  1  0.50258800  0.57890900  0.73166000  1
  C  C32  1  0.99741200  0.57890900  0.23166000  1
  C  C33  1  0.34169100  0.25601200  0.53912300  1
  C  C34  1  0.15830900  0.25601200  0.03912300  1
  C  C35  1  0.84169100  0.74398800  0.96087700  1
  C  C36  1  0.65830900  0.74398800  0.46087700  1
  C  C37  1  0.37929900  0.07991500  0.84531500  1
  C  C38  1  0.87929900  0.92008500  0.65468500  1
  C  C39  1  0.00258800  0.42109100  0.76834000  1
