# generated using pymatgen
data_Cu2NiC
_symmetry_space_group_name_H-M   'P 1'
_cell_length_a   6.59014832
_cell_length_b   6.59014832
_cell_length_c   5.39028942
_cell_angle_alpha   68.85143249
_cell_angle_beta   68.85143249
_cell_angle_gamma   48.71454222
_symmetry_Int_Tables_number   1
_chemical_formula_structural   Cu2NiC
_chemical_formula_sum   'Cu4 Ni2 C2'
_cell_volume   161.52706403
_cell_formula_units_Z   2
loop_
 _symmetry_equiv_pos_site_id
 _symmetry_equiv_pos_as_xyz
  1  'x, y, z'
loop_
 _atom_site_type_symbol
 _atom_site_label
 _atom_site_symmetry_multiplicity
 _atom_site_fract_x
 _atom_site_fract_y
 _atom_site_fract_z
 _atom_site_occupancy
  C  C0  1  0.76731200  0.23394800  0.99879800  1
  C  C1  1  0.23394800  0.76731200  0.49879800  1
  Ni  Ni2  1  0.94341300  0.49911900  0.31724800  1
  Ni  Ni3  1  0.49911900  0.94341300  0.81724800  1
  Cu  Cu4  1  0.76062300  0.28230200  0.47600600  1
  Cu  Cu5  1  0.28230200  0.76062300  0.97600600  1
  Cu  Cu6  1  0.96134400  0.55902800  0.71419800  1
  Cu  Cu7  1  0.55902800  0.96134400  0.21419800  1
