# generated using pymatgen
data_Cu8Ni2C5
_symmetry_space_group_name_H-M   'P 1'
_cell_length_a   5.07643100
_cell_length_b   11.75888900
_cell_length_c   14.96560300
_cell_angle_alpha   90.00000000
_cell_angle_beta   90.00000000
_cell_angle_gamma   90.00000000
_symmetry_Int_Tables_number   1
_chemical_formula_structural   Cu8Ni2C5
_chemical_formula_sum   'Cu32 Ni8 C20'
_cell_volume   893.34456307
_cell_formula_units_Z   4
loop_
 _symmetry_equiv_pos_site_id
 _symmetry_equiv_pos_as_xyz
  1  'x, y, z'
loop_
 _atom_site_type_symbol
 _atom_site_label
 _atom_site_symmetry_multiplicity
 _atom_site_fract_x
 _atom_site_fract_y
 _atom_site_fract_z
 _atom_site_occupancy
  C  C0  1  0.02133000  0.86197400  0.16210000  1
  C  C1  1  0.47867000  0.86197400  0.83790000  1
  C  C2  1  0.52133000  0.13802600  0.16210000  1
  C  C3  1  0.97867000  0.13802600  0.83790000  1
  C  C4  1  0.02133000  0.36197400  0.33790000  1
  C  C5  1  0.47867000  0.36197400  0.66210000  1
  C  C6  1  0.97867000  0.63802600  0.66210000  1
  C  C7  1  0.52133000  0.63802600  0.33790000  1
  C  C8  1  0.75000000  0.09102500  0.50000000  1
  C  C9  1  0.25000000  0.40897500  0.00000000  1
  C  C10  1  0.25000000  0.90897500  0.50000000  1
  C  C11  1  0.62762400  0.42367400  0.16250700  1
  C  C12  1  0.12762300  0.07632600  0.33749300  1
  C  C13  1  0.37237600  0.57632600  0.83749300  1
  C  C14  1  0.87237600  0.42367400  0.83749300  1
  C  C15  1  0.75000000  0.59102500  0.00000000  1
  C  C16  1  0.12762300  0.57632600  0.16250700  1
  C  C17  1  0.62762400  0.92367400  0.33749300  1
  C  C18  1  0.37237600  0.07632600  0.66250700  1
  C  C19  1  0.87237600  0.92367400  0.66250700  1
  Ni  Ni20  1  0.48299200  0.60231700  0.57612800  1
  Ni  Ni21  1  0.51700800  0.39768300  0.42387200  1
  Ni  Ni22  1  0.01700800  0.60231700  0.42387200  1
  Ni  Ni23  1  0.51700800  0.89768300  0.07612800  1
  Ni  Ni24  1  0.01700800  0.10231700  0.07612800  1
  Ni  Ni25  1  0.98299200  0.89768300  0.92387200  1
  Ni  Ni26  1  0.48299200  0.10231700  0.92387200  1
  Ni  Ni27  1  0.98299200  0.39768300  0.57612800  1
  Cu  Cu28  1  0.43750000  0.54494000  0.07671300  1
  Cu  Cu29  1  0.67246600  0.53072300  0.76273800  1
  Cu  Cu30  1  0.82753400  0.53072300  0.23726200  1
  Cu  Cu31  1  0.74702800  0.29960500  0.22064200  1
  Cu  Cu32  1  0.82753400  0.03072300  0.26273800  1
  Cu  Cu33  1  0.57520800  0.18118800  0.58108400  1
  Cu  Cu34  1  0.25297200  0.70039500  0.77935800  1
  Cu  Cu35  1  0.25297200  0.20039500  0.72064200  1
  Cu  Cu36  1  0.67246600  0.03072300  0.73726200  1
  Cu  Cu37  1  0.32753400  0.96927700  0.26273800  1
  Cu  Cu38  1  0.07520900  0.81881200  0.58108400  1
  Cu  Cu39  1  0.75297200  0.79960500  0.72064200  1
  Cu  Cu40  1  0.93750000  0.95506000  0.42328700  1
  Cu  Cu41  1  0.07520900  0.31881200  0.91891600  1
  Cu  Cu42  1  0.17246600  0.96927700  0.73726200  1
  Cu  Cu43  1  0.06250000  0.54494000  0.92328700  1
  Cu  Cu44  1  0.06250000  0.04494000  0.57671300  1
  Cu  Cu45  1  0.57520800  0.68118800  0.91891600  1
  Cu  Cu46  1  0.24702800  0.70039500  0.22064200  1
  Cu  Cu47  1  0.56250000  0.45506000  0.92328700  1
  Cu  Cu48  1  0.32753400  0.46927700  0.23726200  1
  Cu  Cu49  1  0.42479200  0.81881200  0.41891600  1
  Cu  Cu50  1  0.56250000  0.95506000  0.57671300  1
  Cu  Cu51  1  0.92479200  0.68118800  0.08108400  1
  Cu  Cu52  1  0.17246600  0.46927700  0.76273800  1
  Cu  Cu53  1  0.42479200  0.31881200  0.08108400  1
  Cu  Cu54  1  0.74702800  0.79960500  0.27935800  1
  Cu  Cu55  1  0.43750000  0.04494000  0.42328700  1
  Cu  Cu56  1  0.93750000  0.45506000  0.07671300  1
  Cu  Cu57  1  0.92479200  0.18118800  0.41891600  1
  Cu  Cu58  1  0.75297200  0.29960500  0.77935800  1
  Cu  Cu59  1  0.24702800  0.20039500  0.27935800  1
