# generated using pymatgen
data_CuNi2C7
_symmetry_space_group_name_H-M   'P 1'
_cell_length_a   10.34343779
_cell_length_b   10.34343779
_cell_length_c   10.37668300
_cell_angle_alpha   90.00000000
_cell_angle_beta   90.00000000
_cell_angle_gamma   132.57764989
_symmetry_Int_Tables_number   1
_chemical_formula_structural   CuNi2C7
_chemical_formula_sum   'Cu6 Ni12 C42'
_cell_volume   817.48385147
_cell_formula_units_Z   6
loop_
 _symmetry_equiv_pos_site_id
 _symmetry_equiv_pos_as_xyz
  1  'x, y, z'
loop_
 _atom_site_type_symbol
 _atom_site_label
 _atom_site_symmetry_multiplicity
 _atom_site_fract_x
 _atom_site_fract_y
 _atom_site_fract_z
 _atom_site_occupancy
  C  C0  1  0.76873200  0.14357600  0.21950000  1
  C  C1  1  0.23126700  0.85642400  0.71950000  1
  C  C2  1  0.85642400  0.23126700  0.71950000  1
  C  C3  1  0.14357600  0.76873300  0.21950000  1
  C  C4  1  0.55767000  0.37224500  0.16224000  1
  C  C5  1  0.44233000  0.62775500  0.66224000  1
  C  C6  1  0.62775500  0.44233000  0.66224000  1
  C  C7  1  0.37224500  0.55767000  0.16224000  1
  C  C8  1  0.18247100  0.18247100  0.45125500  1
  C  C9  1  0.81752900  0.81752900  0.95125500  1
  Ni  Ni10  1  0.54786400  0.54786400  0.46760100  1
  Ni  Ni11  1  0.45213600  0.45213600  0.96760100  1
  Ni  Ni12  1  0.42734900  0.42734900  0.33278800  1
  Ni  Ni13  1  0.57265100  0.57265100  0.83278800  1
  Ni  Ni14  1  0.43177900  0.07925100  0.00053600  1
  Ni  Ni15  1  0.56822100  0.92074900  0.50053600  1
  Ni  Ni16  1  0.92074900  0.56822100  0.50053600  1
  Ni  Ni17  1  0.07925100  0.43177900  0.00053600  1
  Ni  Ni18  1  0.29085300  0.09617300  0.99709000  1
  Ni  Ni19  1  0.70914700  0.90382700  0.49709000  1
  Ni  Ni20  1  0.90382700  0.70914700  0.49709000  1
  Ni  Ni21  1  0.09617300  0.29085300  0.99709000  1
  Cu  Cu22  1  0.87919400  0.52197100  0.94177200  1
  Cu  Cu23  1  0.12080600  0.47802900  0.44177200  1
  Cu  Cu24  1  0.47802900  0.12080600  0.44177200  1
  Cu  Cu25  1  0.52197100  0.87919400  0.94177200  1
  Cu  Cu26  1  0.19513900  0.19513900  0.78377000  1
  Cu  Cu27  1  0.80486100  0.80486100  0.28377000  1
  C  C28  1  0.80050900  0.43846400  0.07121100  1
  C  C29  1  0.19949100  0.56153600  0.57121100  1
  C  C30  1  0.56153600  0.19949100  0.57121100  1
  C  C31  1  0.43846400  0.80050900  0.07121100  1
  C  C32  1  0.95426100  0.70719400  0.94389000  1
  C  C33  1  0.04573900  0.29280600  0.44389000  1
  C  C34  1  0.29280600  0.04573900  0.44389000  1
  C  C35  1  0.70719400  0.95426100  0.94389000  1
  C  C36  1  0.74458000  0.41738500  0.83914400  1
  C  C37  1  0.25542000  0.58261500  0.33914400  1
  C  C38  1  0.58261500  0.25542000  0.33914400  1
  C  C39  1  0.41738500  0.74458000  0.83914400  1
  C  C40  1  0.02547900  0.52912900  0.91705900  1
  C  C41  1  0.97452100  0.47087100  0.41705900  1
  C  C42  1  0.47087100  0.97452100  0.41705900  1
  C  C43  1  0.52912900  0.02547900  0.91705900  1
  C  C44  1  0.09165600  0.09165600  0.66665400  1
  C  C45  1  0.90834400  0.90834400  0.16665400  1
  C  C46  1  0.09204000  0.09204000  0.90323700  1
  C  C47  1  0.90796000  0.90796000  0.40323700  1
  C  C48  1  0.36235700  0.23290600  0.78866400  1
  C  C49  1  0.63764300  0.76709400  0.28866400  1
  C  C50  1  0.76709400  0.63764300  0.28866400  1
  C  C51  1  0.23290600  0.36235700  0.78866400  1
  C  C52  1  0.46171300  0.46171300  0.53156900  1
  C  C53  1  0.53828700  0.53828700  0.03156900  1
  C  C54  1  0.34106300  0.34106300  0.26885900  1
  C  C55  1  0.65893700  0.65893700  0.76885900  1
  C  C56  1  0.36653900  0.09873000  0.05591000  1
  C  C57  1  0.63346100  0.90127000  0.55591000  1
  C  C58  1  0.90127000  0.63346100  0.55591000  1
  C  C59  1  0.09873000  0.36653900  0.05591000  1
