# generated using pymatgen
data_CuNiC5
_symmetry_space_group_name_H-M   'P 1'
_cell_length_a   9.83740197
_cell_length_b   9.83740197
_cell_length_c   9.82908100
_cell_angle_alpha   90.00000000
_cell_angle_beta   90.00000000
_cell_angle_gamma   119.99999977
_symmetry_Int_Tables_number   1
_chemical_formula_structural   CuNiC5
_chemical_formula_sum   'Cu8 Ni8 C40'
_cell_volume   823.76698380
_cell_formula_units_Z   8
loop_
 _symmetry_equiv_pos_site_id
 _symmetry_equiv_pos_as_xyz
  1  'x, y, z'
loop_
 _atom_site_type_symbol
 _atom_site_label
 _atom_site_symmetry_multiplicity
 _atom_site_fract_x
 _atom_site_fract_y
 _atom_site_fract_z
 _atom_site_occupancy
  C  C0  1  0.00000000  0.00000000  0.98709000  1
  C  C1  1  0.00000000  0.00000000  0.48709000  1
  C  C2  1  0.01955200  0.44130000  0.98862400  1
  C  C3  1  0.57825200  0.01955200  0.48862400  1
  C  C4  1  0.44130000  0.42174800  0.48862400  1
  C  C5  1  0.55870000  0.57825200  0.98862400  1
  C  C6  1  0.42174800  0.98044800  0.98862400  1
  C  C7  1  0.98044800  0.55870000  0.48862400  1
  Ni  Ni8  1  0.33333300  0.66666700  0.16567700  1
  Ni  Ni9  1  0.66666700  0.33333300  0.66567700  1
  Ni  Ni10  1  0.08632900  0.32927200  0.68478400  1
  Ni  Ni11  1  0.75705700  0.08632900  0.18478400  1
  Ni  Ni12  1  0.32927200  0.24294300  0.18478400  1
  Ni  Ni13  1  0.67072800  0.75705700  0.68478400  1
  Ni  Ni14  1  0.24294300  0.91367100  0.68478400  1
  Ni  Ni15  1  0.91367100  0.67072800  0.18478400  1
  Cu  Cu16  1  0.33333300  0.66666700  0.82346200  1
  Cu  Cu17  1  0.66666700  0.33333300  0.32346200  1
  Cu  Cu18  1  0.12083300  0.31630200  0.25420900  1
  Cu  Cu19  1  0.80453100  0.12083300  0.75420900  1
  Cu  Cu20  1  0.31630200  0.19546900  0.75420900  1
  Cu  Cu21  1  0.68369800  0.80453100  0.25420900  1
  Cu  Cu22  1  0.19546900  0.87916700  0.25420900  1
  Cu  Cu23  1  0.87916700  0.68369800  0.75420900  1
  C  C24  1  0.33333300  0.66666700  0.98879900  1
  C  C25  1  0.66666700  0.33333300  0.48879900  1
  C  C26  1  0.09882800  0.40671700  0.51339700  1
  C  C27  1  0.69211100  0.09882800  0.01339700  1
  C  C28  1  0.40671700  0.30788900  0.01339700  1
  C  C29  1  0.59328300  0.69211100  0.51339700  1
  C  C30  1  0.30788900  0.90117200  0.51339700  1
  C  C31  1  0.90117200  0.59328300  0.01339700  1
  C  C32  1  0.17487900  0.50508600  0.77691300  1
  C  C33  1  0.66979300  0.17487900  0.27691300  1
  C  C34  1  0.50508600  0.33020700  0.27691300  1
  C  C35  1  0.49491400  0.66979300  0.77691300  1
  C  C36  1  0.33020700  0.82512100  0.77691300  1
  C  C37  1  0.82512100  0.49491400  0.27691300  1
  C  C38  1  0.16327900  0.49474700  0.21458600  1
  C  C39  1  0.66853200  0.16327900  0.71458600  1
  C  C40  1  0.49474700  0.33146800  0.71458600  1
  C  C41  1  0.50525300  0.66853200  0.21458600  1
  C  C42  1  0.33146800  0.83672100  0.21458600  1
  C  C43  1  0.83672100  0.50525300  0.71458600  1
  C  C44  1  0.02973200  0.27500100  0.41287400  1
  C  C45  1  0.75473100  0.02973200  0.91287400  1
  C  C46  1  0.27500100  0.24526900  0.91287400  1
  C  C47  1  0.72499900  0.75473100  0.41287400  1
  C  C48  1  0.24526900  0.97026800  0.41287400  1
  C  C49  1  0.97026800  0.72499900  0.91287400  1
  C  C50  1  0.19185800  0.22745600  0.66626900  1
  C  C51  1  0.96440200  0.19185800  0.16626900  1
  C  C52  1  0.22745600  0.03559800  0.16626900  1
  C  C53  1  0.77254400  0.96440200  0.66626900  1
  C  C54  1  0.03559800  0.80814200  0.66626900  1
  C  C55  1  0.80814200  0.77254400  0.16626900  1
