# generated using pymatgen
data_Cu58Ni38C27
_symmetry_space_group_name_H-M   'P 1'
_cell_length_a   19.30775126
_cell_length_b   19.30775130
_cell_length_c   19.30775102
_cell_angle_alpha   59.99999881
_cell_angle_beta   59.99999874
_cell_angle_gamma   60.00000022
_symmetry_Int_Tables_number   1
_chemical_formula_structural   Cu58Ni38C27
_chemical_formula_sum   'Cu58 Ni38 C27'
_cell_volume   5089.55809615
_cell_formula_units_Z   1
loop_
 _symmetry_equiv_pos_site_id
 _symmetry_equiv_pos_as_xyz
  1  'x, y, z'
loop_
 _atom_site_type_symbol
 _atom_site_label
 _atom_site_symmetry_multiplicity
 _atom_site_fract_x
 _atom_site_fract_y
 _atom_site_fract_z
 _atom_site_occupancy
  Ni  Ni0  1  0.53272230  0.15575923  0.15575923  1
  Ni  Ni1  1  0.37951336  0.62665920  0.99691372  1
  Ni  Ni2  1  0.90567951  0.28296147  0.90567951  1
  Ni  Ni3  1  0.77357101  0.54456538  0.54456538  1
  Ni  Ni4  1  0.54456538  0.13729824  0.54456538  1
  Ni  Ni5  1  0.99691372  0.99691372  0.37951336  1
  Ni  Ni6  1  0.99691372  0.99691372  0.62665920  1
  Ni  Ni7  1  0.37951336  0.99691372  0.62665920  1
  Ni  Ni8  1  0.90567951  0.90567951  0.90567951  1
  Ni  Ni9  1  0.54456538  0.77357101  0.13729824  1
  Ni  Ni10  1  0.99691372  0.62665920  0.37951336  1
  Ni  Ni11  1  0.77357101  0.13729824  0.54456538  1
  Ni  Ni12  1  0.40691197  0.40691197  0.77926410  1
  Ni  Ni13  1  0.25000000  0.25000000  0.25000000  1
  Ni  Ni14  1  0.62665920  0.99691372  0.99691372  1
  Ni  Ni15  1  0.54456538  0.54456538  0.77357101  1
  Ni  Ni16  1  0.15575923  0.53272230  0.15575923  1
  Ni  Ni17  1  0.90567951  0.90567951  0.28296147  1
  Ni  Ni18  1  0.40691197  0.40691197  0.40691197  1
  Ni  Ni19  1  0.15575923  0.15575923  0.53272230  1
  Ni  Ni20  1  0.54456538  0.54456538  0.13729824  1
  Ni  Ni21  1  0.28296147  0.90567951  0.90567951  1
  Ni  Ni22  1  0.40691197  0.77926410  0.40691197  1
  Ni  Ni23  1  0.13729824  0.54456538  0.77357101  1
  Ni  Ni24  1  0.54456538  0.13729824  0.77357101  1
  Ni  Ni25  1  0.99691372  0.62665920  0.99691372  1
  Ni  Ni26  1  0.77357101  0.54456538  0.13729824  1
  Ni  Ni27  1  0.99691372  0.37951336  0.99691372  1
  Ni  Ni28  1  0.15575923  0.15575923  0.15575923  1
  Ni  Ni29  1  0.77926410  0.40691197  0.40691197  1
  Ni  Ni30  1  0.62665920  0.37951336  0.99691372  1
  Ni  Ni31  1  0.62665920  0.99691372  0.37951336  1
  Ni  Ni32  1  0.00000000  0.00000000  0.00000000  1
  Ni  Ni33  1  0.99691372  0.37951336  0.62665920  1
  Ni  Ni34  1  0.54456538  0.77357101  0.54456538  1
  Ni  Ni35  1  0.37951336  0.99691372  0.99691372  1
  Ni  Ni36  1  0.13729824  0.54456538  0.54456538  1
  Ni  Ni37  1  0.13729824  0.77357101  0.54456538  1
  Cu  Cu38  1  0.13925308  0.95503653  0.76645731  1
  Cu  Cu39  1  0.19860126  0.01238816  0.39450529  1
  Cu  Cu40  1  0.89307306  0.58114635  0.26289030  1
  Cu  Cu41  1  0.54984305  0.54984305  0.54984305  1
  Cu  Cu42  1  0.95503653  0.13925308  0.13925308  1
  Cu  Cu43  1  0.13199442  0.76764591  0.76764591  1
  Cu  Cu44  1  0.76764591  0.13199442  0.76764591  1
  Cu  Cu45  1  0.26289030  0.89307306  0.26289030  1
  Cu  Cu46  1  0.39450529  0.01238816  0.39450529  1
  Cu  Cu47  1  0.26289030  0.26289030  0.89307306  1
  Cu  Cu48  1  0.19860126  0.39450529  0.01238816  1
  Cu  Cu49  1  0.13199442  0.76764591  0.33271376  1
  Cu  Cu50  1  0.39450529  0.39450529  0.19860126  1
  Cu  Cu51  1  0.76764591  0.13199442  0.33271376  1
  Cu  Cu52  1  0.58114635  0.26289030  0.26289030  1
  Cu  Cu53  1  0.65968567  0.34031433  0.34031433  1
  Cu  Cu54  1  0.34031433  0.65968567  0.34031433  1
  Cu  Cu55  1  0.26289030  0.26289030  0.58114635  1
  Cu  Cu56  1  0.19860126  0.39450529  0.39450529  1
  Cu  Cu57  1  0.95503653  0.13925308  0.76645731  1
  Cu  Cu58  1  0.39450529  0.39450529  0.01238816  1
  Cu  Cu59  1  0.39450529  0.19860126  0.01238816  1
  Cu  Cu60  1  0.26289030  0.58114635  0.26289030  1
  Cu  Cu61  1  0.34031433  0.34031433  0.65968567  1
  Cu  Cu62  1  0.35047086  0.54984305  0.54984305  1
  Cu  Cu63  1  0.33271376  0.76764591  0.76764591  1
  Cu  Cu64  1  0.13925308  0.13925308  0.95503653  1
  Cu  Cu65  1  0.76764591  0.33271376  0.13199442  1
  Cu  Cu66  1  0.65968567  0.34031433  0.65968567  1
  Cu  Cu67  1  0.76764591  0.76764591  0.13199442  1
  Cu  Cu68  1  0.58114635  0.26289030  0.89307306  1
  Cu  Cu69  1  0.76764591  0.76764591  0.33271376  1
  Cu  Cu70  1  0.33271376  0.76764591  0.13199442  1
  Cu  Cu71  1  0.01238816  0.39450529  0.19860126  1
  Cu  Cu72  1  0.39450529  0.19860126  0.39450529  1
  Cu  Cu73  1  0.76645731  0.13925308  0.95503653  1
  Cu  Cu74  1  0.76645731  0.95503653  0.13925308  1
  Cu  Cu75  1  0.26289030  0.58114635  0.89307306  1
  Cu  Cu76  1  0.54984305  0.54984305  0.35047086  1
  Cu  Cu77  1  0.95503653  0.76645731  0.13925308  1
  Cu  Cu78  1  0.76764591  0.33271376  0.76764591  1
  Cu  Cu79  1  0.13925308  0.76645731  0.13925308  1
  Cu  Cu80  1  0.34031433  0.65968567  0.65968567  1
  Cu  Cu81  1  0.26289030  0.89307306  0.58114635  1
  Cu  Cu82  1  0.01238816  0.19860126  0.39450529  1
  Cu  Cu83  1  0.13925308  0.76645731  0.95503653  1
  Cu  Cu84  1  0.13199442  0.33271376  0.76764591  1
  Cu  Cu85  1  0.65968567  0.65968567  0.34031433  1
  Cu  Cu86  1  0.58114635  0.89307306  0.26289030  1
  Cu  Cu87  1  0.54984305  0.35047086  0.54984305  1
  Cu  Cu88  1  0.13925308  0.13925308  0.76645731  1
  Cu  Cu89  1  0.33271376  0.13199442  0.76764591  1
  Cu  Cu90  1  0.89307306  0.26289030  0.26289030  1
  Cu  Cu91  1  0.39450529  0.01238816  0.19860126  1
  Cu  Cu92  1  0.89307306  0.26289030  0.58114635  1
  Cu  Cu93  1  0.01238816  0.39450529  0.39450529  1
  Cu  Cu94  1  0.76645731  0.13925308  0.13925308  1
  Cu  Cu95  1  0.13925308  0.95503653  0.13925308  1
  C  C96  1  0.63092599  0.78969134  0.78969134  1
  C  C97  1  0.77598726  0.95478225  0.77598726  1
  C  C98  1  0.78969134  0.78969134  0.63092599  1
  C  C99  1  0.69207156  0.92378531  0.69207156  1
  C  C100  1  0.77598726  0.77598726  0.95478225  1
  C  C101  1  0.61061850  0.61061850  0.88938150  1
  C  C102  1  0.95478225  0.49324324  0.77598726  1
  C  C103  1  0.95478225  0.77598726  0.49324324  1
  C  C104  1  0.77598726  0.95478225  0.49324324  1
  C  C105  1  0.88938150  0.61061850  0.88938150  1
  C  C106  1  0.88938150  0.61061850  0.61061850  1
  C  C107  1  0.77598726  0.49324324  0.77598726  1
  C  C108  1  0.77598726  0.49324324  0.95478225  1
  C  C109  1  0.69207156  0.69207156  0.69207156  1
  C  C110  1  0.78969134  0.63092599  0.78969134  1
  C  C111  1  0.61061850  0.88938150  0.61061850  1
  C  C112  1  0.69207156  0.69207156  0.92378531  1
  C  C113  1  0.95478225  0.77598726  0.77598726  1
  C  C114  1  0.49324324  0.77598726  0.77598726  1
  C  C115  1  0.78969134  0.78969134  0.78969134  1
  C  C116  1  0.49324324  0.77598726  0.95478225  1
  C  C117  1  0.49324324  0.95478225  0.77598726  1
  C  C118  1  0.92378531  0.69207156  0.69207156  1
  C  C119  1  0.77598726  0.77598726  0.49324324  1
  C  C120  1  0.88938150  0.88938150  0.61061850  1
  C  C121  1  0.61061850  0.88938150  0.88938150  1
  C  C122  1  0.75000000  0.75000000  0.75000000  1
