# generated using pymatgen
data_Cu3NiC5
_symmetry_space_group_name_H-M   'P 1'
_cell_length_a   11.92880487
_cell_length_b   11.92880487
_cell_length_c   11.92880487
_cell_angle_alpha   114.15612915
_cell_angle_beta   114.15612915
_cell_angle_gamma   100.46011283
_symmetry_Int_Tables_number   1
_chemical_formula_structural   Cu3NiC5
_chemical_formula_sum   'Cu24 Ni8 C40'
_cell_volume   1282.99240915
_cell_formula_units_Z   8
loop_
 _symmetry_equiv_pos_site_id
 _symmetry_equiv_pos_as_xyz
  1  'x, y, z'
loop_
 _atom_site_type_symbol
 _atom_site_label
 _atom_site_symmetry_multiplicity
 _atom_site_fract_x
 _atom_site_fract_y
 _atom_site_fract_z
 _atom_site_occupancy
  Ni  Ni0  1  0.94497200  0.93932800  0.46707000  1
  Ni  Ni1  1  0.22790200  0.19497200  0.50564400  1
  Ni  Ni2  1  0.47225800  0.47790200  0.53293000  1
  Ni  Ni3  1  0.06067200  0.52774200  0.00564400  1
  Ni  Ni4  1  0.80502800  0.31067200  0.03293000  1
  Ni  Ni5  1  0.52209800  0.05502800  0.99435600  1
  Ni  Ni6  1  0.27774200  0.77209800  0.96707000  1
  Ni  Ni7  1  0.68932800  0.72225800  0.49435600  1
  Cu  Cu8  1  0.02978200  0.65884300  0.31039700  1
  Cu  Cu9  1  0.66730800  0.80059300  0.86004000  1
  Cu  Cu10  1  0.55726800  0.91730800  0.36671500  1
  Cu  Cu11  1  0.40884300  0.59844600  0.12906000  1
  Cu  Cu12  1  0.80944700  0.44273200  0.36004000  1
  Cu  Cu13  1  0.84017200  0.15999100  0.36388500  1
  Cu  Cu14  1  0.40155400  0.53061500  0.81039700  1
  Cu  Cu15  1  0.90982800  0.09000900  0.13611500  1
  Cu  Cu16  1  0.28061500  0.97021800  0.62906000  1
  Cu  Cu17  1  0.19273200  0.33269200  0.13328500  1
  Cu  Cu18  1  0.08269200  0.44940700  0.63996000  1
  Cu  Cu19  1  0.84000900  0.20389400  0.68018100  1
  Cu  Cu20  1  0.90999100  0.04610600  0.81981900  1
  Cu  Cu21  1  0.79610600  0.47628700  0.63611500  1
  Cu  Cu22  1  0.94055300  0.80726800  0.13996000  1
  Cu  Cu23  1  0.95389400  0.77371300  0.86388500  1
  Cu  Cu24  1  0.46938500  0.27978200  0.87094000  1
  Cu  Cu25  1  0.19940700  0.05944700  0.86671500  1
  Cu  Cu26  1  0.55059300  0.19055300  0.63328500  1
  Cu  Cu27  1  0.72021800  0.59115700  0.18960300  1
  Cu  Cu28  1  0.34115700  0.65155400  0.37094000  1
  Cu  Cu29  1  0.34844600  0.71938500  0.68960300  1
  Cu  Cu30  1  0.52371300  0.15982800  0.31981900  1
  Cu  Cu31  1  0.22628700  0.09017200  0.18018100  1
  C  C32  1  0.64261400  0.85621300  0.13948800  1
  C  C33  1  0.25312600  0.89261400  0.28640200  1
  C  C34  1  0.71672500  0.50312600  0.86051200  1
  C  C35  1  0.14378700  0.28327500  0.78640200  1
  C  C36  1  0.10738600  0.39378700  0.36051200  1
  C  C37  1  0.60621300  0.96672500  0.71359800  1
  C  C38  1  0.03327500  0.74687400  0.63948800  1
  C  C39  1  0.49687400  0.35738600  0.21359800  1
  C  C40  1  0.83043700  0.94117600  0.19027300  1
  C  C41  1  0.60008800  0.37201800  0.12061000  1
  C  C42  1  0.23595400  0.16239100  0.74512200  1
  C  C43  1  0.33273100  0.75916800  0.24512200  1
  C  C44  1  0.35983600  0.16956300  0.11074000  1
  C  C45  1  0.05882400  0.24909600  0.88926000  1
  C  C46  1  0.83760900  0.58273100  0.07356300  1
  C  C47  1  0.52052200  0.39991200  0.77193100  1
  C  C48  1  0.69117600  0.00090400  0.61074000  1
  C  C49  1  0.14991200  0.87798200  0.37939000  1
  C  C50  1  0.76447300  0.01936400  0.90379900  1
  C  C51  1  0.49859100  0.77052200  0.62061000  1
  C  C52  1  0.25140900  0.47947800  0.87939000  1
  C  C53  1  0.99909600  0.60983600  0.69027300  1
  C  C54  1  0.24083200  0.48595400  0.57356300  1
  C  C55  1  0.76936400  0.36556500  0.75489100  1
  C  C56  1  0.75090400  0.64016400  0.80972700  1
  C  C57  1  0.98063600  0.88443500  0.74510900  1
  C  C58  1  0.11556500  0.86067400  0.09620100  1
  C  C59  1  0.91956300  0.30882400  0.30972700  1
  C  C60  1  0.91239100  0.66726900  0.42643700  1
  C  C61  1  0.63443500  0.38932600  0.40379900  1
  C  C62  1  0.61067400  0.01447300  0.24510900  1
  C  C63  1  0.13932600  0.23552700  0.25489100  1
  C  C64  1  0.22947800  0.85008800  0.72806900  1
  C  C65  1  0.62798200  0.74859100  0.22806900  1
  C  C66  1  0.50916800  0.76404600  0.92643700  1
  C  C67  1  0.98552700  0.23063600  0.59620100  1
  C  C68  1  0.41726900  0.49083200  0.25487800  1
  C  C69  1  0.12201800  0.50140900  0.27193100  1
  C  C70  1  0.39016400  0.08043700  0.38926000  1
  C  C71  1  0.51404600  0.08760900  0.75487800  1
