# generated using pymatgen
data_Cu4NiC2
_symmetry_space_group_name_H-M   'P 1'
_cell_length_a   8.32894600
_cell_length_b   8.93584300
_cell_length_c   39.39363300
_cell_angle_alpha   90.00000000
_cell_angle_beta   90.00000000
_cell_angle_gamma   90.00000000
_symmetry_Int_Tables_number   1
_chemical_formula_structural   Cu4NiC2
_chemical_formula_sum   'Cu64 Ni16 C32'
_cell_volume   2931.91658885
_cell_formula_units_Z   16
loop_
 _symmetry_equiv_pos_site_id
 _symmetry_equiv_pos_as_xyz
  1  'x, y, z'
loop_
 _atom_site_type_symbol
 _atom_site_label
 _atom_site_symmetry_multiplicity
 _atom_site_fract_x
 _atom_site_fract_y
 _atom_site_fract_z
 _atom_site_occupancy
  C  C0  1  0.44203700  0.99761400  0.46879900  1
  C  C1  1  0.94203700  0.49761400  0.03120100  1
  C  C2  1  0.36305400  0.25413800  0.28117900  1
  C  C3  1  0.36305400  0.24586200  0.78117900  1
  C  C4  1  0.86305400  0.74586200  0.71882100  1
  C  C5  1  0.94203700  0.00238600  0.53120100  1
  C  C6  1  0.44203700  0.50238600  0.96879900  1
  C  C7  1  0.86305400  0.75413800  0.21882100  1
  C  C8  1  0.94443400  0.20303400  0.42950500  1
  C  C9  1  0.46639100  0.55205200  0.48844400  1
  C  C10  1  0.87201400  0.76569500  0.93728300  1
  C  C11  1  0.13732000  0.19432700  0.13968300  1
  C  C12  1  0.93875400  0.51769900  0.82280700  1
  C  C13  1  0.13732000  0.30567300  0.63968300  1
  C  C14  1  0.96639100  0.44794800  0.51155600  1
  C  C15  1  0.94443400  0.29696600  0.92950500  1
  C  C16  1  0.63732000  0.80567300  0.86031700  1
  C  C17  1  0.44443400  0.70303400  0.07049500  1
  C  C18  1  0.33707400  0.69537500  0.77235100  1
  C  C19  1  0.46639100  0.94794800  0.98844400  1
  C  C20  1  0.33707400  0.80462500  0.27235100  1
  C  C21  1  0.83707400  0.19537500  0.72764900  1
  C  C22  1  0.63732000  0.69432700  0.36031700  1
  C  C23  1  0.87201400  0.73430500  0.43728300  1
  C  C24  1  0.37201400  0.26569500  0.56271700  1
  C  C25  1  0.83707400  0.30462500  0.22764900  1
  C  C26  1  0.44443400  0.79696600  0.57049500  1
  C  C27  1  0.37201400  0.23430500  0.06271700  1
  C  C28  1  0.43875400  0.48230100  0.17719300  1
  C  C29  1  0.96639100  0.05205200  0.01155600  1
  C  C30  1  0.93875400  0.98230100  0.32280700  1
  C  C31  1  0.43875400  0.01769900  0.67719300  1
  Ni  Ni32  1  0.09912900  0.76902500  0.12817600  1
  Ni  Ni33  1  0.77171400  0.45884700  0.12573200  1
  Ni  Ni34  1  0.78305300  0.48642600  0.60935800  1
  Ni  Ni35  1  0.28305300  0.98642600  0.89064200  1
  Ni  Ni36  1  0.93904100  0.03141900  0.80787800  1
  Ni  Ni37  1  0.93904100  0.46858100  0.30787800  1
  Ni  Ni38  1  0.59912900  0.26902500  0.37182400  1
  Ni  Ni39  1  0.59912900  0.23097500  0.87182400  1
  Ni  Ni40  1  0.09912900  0.73097500  0.62817600  1
  Ni  Ni41  1  0.78305300  0.01357400  0.10935800  1
  Ni  Ni42  1  0.77171400  0.04115300  0.62573200  1
  Ni  Ni43  1  0.27171400  0.95884700  0.37426800  1
  Ni  Ni44  1  0.43904100  0.53141900  0.69212200  1
  Ni  Ni45  1  0.28305300  0.51357400  0.39064200  1
  Ni  Ni46  1  0.27171400  0.54115300  0.87426800  1
  Ni  Ni47  1  0.43904100  0.96858100  0.19212200  1
  Cu  Cu48  1  0.54648500  0.97613000  0.24771300  1
  Cu  Cu49  1  0.07463400  0.54546300  0.45489200  1
  Cu  Cu50  1  0.09661500  0.97151600  0.26829800  1
  Cu  Cu51  1  0.09661500  0.52848400  0.76829800  1
  Cu  Cu52  1  0.71533400  0.77516800  0.99246800  1
  Cu  Cu53  1  0.54648500  0.52387000  0.74771300  1
  Cu  Cu54  1  0.96403000  0.43351000  0.16867400  1
  Cu  Cu55  1  0.04648500  0.02387000  0.75228700  1
  Cu  Cu56  1  0.78488100  0.23600400  0.98251900  1
  Cu  Cu57  1  0.42776300  0.69825200  0.41571300  1
  Cu  Cu58  1  0.58780800  0.28407800  0.14264000  1
  Cu  Cu59  1  0.12726000  0.33989900  0.85222000  1
  Cu  Cu60  1  0.28488100  0.73600400  0.51748100  1
  Cu  Cu61  1  0.42776300  0.80174800  0.91571300  1
  Cu  Cu62  1  0.29178100  0.55931300  0.61596700  1
  Cu  Cu63  1  0.41050800  0.19480500  0.91443000  1
  Cu  Cu64  1  0.42547000  0.51993200  0.33935500  1
  Cu  Cu65  1  0.22135800  0.56747700  0.09876200  1
  Cu  Cu66  1  0.79178100  0.44068700  0.38403300  1
  Cu  Cu67  1  0.58780800  0.21592200  0.64264000  1
  Cu  Cu68  1  0.77294100  0.82894100  0.79976900  1
  Cu  Cu69  1  0.46403000  0.56649000  0.83132600  1
  Cu  Cu70  1  0.07463400  0.95453700  0.95489200  1
  Cu  Cu71  1  0.27294100  0.32894100  0.70023100  1
  Cu  Cu72  1  0.79178100  0.05931300  0.88403300  1
  Cu  Cu73  1  0.04602600  0.54971400  0.95341400  1
  Cu  Cu74  1  0.28029200  0.76806500  0.20457400  1
  Cu  Cu75  1  0.72135800  0.43252300  0.90123800  1
  Cu  Cu76  1  0.92547000  0.01993200  0.16064500  1
  Cu  Cu77  1  0.71533400  0.72483200  0.49246800  1
  Cu  Cu78  1  0.77294100  0.67105900  0.29976900  1
  Cu  Cu79  1  0.54602600  0.04971400  0.54658600  1
  Cu  Cu80  1  0.41050800  0.30519500  0.41443000  1
  Cu  Cu81  1  0.42547000  0.98006800  0.83935500  1
  Cu  Cu82  1  0.46403000  0.93351000  0.33132600  1
  Cu  Cu83  1  0.27294100  0.17105900  0.20023100  1
  Cu  Cu84  1  0.04602600  0.95028600  0.45341400  1
  Cu  Cu85  1  0.92776300  0.30174800  0.58428700  1
  Cu  Cu86  1  0.28488100  0.76399600  0.01748100  1
  Cu  Cu87  1  0.59661500  0.47151600  0.23170200  1
  Cu  Cu88  1  0.57463400  0.04546300  0.04510800  1
  Cu  Cu89  1  0.78488100  0.26399600  0.48251900  1
  Cu  Cu90  1  0.54602600  0.45028600  0.04658600  1
  Cu  Cu91  1  0.04648500  0.47613000  0.25228700  1
  Cu  Cu92  1  0.28029200  0.73193500  0.70457400  1
  Cu  Cu93  1  0.72135800  0.06747700  0.40123800  1
  Cu  Cu94  1  0.62726000  0.66010100  0.14778000  1
  Cu  Cu95  1  0.59661500  0.02848400  0.73170200  1
  Cu  Cu96  1  0.12726000  0.16010100  0.35222000  1
  Cu  Cu97  1  0.62726000  0.83989900  0.64778000  1
  Cu  Cu98  1  0.91050800  0.80519500  0.08557000  1
  Cu  Cu99  1  0.57463400  0.45453700  0.54510800  1
  Cu  Cu100  1  0.21533400  0.27516800  0.50753200  1
  Cu  Cu101  1  0.78029200  0.23193500  0.79542600  1
  Cu  Cu102  1  0.08780800  0.71592200  0.85736000  1
  Cu  Cu103  1  0.91050800  0.69480500  0.58557000  1
  Cu  Cu104  1  0.29178100  0.94068700  0.11596700  1
  Cu  Cu105  1  0.08780800  0.78407800  0.35736000  1
  Cu  Cu106  1  0.92776300  0.19825200  0.08428700  1
  Cu  Cu107  1  0.22135800  0.93252300  0.59876200  1
  Cu  Cu108  1  0.78029200  0.26806500  0.29542600  1
  Cu  Cu109  1  0.92547000  0.48006800  0.66064500  1
  Cu  Cu110  1  0.96403000  0.06649000  0.66867400  1
  Cu  Cu111  1  0.21533400  0.22483200  0.00753200  1
