# generated using pymatgen
data_Cu4NiC3
_symmetry_space_group_name_H-M   'P 1'
_cell_length_a   10.99247300
_cell_length_b   8.38154300
_cell_length_c   13.37265562
_cell_angle_alpha   52.66880327
_cell_angle_beta   90.00000000
_cell_angle_gamma   90.00000000
_symmetry_Int_Tables_number   1
_chemical_formula_structural   Cu4NiC3
_chemical_formula_sum   'Cu16 Ni4 C12'
_cell_volume   979.67609251
_cell_formula_units_Z   4
loop_
 _symmetry_equiv_pos_site_id
 _symmetry_equiv_pos_as_xyz
  1  'x, y, z'
loop_
 _atom_site_type_symbol
 _atom_site_label
 _atom_site_symmetry_multiplicity
 _atom_site_fract_x
 _atom_site_fract_y
 _atom_site_fract_z
 _atom_site_occupancy
  C  C0  1  0.99199900  0.11250500  0.26259200  1
  C  C1  1  0.72882800  0.62987300  0.01059500  1
  C  C2  1  0.77117200  0.62987300  0.51059500  1
  C  C3  1  0.50800100  0.11250500  0.76259200  1
  C  C4  1  0.22882800  0.37012700  0.48940500  1
  C  C5  1  0.27117200  0.37012700  0.98940500  1
  C  C6  1  0.00800100  0.88749500  0.73740800  1
  C  C7  1  0.49199900  0.88749500  0.23740800  1
  C  C8  1  0.03237000  0.34949700  0.77982300  1
  C  C9  1  0.96763000  0.65050300  0.22017700  1
  C  C10  1  0.46763000  0.34949700  0.27982300  1
  C  C11  1  0.53237000  0.65050300  0.72017700  1
  Ni  Ni12  1  0.72397800  0.18421800  0.45982100  1
  Ni  Ni13  1  0.27602200  0.81578200  0.54017900  1
  Ni  Ni14  1  0.77602200  0.18421800  0.95982100  1
  Ni  Ni15  1  0.22397800  0.81578200  0.04017900  1
  Cu  Cu16  1  0.72479400  0.85997700  0.65656400  1
  Cu  Cu17  1  0.92213600  0.32066200  0.43769100  1
  Cu  Cu18  1  0.57786400  0.32066200  0.93769100  1
  Cu  Cu19  1  0.43154100  0.61066500  0.55096300  1
  Cu  Cu20  1  0.27520600  0.14002300  0.34343600  1
  Cu  Cu21  1  0.56845900  0.38933500  0.44903700  1
  Cu  Cu22  1  0.68332300  0.16765300  0.29240400  1
  Cu  Cu23  1  0.42213600  0.67933800  0.06230900  1
  Cu  Cu24  1  0.06845900  0.61066500  0.05096300  1
  Cu  Cu25  1  0.77520600  0.85997700  0.15656400  1
  Cu  Cu26  1  0.22479400  0.14002300  0.84343600  1
  Cu  Cu27  1  0.18332300  0.83234700  0.20759600  1
  Cu  Cu28  1  0.07786400  0.67933800  0.56230900  1
  Cu  Cu29  1  0.81667700  0.16765300  0.79240400  1
  Cu  Cu30  1  0.31667700  0.83234700  0.70759600  1
  Cu  Cu31  1  0.93154100  0.38933500  0.94903700  1
