# generated using pymatgen
data_Cu8Ni2C3
_symmetry_space_group_name_H-M   'P 1'
_cell_length_a   7.14804400
_cell_length_b   13.91189600
_cell_length_c   16.02579600
_cell_angle_alpha   90.00000000
_cell_angle_beta   90.00000000
_cell_angle_gamma   90.00000000
_symmetry_Int_Tables_number   1
_chemical_formula_structural   Cu8Ni2C3
_chemical_formula_sum   'Cu64 Ni16 C24'
_cell_volume   1593.65074333
_cell_formula_units_Z   8
loop_
 _symmetry_equiv_pos_site_id
 _symmetry_equiv_pos_as_xyz
  1  'x, y, z'
loop_
 _atom_site_type_symbol
 _atom_site_label
 _atom_site_symmetry_multiplicity
 _atom_site_fract_x
 _atom_site_fract_y
 _atom_site_fract_z
 _atom_site_occupancy
  C  C0  1  0.60681300  0.93445900  0.10488300  1
  C  C1  1  0.84348300  0.74960200  0.99513500  1
  C  C2  1  0.84348300  0.75039800  0.49513500  1
  C  C3  1  0.86429800  0.43028200  0.74814900  1
  C  C4  1  0.65651700  0.24960200  0.99513500  1
  C  C5  1  0.89318700  0.06554100  0.60488300  1
  C  C6  1  0.89318700  0.43445900  0.10488300  1
  C  C7  1  0.15651700  0.24960200  0.50486500  1
  C  C8  1  0.10681300  0.93445900  0.39511700  1
  C  C9  1  0.36429800  0.43028200  0.75185100  1
  C  C10  1  0.39318700  0.06554100  0.89511700  1
  C  C11  1  0.13570200  0.56971800  0.25185100  1
  C  C12  1  0.36429800  0.06971800  0.25185100  1
  C  C13  1  0.13570200  0.93028200  0.75185100  1
  C  C14  1  0.63570200  0.56971800  0.24814900  1
  C  C15  1  0.34348300  0.74960200  0.50486500  1
  C  C16  1  0.39318700  0.43445900  0.39511700  1
  C  C17  1  0.63570200  0.93028200  0.74814900  1
  C  C18  1  0.15651700  0.25039800  0.00486500  1
  C  C19  1  0.10681300  0.56554100  0.89511700  1
  C  C20  1  0.86429800  0.06971800  0.24814900  1
  C  C21  1  0.65651700  0.25039800  0.49513500  1
  C  C22  1  0.60681300  0.56554100  0.60488300  1
  C  C23  1  0.34348300  0.75039800  0.00486500  1
  Ni  Ni24  1  0.76605600  0.70838000  0.77070700  1
  Ni  Ni25  1  0.39138900  0.03976800  0.57654500  1
  Ni  Ni26  1  0.39138900  0.46023200  0.07654500  1
  Ni  Ni27  1  0.89138900  0.03976800  0.92345500  1
  Ni  Ni28  1  0.26605600  0.79162000  0.22929300  1
  Ni  Ni29  1  0.73394400  0.29162000  0.27070700  1
  Ni  Ni30  1  0.60861100  0.53976800  0.92345500  1
  Ni  Ni31  1  0.26605600  0.70838000  0.72929300  1
  Ni  Ni32  1  0.10861100  0.96023200  0.07654500  1
  Ni  Ni33  1  0.73394400  0.20838000  0.77070700  1
  Ni  Ni34  1  0.76605600  0.79162000  0.27070700  1
  Ni  Ni35  1  0.23394400  0.20838000  0.72929300  1
  Ni  Ni36  1  0.10861100  0.53976800  0.57654500  1
  Ni  Ni37  1  0.60861100  0.96023200  0.42345500  1
  Ni  Ni38  1  0.23394400  0.29162000  0.22929300  1
  Ni  Ni39  1  0.89138900  0.46023200  0.42345500  1
  Cu  Cu40  1  0.29702500  0.22844200  0.80099900  1
  Cu  Cu41  1  0.79702500  0.27155800  0.19900100  1
  Cu  Cu42  1  0.39422600  0.95784500  0.61077500  1
  Cu  Cu43  1  0.09546500  0.82590100  0.48746600  1
  Cu  Cu44  1  0.10577400  0.45784500  0.61077500  1
  Cu  Cu45  1  0.01660000  0.39843400  0.40704500  1
  Cu  Cu46  1  0.89422600  0.54215500  0.38922500  1
  Cu  Cu47  1  0.20297500  0.72844200  0.80099900  1
  Cu  Cu48  1  0.60577400  0.45784500  0.88922500  1
  Cu  Cu49  1  0.26054300  0.06065600  0.52543900  1
  Cu  Cu50  1  0.81713400  0.62388200  0.78866700  1
  Cu  Cu51  1  0.31713400  0.87611800  0.21133300  1
  Cu  Cu52  1  0.20297500  0.77155800  0.30099900  1
  Cu  Cu53  1  0.18286600  0.12388200  0.71133300  1
  Cu  Cu54  1  0.59546500  0.67409900  0.51253400  1
  Cu  Cu55  1  0.22286200  0.22515600  0.17453300  1
  Cu  Cu56  1  0.88887300  0.56002200  0.17865200  1
  Cu  Cu57  1  0.39422600  0.54215500  0.11077500  1
  Cu  Cu58  1  0.51660000  0.10156600  0.59295500  1
  Cu  Cu59  1  0.38887300  0.93997800  0.82134800  1
  Cu  Cu60  1  0.01660000  0.10156600  0.90704500  1
  Cu  Cu61  1  0.72286200  0.27484400  0.82546700  1
  Cu  Cu62  1  0.61112700  0.43997800  0.67865200  1
  Cu  Cu63  1  0.88887300  0.93997800  0.67865200  1
  Cu  Cu64  1  0.48340000  0.89843400  0.40704500  1
  Cu  Cu65  1  0.29702500  0.27155800  0.30099900  1
  Cu  Cu66  1  0.48340000  0.60156600  0.90704500  1
  Cu  Cu67  1  0.09546500  0.67409900  0.98746600  1
  Cu  Cu68  1  0.70297500  0.72844200  0.69900100  1
  Cu  Cu69  1  0.23945700  0.56065600  0.52543900  1
  Cu  Cu70  1  0.10577400  0.04215500  0.11077500  1
  Cu  Cu71  1  0.27713800  0.72515600  0.17453300  1
  Cu  Cu72  1  0.60577400  0.04215500  0.38922500  1
  Cu  Cu73  1  0.38887300  0.56002200  0.32134800  1
  Cu  Cu74  1  0.51660000  0.39843400  0.09295500  1
  Cu  Cu75  1  0.11112700  0.43997800  0.82134800  1
  Cu  Cu76  1  0.79702500  0.22844200  0.69900100  1
  Cu  Cu77  1  0.90453500  0.32590100  0.01253400  1
  Cu  Cu78  1  0.90453500  0.17409900  0.51253400  1
  Cu  Cu79  1  0.81713400  0.87611800  0.28866700  1
  Cu  Cu80  1  0.27713800  0.77484400  0.67453300  1
  Cu  Cu81  1  0.40453500  0.17409900  0.98746600  1
  Cu  Cu82  1  0.68286600  0.37611800  0.28866700  1
  Cu  Cu83  1  0.70297500  0.77155800  0.19900100  1
  Cu  Cu84  1  0.89422600  0.95784500  0.88922500  1
  Cu  Cu85  1  0.98340000  0.60156600  0.59295500  1
  Cu  Cu86  1  0.73945700  0.93934400  0.47456100  1
  Cu  Cu87  1  0.59546500  0.82590100  0.01253400  1
  Cu  Cu88  1  0.40453500  0.32590100  0.48746600  1
  Cu  Cu89  1  0.76054300  0.43934400  0.47456100  1
  Cu  Cu90  1  0.23945700  0.93934400  0.02543900  1
  Cu  Cu91  1  0.31713400  0.62388200  0.71133300  1
  Cu  Cu92  1  0.22286200  0.27484400  0.67453300  1
  Cu  Cu93  1  0.72286200  0.22515600  0.32546700  1
  Cu  Cu94  1  0.26054300  0.43934400  0.02543900  1
  Cu  Cu95  1  0.76054300  0.06065600  0.97456100  1
  Cu  Cu96  1  0.11112700  0.06002200  0.32134800  1
  Cu  Cu97  1  0.77713800  0.77484400  0.82546700  1
  Cu  Cu98  1  0.73945700  0.56065600  0.97456100  1
  Cu  Cu99  1  0.68286600  0.12388200  0.78866700  1
  Cu  Cu100  1  0.98340000  0.89843400  0.09295500  1
  Cu  Cu101  1  0.77713800  0.72515600  0.32546700  1
  Cu  Cu102  1  0.18286600  0.37611800  0.21133300  1
  Cu  Cu103  1  0.61112700  0.06002200  0.17865200  1
