# generated using pymatgen
data_Cu4Ni2C41
_symmetry_space_group_name_H-M   'P 1'
_cell_length_a   21.79658400
_cell_length_b   5.42271200
_cell_length_c   9.07555441
_cell_angle_alpha   54.57503232
_cell_angle_beta   90.00000000
_cell_angle_gamma   90.00000000
_symmetry_Int_Tables_number   1
_chemical_formula_structural   Cu4Ni2C41
_chemical_formula_sum   'Cu8 Ni4 C82'
_cell_volume   874.11643685
_cell_formula_units_Z   2
loop_
 _symmetry_equiv_pos_site_id
 _symmetry_equiv_pos_as_xyz
  1  'x, y, z'
loop_
 _atom_site_type_symbol
 _atom_site_label
 _atom_site_symmetry_multiplicity
 _atom_site_fract_x
 _atom_site_fract_y
 _atom_site_fract_z
 _atom_site_occupancy
  C  C0  1  0.00000000  0.00000000  0.00000000  1
  C  C1  1  0.50000000  0.00000000  0.50000000  1
  Ni  Ni2  1  0.91594000  0.59502100  0.89584300  1
  Ni  Ni3  1  0.41594000  0.40497900  0.60415700  1
  Ni  Ni4  1  0.08406000  0.40497900  0.10415700  1
  Ni  Ni5  1  0.58406000  0.59502100  0.39584300  1
  C  C6  1  0.82710300  0.63956900  0.76442300  1
  C  C7  1  0.32710300  0.36043100  0.73557700  1
  C  C8  1  0.17289700  0.36043100  0.23557700  1
  C  C9  1  0.67289700  0.63956900  0.26442300  1
  C  C10  1  0.90558300  0.52901600  0.15497900  1
  C  C11  1  0.40558300  0.47098400  0.34502100  1
  C  C12  1  0.09441700  0.47098400  0.84502100  1
  C  C13  1  0.59441700  0.52901600  0.65497900  1
  C  C14  1  0.98871800  0.95212200  0.34596200  1
  C  C15  1  0.48871800  0.04787800  0.15403800  1
  C  C16  1  0.01128200  0.04787800  0.65403800  1
  C  C17  1  0.51128200  0.95212200  0.84596200  1
  C  C18  1  0.95595000  0.70906700  0.56710800  1
  C  C19  1  0.45595000  0.29093300  0.93289200  1
  C  C20  1  0.04405000  0.29093300  0.43289200  1
  C  C21  1  0.54405000  0.70906700  0.06710800  1
  C  C22  1  0.88640900  0.35392400  0.62314400  1
  C  C23  1  0.38640900  0.64607600  0.87685600  1
  C  C24  1  0.11359100  0.64607600  0.37685600  1
  C  C25  1  0.61359100  0.35392400  0.12314400  1
  C  C26  1  0.86845600  0.29342200  0.46265300  1
  C  C27  1  0.36845600  0.70657800  0.03734700  1
  C  C28  1  0.13154400  0.70657800  0.53734700  1
  C  C29  1  0.63154400  0.29342200  0.96265300  1
  C  C30  1  0.84393000  0.07064100  0.00083100  1
  C  C31  1  0.34393000  0.92935900  0.49916900  1
  C  C32  1  0.15607000  0.92935900  0.99916900  1
  C  C33  1  0.65607000  0.07064100  0.50083100  1
  C  C34  1  0.78753500  0.78525800  0.10220700  1
  C  C35  1  0.28753500  0.21474200  0.39779300  1
  C  C36  1  0.21246500  0.21474200  0.89779300  1
  C  C37  1  0.71246500  0.78525800  0.60220700  1
  C  C38  1  0.70220800  0.83003000  0.95137800  1
  C  C39  1  0.20220800  0.16997000  0.54862200  1
  C  C40  1  0.29779200  0.16997000  0.04862200  1
  C  C41  1  0.79779200  0.83003000  0.45137800  1
  C  C42  1  0.68131000  0.17622000  0.75217000  1
  C  C43  1  0.18131000  0.82378000  0.74783000  1
  C  C44  1  0.31869000  0.82378000  0.24783000  1
  C  C45  1  0.81869000  0.17622000  0.25217000  1
  Cu  Cu46  1  0.92572400  0.65377800  0.37578200  1
  Cu  Cu47  1  0.42572400  0.34622200  0.12421800  1
  Cu  Cu48  1  0.07427600  0.34622200  0.62421800  1
  Cu  Cu49  1  0.57427600  0.65377800  0.87578200  1
  Cu  Cu50  1  0.76200600  0.18306800  0.86597600  1
  Cu  Cu51  1  0.26200600  0.81693200  0.63402400  1
  Cu  Cu52  1  0.23799400  0.81693200  0.13402400  1
  Cu  Cu53  1  0.73799400  0.18306800  0.36597600  1
  C  C54  1  0.95628000  0.79831100  0.43278500  1
  C  C55  1  0.45628000  0.20168900  0.06721500  1
  C  C56  1  0.04372000  0.20168900  0.56721500  1
  C  C57  1  0.54372000  0.79831100  0.93278500  1
  C  C58  1  0.88450300  0.43943400  0.48946900  1
  C  C59  1  0.38450300  0.56056600  0.01053100  1
  C  C60  1  0.11549700  0.56056600  0.51053100  1
  C  C61  1  0.61549700  0.43943400  0.98946900  1
  C  C62  1  0.79954600  0.00632000  0.00867900  1
  C  C63  1  0.29954600  0.99368000  0.49132100  1
  C  C64  1  0.20045400  0.99368000  0.99132100  1
  C  C65  1  0.70045400  0.00632000  0.50867900  1
  C  C66  1  0.70840300  0.05768700  0.86447600  1
  C  C67  1  0.20840300  0.94231300  0.63552400  1
  C  C68  1  0.29159700  0.94231300  0.13552400  1
  C  C69  1  0.79159700  0.05768700  0.36447600  1
  C  C70  1  0.96282200  0.82943600  0.86260700  1
  C  C71  1  0.46282200  0.17056400  0.63739300  1
  C  C72  1  0.03717800  0.17056400  0.13739300  1
  C  C73  1  0.53717800  0.82943600  0.36260700  1
  C  C74  1  0.93610200  0.35829800  0.86557500  1
  C  C75  1  0.43610200  0.64170200  0.63442500  1
  C  C76  1  0.06389800  0.64170200  0.13442500  1
  C  C77  1  0.56389800  0.35829800  0.36557500  1
  C  C78  1  0.85930800  0.77481800  0.76555100  1
  C  C79  1  0.35930800  0.22518200  0.73444900  1
  C  C80  1  0.14069200  0.22518200  0.23444900  1
  C  C81  1  0.64069200  0.77481800  0.26555100  1
  C  C82  1  0.89042700  0.42316200  0.09843100  1
  C  C83  1  0.39042700  0.57683800  0.40156900  1
  C  C84  1  0.10957300  0.57683800  0.90156900  1
  C  C85  1  0.60957300  0.42316200  0.59843100  1
  C  C86  1  0.93333000  0.72557800  0.21507000  1
  C  C87  1  0.43333000  0.27442200  0.28493000  1
  C  C88  1  0.06667000  0.27442200  0.78493000  1
  C  C89  1  0.56667000  0.72557800  0.71507000  1
  C  C90  1  0.77459400  0.45775100  0.74157000  1
  C  C91  1  0.27459400  0.54224900  0.75843000  1
  C  C92  1  0.22540600  0.54224900  0.25843000  1
  C  C93  1  0.72540600  0.45775100  0.24157000  1
