# generated using pymatgen
data_Cu6NiC2
_symmetry_space_group_name_H-M   'P 1'
_cell_length_a   10.63901500
_cell_length_b   7.91557800
_cell_length_c   12.97123751
_cell_angle_alpha   75.57369668
_cell_angle_beta   90.00000000
_cell_angle_gamma   90.00000000
_symmetry_Int_Tables_number   1
_chemical_formula_structural   Cu6NiC2
_chemical_formula_sum   'Cu24 Ni4 C8'
_cell_volume   1057.91588989
_cell_formula_units_Z   4
loop_
 _symmetry_equiv_pos_site_id
 _symmetry_equiv_pos_as_xyz
  1  'x, y, z'
loop_
 _atom_site_type_symbol
 _atom_site_label
 _atom_site_symmetry_multiplicity
 _atom_site_fract_x
 _atom_site_fract_y
 _atom_site_fract_z
 _atom_site_occupancy
  C  C0  1  0.64272800  0.64893600  0.44960000  1
  C  C1  1  0.35727200  0.35106400  0.55040000  1
  C  C2  1  0.85727200  0.64893600  0.94960000  1
  C  C3  1  0.14272800  0.35106400  0.05040000  1
  Ni  Ni4  1  0.92227100  0.10232100  0.25111700  1
  Ni  Ni5  1  0.42227100  0.89767900  0.24888300  1
  Ni  Ni6  1  0.57772900  0.10232100  0.75111700  1
  Ni  Ni7  1  0.07772900  0.89767900  0.74888300  1
  Cu  Cu8  1  0.26207800  0.31684000  0.70711000  1
  Cu  Cu9  1  0.23792200  0.31684000  0.20711000  1
  Cu  Cu10  1  0.76207800  0.68316000  0.79289000  1
  Cu  Cu11  1  0.55001900  0.08901300  0.17532400  1
  Cu  Cu12  1  0.71469900  0.48340200  0.05093500  1
  Cu  Cu13  1  0.47656800  0.60024300  0.58744300  1
  Cu  Cu14  1  0.94998100  0.08901300  0.67532400  1
  Cu  Cu15  1  0.73792200  0.68316000  0.29289000  1
  Cu  Cu16  1  0.28530100  0.51659800  0.94906500  1
  Cu  Cu17  1  0.21469900  0.51659800  0.44906500  1
  Cu  Cu18  1  0.81165900  0.90249500  0.98610700  1
  Cu  Cu19  1  0.06668300  0.73617700  0.64606500  1
  Cu  Cu20  1  0.78530100  0.48340200  0.55093500  1
  Cu  Cu21  1  0.52343200  0.39975700  0.41255700  1
  Cu  Cu22  1  0.05001900  0.91098700  0.32467600  1
  Cu  Cu23  1  0.56668300  0.26382300  0.85393500  1
  Cu  Cu24  1  0.02343200  0.60024300  0.08744300  1
  Cu  Cu25  1  0.68834100  0.90249500  0.48610700  1
  Cu  Cu26  1  0.44998100  0.91098700  0.82467600  1
  Cu  Cu27  1  0.97656800  0.39975700  0.91255700  1
  Cu  Cu28  1  0.18834100  0.09750500  0.01389300  1
  Cu  Cu29  1  0.93331700  0.26382300  0.35393500  1
  Cu  Cu30  1  0.43331700  0.73617700  0.14606500  1
  Cu  Cu31  1  0.31165900  0.09750500  0.51389300  1
  C  C32  1  0.52384500  0.19575300  0.64870300  1
  C  C33  1  0.47615500  0.80424700  0.35129700  1
  C  C34  1  0.97615500  0.19575300  0.14870300  1
  C  C35  1  0.02384500  0.80424700  0.85129700  1
