# generated using pymatgen
data_Cu3NiC2
_symmetry_space_group_name_H-M   'P 1'
_cell_length_a   12.63012300
_cell_length_b   14.18343400
_cell_length_c   24.25102800
_cell_angle_alpha   90.00000000
_cell_angle_beta   90.00000000
_cell_angle_gamma   90.00000000
_symmetry_Int_Tables_number   1
_chemical_formula_structural   Cu3NiC2
_chemical_formula_sum   'Cu72 Ni24 C48'
_cell_volume   4344.29316697
_cell_formula_units_Z   24
loop_
 _symmetry_equiv_pos_site_id
 _symmetry_equiv_pos_as_xyz
  1  'x, y, z'
loop_
 _atom_site_type_symbol
 _atom_site_label
 _atom_site_symmetry_multiplicity
 _atom_site_fract_x
 _atom_site_fract_y
 _atom_site_fract_z
 _atom_site_occupancy
  C  C0  1  0.87877500  0.17008900  0.83167600  1
  C  C1  1  0.57336300  0.62249000  0.48363700  1
  C  C2  1  0.07567200  0.90703500  0.65387400  1
  C  C3  1  0.42432800  0.40703500  0.65387400  1
  C  C4  1  0.93668200  0.60719700  0.99186400  1
  C  C5  1  0.61655000  0.11402400  0.17261700  1
  C  C6  1  0.62122500  0.67008900  0.66832400  1
  C  C7  1  0.07336300  0.87751000  0.98363700  1
  C  C8  1  0.07192500  0.40081100  0.16866400  1
  C  C9  1  0.11655000  0.38597600  0.82738300  1
  C  C10  1  0.57336300  0.62249000  0.01636300  1
  C  C11  1  0.61655000  0.11402400  0.32738300  1
  C  C12  1  0.07336300  0.87751000  0.51636300  1
  C  C13  1  0.92807500  0.59918900  0.83133600  1
  C  C14  1  0.62122500  0.67008900  0.83167600  1
  C  C15  1  0.37877500  0.32991100  0.33167600  1
  C  C16  1  0.93668200  0.60719700  0.50813600  1
  C  C17  1  0.42432800  0.40703500  0.84612600  1
  C  C18  1  0.87877500  0.17008900  0.66832400  1
  C  C19  1  0.56331800  0.10719700  0.50813600  1
  C  C20  1  0.42663700  0.37751000  0.51636300  1
  C  C21  1  0.57192500  0.09918900  0.83133600  1
  C  C22  1  0.42807500  0.90081100  0.33133600  1
  C  C23  1  0.92432800  0.09296500  0.15387400  1
  C  C24  1  0.37877500  0.32991100  0.16832400  1
  C  C25  1  0.12122500  0.82991100  0.16832400  1
  C  C26  1  0.07567200  0.90703500  0.84612600  1
  C  C27  1  0.06331800  0.39280300  0.00813600  1
  C  C28  1  0.06331800  0.39280300  0.49186400  1
  C  C29  1  0.38345000  0.88597600  0.82738300  1
  C  C30  1  0.92663700  0.12249000  0.01636300  1
  C  C31  1  0.88345000  0.61402400  0.17261700  1
  C  C32  1  0.92807500  0.59918900  0.66866400  1
  C  C33  1  0.92432800  0.09296500  0.34612600  1
  C  C34  1  0.38345000  0.88597600  0.67261700  1
  C  C35  1  0.57567200  0.59296500  0.15387400  1
  C  C36  1  0.42807500  0.90081100  0.16866400  1
  C  C37  1  0.57567200  0.59296500  0.34612600  1
  C  C38  1  0.11655000  0.38597600  0.67261700  1
  C  C39  1  0.57192500  0.09918900  0.66866400  1
  C  C40  1  0.12122500  0.82991100  0.33167600  1
  C  C41  1  0.92663700  0.12249000  0.48363700  1
  C  C42  1  0.43668200  0.89280300  0.00813600  1
  C  C43  1  0.07192500  0.40081100  0.33133600  1
  C  C44  1  0.88345000  0.61402400  0.32738300  1
  C  C45  1  0.42663700  0.37751000  0.98363700  1
  C  C46  1  0.56331800  0.10719700  0.99186400  1
  C  C47  1  0.43668200  0.89280300  0.49186400  1
  Ni  Ni48  1  0.72021600  0.40871600  0.58273000  1
  Ni  Ni49  1  0.27978400  0.59128400  0.08273000  1
  Ni  Ni50  1  0.77978400  0.90871600  0.91727000  1
  Ni  Ni51  1  0.26917000  0.12389400  0.91609800  1
  Ni  Ni52  1  0.23083000  0.62389400  0.58390200  1
  Ni  Ni53  1  0.27325800  0.11792400  0.25000000  1
  Ni  Ni54  1  0.26917000  0.12389400  0.58390200  1
  Ni  Ni55  1  0.77978400  0.90871600  0.58273000  1
  Ni  Ni56  1  0.72021600  0.40871600  0.91727000  1
  Ni  Ni57  1  0.22021600  0.09128400  0.41727000  1
  Ni  Ni58  1  0.22674200  0.61792400  0.25000000  1
  Ni  Ni59  1  0.23083000  0.62389400  0.91609800  1
  Ni  Ni60  1  0.73083000  0.87610600  0.08390200  1
  Ni  Ni61  1  0.27425700  0.18170200  0.75000000  1
  Ni  Ni62  1  0.72574300  0.81829800  0.25000000  1
  Ni  Ni63  1  0.76917000  0.37610600  0.41609800  1
  Ni  Ni64  1  0.77325800  0.38207600  0.75000000  1
  Ni  Ni65  1  0.73083000  0.87610600  0.41609800  1
  Ni  Ni66  1  0.27978400  0.59128400  0.41727000  1
  Ni  Ni67  1  0.22021600  0.09128400  0.08273000  1
  Ni  Ni68  1  0.22574300  0.68170200  0.75000000  1
  Ni  Ni69  1  0.76917000  0.37610600  0.08390200  1
  Ni  Ni70  1  0.77425700  0.31829800  0.25000000  1
  Ni  Ni71  1  0.72674200  0.88207600  0.75000000  1
  Cu  Cu72  1  0.67264300  0.29890300  0.66786100  1
  Cu  Cu73  1  0.58505100  0.94505000  0.58550000  1
  Cu  Cu74  1  0.08505100  0.55495000  0.08550000  1
  Cu  Cu75  1  0.42978700  0.47332700  0.08730100  1
  Cu  Cu76  1  0.44081100  0.21401800  0.90731600  1
  Cu  Cu77  1  0.44081100  0.21401800  0.59268400  1
  Cu  Cu78  1  0.25432300  0.94145900  0.25000000  1
  Cu  Cu79  1  0.77095400  0.55310400  0.07293900  1
  Cu  Cu80  1  0.16649100  0.20068500  0.99953700  1
  Cu  Cu81  1  0.04560600  0.69287100  0.25000000  1
  Cu  Cu82  1  0.22904600  0.44689600  0.92706100  1
  Cu  Cu83  1  0.82735700  0.79890300  0.83213900  1
  Cu  Cu84  1  0.27095400  0.94689600  0.92706100  1
  Cu  Cu85  1  0.58769600  0.94537200  0.25000000  1
  Cu  Cu86  1  0.19465400  0.85721900  0.75000000  1
  Cu  Cu87  1  0.32735700  0.70109700  0.33213900  1
  Cu  Cu88  1  0.27095400  0.94689600  0.57293900  1
  Cu  Cu89  1  0.75432300  0.55854100  0.75000000  1
  Cu  Cu90  1  0.17264300  0.20109700  0.33213900  1
  Cu  Cu91  1  0.24567700  0.44145900  0.25000000  1
  Cu  Cu92  1  0.83350900  0.79931500  0.49953700  1
  Cu  Cu93  1  0.82735700  0.79890300  0.66786100  1
  Cu  Cu94  1  0.80534600  0.14278100  0.25000000  1
  Cu  Cu95  1  0.08769600  0.55462800  0.75000000  1
  Cu  Cu96  1  0.55918900  0.78598200  0.09268400  1
  Cu  Cu97  1  0.30534600  0.35721900  0.75000000  1
  Cu  Cu98  1  0.17264300  0.20109700  0.16786100  1
  Cu  Cu99  1  0.16649100  0.20068500  0.50046300  1
  Cu  Cu100  1  0.72904600  0.05310400  0.07293900  1
  Cu  Cu101  1  0.95439400  0.30712900  0.75000000  1
  Cu  Cu102  1  0.66649100  0.29931500  0.49953700  1
  Cu  Cu103  1  0.85955000  0.84203200  0.33323400  1
  Cu  Cu104  1  0.08505100  0.55495000  0.41450000  1
  Cu  Cu105  1  0.58505100  0.94505000  0.91450000  1
  Cu  Cu106  1  0.67264300  0.29890300  0.83213900  1
  Cu  Cu107  1  0.33350900  0.70068500  0.50046300  1
  Cu  Cu108  1  0.94081100  0.28598200  0.40731600  1
  Cu  Cu109  1  0.05918900  0.71401800  0.90731600  1
  Cu  Cu110  1  0.66649100  0.29931500  0.00046300  1
  Cu  Cu111  1  0.07021300  0.97332700  0.41269900  1
  Cu  Cu112  1  0.83350900  0.79931500  0.00046300  1
  Cu  Cu113  1  0.41230400  0.05462800  0.75000000  1
  Cu  Cu114  1  0.57021300  0.52667300  0.58730100  1
  Cu  Cu115  1  0.41494900  0.05495000  0.41450000  1
  Cu  Cu116  1  0.14045000  0.15796800  0.83323400  1
  Cu  Cu117  1  0.42978700  0.47332700  0.41269900  1
  Cu  Cu118  1  0.85955000  0.84203200  0.16676600  1
  Cu  Cu119  1  0.35955000  0.65796800  0.83323400  1
  Cu  Cu120  1  0.92978700  0.02667300  0.58730100  1
  Cu  Cu121  1  0.77095400  0.55310400  0.42706100  1
  Cu  Cu122  1  0.45439400  0.19287100  0.25000000  1
  Cu  Cu123  1  0.91230400  0.44537200  0.25000000  1
  Cu  Cu124  1  0.92978700  0.02667300  0.91269900  1
  Cu  Cu125  1  0.35955000  0.65796800  0.66676600  1
  Cu  Cu126  1  0.54560600  0.80712900  0.75000000  1
  Cu  Cu127  1  0.94081100  0.28598200  0.09268400  1
  Cu  Cu128  1  0.14045000  0.15796800  0.66676600  1
  Cu  Cu129  1  0.57021300  0.52667300  0.91269900  1
  Cu  Cu130  1  0.64045000  0.34203200  0.33323400  1
  Cu  Cu131  1  0.32735700  0.70109700  0.16786100  1
  Cu  Cu132  1  0.72904600  0.05310400  0.42706100  1
  Cu  Cu133  1  0.41494900  0.05495000  0.08550000  1
  Cu  Cu134  1  0.22904600  0.44689600  0.57293900  1
  Cu  Cu135  1  0.74567700  0.05854100  0.75000000  1
  Cu  Cu136  1  0.05918900  0.71401800  0.59268400  1
  Cu  Cu137  1  0.07021300  0.97332700  0.08730100  1
  Cu  Cu138  1  0.91494900  0.44505000  0.91450000  1
  Cu  Cu139  1  0.33350900  0.70068500  0.99953700  1
  Cu  Cu140  1  0.55918900  0.78598200  0.40731600  1
  Cu  Cu141  1  0.69465400  0.64278100  0.25000000  1
  Cu  Cu142  1  0.91494900  0.44505000  0.58550000  1
  Cu  Cu143  1  0.64045000  0.34203200  0.16676600  1
