# generated using pymatgen
data_Cu7NiC4
_symmetry_space_group_name_H-M   'P 1'
_cell_length_a   10.22536401
_cell_length_b   10.22536401
_cell_length_c   6.51928900
_cell_angle_alpha   90.00000000
_cell_angle_beta   90.00000000
_cell_angle_gamma   120.00000007
_symmetry_Int_Tables_number   1
_chemical_formula_structural   Cu7NiC4
_chemical_formula_sum   'Cu14 Ni2 C8'
_cell_volume   590.32125387
_cell_formula_units_Z   2
loop_
 _symmetry_equiv_pos_site_id
 _symmetry_equiv_pos_as_xyz
  1  'x, y, z'
loop_
 _atom_site_type_symbol
 _atom_site_label
 _atom_site_symmetry_multiplicity
 _atom_site_fract_x
 _atom_site_fract_y
 _atom_site_fract_z
 _atom_site_occupancy
  C  C0  1  0.35754800  0.15442200  0.39321000  1
  C  C1  1  0.20312600  0.35754800  0.89321000  1
  C  C2  1  0.15442200  0.79687400  0.89321000  1
  C  C3  1  0.84557800  0.20312600  0.39321000  1
  C  C4  1  0.79687400  0.64245200  0.39321000  1
  C  C5  1  0.64245200  0.84557800  0.89321000  1
  C  C6  1  0.00000000  0.00000000  0.99925600  1
  C  C7  1  0.00000000  0.00000000  0.49925600  1
  Ni  Ni8  1  0.33333300  0.66666700  0.32185200  1
  Ni  Ni9  1  0.66666700  0.33333300  0.82185200  1
  Cu  Cu10  1  0.26520900  0.11879200  0.96857800  1
  Cu  Cu11  1  0.14641700  0.26520900  0.46857800  1
  Cu  Cu12  1  0.11879200  0.85358300  0.46857800  1
  Cu  Cu13  1  0.88120800  0.14641700  0.96857800  1
  Cu  Cu14  1  0.85358300  0.73479100  0.96857800  1
  Cu  Cu15  1  0.73479100  0.88120800  0.46857800  1
  Cu  Cu16  1  0.52008900  0.44204900  0.63857600  1
  Cu  Cu17  1  0.07804000  0.52008900  0.13857600  1
  Cu  Cu18  1  0.44204900  0.92196000  0.13857600  1
  Cu  Cu19  1  0.55795100  0.07804000  0.63857600  1
  Cu  Cu20  1  0.92196000  0.47991100  0.63857600  1
  Cu  Cu21  1  0.47991100  0.55795100  0.13857600  1
  Cu  Cu22  1  0.33333300  0.66666700  0.71420100  1
  Cu  Cu23  1  0.66666700  0.33333300  0.21420100  1
