# generated using pymatgen
data_CuNiC4
_symmetry_space_group_name_H-M   'P 1'
_cell_length_a   7.38395731
_cell_length_b   7.38395731
_cell_length_c   5.92739000
_cell_angle_alpha   90.00000000
_cell_angle_beta   90.00000000
_cell_angle_gamma   107.00963449
_symmetry_Int_Tables_number   1
_chemical_formula_structural   CuNiC4
_chemical_formula_sum   'Cu4 Ni4 C16'
_cell_volume   309.04081443
_cell_formula_units_Z   4
loop_
 _symmetry_equiv_pos_site_id
 _symmetry_equiv_pos_as_xyz
  1  'x, y, z'
loop_
 _atom_site_type_symbol
 _atom_site_label
 _atom_site_symmetry_multiplicity
 _atom_site_fract_x
 _atom_site_fract_y
 _atom_site_fract_z
 _atom_site_occupancy
  C  C0  1  0.80555700  0.80555700  0.25000000  1
  C  C1  1  0.19444300  0.19444300  0.75000000  1
  Ni  Ni2  1  0.86954700  0.28869100  0.25000000  1
  Ni  Ni3  1  0.71130900  0.13045300  0.75000000  1
  Ni  Ni4  1  0.28869100  0.86954700  0.25000000  1
  Ni  Ni5  1  0.13045300  0.71130900  0.75000000  1
  Cu  Cu6  1  0.49765300  0.71906400  0.75000000  1
  Cu  Cu7  1  0.50234700  0.28093600  0.25000000  1
  Cu  Cu8  1  0.28093600  0.50234700  0.25000000  1
  Cu  Cu9  1  0.71906400  0.49765300  0.75000000  1
  C  C10  1  0.86550500  0.13449500  0.50000000  1
  C  C11  1  0.33226900  0.33226900  0.25000000  1
  C  C12  1  0.13449500  0.86550500  0.00000000  1
  C  C13  1  0.67846600  0.41304400  0.25000000  1
  C  C14  1  0.13449500  0.86550500  0.50000000  1
  C  C15  1  0.86550500  0.13449500  0.00000000  1
  C  C16  1  0.66773100  0.66773100  0.75000000  1
  C  C17  1  0.90709300  0.51108500  0.75000000  1
  C  C18  1  0.32153400  0.58695600  0.75000000  1
  C  C19  1  0.48891500  0.09290700  0.25000000  1
  C  C20  1  0.09290700  0.48891500  0.25000000  1
  C  C21  1  0.41304400  0.67846600  0.25000000  1
  C  C22  1  0.58695600  0.32153400  0.75000000  1
  C  C23  1  0.51108500  0.90709300  0.75000000  1
