# generated using pymatgen
data_Cu2Ni3C8
_symmetry_space_group_name_H-M   'P 1'
_cell_length_a   10.42434086
_cell_length_b   10.42434086
_cell_length_c   10.42434086
_cell_angle_alpha   109.47122063
_cell_angle_beta   109.47122063
_cell_angle_gamma   109.47122063
_symmetry_Int_Tables_number   1
_chemical_formula_structural   Cu2Ni3C8
_chemical_formula_sum   'Cu8 Ni12 C32'
_cell_volume   872.01492866
_cell_formula_units_Z   4
loop_
 _symmetry_equiv_pos_site_id
 _symmetry_equiv_pos_as_xyz
  1  'x, y, z'
loop_
 _atom_site_type_symbol
 _atom_site_label
 _atom_site_symmetry_multiplicity
 _atom_site_fract_x
 _atom_site_fract_y
 _atom_site_fract_z
 _atom_site_occupancy
  C  C0  1  0.00000000  0.20998900  0.50000000  1
  C  C1  1  0.01054700  0.00055500  0.76744800  1
  C  C2  1  0.24309900  0.73255200  0.73310700  1
  C  C3  1  0.73310700  0.24309900  0.73255200  1
  C  C4  1  0.49000800  0.75690100  0.98945300  1
  C  C5  1  0.23310700  0.23255200  0.74309900  1
  C  C6  1  0.99000800  0.48945300  0.25690100  1
  C  C7  1  0.74309900  0.23310700  0.23255200  1
  C  C8  1  0.50000000  0.00000000  0.70998900  1
  C  C9  1  0.98945300  0.49000800  0.75690100  1
  C  C10  1  0.70998900  0.50000000  0.00000000  1
  C  C11  1  0.49944500  0.50999200  0.76689300  1
  C  C12  1  0.99944500  0.26689300  0.00999200  1
  C  C13  1  0.50999200  0.76689300  0.49944500  1
  C  C14  1  0.00055500  0.76744800  0.01054700  1
  C  C15  1  0.48945300  0.25690100  0.99000800  1
  C  C16  1  0.00999200  0.99944500  0.26689300  1
  C  C17  1  0.51054700  0.26744800  0.50055500  1
  C  C18  1  0.23255200  0.74309900  0.23310700  1
  C  C19  1  0.73255200  0.73310700  0.24309900  1
  C  C20  1  0.76689300  0.49944500  0.50999200  1
  C  C21  1  0.00000000  0.70998900  0.50000000  1
  C  C22  1  0.76744800  0.01054700  0.00055500  1
  C  C23  1  0.26744800  0.50055500  0.51054700  1
  C  C24  1  0.29001100  0.29001100  0.29001100  1
  C  C25  1  0.79001100  0.79001100  0.79001100  1
  C  C26  1  0.26689300  0.00999200  0.99944500  1
  C  C27  1  0.50000000  0.00000000  0.20998900  1
  C  C28  1  0.25690100  0.99000800  0.48945300  1
  C  C29  1  0.75690100  0.98945300  0.49000800  1
  C  C30  1  0.20998900  0.50000000  0.00000000  1
  C  C31  1  0.50055500  0.51054700  0.26744800  1
  Ni  Ni32  1  0.23198900  0.48198900  0.75000000  1
  Ni  Ni33  1  0.75000000  0.51801100  0.76801100  1
  Ni  Ni34  1  0.25000000  0.98198900  0.73198900  1
  Ni  Ni35  1  0.75000000  0.23198900  0.48198900  1
  Ni  Ni36  1  0.98198900  0.73198900  0.25000000  1
  Ni  Ni37  1  0.48198900  0.75000000  0.23198900  1
  Ni  Ni38  1  0.76801100  0.75000000  0.51801100  1
  Ni  Ni39  1  0.01801100  0.25000000  0.26801100  1
  Ni  Ni40  1  0.73198900  0.25000000  0.98198900  1
  Ni  Ni41  1  0.51801100  0.76801100  0.75000000  1
  Ni  Ni42  1  0.25000000  0.26801100  0.01801100  1
  Ni  Ni43  1  0.26801100  0.01801100  0.25000000  1
  Cu  Cu44  1  0.50000000  0.00000000  0.45792400  1
  Cu  Cu45  1  0.54207600  0.54207600  0.54207600  1
  Cu  Cu46  1  0.95792400  0.50000000  0.00000000  1
  Cu  Cu47  1  0.00000000  0.95792400  0.50000000  1
  Cu  Cu48  1  0.45792400  0.50000000  0.00000000  1
  Cu  Cu49  1  0.50000000  0.00000000  0.95792400  1
  Cu  Cu50  1  0.04207600  0.04207600  0.04207600  1
  Cu  Cu51  1  0.00000000  0.45792400  0.50000000  1
