# generated using pymatgen
data_Cu14NiC6
_symmetry_space_group_name_H-M   'P 1'
_cell_length_a   14.85007800
_cell_length_b   14.85007800
_cell_length_c   14.85007800
_cell_angle_alpha   90.00000000
_cell_angle_beta   90.00000000
_cell_angle_gamma   90.00000000
_symmetry_Int_Tables_number   1
_chemical_formula_structural   Cu14NiC6
_chemical_formula_sum   'Cu56 Ni4 C24'
_cell_volume   3274.81072754
_cell_formula_units_Z   4
loop_
 _symmetry_equiv_pos_site_id
 _symmetry_equiv_pos_as_xyz
  1  'x, y, z'
loop_
 _atom_site_type_symbol
 _atom_site_label
 _atom_site_symmetry_multiplicity
 _atom_site_fract_x
 _atom_site_fract_y
 _atom_site_fract_z
 _atom_site_occupancy
  C  C0  1  0.78164300  0.87176800  0.72484400  1
  C  C1  1  0.72484400  0.78164300  0.87176800  1
  C  C2  1  0.62823200  0.22484400  0.28164300  1
  C  C3  1  0.27515600  0.21835700  0.87176800  1
  C  C4  1  0.77515600  0.28164300  0.37176800  1
  C  C5  1  0.37176800  0.77515600  0.28164300  1
  C  C6  1  0.77515600  0.71835700  0.62823200  1
  C  C7  1  0.22484400  0.71835700  0.37176800  1
  C  C8  1  0.28164300  0.37176800  0.77515600  1
  C  C9  1  0.28164300  0.62823200  0.22484400  1
  C  C10  1  0.37176800  0.22484400  0.71835700  1
  C  C11  1  0.22484400  0.28164300  0.62823200  1
  C  C12  1  0.87176800  0.72484400  0.78164300  1
  C  C13  1  0.71835700  0.62823200  0.77515600  1
  C  C14  1  0.71835700  0.37176800  0.22484400  1
  C  C15  1  0.87176800  0.27515600  0.21835700  1
  C  C16  1  0.12823200  0.27515600  0.78164300  1
  C  C17  1  0.21835700  0.12823200  0.72484400  1
  C  C18  1  0.12823200  0.72484400  0.21835700  1
  C  C19  1  0.62823200  0.77515600  0.71835700  1
  C  C20  1  0.27515600  0.78164300  0.12823200  1
  C  C21  1  0.21835700  0.87176800  0.27515600  1
  C  C22  1  0.72484400  0.21835700  0.12823200  1
  C  C23  1  0.78164300  0.12823200  0.27515600  1
  Ni  Ni24  1  0.75000000  0.75000000  0.25000000  1
  Ni  Ni25  1  0.25000000  0.25000000  0.25000000  1
  Ni  Ni26  1  0.25000000  0.75000000  0.75000000  1
  Ni  Ni27  1  0.75000000  0.25000000  0.75000000  1
  Cu  Cu28  1  0.13082400  0.56496200  0.31684900  1
  Cu  Cu29  1  0.05598000  0.68197100  0.83293400  1
  Cu  Cu30  1  0.63082400  0.93503800  0.81684900  1
  Cu  Cu31  1  0.36917600  0.93503800  0.18315100  1
  Cu  Cu32  1  0.43503800  0.68315100  0.13082400  1
  Cu  Cu33  1  0.18315100  0.36917600  0.93503800  1
  Cu  Cu34  1  0.11668400  0.88331600  0.11668400  1
  Cu  Cu35  1  0.33293400  0.44402000  0.18197100  1
  Cu  Cu36  1  0.31684900  0.86917600  0.43503800  1
  Cu  Cu37  1  0.68315100  0.86917600  0.56496200  1
  Cu  Cu38  1  0.88331600  0.11668400  0.11668400  1
  Cu  Cu39  1  0.18197100  0.33293400  0.44402000  1
  Cu  Cu40  1  0.86917600  0.43503800  0.31684900  1
  Cu  Cu41  1  0.93503800  0.18315100  0.36917600  1
  Cu  Cu42  1  0.66706600  0.44402000  0.81802900  1
  Cu  Cu43  1  0.55598000  0.81802900  0.33293400  1
  Cu  Cu44  1  0.31802900  0.83293400  0.94402000  1
  Cu  Cu45  1  0.38331600  0.38331600  0.61668400  1
  Cu  Cu46  1  0.55598000  0.18197100  0.66706600  1
  Cu  Cu47  1  0.44402000  0.18197100  0.33293400  1
  Cu  Cu48  1  0.11668400  0.11668400  0.88331600  1
  Cu  Cu49  1  0.61668400  0.38331600  0.38331600  1
  Cu  Cu50  1  0.94402000  0.31802900  0.83293400  1
  Cu  Cu51  1  0.38331600  0.61668400  0.38331600  1
  Cu  Cu52  1  0.86917600  0.56496200  0.68315100  1
  Cu  Cu53  1  0.63082400  0.06496200  0.18315100  1
  Cu  Cu54  1  0.94402000  0.68197100  0.16706600  1
  Cu  Cu55  1  0.06496200  0.81684900  0.36917600  1
  Cu  Cu56  1  0.18315100  0.63082400  0.06496200  1
  Cu  Cu57  1  0.68197100  0.83293400  0.05598000  1
  Cu  Cu58  1  0.33293400  0.55598000  0.81802900  1
  Cu  Cu59  1  0.88331600  0.88331600  0.88331600  1
  Cu  Cu60  1  0.81684900  0.36917600  0.06496200  1
  Cu  Cu61  1  0.61668400  0.61668400  0.61668400  1
  Cu  Cu62  1  0.05598000  0.31802900  0.16706600  1
  Cu  Cu63  1  0.31684900  0.13082400  0.56496200  1
  Cu  Cu64  1  0.93503800  0.81684900  0.63082400  1
  Cu  Cu65  1  0.18197100  0.66706600  0.55598000  1
  Cu  Cu66  1  0.83293400  0.05598000  0.68197100  1
  Cu  Cu67  1  0.06496200  0.18315100  0.63082400  1
  Cu  Cu68  1  0.44402000  0.81802900  0.66706600  1
  Cu  Cu69  1  0.66706600  0.55598000  0.18197100  1
  Cu  Cu70  1  0.81684900  0.63082400  0.93503800  1
  Cu  Cu71  1  0.81802900  0.66706600  0.44402000  1
  Cu  Cu72  1  0.56496200  0.31684900  0.13082400  1
  Cu  Cu73  1  0.16706600  0.05598000  0.31802900  1
  Cu  Cu74  1  0.31802900  0.16706600  0.05598000  1
  Cu  Cu75  1  0.13082400  0.43503800  0.68315100  1
  Cu  Cu76  1  0.81802900  0.33293400  0.55598000  1
  Cu  Cu77  1  0.68197100  0.16706600  0.94402000  1
  Cu  Cu78  1  0.43503800  0.31684900  0.86917600  1
  Cu  Cu79  1  0.83293400  0.94402000  0.31802900  1
  Cu  Cu80  1  0.56496200  0.68315100  0.86917600  1
  Cu  Cu81  1  0.36917600  0.06496200  0.81684900  1
  Cu  Cu82  1  0.16706600  0.94402000  0.68197100  1
  Cu  Cu83  1  0.68315100  0.13082400  0.43503800  1
