# generated using pymatgen
data_Cu4NiC6
_symmetry_space_group_name_H-M   'P 1'
_cell_length_a   6.22972200
_cell_length_b   7.75987500
_cell_length_c   10.85850900
_cell_angle_alpha   90.00000000
_cell_angle_beta   90.00000000
_cell_angle_gamma   90.00000000
_symmetry_Int_Tables_number   1
_chemical_formula_structural   Cu4NiC6
_chemical_formula_sum   'Cu16 Ni4 C24'
_cell_volume   524.92056537
_cell_formula_units_Z   4
loop_
 _symmetry_equiv_pos_site_id
 _symmetry_equiv_pos_as_xyz
  1  'x, y, z'
loop_
 _atom_site_type_symbol
 _atom_site_label
 _atom_site_symmetry_multiplicity
 _atom_site_fract_x
 _atom_site_fract_y
 _atom_site_fract_z
 _atom_site_occupancy
  C  C0  1  0.75000000  0.32326100  0.10482800  1
  C  C1  1  0.25000000  0.17673900  0.60482800  1
  C  C2  1  0.75000000  0.82326100  0.39517200  1
  C  C3  1  0.25000000  0.67673900  0.89517200  1
  C  C4  1  0.75000000  0.53361800  0.79149000  1
  C  C5  1  0.11630900  0.37838600  0.32814500  1
  C  C6  1  0.25000000  0.46638200  0.20851000  1
  C  C7  1  0.25000000  0.56999400  0.34836600  1
  C  C8  1  0.61630900  0.62161400  0.67185500  1
  C  C9  1  0.61630900  0.12161400  0.82814500  1
  C  C10  1  0.88369100  0.12161400  0.82814500  1
  C  C11  1  0.11630900  0.87838600  0.17185500  1
  C  C12  1  0.75000000  0.93000600  0.84836600  1
  C  C13  1  0.38369100  0.37838600  0.32814500  1
  C  C14  1  0.75000000  0.43000600  0.65163400  1
  C  C15  1  0.25000000  0.96638200  0.29149000  1
  C  C16  1  0.88369100  0.62161400  0.67185500  1
  C  C17  1  0.38369100  0.87838600  0.17185500  1
  C  C18  1  0.75000000  0.03361800  0.70851000  1
  C  C19  1  0.25000000  0.06999400  0.15163400  1
  C  C20  1  0.25000000  0.72631600  0.56829600  1
  C  C21  1  0.75000000  0.77368400  0.06829600  1
  C  C22  1  0.25000000  0.22631600  0.93170400  1
  C  C23  1  0.75000000  0.27368400  0.43170400  1
  Ni  Ni24  1  0.25000000  0.45096300  0.30242900  1
  Ni  Ni25  1  0.75000000  0.04903700  0.80242900  1
  Ni  Ni26  1  0.75000000  0.54903700  0.69757100  1
  Ni  Ni27  1  0.25000000  0.95096300  0.19757100  1
  Cu  Cu28  1  0.75000000  0.73737000  0.93193200  1
  Cu  Cu29  1  0.55337400  0.19369000  0.37569300  1
  Cu  Cu30  1  0.25000000  0.03851500  0.90802800  1
  Cu  Cu31  1  0.55337400  0.69369000  0.12430700  1
  Cu  Cu32  1  0.94662600  0.19369000  0.37569300  1
  Cu  Cu33  1  0.05337400  0.30631000  0.87569300  1
  Cu  Cu34  1  0.25000000  0.53851500  0.59197200  1
  Cu  Cu35  1  0.94662600  0.69369000  0.12430700  1
  Cu  Cu36  1  0.75000000  0.23737000  0.56806800  1
  Cu  Cu37  1  0.75000000  0.96148500  0.09197200  1
  Cu  Cu38  1  0.44662600  0.80631000  0.62430700  1
  Cu  Cu39  1  0.25000000  0.76263000  0.43193200  1
  Cu  Cu40  1  0.75000000  0.46148500  0.40802800  1
  Cu  Cu41  1  0.05337400  0.80631000  0.62430700  1
  Cu  Cu42  1  0.25000000  0.26263000  0.06806800  1
  Cu  Cu43  1  0.44662600  0.30631000  0.87569300  1
