# generated using pymatgen
data_Cu3(Ni5C9)4
_symmetry_space_group_name_H-M   'P 1'
_cell_length_a   11.58888240
_cell_length_b   11.58888240
_cell_length_c   18.74191172
_cell_angle_alpha   74.16928044
_cell_angle_beta   74.16928044
_cell_angle_gamma   86.47863259
_symmetry_Int_Tables_number   1
_chemical_formula_structural   Cu3(Ni5C9)4
_chemical_formula_sum   'Cu3 Ni20 C36'
_cell_volume   2329.53485293
_cell_formula_units_Z   1
loop_
 _symmetry_equiv_pos_site_id
 _symmetry_equiv_pos_as_xyz
  1  'x, y, z'
loop_
 _atom_site_type_symbol
 _atom_site_label
 _atom_site_symmetry_multiplicity
 _atom_site_fract_x
 _atom_site_fract_y
 _atom_site_fract_z
 _atom_site_occupancy
  Ni  Ni0  1  0.52834100  0.27558900  0.23512800  1
  Ni  Ni1  1  0.20907400  0.95896300  0.89654500  1
  Ni  Ni2  1  0.47165900  0.72441100  0.76487200  1
  Ni  Ni3  1  0.34192500  0.34192500  0.83100100  1
  Ni  Ni4  1  0.27558900  0.52834100  0.23512800  1
  Ni  Ni5  1  0.80816400  0.80816400  0.71630500  1
  Ni  Ni6  1  0.19183600  0.19183600  0.28369500  1
  Ni  Ni7  1  0.04103700  0.79092600  0.10345500  1
  Ni  Ni8  1  0.11322900  0.35739300  0.44393400  1
  Ni  Ni9  1  0.55385200  0.55385200  0.59754600  1
  Ni  Ni10  1  0.95896300  0.20907400  0.89654500  1
  Ni  Ni11  1  0.65807500  0.65807500  0.16899900  1
  Ni  Ni12  1  0.87623100  0.87623100  0.93664000  1
  Ni  Ni13  1  0.35739300  0.11322900  0.44393400  1
  Ni  Ni14  1  0.72441100  0.47165900  0.76487200  1
  Ni  Ni15  1  0.79092600  0.04103700  0.10345500  1
  Ni  Ni16  1  0.12376900  0.12376900  0.06336000  1
  Ni  Ni17  1  0.44614800  0.44614800  0.40245400  1
  Ni  Ni18  1  0.64260700  0.88677100  0.55606600  1
  Ni  Ni19  1  0.88677100  0.64260700  0.55606600  1
  Cu  Cu20  1  0.67662400  0.67662400  0.66184700  1
  Cu  Cu21  1  0.00000000  0.00000000  0.00000000  1
  Cu  Cu22  1  0.32337700  0.32337700  0.33815300  1
  C  C23  1  0.26034500  0.73965500  0.00000000  1
  C  C24  1  0.14561500  0.14561500  0.55964200  1
  C  C25  1  0.41444000  0.15185500  0.16205900  1
  C  C26  1  0.50473300  0.24389200  0.50843600  1
  C  C27  1  0.76930800  0.03254600  0.61389600  1
  C  C28  1  0.10959000  0.36599200  0.94694300  1
  C  C29  1  0.15185500  0.41444000  0.16205900  1
  C  C30  1  0.85438500  0.85438500  0.44035800  1
  C  C31  1  0.96745400  0.23069200  0.38610400  1
  C  C32  1  0.24389200  0.50473300  0.50843600  1
  C  C33  1  0.03254600  0.76930800  0.61389600  1
  C  C34  1  0.08854800  0.82863600  0.82620900  1
  C  C35  1  0.52834700  0.52834700  0.10707600  1
  C  C36  1  0.93282800  0.40870500  0.66516600  1
  C  C37  1  0.19650700  0.19650700  0.77585500  1
  C  C38  1  0.58556000  0.84814500  0.83794100  1
  C  C39  1  0.91145200  0.17136400  0.17379100  1
  C  C40  1  0.89041000  0.63400800  0.05305700  1
  C  C41  1  0.47165300  0.47165300  0.89292400  1
  C  C42  1  0.36599200  0.10959000  0.94694300  1
  C  C43  1  0.69960600  0.44494200  0.27514100  1
  C  C44  1  0.75610800  0.49526700  0.49156400  1
  C  C45  1  0.23069200  0.96745400  0.38610400  1
  C  C46  1  0.80349300  0.80349300  0.22414500  1
  C  C47  1  0.44494200  0.69960600  0.27514100  1
  C  C48  1  0.82863600  0.08854800  0.82620900  1
  C  C49  1  0.55505800  0.30039400  0.72485900  1
  C  C50  1  0.17136400  0.91145200  0.17379100  1
  C  C51  1  0.06717200  0.59129500  0.33483400  1
  C  C52  1  0.30039400  0.55505800  0.72485900  1
  C  C53  1  0.84814500  0.58556000  0.83794100  1
  C  C54  1  0.73965500  0.26034500  0.00000000  1
  C  C55  1  0.49526700  0.75610800  0.49156400  1
  C  C56  1  0.40870500  0.93282800  0.66516600  1
  C  C57  1  0.63400800  0.89041000  0.05305700  1
  C  C58  1  0.59129500  0.06717200  0.33483400  1
