# generated using pymatgen
data_Cu4NiC13
_symmetry_space_group_name_H-M   'P 1'
_cell_length_a   8.36172000
_cell_length_b   9.05321900
_cell_length_c   12.58499100
_cell_angle_alpha   90.00000000
_cell_angle_beta   90.00000000
_cell_angle_gamma   90.00000000
_symmetry_Int_Tables_number   1
_chemical_formula_structural   Cu4NiC13
_chemical_formula_sum   'Cu16 Ni4 C52'
_cell_volume   952.68988941
_cell_formula_units_Z   4
loop_
 _symmetry_equiv_pos_site_id
 _symmetry_equiv_pos_as_xyz
  1  'x, y, z'
loop_
 _atom_site_type_symbol
 _atom_site_label
 _atom_site_symmetry_multiplicity
 _atom_site_fract_x
 _atom_site_fract_y
 _atom_site_fract_z
 _atom_site_occupancy
  C  C0  1  0.00592500  0.75000000  0.00000000  1
  C  C1  1  0.49407500  0.25000000  0.50000000  1
  C  C2  1  0.50592500  0.75000000  0.50000000  1
  C  C3  1  0.99407500  0.25000000  0.00000000  1
  Ni  Ni4  1  0.13204400  0.25000000  0.50000000  1
  Ni  Ni5  1  0.36795600  0.75000000  0.00000000  1
  Ni  Ni6  1  0.63204400  0.25000000  0.00000000  1
  Ni  Ni7  1  0.86795600  0.75000000  0.50000000  1
  Cu  Cu8  1  0.31705700  0.00636200  0.36103600  1
  Cu  Cu9  1  0.68294300  0.99363800  0.63896400  1
  Cu  Cu10  1  0.18294300  0.50636200  0.13896400  1
  Cu  Cu11  1  0.53561700  0.51187400  0.14807600  1
  Cu  Cu12  1  0.53561700  0.98812600  0.85192400  1
  Cu  Cu13  1  0.96438300  0.48812600  0.64807600  1
  Cu  Cu14  1  0.31705700  0.49363800  0.63896400  1
  Cu  Cu15  1  0.96438300  0.01187400  0.35192400  1
  Cu  Cu16  1  0.46438300  0.48812600  0.85192400  1
  Cu  Cu17  1  0.03561700  0.98812600  0.64807600  1
  Cu  Cu18  1  0.03561700  0.51187400  0.35192400  1
  Cu  Cu19  1  0.46438300  0.01187400  0.14807600  1
  Cu  Cu20  1  0.81705700  0.49363800  0.86103600  1
  Cu  Cu21  1  0.81705700  0.00636200  0.13896400  1
  Cu  Cu22  1  0.18294300  0.99363800  0.86103600  1
  Cu  Cu23  1  0.68294300  0.50636200  0.36103600  1
  C  C24  1  0.52681100  0.63490800  0.06795700  1
  C  C25  1  0.90656000  0.62564800  0.89578100  1
  C  C26  1  0.09344000  0.37435200  0.10421900  1
  C  C27  1  0.36684800  0.62137400  0.88092100  1
  C  C28  1  0.19908600  0.63667500  0.06341200  1
  C  C29  1  0.52681100  0.86509200  0.93204300  1
  C  C30  1  0.13315200  0.12137400  0.61907900  1
  C  C31  1  0.47318900  0.36509200  0.93204300  1
  C  C32  1  0.59344000  0.37435200  0.39578100  1
  C  C33  1  0.89447200  0.07978900  0.24460800  1
  C  C34  1  0.97318900  0.36509200  0.56795700  1
  C  C35  1  0.89447200  0.42021100  0.75539200  1
  C  C36  1  0.30091400  0.13667500  0.43658800  1
  C  C37  1  0.59344000  0.12564800  0.60421900  1
  C  C38  1  0.09344000  0.12564800  0.89578100  1
  C  C39  1  0.86684800  0.62137400  0.61907900  1
  C  C40  1  0.97318900  0.13490800  0.43204300  1
  C  C41  1  0.60552800  0.92021100  0.74460800  1
  C  C42  1  0.13315200  0.37862600  0.38092100  1
  C  C43  1  0.35862900  0.46051400  0.18078500  1
  C  C44  1  0.63315200  0.12137400  0.88092100  1
  C  C45  1  0.02681100  0.63490800  0.43204300  1
  C  C46  1  0.80091400  0.13667500  0.06341200  1
  C  C47  1  0.85862900  0.46051400  0.31921500  1
  C  C48  1  0.40656000  0.87435200  0.39578100  1
  C  C49  1  0.63315200  0.37862600  0.11907900  1
  C  C50  1  0.40656000  0.62564800  0.60421900  1
  C  C51  1  0.86684800  0.87862600  0.38092100  1
  C  C52  1  0.69908600  0.86332500  0.56341200  1
  C  C53  1  0.36684800  0.87862600  0.11907900  1
  C  C54  1  0.47318900  0.13490800  0.06795700  1
  C  C55  1  0.39447200  0.42021100  0.74460800  1
  C  C56  1  0.14137100  0.53948600  0.68078500  1
  C  C57  1  0.02681100  0.86509200  0.56795700  1
  C  C58  1  0.60552800  0.57978900  0.25539200  1
  C  C59  1  0.64137100  0.53948600  0.81921500  1
  C  C60  1  0.64137100  0.96051400  0.18078500  1
  C  C61  1  0.19908600  0.86332500  0.93658800  1
  C  C62  1  0.35862900  0.03948600  0.81921500  1
  C  C63  1  0.14137100  0.96051400  0.31921500  1
  C  C64  1  0.69908600  0.63667500  0.43658800  1
  C  C65  1  0.85862900  0.03948600  0.68078500  1
  C  C66  1  0.80091400  0.36332500  0.93658800  1
  C  C67  1  0.39447200  0.07978900  0.25539200  1
  C  C68  1  0.10552800  0.92021100  0.75539200  1
  C  C69  1  0.10552800  0.57978900  0.24460800  1
  C  C70  1  0.90656000  0.87435200  0.10421900  1
  C  C71  1  0.30091400  0.36332500  0.56341200  1
