# generated using pymatgen
data_CuNiC7
_symmetry_space_group_name_H-M   'P 1'
_cell_length_a   5.22322875
_cell_length_b   5.22322875
_cell_length_c   10.47012300
_cell_angle_alpha   90.00000000
_cell_angle_beta   90.00000000
_cell_angle_gamma   120.00000946
_symmetry_Int_Tables_number   1
_chemical_formula_structural   CuNiC7
_chemical_formula_sum   'Cu2 Ni2 C14'
_cell_volume   247.37765343
_cell_formula_units_Z   2
loop_
 _symmetry_equiv_pos_site_id
 _symmetry_equiv_pos_as_xyz
  1  'x, y, z'
loop_
 _atom_site_type_symbol
 _atom_site_label
 _atom_site_symmetry_multiplicity
 _atom_site_fract_x
 _atom_site_fract_y
 _atom_site_fract_z
 _atom_site_occupancy
  Ni  Ni0  1  0.00000000  0.00000000  0.00000000  1
  Ni  Ni1  1  0.00000000  0.00000000  0.50000000  1
  Cu  Cu2  1  0.33333300  0.66666700  0.25000000  1
  Cu  Cu3  1  0.66666700  0.33333300  0.75000000  1
  C  C4  1  0.66666700  0.33333300  0.25000000  1
  C  C5  1  0.33333300  0.66666700  0.75000000  1
  C  C6  1  0.37744900  0.01986500  0.14571800  1
  C  C7  1  0.62255100  0.64241700  0.64571800  1
  C  C8  1  0.35758300  0.98013500  0.64571800  1
  C  C9  1  0.01986500  0.37744900  0.64571800  1
  C  C10  1  0.98013500  0.62255100  0.35428200  1
  C  C11  1  0.98013500  0.35758300  0.14571800  1
  C  C12  1  0.64241700  0.62255100  0.14571800  1
  C  C13  1  0.64241700  0.01986500  0.35428200  1
  C  C14  1  0.01986500  0.64241700  0.85428200  1
  C  C15  1  0.37744900  0.35758300  0.35428200  1
  C  C16  1  0.62255100  0.98013500  0.85428200  1
  C  C17  1  0.35758300  0.37744900  0.85428200  1
