# generated using pymatgen
data_Cu2(NiC2)3
_symmetry_space_group_name_H-M   'P 1'
_cell_length_a   6.44178700
_cell_length_b   17.04206400
_cell_length_c   19.72046800
_cell_angle_alpha   90.00000000
_cell_angle_beta   90.00000000
_cell_angle_gamma   90.00000000
_symmetry_Int_Tables_number   1
_chemical_formula_structural   Cu2(NiC2)3
_chemical_formula_sum   'Cu16 Ni24 C48'
_cell_volume   2164.93952727
_cell_formula_units_Z   8
loop_
 _symmetry_equiv_pos_site_id
 _symmetry_equiv_pos_as_xyz
  1  'x, y, z'
loop_
 _atom_site_type_symbol
 _atom_site_label
 _atom_site_symmetry_multiplicity
 _atom_site_fract_x
 _atom_site_fract_y
 _atom_site_fract_z
 _atom_site_occupancy
  C  C0  1  0.90973100  0.62397500  0.47888900  1
  C  C1  1  0.40973100  0.12397500  0.02111100  1
  C  C2  1  0.09026900  0.37602500  0.52111100  1
  C  C3  1  0.09026900  0.12397500  0.52111100  1
  C  C4  1  0.59026900  0.62397500  0.97888900  1
  C  C5  1  0.40973100  0.37602500  0.02111100  1
  C  C6  1  0.59026900  0.87602500  0.97888900  1
  C  C7  1  0.90973100  0.87602500  0.47888900  1
  Ni  Ni8  1  0.09629100  0.12600400  0.31465000  1
  Ni  Ni9  1  0.90931700  0.97615100  0.26537800  1
  Ni  Ni10  1  0.09068300  0.47615100  0.73462200  1
  Ni  Ni11  1  0.90931700  0.52384900  0.26537800  1
  Ni  Ni12  1  0.40931700  0.02384900  0.23462200  1
  Ni  Ni13  1  0.90370900  0.62600400  0.68535000  1
  Ni  Ni14  1  0.59068300  0.97615100  0.76537800  1
  Ni  Ni15  1  0.09629100  0.37399600  0.31465000  1
  Ni  Ni16  1  0.83978500  0.36815900  0.14063500  1
  Ni  Ni17  1  0.90370900  0.87399600  0.68535000  1
  Ni  Ni18  1  0.09068300  0.02384900  0.73462200  1
  Ni  Ni19  1  0.16021500  0.86815900  0.85936500  1
  Ni  Ni20  1  0.59068300  0.52384900  0.76537800  1
  Ni  Ni21  1  0.59629100  0.62600400  0.18535000  1
  Ni  Ni22  1  0.59629100  0.87399600  0.18535000  1
  Ni  Ni23  1  0.16021500  0.63184100  0.85936500  1
  Ni  Ni24  1  0.33978500  0.63184100  0.35936500  1
  Ni  Ni25  1  0.40370900  0.12600400  0.81465000  1
  Ni  Ni26  1  0.33978500  0.86815900  0.35936500  1
  Ni  Ni27  1  0.66021500  0.13184100  0.64063500  1
  Ni  Ni28  1  0.83978500  0.13184100  0.14063500  1
  Ni  Ni29  1  0.40370900  0.37399600  0.81465000  1
  Ni  Ni30  1  0.40931700  0.47615100  0.23462200  1
  Ni  Ni31  1  0.66021500  0.36815900  0.64063500  1
  Cu  Cu32  1  0.59565400  0.75000000  0.78734100  1
  Cu  Cu33  1  0.40693100  0.53914700  0.58900500  1
  Cu  Cu34  1  0.90434600  0.75000000  0.28734100  1
  Cu  Cu35  1  0.59306900  0.46085300  0.41099500  1
  Cu  Cu36  1  0.59306900  0.03914700  0.41099500  1
  Cu  Cu37  1  0.49097500  0.75000000  0.60903300  1
  Cu  Cu38  1  0.40693100  0.96085300  0.58900500  1
  Cu  Cu39  1  0.90693100  0.46085300  0.91099500  1
  Cu  Cu40  1  0.99097500  0.25000000  0.89096700  1
  Cu  Cu41  1  0.90693100  0.03914700  0.91099500  1
  Cu  Cu42  1  0.09565400  0.25000000  0.71265900  1
  Cu  Cu43  1  0.09306900  0.96085300  0.08900500  1
  Cu  Cu44  1  0.50902500  0.25000000  0.39096700  1
  Cu  Cu45  1  0.40434600  0.25000000  0.21265900  1
  Cu  Cu46  1  0.09306900  0.53914700  0.08900500  1
  Cu  Cu47  1  0.00902500  0.75000000  0.10903300  1
  C  C48  1  0.74634800  0.99163400  0.60623200  1
  C  C49  1  0.18844000  0.90982700  0.19129700  1
  C  C50  1  0.31156000  0.90982700  0.69129700  1
  C  C51  1  0.38076800  0.75000000  0.87938600  1
  C  C52  1  0.74634800  0.50836600  0.60623200  1
  C  C53  1  0.65851900  0.75000000  0.11111700  1
  C  C54  1  0.61923200  0.25000000  0.12061400  1
  C  C55  1  0.81156000  0.09017300  0.80870300  1
  C  C56  1  0.07581200  0.84554100  0.02596200  1
  C  C57  1  0.81156000  0.40982700  0.80870300  1
  C  C58  1  0.92418800  0.34554100  0.97403800  1
  C  C59  1  0.42418800  0.84554100  0.52596200  1
  C  C60  1  0.68844000  0.09017300  0.30870300  1
  C  C61  1  0.11923200  0.75000000  0.37938600  1
  C  C62  1  0.79512200  0.64325600  0.81395900  1
  C  C63  1  0.31156000  0.59017300  0.69129700  1
  C  C64  1  0.20487800  0.14325600  0.18604100  1
  C  C65  1  0.88076800  0.25000000  0.62061400  1
  C  C66  1  0.25365200  0.00836600  0.39376800  1
  C  C67  1  0.70487800  0.64325600  0.31395900  1
  C  C68  1  0.34148100  0.25000000  0.88888300  1
  C  C69  1  0.57581200  0.15445900  0.47403800  1
  C  C70  1  0.84148100  0.75000000  0.61111700  1
  C  C71  1  0.68844000  0.40982700  0.30870300  1
  C  C72  1  0.07581200  0.65445900  0.02596200  1
  C  C73  1  0.25365200  0.49163400  0.39376800  1
  C  C74  1  0.24634800  0.00836600  0.89376800  1
  C  C75  1  0.24634800  0.49163400  0.89376800  1
  C  C76  1  0.18844000  0.59017300  0.19129700  1
  C  C77  1  0.15851900  0.25000000  0.38888300  1
  C  C78  1  0.29512200  0.35674400  0.68604100  1
  C  C79  1  0.57581200  0.34554100  0.47403800  1
  C  C80  1  0.70487800  0.85674400  0.31395900  1
  C  C81  1  0.75365200  0.50836600  0.10623200  1
  C  C82  1  0.29512200  0.14325600  0.68604100  1
  C  C83  1  0.42418800  0.65445900  0.52596200  1
  C  C84  1  0.92418800  0.15445900  0.97403800  1
  C  C85  1  0.79512200  0.85674400  0.81395900  1
  C  C86  1  0.20487800  0.35674400  0.18604100  1
  C  C87  1  0.75365200  0.99163400  0.10623200  1
