# generated using pymatgen
data_Cu3(NiC7)2
_symmetry_space_group_name_H-M   'P 1'
_cell_length_a   9.10349500
_cell_length_b   7.05872200
_cell_length_c   20.12335243
_cell_angle_alpha   71.93741011
_cell_angle_beta   90.00000000
_cell_angle_gamma   90.00000000
_symmetry_Int_Tables_number   1
_chemical_formula_structural   Cu3(NiC7)2
_chemical_formula_sum   'Cu12 Ni8 C56'
_cell_volume   1229.38089258
_cell_formula_units_Z   4
loop_
 _symmetry_equiv_pos_site_id
 _symmetry_equiv_pos_as_xyz
  1  'x, y, z'
loop_
 _atom_site_type_symbol
 _atom_site_label
 _atom_site_symmetry_multiplicity
 _atom_site_fract_x
 _atom_site_fract_y
 _atom_site_fract_z
 _atom_site_occupancy
  C  C0  1  0.48932800  0.50284300  0.22742600  1
  C  C1  1  0.95557600  0.81216300  0.40633600  1
  C  C2  1  0.01067200  0.50284300  0.72742600  1
  C  C3  1  0.04442400  0.18783700  0.59366400  1
  C  C4  1  0.51067200  0.49715700  0.77257400  1
  C  C5  1  0.54442400  0.81216300  0.90633600  1
  C  C6  1  0.45557600  0.18783700  0.09366400  1
  C  C7  1  0.98932800  0.49715700  0.27257400  1
  Ni  Ni8  1  0.65166200  0.27643000  0.63535300  1
  Ni  Ni9  1  0.07405900  0.07864000  0.05832300  1
  Ni  Ni10  1  0.15166200  0.72357000  0.86464700  1
  Ni  Ni11  1  0.84833800  0.27643000  0.13535300  1
  Ni  Ni12  1  0.34833800  0.72357000  0.36464700  1
  Ni  Ni13  1  0.92594100  0.92136000  0.94167700  1
  Ni  Ni14  1  0.42594100  0.07864000  0.55832300  1
  Ni  Ni15  1  0.57405900  0.92136000  0.44167700  1
  Cu  Cu16  1  0.23103000  0.19587200  0.90178500  1
  Cu  Cu17  1  0.15758300  0.04740000  0.22853400  1
  Cu  Cu18  1  0.33747500  0.58768800  0.53992700  1
  Cu  Cu19  1  0.16252500  0.58768800  0.03992700  1
  Cu  Cu20  1  0.73103000  0.80412800  0.59821500  1
  Cu  Cu21  1  0.34241700  0.04740000  0.72853400  1
  Cu  Cu22  1  0.26897000  0.19587200  0.40178500  1
  Cu  Cu23  1  0.66252500  0.41231200  0.46007300  1
  Cu  Cu24  1  0.83747500  0.41231200  0.96007300  1
  Cu  Cu25  1  0.65758300  0.95260000  0.27146600  1
  Cu  Cu26  1  0.84241700  0.95260000  0.77146600  1
  Cu  Cu27  1  0.76897000  0.80412800  0.09821500  1
  C  C28  1  0.37999200  0.99342800  0.38778100  1
  C  C29  1  0.98223600  0.17276800  0.22099900  1
  C  C30  1  0.19356100  0.98877500  0.14859600  1
  C  C31  1  0.54310300  0.63679200  0.43396400  1
  C  C32  1  0.16502600  0.44244500  0.85445900  1
  C  C33  1  0.33754000  0.82074600  0.80399200  1
  C  C34  1  0.44369000  0.81109300  0.53743400  1
  C  C35  1  0.29802600  0.55029100  0.10383600  1
  C  C36  1  0.25160600  0.16098500  0.99424800  1
  C  C37  1  0.62000800  0.00657200  0.61221900  1
  C  C38  1  0.45689700  0.36320800  0.56603600  1
  C  C39  1  0.04310300  0.36320800  0.06603600  1
  C  C40  1  0.09031100  0.17202600  0.37226600  1
  C  C41  1  0.55631000  0.18890700  0.46256600  1
  C  C42  1  0.80643900  0.01122500  0.85140400  1
  C  C43  1  0.75160600  0.83901500  0.50575200  1
  C  C44  1  0.69356100  0.01122500  0.35140400  1
  C  C45  1  0.29330400  0.21588300  0.23699200  1
  C  C46  1  0.83754000  0.17925400  0.69600800  1
  C  C47  1  0.79802600  0.44970900  0.39616400  1
  C  C48  1  0.83497400  0.55755500  0.14554100  1
  C  C49  1  0.51776400  0.17276800  0.72099900  1
  C  C50  1  0.59031100  0.82797400  0.12773400  1
  C  C51  1  0.73587300  0.37501200  0.03987400  1
  C  C52  1  0.87999200  0.00657200  0.11221900  1
  C  C53  1  0.76412700  0.37501200  0.53987400  1
  C  C54  1  0.79330400  0.78411700  0.26300800  1
  C  C55  1  0.24839400  0.16098500  0.49424800  1
  C  C56  1  0.90968900  0.82797400  0.62773400  1
  C  C57  1  0.01776400  0.82723200  0.77900100  1
  C  C58  1  0.95689700  0.63679200  0.93396400  1
  C  C59  1  0.70197400  0.44970900  0.89616400  1
  C  C60  1  0.40968900  0.17202600  0.87226600  1
  C  C61  1  0.74839400  0.83901500  0.00575200  1
  C  C62  1  0.70669600  0.78411700  0.76300800  1
  C  C63  1  0.66502600  0.55755500  0.64554100  1
  C  C64  1  0.23587300  0.62498800  0.46012600  1
  C  C65  1  0.30643900  0.98877500  0.64859600  1
  C  C66  1  0.20197400  0.55029100  0.60383600  1
  C  C67  1  0.12000800  0.99342800  0.88778100  1
  C  C68  1  0.94369000  0.18890700  0.96256600  1
  C  C69  1  0.16246000  0.82074600  0.30399200  1
  C  C70  1  0.20669600  0.21588300  0.73699200  1
  C  C71  1  0.05631000  0.81109300  0.03743400  1
  C  C72  1  0.48223600  0.82723200  0.27900100  1
  C  C73  1  0.66246000  0.17925400  0.19600800  1
  C  C74  1  0.26412700  0.62498800  0.96012600  1
  C  C75  1  0.33497400  0.44244500  0.35445900  1
