# generated using pymatgen
data_Cu(Ni3C2)4
_symmetry_space_group_name_H-M   'P 1'
_cell_length_a   10.73728785
_cell_length_b   10.73728785
_cell_length_c   4.74986800
_cell_angle_alpha   90.00000000
_cell_angle_beta   90.00000000
_cell_angle_gamma   119.99999906
_symmetry_Int_Tables_number   1
_chemical_formula_structural   Cu(Ni3C2)4
_chemical_formula_sum   'Cu2 Ni24 C16'
_cell_volume   474.24347944
_cell_formula_units_Z   2
loop_
 _symmetry_equiv_pos_site_id
 _symmetry_equiv_pos_as_xyz
  1  'x, y, z'
loop_
 _atom_site_type_symbol
 _atom_site_label
 _atom_site_symmetry_multiplicity
 _atom_site_fract_x
 _atom_site_fract_y
 _atom_site_fract_z
 _atom_site_occupancy
  C  C0  1  0.00000000  0.00000000  0.00480500  1
  C  C1  1  0.56997700  0.78498800  0.95508800  1
  C  C2  1  0.21501200  0.78498800  0.95508800  1
  C  C3  1  0.21501200  0.43002300  0.95508800  1
  C  C4  1  0.78439400  0.21560600  0.00091500  1
  C  C5  1  0.78439400  0.56878900  0.00091500  1
  C  C6  1  0.43121100  0.21560600  0.00091500  1
  C  C7  1  0.49299100  0.50700900  0.40073300  1
  C  C8  1  0.01401800  0.50700900  0.40073300  1
  C  C9  1  0.49299100  0.98598200  0.40073300  1
  C  C10  1  0.74935800  0.74921700  0.48256600  1
  C  C11  1  0.99985900  0.25064200  0.48256600  1
  C  C12  1  0.25078300  0.25064200  0.48256600  1
  C  C13  1  0.74935800  0.00014100  0.48256600  1
  C  C14  1  0.25078300  0.00014100  0.48256600  1
  C  C15  1  0.99985900  0.74921700  0.48256600  1
  Ni  Ni16  1  0.42610000  0.85219900  0.18249500  1
  Ni  Ni17  1  0.02538700  0.63341500  0.62287300  1
  Ni  Ni18  1  0.28674400  0.14337200  0.59823100  1
  Ni  Ni19  1  0.56942400  0.13884800  0.23026800  1
  Ni  Ni20  1  0.11151000  0.88849000  0.60445100  1
  Ni  Ni21  1  0.73712100  0.99810400  0.18204200  1
  Ni  Ni22  1  0.36658500  0.39197200  0.62287300  1
  Ni  Ni23  1  0.86115200  0.43057600  0.23026800  1
  Ni  Ni24  1  0.42610000  0.57390000  0.18249500  1
  Ni  Ni25  1  0.00189600  0.73901700  0.18204200  1
  Ni  Ni26  1  0.60802800  0.97461300  0.62287300  1
  Ni  Ni27  1  0.02538700  0.39197200  0.62287300  1
  Ni  Ni28  1  0.77698000  0.88849000  0.60445100  1
  Ni  Ni29  1  0.00189600  0.26287900  0.18204200  1
  Ni  Ni30  1  0.36658500  0.97461300  0.62287300  1
  Ni  Ni31  1  0.26098300  0.26287900  0.18204200  1
  Ni  Ni32  1  0.60802800  0.63341500  0.62287300  1
  Ni  Ni33  1  0.85662800  0.71325600  0.59823100  1
  Ni  Ni34  1  0.11151000  0.22302000  0.60445100  1
  Ni  Ni35  1  0.26098300  0.99810400  0.18204200  1
  Ni  Ni36  1  0.73712100  0.73901700  0.18204200  1
  Ni  Ni37  1  0.14780100  0.57390000  0.18249500  1
  Ni  Ni38  1  0.56942400  0.43057600  0.23026800  1
  Ni  Ni39  1  0.85662800  0.14337200  0.59823100  1
  Cu  Cu40  1  0.33333300  0.66666700  0.74892400  1
  Cu  Cu41  1  0.66666700  0.33333300  0.79798000  1
