# generated using pymatgen
data_Cu2NiC9
_symmetry_space_group_name_H-M   'P 1'
_cell_length_a   16.97579600
_cell_length_b   10.18365700
_cell_length_c   13.82325893
_cell_angle_alpha   50.84331422
_cell_angle_beta   90.00000000
_cell_angle_gamma   90.00000000
_symmetry_Int_Tables_number   1
_chemical_formula_structural   Cu2NiC9
_chemical_formula_sum   'Cu16 Ni8 C72'
_cell_volume   1853.03025169
_cell_formula_units_Z   8
loop_
 _symmetry_equiv_pos_site_id
 _symmetry_equiv_pos_as_xyz
  1  'x, y, z'
loop_
 _atom_site_type_symbol
 _atom_site_label
 _atom_site_symmetry_multiplicity
 _atom_site_fract_x
 _atom_site_fract_y
 _atom_site_fract_z
 _atom_site_occupancy
  Ni  Ni0  1  0.94077800  0.42526700  0.80858700  1
  Ni  Ni1  1  0.14971200  0.88958300  0.36431400  1
  Ni  Ni2  1  0.44077800  0.57473300  0.69141300  1
  Ni  Ni3  1  0.05922200  0.57473300  0.19141300  1
  Ni  Ni4  1  0.55922200  0.42526700  0.30858700  1
  Ni  Ni5  1  0.64971200  0.11041700  0.13568600  1
  Ni  Ni6  1  0.35028800  0.88958300  0.86431400  1
  Ni  Ni7  1  0.85028800  0.11041700  0.63568600  1
  Cu  Cu8  1  0.29420100  0.17320300  0.46492700  1
  Cu  Cu9  1  0.11435400  0.11456700  0.53184300  1
  Cu  Cu10  1  0.12325200  0.27745300  0.60503000  1
  Cu  Cu11  1  0.69488600  0.65952200  0.46474400  1
  Cu  Cu12  1  0.19488600  0.34047800  0.03525600  1
  Cu  Cu13  1  0.37674800  0.27745300  0.10503000  1
  Cu  Cu14  1  0.88564600  0.88543300  0.46815700  1
  Cu  Cu15  1  0.79420100  0.82679700  0.03507300  1
  Cu  Cu16  1  0.87674800  0.72254700  0.39497000  1
  Cu  Cu17  1  0.38564600  0.11456700  0.03184300  1
  Cu  Cu18  1  0.70579900  0.82679700  0.53507300  1
  Cu  Cu19  1  0.80511400  0.65952200  0.96474400  1
  Cu  Cu20  1  0.20579900  0.17320300  0.96492700  1
  Cu  Cu21  1  0.62325200  0.72254700  0.89497000  1
  Cu  Cu22  1  0.61435400  0.88543300  0.96815700  1
  Cu  Cu23  1  0.30511400  0.34047800  0.53525600  1
  C  C24  1  0.10811800  0.91239800  0.80280700  1
  C  C25  1  0.89188200  0.08760200  0.19719300  1
  C  C26  1  0.30787700  0.53855600  0.26472000  1
  C  C27  1  0.19212300  0.53855600  0.76472000  1
  C  C28  1  0.80787700  0.46144400  0.23528000  1
  C  C29  1  0.69212300  0.46144400  0.73528000  1
  C  C30  1  0.39188200  0.91239800  0.30280700  1
  C  C31  1  0.60811800  0.08760200  0.69719300  1
  C  C32  1  0.38368200  0.09264500  0.26557300  1
  C  C33  1  0.18791700  0.53533700  0.87937400  1
  C  C34  1  0.69915200  0.64270100  0.69639400  1
  C  C35  1  0.81208300  0.46466300  0.12062600  1
  C  C36  1  0.11631800  0.09264500  0.76557300  1
  C  C37  1  0.31208300  0.53533700  0.37937400  1
  C  C38  1  0.80084800  0.64270100  0.19639400  1
  C  C39  1  0.68791700  0.46466300  0.62062600  1
  C  C40  1  0.10562800  0.91816800  0.68707100  1
  C  C41  1  0.39437200  0.91816800  0.18707100  1
  C  C42  1  0.61631800  0.90735500  0.73442700  1
  C  C43  1  0.89437200  0.08183200  0.31292900  1
  C  C44  1  0.30084800  0.35729900  0.30360600  1
  C  C45  1  0.60562800  0.08183200  0.81292900  1
  C  C46  1  0.19915200  0.35729900  0.80360600  1
  C  C47  1  0.88368200  0.90735500  0.23442700  1
  C  C48  1  0.71585300  0.04797800  0.27444700  1
  C  C49  1  0.36365000  0.66393900  0.92200800  1
  C  C50  1  0.51081500  0.69772900  0.55083900  1
  C  C51  1  0.75851000  0.18173600  0.53294600  1
  C  C52  1  0.49008000  0.36572600  0.75377000  1
  C  C53  1  0.62991800  0.55525500  0.16334100  1
  C  C54  1  0.63635000  0.33606100  0.07799200  1
  C  C55  1  0.58527800  0.15434000  0.00402100  1
  C  C56  1  0.28414700  0.95202200  0.72555300  1
  C  C57  1  0.21585300  0.95202200  0.22555300  1
  C  C58  1  0.86365000  0.33606100  0.57799200  1
  C  C59  1  0.13635000  0.66393900  0.42200800  1
  C  C60  1  0.08527800  0.84566000  0.49597900  1
  C  C61  1  0.93987900  0.03231000  0.74261900  1
  C  C62  1  0.66839500  0.88369900  0.19347600  1
  C  C63  1  0.43987900  0.96769000  0.75738100  1
  C  C64  1  0.33160500  0.11630100  0.80652400  1
  C  C65  1  0.56012100  0.03231000  0.24261900  1
  C  C66  1  0.86634300  0.45601400  0.89789500  1
  C  C67  1  0.11296300  0.77759800  0.13316200  1
  C  C68  1  0.87008200  0.55525500  0.66334100  1
  C  C69  1  0.12991800  0.44474500  0.33665900  1
  C  C70  1  0.61296300  0.22240200  0.36683800  1
  C  C71  1  0.06012100  0.96769000  0.25738100  1
  C  C72  1  0.16839500  0.11630100  0.30652400  1
  C  C73  1  0.91472200  0.15434000  0.50402100  1
  C  C74  1  0.74149000  0.18173600  0.03294600  1
  C  C75  1  0.00992000  0.36572600  0.25377000  1
  C  C76  1  0.25851000  0.81826400  0.96705400  1
  C  C77  1  0.51262600  0.59750300  0.78706900  1
  C  C78  1  0.37008200  0.44474500  0.83665900  1
  C  C79  1  0.63365700  0.45601400  0.39789500  1
  C  C80  1  0.98918500  0.69772900  0.05083900  1
  C  C81  1  0.01081500  0.30227100  0.94916100  1
  C  C82  1  0.38703700  0.77759800  0.63316200  1
  C  C83  1  0.36634300  0.54398600  0.60210500  1
  C  C84  1  0.24149000  0.81826400  0.46705400  1
  C  C85  1  0.13365700  0.54398600  0.10210500  1
  C  C86  1  0.50992000  0.63427400  0.24623000  1
  C  C87  1  0.78414700  0.04797800  0.77444700  1
  C  C88  1  0.98737400  0.59750300  0.28706900  1
  C  C89  1  0.41472200  0.84566000  0.99597900  1
  C  C90  1  0.88703700  0.22240200  0.86683800  1
  C  C91  1  0.99008000  0.63427400  0.74623000  1
  C  C92  1  0.48737400  0.40249700  0.21293100  1
  C  C93  1  0.48918500  0.30227100  0.44916100  1
  C  C94  1  0.83160500  0.88369900  0.69347600  1
  C  C95  1  0.01262600  0.40249700  0.71293100  1
