# generated using pymatgen
data_Cu13NiC10
_symmetry_space_group_name_H-M   'P 1'
_cell_length_a   8.70715970
_cell_length_b   8.70715970
_cell_length_c   8.70715958
_cell_angle_alpha   60.09888573
_cell_angle_beta   60.09888573
_cell_angle_gamma   60.09888060
_symmetry_Int_Tables_number   1
_chemical_formula_structural   Cu13NiC10
_chemical_formula_sum   'Cu26 Ni2 C20'
_cell_volume   467.82830500
_cell_formula_units_Z   2
loop_
 _symmetry_equiv_pos_site_id
 _symmetry_equiv_pos_as_xyz
  1  'x, y, z'
loop_
 _atom_site_type_symbol
 _atom_site_label
 _atom_site_symmetry_multiplicity
 _atom_site_fract_x
 _atom_site_fract_y
 _atom_site_fract_z
 _atom_site_occupancy
  C  C0  1  0.53279900  0.97306300  0.97421900  1
  C  C1  1  0.47306300  0.03279900  0.47421900  1
  C  C2  1  0.47421900  0.47306300  0.03279900  1
  C  C3  1  0.97306300  0.97421900  0.53279900  1
  C  C4  1  0.97421900  0.53279900  0.97306300  1
  C  C5  1  0.03279900  0.47421900  0.47306300  1
  C  C6  1  0.57347000  0.57075500  0.26811900  1
  C  C7  1  0.24829500  0.75454800  0.24531500  1
  C  C8  1  0.10300100  0.10300100  0.10300100  1
  C  C9  1  0.24531500  0.24829500  0.75454800  1
  C  C10  1  0.60300100  0.60300100  0.60300100  1
  C  C11  1  0.07075500  0.07347000  0.76811900  1
  C  C12  1  0.76811900  0.07075500  0.07347000  1
  C  C13  1  0.74531500  0.25454800  0.74829500  1
  C  C14  1  0.74829500  0.74531500  0.25454800  1
  C  C15  1  0.57075500  0.26811900  0.57347000  1
  C  C16  1  0.26811900  0.57347000  0.57075500  1
  C  C17  1  0.07347000  0.76811900  0.07075500  1
  C  C18  1  0.75454800  0.24531500  0.24829500  1
  C  C19  1  0.25454800  0.74829500  0.74531500  1
  Ni  Ni20  1  0.76750700  0.76750700  0.76750700  1
  Ni  Ni21  1  0.26750700  0.26750700  0.26750700  1
  Cu  Cu22  1  0.60331000  0.74275800  0.21748400  1
  Cu  Cu23  1  0.93532600  0.68712200  0.11528400  1
  Cu  Cu24  1  0.48639800  0.48639800  0.48639800  1
  Cu  Cu25  1  0.74961700  0.43290000  0.20256500  1
  Cu  Cu26  1  0.24275800  0.10331000  0.71748400  1
  Cu  Cu27  1  0.74275800  0.21748400  0.60331000  1
  Cu  Cu28  1  0.44653000  0.76309800  0.60799000  1
  Cu  Cu29  1  0.60799000  0.44653000  0.76309800  1
  Cu  Cu30  1  0.10799000  0.26309800  0.94653000  1
  Cu  Cu31  1  0.18712200  0.43532600  0.61528400  1
  Cu  Cu32  1  0.43532600  0.61528400  0.18712200  1
  Cu  Cu33  1  0.10331000  0.71748400  0.24275800  1
  Cu  Cu34  1  0.43290000  0.20256500  0.74961700  1
  Cu  Cu35  1  0.71748400  0.24275800  0.10331000  1
  Cu  Cu36  1  0.20256500  0.74961700  0.43290000  1
  Cu  Cu37  1  0.11528400  0.93532600  0.68712200  1
  Cu  Cu38  1  0.61528400  0.18712200  0.43532600  1
  Cu  Cu39  1  0.94653000  0.10799000  0.26309800  1
  Cu  Cu40  1  0.98639800  0.98639800  0.98639800  1
  Cu  Cu41  1  0.70256500  0.93290000  0.24961700  1
  Cu  Cu42  1  0.21748400  0.60331000  0.74275800  1
  Cu  Cu43  1  0.24961700  0.70256500  0.93290000  1
  Cu  Cu44  1  0.76309800  0.60799000  0.44653000  1
  Cu  Cu45  1  0.26309800  0.94653000  0.10799000  1
  Cu  Cu46  1  0.68712200  0.11528400  0.93532600  1
  Cu  Cu47  1  0.93290000  0.24961700  0.70256500  1
