# generated using pymatgen
data_Cu2NiC8
_symmetry_space_group_name_H-M   'P 1'
_cell_length_a   6.67054000
_cell_length_b   7.33698100
_cell_length_c   13.03691186
_cell_angle_alpha   62.43166297
_cell_angle_beta   90.00000000
_cell_angle_gamma   90.00000000
_symmetry_Int_Tables_number   1
_chemical_formula_structural   Cu2NiC8
_chemical_formula_sum   'Cu8 Ni4 C32'
_cell_volume   565.60338676
_cell_formula_units_Z   4
loop_
 _symmetry_equiv_pos_site_id
 _symmetry_equiv_pos_as_xyz
  1  'x, y, z'
loop_
 _atom_site_type_symbol
 _atom_site_label
 _atom_site_symmetry_multiplicity
 _atom_site_fract_x
 _atom_site_fract_y
 _atom_site_fract_z
 _atom_site_occupancy
  C  C0  1  0.35405800  0.23890700  0.02479500  1
  C  C1  1  0.85405800  0.76109300  0.47520500  1
  C  C2  1  0.14594200  0.23890700  0.52479500  1
  C  C3  1  0.64594200  0.76109300  0.97520500  1
  Ni  Ni4  1  0.60130100  0.78575300  0.23194300  1
  Ni  Ni5  1  0.10130100  0.21424700  0.26805700  1
  Ni  Ni6  1  0.39869900  0.21424700  0.76805700  1
  Ni  Ni7  1  0.89869900  0.78575300  0.73194300  1
  Cu  Cu8  1  0.65810100  0.21383500  0.54411700  1
  Cu  Cu9  1  0.08927300  0.70120900  0.21976000  1
  Cu  Cu10  1  0.84189900  0.21383500  0.04411700  1
  Cu  Cu11  1  0.15810100  0.78616500  0.95588300  1
  Cu  Cu12  1  0.34189900  0.78616500  0.45588300  1
  Cu  Cu13  1  0.91072700  0.29879100  0.78024000  1
  Cu  Cu14  1  0.58927300  0.29879100  0.28024000  1
  Cu  Cu15  1  0.41072700  0.70120900  0.71976000  1
  C  C16  1  0.17407200  0.59124100  0.48058400  1
  C  C17  1  0.62482700  0.56772600  0.19387200  1
  C  C18  1  0.94851300  0.79194100  0.87200300  1
  C  C19  1  0.10914800  0.21925300  0.72059500  1
  C  C20  1  0.89085200  0.78074700  0.27940500  1
  C  C21  1  0.05148700  0.20805900  0.12799700  1
  C  C22  1  0.81278600  0.15294800  0.31458300  1
  C  C23  1  0.68721400  0.15294800  0.81458300  1
  C  C24  1  0.82592800  0.40875900  0.51941600  1
  C  C25  1  0.33763500  0.99122500  0.92065000  1
  C  C26  1  0.44851300  0.20805900  0.62799700  1
  C  C27  1  0.60914800  0.78074700  0.77940500  1
  C  C28  1  0.16236500  0.99122500  0.42065000  1
  C  C29  1  0.87517300  0.56772600  0.69387200  1
  C  C30  1  0.37517300  0.43227400  0.80612800  1
  C  C31  1  0.12482700  0.43227400  0.30612800  1
  C  C32  1  0.18721400  0.84705200  0.68541700  1
  C  C33  1  0.50163200  0.25136400  0.42345200  1
  C  C34  1  0.83763500  0.00877500  0.57935000  1
  C  C35  1  0.66236500  0.00877500  0.07935000  1
  C  C36  1  0.49836800  0.74863600  0.57654800  1
  C  C37  1  0.67407200  0.40875900  0.01941600  1
  C  C38  1  0.00163200  0.74863600  0.07654800  1
  C  C39  1  0.39085200  0.21925300  0.22059500  1
  C  C40  1  0.55148700  0.79194100  0.37200300  1
  C  C41  1  0.32592800  0.59124100  0.98058400  1
  C  C42  1  0.31278600  0.84705200  0.18541700  1
  C  C43  1  0.99836800  0.25136400  0.92345200  1
