# generated using pymatgen
data_CuNi3C10
_symmetry_space_group_name_H-M   'P 1'
_cell_length_a   4.11846600
_cell_length_b   11.91534200
_cell_length_c   27.23135600
_cell_angle_alpha   90.00000000
_cell_angle_beta   90.00000000
_cell_angle_gamma   90.00000000
_symmetry_Int_Tables_number   1
_chemical_formula_structural   CuNi3C10
_chemical_formula_sum   'Cu4 Ni12 C40'
_cell_volume   1336.32245145
_cell_formula_units_Z   4
loop_
 _symmetry_equiv_pos_site_id
 _symmetry_equiv_pos_as_xyz
  1  'x, y, z'
loop_
 _atom_site_type_symbol
 _atom_site_label
 _atom_site_symmetry_multiplicity
 _atom_site_fract_x
 _atom_site_fract_y
 _atom_site_fract_z
 _atom_site_occupancy
  C  C0  1  0.25000000  0.73277700  0.56498900  1
  C  C1  1  0.75000000  0.55810200  0.92604600  1
  C  C2  1  0.25000000  0.40912900  0.54040500  1
  C  C3  1  0.25000000  0.73787500  0.83001000  1
  C  C4  1  0.25000000  0.88464300  0.20580100  1
  C  C5  1  0.25000000  0.94526000  0.68977400  1
  C  C6  1  0.25000000  0.44189800  0.07395400  1
  C  C7  1  0.75000000  0.11535700  0.79419900  1
  C  C8  1  0.75000000  0.05474000  0.31022600  1
  C  C9  1  0.75000000  0.05810200  0.57395400  1
  C  C10  1  0.75000000  0.26212500  0.16999000  1
  C  C11  1  0.75000000  0.59087100  0.45959500  1
  C  C12  1  0.75000000  0.61535700  0.70580100  1
  C  C13  1  0.25000000  0.94189800  0.42604600  1
  C  C14  1  0.75000000  0.76212500  0.33001000  1
  C  C15  1  0.25000000  0.23787500  0.66999000  1
  C  C16  1  0.25000000  0.38464300  0.29419900  1
  C  C17  1  0.25000000  0.23277700  0.93501100  1
  C  C18  1  0.75000000  0.09087100  0.04040500  1
  C  C19  1  0.75000000  0.76722300  0.06498900  1
  C  C20  1  0.25000000  0.90912900  0.95959500  1
  C  C21  1  0.75000000  0.26722300  0.43501100  1
  C  C22  1  0.25000000  0.44526000  0.81022600  1
  C  C23  1  0.75000000  0.55474000  0.18977400  1
  C  C24  1  0.25000000  0.71374400  0.39586200  1
  C  C25  1  0.25000000  0.54456500  0.63607100  1
  C  C26  1  0.25000000  0.14730600  0.49464700  1
  C  C27  1  0.75000000  0.31919300  0.86114700  1
  C  C28  1  0.25000000  0.68080700  0.13885300  1
  C  C29  1  0.75000000  0.78625600  0.89586200  1
  C  C30  1  0.75000000  0.81919300  0.63885300  1
  C  C31  1  0.25000000  0.21374400  0.10413800  1
  C  C32  1  0.25000000  0.18080700  0.36114700  1
  C  C33  1  0.25000000  0.64730600  0.00535300  1
  C  C34  1  0.75000000  0.45543500  0.36392900  1
  C  C35  1  0.25000000  0.04456500  0.86392900  1
  C  C36  1  0.75000000  0.85269400  0.50535300  1
  C  C37  1  0.75000000  0.35269400  0.99464700  1
  C  C38  1  0.75000000  0.95543500  0.13607100  1
  C  C39  1  0.75000000  0.28625600  0.60413800  1
  Ni  Ni40  1  0.75000000  0.40347000  0.48937400  1
  Ni  Ni41  1  0.75000000  0.93607900  0.37522100  1
  Ni  Ni42  1  0.25000000  0.61081700  0.76123500  1
  Ni  Ni43  1  0.25000000  0.06392100  0.62477900  1
  Ni  Ni44  1  0.25000000  0.11081700  0.73876500  1
  Ni  Ni45  1  0.75000000  0.90347000  0.01062600  1
  Ni  Ni46  1  0.75000000  0.43607900  0.12477900  1
  Ni  Ni47  1  0.25000000  0.59653000  0.51062600  1
  Ni  Ni48  1  0.25000000  0.09653000  0.98937400  1
  Ni  Ni49  1  0.25000000  0.56392100  0.87522100  1
  Ni  Ni50  1  0.75000000  0.38918300  0.23876500  1
  Ni  Ni51  1  0.75000000  0.88918300  0.26123500  1
  Cu  Cu52  1  0.25000000  0.63568600  0.26544200  1
  Cu  Cu53  1  0.75000000  0.86431400  0.76544200  1
  Cu  Cu54  1  0.25000000  0.13568600  0.23455800  1
  Cu  Cu55  1  0.75000000  0.36431400  0.73455800  1
