# generated using pymatgen
data_Cu4NiC
_symmetry_space_group_name_H-M   'P 1'
_cell_length_a   5.50700500
_cell_length_b   9.72213600
_cell_length_c   14.54146700
_cell_angle_alpha   90.00000000
_cell_angle_beta   90.00000000
_cell_angle_gamma   90.00000000
_symmetry_Int_Tables_number   1
_chemical_formula_structural   Cu4NiC
_chemical_formula_sum   'Cu32 Ni8 C8'
_cell_volume   778.54798468
_cell_formula_units_Z   8
loop_
 _symmetry_equiv_pos_site_id
 _symmetry_equiv_pos_as_xyz
  1  'x, y, z'
loop_
 _atom_site_type_symbol
 _atom_site_label
 _atom_site_symmetry_multiplicity
 _atom_site_fract_x
 _atom_site_fract_y
 _atom_site_fract_z
 _atom_site_occupancy
  C  C0  1  0.25000000  0.07725500  0.25000000  1
  C  C1  1  0.25000000  0.42274500  0.75000000  1
  C  C2  1  0.75000000  0.92274500  0.75000000  1
  C  C3  1  0.75000000  0.57725500  0.25000000  1
  C  C4  1  0.67656000  0.25000000  0.50000000  1
  C  C5  1  0.82344000  0.25000000  0.00000000  1
  C  C6  1  0.32344000  0.75000000  0.50000000  1
  C  C7  1  0.17656000  0.75000000  0.00000000  1
  Ni  Ni8  1  0.23797800  0.41390300  0.41582700  1
  Ni  Ni9  1  0.23797800  0.08609700  0.58417300  1
  Ni  Ni10  1  0.26202200  0.41390300  0.08417300  1
  Ni  Ni11  1  0.26202200  0.08609700  0.91582700  1
  Ni  Ni12  1  0.76202200  0.58609700  0.58417300  1
  Ni  Ni13  1  0.76202200  0.91390300  0.41582700  1
  Ni  Ni14  1  0.73797800  0.58609700  0.91582700  1
  Ni  Ni15  1  0.73797800  0.91390300  0.08417300  1
  Cu  Cu16  1  0.30509800  0.40269200  0.51521000  1
  Cu  Cu17  1  0.30509800  0.09730800  0.48479000  1
  Cu  Cu18  1  0.19490200  0.40269200  0.98479000  1
  Cu  Cu19  1  0.19490200  0.09730800  0.01521000  1
  Cu  Cu20  1  0.69490200  0.59730800  0.48479000  1
  Cu  Cu21  1  0.69490200  0.90269200  0.51521000  1
  Cu  Cu22  1  0.80509800  0.59730800  0.01521000  1
  Cu  Cu23  1  0.80509800  0.90269200  0.98479000  1
  Cu  Cu24  1  0.22593800  0.56151600  0.38808100  1
  Cu  Cu25  1  0.22593800  0.93848400  0.61191900  1
  Cu  Cu26  1  0.27406200  0.56151600  0.11191900  1
  Cu  Cu27  1  0.27406200  0.93848400  0.88808100  1
  Cu  Cu28  1  0.77406200  0.43848400  0.61191900  1
  Cu  Cu29  1  0.77406200  0.06151600  0.38808100  1
  Cu  Cu30  1  0.72593800  0.43848400  0.88808100  1
  Cu  Cu31  1  0.72593800  0.06151600  0.11191900  1
  Cu  Cu32  1  0.43349400  0.34144500  0.36289300  1
  Cu  Cu33  1  0.43349400  0.15855500  0.63710700  1
  Cu  Cu34  1  0.06650600  0.34144500  0.13710700  1
  Cu  Cu35  1  0.06650600  0.15855500  0.86289300  1
  Cu  Cu36  1  0.56650600  0.65855500  0.63710700  1
  Cu  Cu37  1  0.56650600  0.84144500  0.36289300  1
  Cu  Cu38  1  0.93349400  0.65855500  0.86289300  1
  Cu  Cu39  1  0.93349400  0.84144500  0.13710700  1
  Cu  Cu40  1  0.99773000  0.34857100  0.39842300  1
  Cu  Cu41  1  0.99773000  0.15142900  0.60157700  1
  Cu  Cu42  1  0.50227000  0.34857100  0.10157700  1
  Cu  Cu43  1  0.50227000  0.15142900  0.89842300  1
  Cu  Cu44  1  0.00227000  0.65142900  0.60157700  1
  Cu  Cu45  1  0.00227000  0.84857100  0.39842300  1
  Cu  Cu46  1  0.49773000  0.65142900  0.89842300  1
  Cu  Cu47  1  0.49773000  0.84857100  0.10157700  1
