# generated using pymatgen
data_CuNi3C17
_symmetry_space_group_name_H-M   'P 1'
_cell_length_a   6.38613500
_cell_length_b   10.25317831
_cell_length_c   11.11142695
_cell_angle_alpha   94.24456409
_cell_angle_beta   104.62620591
_cell_angle_gamma   98.70362277
_symmetry_Int_Tables_number   1
_chemical_formula_structural   CuNi3C17
_chemical_formula_sum   'Cu2 Ni6 C34'
_cell_volume   691.06511197
_cell_formula_units_Z   2
loop_
 _symmetry_equiv_pos_site_id
 _symmetry_equiv_pos_as_xyz
  1  'x, y, z'
loop_
 _atom_site_type_symbol
 _atom_site_label
 _atom_site_symmetry_multiplicity
 _atom_site_fract_x
 _atom_site_fract_y
 _atom_site_fract_z
 _atom_site_occupancy
  C  C0  1  0.08018200  0.89130200  0.16447000  1
  C  C1  1  0.31259700  0.12808700  0.56911600  1
  C  C2  1  0.68740300  0.87191300  0.43088400  1
  C  C3  1  0.91981800  0.10869800  0.83553000  1
  C  C4  1  0.73797300  0.40428000  0.41482100  1
  C  C5  1  0.44811100  0.27166100  0.03169800  1
  C  C6  1  0.27200700  0.64217200  0.92252700  1
  C  C7  1  0.72799300  0.35782800  0.07747300  1
  C  C8  1  0.15748400  0.72026500  0.66353600  1
  C  C9  1  0.89504300  0.44958400  0.30592000  1
  C  C10  1  0.33886000  0.80557300  0.87925600  1
  C  C11  1  0.55994300  0.49247600  0.70679900  1
  C  C12  1  0.55188900  0.72833900  0.96830200  1
  C  C13  1  0.10495700  0.55041600  0.69408000  1
  C  C14  1  0.68490000  0.55534900  0.86894800  1
  C  C15  1  0.41487900  0.45428800  0.82219300  1
  C  C16  1  0.31510000  0.44465100  0.13105200  1
  C  C17  1  0.66114000  0.19442700  0.12074400  1
  C  C18  1  0.45594300  0.27936400  0.24880200  1
  C  C19  1  0.26202700  0.59572000  0.58517900  1
  C  C20  1  0.58512100  0.54571200  0.17780700  1
  C  C21  1  0.84251600  0.27973500  0.33646400  1
  C  C22  1  0.44005700  0.50752400  0.29320100  1
  C  C23  1  0.54405700  0.72063600  0.75119800  1
  Ni  Ni24  1  0.60409400  0.28872700  0.10462400  1
  Ni  Ni25  1  0.39590600  0.71127300  0.89537600  1
  Ni  Ni26  1  0.22312600  0.62776500  0.67190000  1
  Ni  Ni27  1  0.77687400  0.37223500  0.32810000  1
  Ni  Ni28  1  0.46973000  0.47067200  0.20506700  1
  Ni  Ni29  1  0.53027000  0.52932800  0.79493300  1
  Cu  Cu30  1  0.43052100  0.65191900  0.77628500  1
  Cu  Cu31  1  0.56947900  0.34808100  0.22371500  1
  C  C32  1  0.32751500  0.32954400  0.47120300  1
  C  C33  1  0.00556100  0.65717200  0.12700200  1
  C  C34  1  0.10982500  0.12250000  0.15252200  1
  C  C35  1  0.59249000  0.91357600  0.20878100  1
  C  C36  1  0.67248500  0.67045600  0.52879700  1
  C  C37  1  0.89017500  0.87750000  0.84747800  1
  C  C38  1  0.40751000  0.08642400  0.79121900  1
  C  C39  1  0.99443900  0.34282800  0.87299800  1
  C  C40  1  0.80595800  0.10271000  0.55994600  1
  C  C41  1  0.19404200  0.89729000  0.44005400  1
