# generated using pymatgen
data_Cu2NiC8
_symmetry_space_group_name_H-M   'P 1'
_cell_length_a   8.69105600
_cell_length_b   5.74581800
_cell_length_c   14.74737330
_cell_angle_alpha   67.22497685
_cell_angle_beta   90.00000000
_cell_angle_gamma   90.00000000
_symmetry_Int_Tables_number   1
_chemical_formula_structural   Cu2NiC8
_chemical_formula_sum   'Cu8 Ni4 C32'
_cell_volume   679.02392745
_cell_formula_units_Z   4
loop_
 _symmetry_equiv_pos_site_id
 _symmetry_equiv_pos_as_xyz
  1  'x, y, z'
loop_
 _atom_site_type_symbol
 _atom_site_label
 _atom_site_symmetry_multiplicity
 _atom_site_fract_x
 _atom_site_fract_y
 _atom_site_fract_z
 _atom_site_occupancy
  C  C0  1  0.34589300  0.50022200  0.28506200  1
  C  C1  1  0.84589300  0.49977800  0.21493800  1
  C  C2  1  0.65410700  0.49977800  0.71493800  1
  C  C3  1  0.15410700  0.50022200  0.78506200  1
  Ni  Ni4  1  0.85079600  0.78097500  0.88783300  1
  Ni  Ni5  1  0.35079600  0.21902500  0.61216700  1
  Ni  Ni6  1  0.64920400  0.78097500  0.38783300  1
  Ni  Ni7  1  0.14920400  0.21902500  0.11216700  1
  Cu  Cu8  1  0.96669600  0.09336100  0.65787800  1
  Cu  Cu9  1  0.31470400  0.84092100  0.48656400  1
  Cu  Cu10  1  0.46669600  0.90663900  0.84212200  1
  Cu  Cu11  1  0.53330400  0.09336100  0.15787800  1
  Cu  Cu12  1  0.81470400  0.15907900  0.01343600  1
  Cu  Cu13  1  0.18529600  0.84092100  0.98656400  1
  Cu  Cu14  1  0.03330400  0.90663900  0.34212200  1
  Cu  Cu15  1  0.68529600  0.15907900  0.51343600  1
  C  C16  1  0.61263300  0.17472000  0.03721200  1
  C  C17  1  0.37945700  0.17835500  0.76363300  1
  C  C18  1  0.11263300  0.82528000  0.46278800  1
  C  C19  1  0.16436500  0.59082500  0.09685900  1
  C  C20  1  0.43971900  0.66033500  0.80845100  1
  C  C21  1  0.15143800  0.13668000  0.98435700  1
  C  C22  1  0.59062200  0.19605400  0.60928700  1
  C  C23  1  0.87945700  0.82164500  0.73636700  1
  C  C24  1  0.66436500  0.40917500  0.40314100  1
  C  C25  1  0.65143800  0.86332000  0.51564300  1
  C  C26  1  0.40937800  0.80394600  0.39071300  1
  C  C27  1  0.56028100  0.33966500  0.19154900  1
  C  C28  1  0.83563500  0.40917500  0.90314100  1
  C  C29  1  0.88736700  0.17472000  0.53721200  1
  C  C30  1  0.38736700  0.82528000  0.96278800  1
  C  C31  1  0.65416500  0.98336500  0.85111400  1
  C  C32  1  0.84583500  0.98336500  0.35111400  1
  C  C33  1  0.62054300  0.82164500  0.23636700  1
  C  C34  1  0.15416500  0.01663500  0.64888600  1
  C  C35  1  0.06028100  0.66033500  0.30845100  1
  C  C36  1  0.34583500  0.01663500  0.14888600  1
  C  C37  1  0.93971900  0.33966500  0.69154900  1
  C  C38  1  0.90937800  0.19605400  0.10928700  1
  C  C39  1  0.09062200  0.80394600  0.89071300  1
  C  C40  1  0.34856200  0.13668000  0.48435700  1
  C  C41  1  0.12054300  0.17835500  0.26363300  1
  C  C42  1  0.33563500  0.59082500  0.59685900  1
  C  C43  1  0.84856200  0.86332000  0.01564300  1
