# generated using pymatgen
data_Cu(Ni5C3)2
_symmetry_space_group_name_H-M   'P 1'
_cell_length_a   11.17757500
_cell_length_b   7.34051600
_cell_length_c   11.94379494
_cell_angle_alpha   59.76165608
_cell_angle_beta   90.00000000
_cell_angle_gamma   90.00000000
_symmetry_Int_Tables_number   1
_chemical_formula_structural   Cu(Ni5C3)2
_chemical_formula_sum   'Cu4 Ni40 C24'
_cell_volume   846.64058707
_cell_formula_units_Z   4
loop_
 _symmetry_equiv_pos_site_id
 _symmetry_equiv_pos_as_xyz
  1  'x, y, z'
loop_
 _atom_site_type_symbol
 _atom_site_label
 _atom_site_symmetry_multiplicity
 _atom_site_fract_x
 _atom_site_fract_y
 _atom_site_fract_z
 _atom_site_occupancy
  C  C0  1  0.40174900  0.80492700  0.49698300  1
  C  C1  1  0.90174900  0.19507300  0.00301700  1
  C  C2  1  0.59825100  0.19507300  0.50301700  1
  C  C3  1  0.09825100  0.80492700  0.99698300  1
  C  C4  1  0.27070900  0.59522200  0.81099500  1
  C  C5  1  0.77070900  0.40477800  0.68900500  1
  C  C6  1  0.72929100  0.40477800  0.18900500  1
  C  C7  1  0.22929100  0.59522200  0.31099500  1
  C  C8  1  0.03138000  0.74478200  0.51781000  1
  C  C9  1  0.53138000  0.25521800  0.98219000  1
  C  C10  1  0.96862000  0.25521800  0.48219000  1
  C  C11  1  0.46862000  0.74478200  0.01781000  1
  C  C12  1  0.08594900  0.28446400  0.74076900  1
  C  C13  1  0.58594900  0.71553600  0.75923100  1
  C  C14  1  0.91405100  0.71553600  0.25923100  1
  C  C15  1  0.41405100  0.28446400  0.24076900  1
  C  C16  1  0.24439800  0.12210700  0.10979600  1
  C  C17  1  0.74439800  0.87789300  0.39020400  1
  C  C18  1  0.75560200  0.87789300  0.89020400  1
  C  C19  1  0.25560200  0.12210700  0.60979600  1
  C  C20  1  0.03651400  0.28586400  0.20854700  1
  C  C21  1  0.53651400  0.71413600  0.29145300  1
  C  C22  1  0.96348600  0.71413600  0.79145300  1
  C  C23  1  0.46348600  0.28586400  0.70854700  1
  Ni  Ni24  1  0.02555800  0.64999000  0.36325100  1
  Ni  Ni25  1  0.52555800  0.35001000  0.13674900  1
  Ni  Ni26  1  0.97444200  0.35001000  0.63674900  1
  Ni  Ni27  1  0.47444200  0.64999000  0.86325100  1
  Ni  Ni28  1  0.05035000  0.14809800  0.89324300  1
  Ni  Ni29  1  0.55035000  0.85190200  0.60675700  1
  Ni  Ni30  1  0.94965000  0.85190200  0.10675700  1
  Ni  Ni31  1  0.44965000  0.14809800  0.39324300  1
  Ni  Ni32  1  0.14302300  0.51479900  0.69674600  1
  Ni  Ni33  1  0.64302300  0.48520100  0.80325400  1
  Ni  Ni34  1  0.85697700  0.48520100  0.30325400  1
  Ni  Ni35  1  0.35697700  0.51479900  0.19674600  1
  Ni  Ni36  1  0.32190000  0.11350400  0.23118000  1
  Ni  Ni37  1  0.82190000  0.88649600  0.26882000  1
  Ni  Ni38  1  0.67810000  0.88649600  0.76882000  1
  Ni  Ni39  1  0.17810000  0.11350400  0.73118000  1
  Ni  Ni40  1  0.31929600  0.28765800  0.98120300  1
  Ni  Ni41  1  0.81929600  0.71234200  0.51879700  1
  Ni  Ni42  1  0.68070400  0.71234200  0.01879700  1
  Ni  Ni43  1  0.18070400  0.28765800  0.48120300  1
  Ni  Ni44  1  0.22638800  0.89386200  0.12019800  1
  Ni  Ni45  1  0.72638800  0.10613800  0.37980200  1
  Ni  Ni46  1  0.77361200  0.10613800  0.87980200  1
  Ni  Ni47  1  0.27361200  0.89386200  0.62019800  1
  Ni  Ni48  1  0.10712300  0.19531100  0.12236500  1
  Ni  Ni49  1  0.60712300  0.80468900  0.37763500  1
  Ni  Ni50  1  0.89287700  0.80468900  0.87763500  1
  Ni  Ni51  1  0.39287700  0.19531100  0.62236500  1
  Ni  Ni52  1  0.39493000  0.49554300  0.69125100  1
  Ni  Ni53  1  0.89493000  0.50445700  0.80874900  1
  Ni  Ni54  1  0.60507000  0.50445700  0.30874900  1
  Ni  Ni55  1  0.10507000  0.49554300  0.19125100  1
  Ni  Ni56  1  0.02117600  0.10316800  0.36278500  1
  Ni  Ni57  1  0.52117600  0.89683200  0.13721500  1
  Ni  Ni58  1  0.97882400  0.89683200  0.63721500  1
  Ni  Ni59  1  0.47882400  0.10316800  0.86278500  1
  Ni  Ni60  1  0.40929600  0.65499000  0.37132200  1
  Ni  Ni61  1  0.90929600  0.34501000  0.12867800  1
  Ni  Ni62  1  0.59070400  0.34501000  0.62867800  1
  Ni  Ni63  1  0.09070400  0.65499000  0.87132200  1
  Cu  Cu64  1  0.21479500  0.75664600  0.44015300  1
  Cu  Cu65  1  0.71479500  0.24335400  0.05984700  1
  Cu  Cu66  1  0.78520500  0.24335400  0.55984700  1
  Cu  Cu67  1  0.28520500  0.75664600  0.94015300  1
