# generated using pymatgen
data_CuNiC3
_symmetry_space_group_name_H-M   'P 1'
_cell_length_a   4.92041700
_cell_length_b   8.07341600
_cell_length_c   9.72992100
_cell_angle_alpha   90.00000000
_cell_angle_beta   90.00000000
_cell_angle_gamma   90.00000000
_symmetry_Int_Tables_number   1
_chemical_formula_structural   CuNiC3
_chemical_formula_sum   'Cu4 Ni4 C12'
_cell_volume   386.51696030
_cell_formula_units_Z   4
loop_
 _symmetry_equiv_pos_site_id
 _symmetry_equiv_pos_as_xyz
  1  'x, y, z'
loop_
 _atom_site_type_symbol
 _atom_site_label
 _atom_site_symmetry_multiplicity
 _atom_site_fract_x
 _atom_site_fract_y
 _atom_site_fract_z
 _atom_site_occupancy
  C  C0  1  0.95040300  0.00000000  0.25000000  1
  C  C1  1  0.04959700  0.50000000  0.75000000  1
  C  C2  1  0.04959700  0.00000000  0.75000000  1
  C  C3  1  0.95040300  0.50000000  0.25000000  1
  Ni  Ni4  1  0.56379400  0.25000000  0.97087400  1
  Ni  Ni5  1  0.56379400  0.75000000  0.52912600  1
  Ni  Ni6  1  0.43620600  0.75000000  0.02912600  1
  Ni  Ni7  1  0.43620600  0.25000000  0.47087400  1
  Cu  Cu8  1  0.39348300  0.25000000  0.04774200  1
  Cu  Cu9  1  0.39348300  0.75000000  0.45225800  1
  Cu  Cu10  1  0.60651700  0.75000000  0.95225800  1
  Cu  Cu11  1  0.60651700  0.25000000  0.54774200  1
  C  C12  1  0.46199900  0.25000000  0.17363700  1
  C  C13  1  0.46199900  0.75000000  0.32636300  1
  C  C14  1  0.53800100  0.75000000  0.82636300  1
  C  C15  1  0.53800100  0.25000000  0.67363700  1
  C  C16  1  0.15372300  0.25000000  0.99949800  1
  C  C17  1  0.15372300  0.75000000  0.50050200  1
  C  C18  1  0.84627700  0.75000000  0.00050200  1
  C  C19  1  0.84627700  0.25000000  0.49949800  1
