# generated using pymatgen
data_Cu2Ni
_symmetry_space_group_name_H-M   'P 1'
_cell_length_a   4.66789059
_cell_length_b   4.66789059
_cell_length_c   37.62898700
_cell_angle_alpha   90.00000000
_cell_angle_beta   90.00000000
_cell_angle_gamma   120.00000832
_symmetry_Int_Tables_number   1
_chemical_formula_structural   Cu2Ni
_chemical_formula_sum   'Cu10 Ni5'
_cell_volume   710.05903510
_cell_formula_units_Z   5
loop_
 _symmetry_equiv_pos_site_id
 _symmetry_equiv_pos_as_xyz
  1  'x, y, z'
loop_
 _atom_site_type_symbol
 _atom_site_label
 _atom_site_symmetry_multiplicity
 _atom_site_fract_x
 _atom_site_fract_y
 _atom_site_fract_z
 _atom_site_occupancy
  Ni  Ni0  1  0.00000000  0.00000000  0.85284700  1
  Ni  Ni1  1  0.33333300  0.66666700  0.45304500  1
  Ni  Ni2  1  0.33333300  0.66666700  0.65322900  1
  Ni  Ni3  1  0.33333300  0.66666700  0.25303500  1
  Ni  Ni4  1  0.33333300  0.66666700  0.05288600  1
  Cu  Cu5  1  0.66666700  0.33333300  0.10254800  1
  Cu  Cu6  1  0.66666700  0.33333300  0.70278100  1
  Cu  Cu7  1  0.00000000  0.00000000  0.20341100  1
  Cu  Cu8  1  0.33333300  0.66666700  0.80323200  1
  Cu  Cu9  1  0.66666700  0.33333300  0.50265500  1
  Cu  Cu10  1  0.00000000  0.00000000  0.00328400  1
  Cu  Cu11  1  0.66666700  0.33333300  0.30261300  1
  Cu  Cu12  1  0.66666700  0.33333300  0.90243100  1
  Cu  Cu13  1  0.00000000  0.00000000  0.40340800  1
  Cu  Cu14  1  0.00000000  0.00000000  0.60359500  1
