# generated using pymatgen
data_Cu2Ni2C3
_symmetry_space_group_name_H-M   'P 1'
_cell_length_a   11.25121081
_cell_length_b   11.25121081
_cell_length_c   7.75902790
_cell_angle_alpha   83.80858390
_cell_angle_beta   83.80858390
_cell_angle_gamma   49.65493899
_symmetry_Int_Tables_number   1
_chemical_formula_structural   Cu2Ni2C3
_chemical_formula_sum   'Cu8 Ni8 C12'
_cell_volume   743.29871341
_cell_formula_units_Z   4
loop_
 _symmetry_equiv_pos_site_id
 _symmetry_equiv_pos_as_xyz
  1  'x, y, z'
loop_
 _atom_site_type_symbol
 _atom_site_label
 _atom_site_symmetry_multiplicity
 _atom_site_fract_x
 _atom_site_fract_y
 _atom_site_fract_z
 _atom_site_occupancy
  C  C0  1  0.23256500  0.56755800  0.69953500  1
  C  C1  1  0.43244200  0.76743500  0.80046500  1
  C  C2  1  0.56755800  0.23256500  0.19953500  1
  C  C3  1  0.76743500  0.43244200  0.30046500  1
  C  C4  1  0.09982200  0.31021400  0.17722400  1
  C  C5  1  0.84287600  0.99496700  0.12938600  1
  C  C6  1  0.99496700  0.84287600  0.62938600  1
  C  C7  1  0.31021400  0.09982200  0.67722400  1
  C  C8  1  0.90017800  0.68978600  0.82277600  1
  C  C9  1  0.68978600  0.90017800  0.32277600  1
  C  C10  1  0.00503300  0.15712400  0.37061400  1
  C  C11  1  0.15712400  0.00503300  0.87061400  1
  Ni  Ni12  1  0.92077500  0.45059300  0.17110800  1
  Ni  Ni13  1  0.54940700  0.07922500  0.32889200  1
  Ni  Ni14  1  0.45059300  0.92077500  0.67110800  1
  Ni  Ni15  1  0.85941600  0.83923000  0.71779000  1
  Ni  Ni16  1  0.14058400  0.16077000  0.28221000  1
  Ni  Ni17  1  0.83923000  0.85941600  0.21779000  1
  Ni  Ni18  1  0.16077000  0.14058400  0.78221000  1
  Ni  Ni19  1  0.07922500  0.54940700  0.82889200  1
  Cu  Cu20  1  0.65969100  0.27165900  0.48349400  1
  Cu  Cu21  1  0.22223200  0.47103500  0.42674600  1
  Cu  Cu22  1  0.34030900  0.72834100  0.51650600  1
  Cu  Cu23  1  0.52896500  0.77776800  0.07325400  1
  Cu  Cu24  1  0.27165900  0.65969100  0.98349400  1
  Cu  Cu25  1  0.77776800  0.52896500  0.57325400  1
  Cu  Cu26  1  0.72834100  0.34030900  0.01650600  1
  Cu  Cu27  1  0.47103500  0.22223200  0.92674600  1
