# generated using pymatgen
data_CuNi5C4
_symmetry_space_group_name_H-M   'P 1'
_cell_length_a   10.97268600
_cell_length_b   5.01101600
_cell_length_c   14.76452713
_cell_angle_alpha   74.97737533
_cell_angle_beta   90.00000000
_cell_angle_gamma   90.00000000
_symmetry_Int_Tables_number   1
_chemical_formula_structural   CuNi5C4
_chemical_formula_sum   'Cu4 Ni20 C16'
_cell_volume   784.07223198
_cell_formula_units_Z   4
loop_
 _symmetry_equiv_pos_site_id
 _symmetry_equiv_pos_as_xyz
  1  'x, y, z'
loop_
 _atom_site_type_symbol
 _atom_site_label
 _atom_site_symmetry_multiplicity
 _atom_site_fract_x
 _atom_site_fract_y
 _atom_site_fract_z
 _atom_site_occupancy
  C  C0  1  0.36059100  0.94423200  0.80879400  1
  C  C1  1  0.63940900  0.05576800  0.19120600  1
  C  C2  1  0.13940900  0.94423200  0.30879400  1
  C  C3  1  0.86059100  0.05576800  0.69120600  1
  C  C4  1  0.77760100  0.71738500  0.30353100  1
  C  C5  1  0.22239900  0.28261500  0.69646900  1
  C  C6  1  0.33176900  0.10423500  0.54521200  1
  C  C7  1  0.72239900  0.71738500  0.80353100  1
  C  C8  1  0.97021400  0.70171200  0.82092200  1
  C  C9  1  0.02978600  0.29828800  0.17907800  1
  C  C10  1  0.83176900  0.89576500  0.95478800  1
  C  C11  1  0.27760100  0.28261500  0.19646900  1
  C  C12  1  0.47021400  0.29828800  0.67907800  1
  C  C13  1  0.16823100  0.10423500  0.04521200  1
  C  C14  1  0.66823100  0.89576500  0.45478800  1
  C  C15  1  0.52978600  0.70171200  0.32092200  1
  Ni  Ni16  1  0.03968800  0.15523100  0.08303300  1
  Ni  Ni17  1  0.75384300  0.97892000  0.21224500  1
  Ni  Ni18  1  0.96031200  0.84476900  0.91696700  1
  Ni  Ni19  1  0.74615700  0.97892000  0.71224500  1
  Ni  Ni20  1  0.03304000  0.02547900  0.26883100  1
  Ni  Ni21  1  0.25384300  0.02108000  0.28775500  1
  Ni  Ni22  1  0.46696000  0.02547900  0.76883100  1
  Ni  Ni23  1  0.28489800  0.13120600  0.10238500  1
  Ni  Ni24  1  0.24615700  0.02108000  0.78775500  1
  Ni  Ni25  1  0.84505100  0.52316400  0.82292400  1
  Ni  Ni26  1  0.71510200  0.86879400  0.89761500  1
  Ni  Ni27  1  0.15494900  0.47683600  0.17707600  1
  Ni  Ni28  1  0.53304000  0.97452100  0.23116900  1
  Ni  Ni29  1  0.78489800  0.86879400  0.39761500  1
  Ni  Ni30  1  0.53968800  0.84476900  0.41696700  1
  Ni  Ni31  1  0.46031200  0.15523100  0.58303300  1
  Ni  Ni32  1  0.65494900  0.52316400  0.32292400  1
  Ni  Ni33  1  0.34505100  0.47683600  0.67707600  1
  Ni  Ni34  1  0.96696000  0.97452100  0.73116900  1
  Ni  Ni35  1  0.21510200  0.13120600  0.60238500  1
  Cu  Cu36  1  0.37425900  0.68452400  0.91343100  1
  Cu  Cu37  1  0.87425900  0.31547600  0.58656900  1
  Cu  Cu38  1  0.12574100  0.68452400  0.41343100  1
  Cu  Cu39  1  0.62574100  0.31547600  0.08656900  1
