# generated using pymatgen
data_Cu2NiC4
_symmetry_space_group_name_H-M   'P 1'
_cell_length_a   5.77074408
_cell_length_b   5.77074408
_cell_length_c   28.33406200
_cell_angle_alpha   90.00000000
_cell_angle_beta   90.00000000
_cell_angle_gamma   120.00000097
_symmetry_Int_Tables_number   1
_chemical_formula_structural   Cu2NiC4
_chemical_formula_sum   'Cu24 Ni12 C48'
_cell_volume   817.15246932
_cell_formula_units_Z   12
loop_
 _symmetry_equiv_pos_site_id
 _symmetry_equiv_pos_as_xyz
  1  'x, y, z'
loop_
 _atom_site_type_symbol
 _atom_site_label
 _atom_site_symmetry_multiplicity
 _atom_site_fract_x
 _atom_site_fract_y
 _atom_site_fract_z
 _atom_site_occupancy
  Ni  Ni0  1  0.33333300  0.66666700  0.97710700  1
  Ni  Ni1  1  0.66666700  0.33333300  0.99914900  1
  Ni  Ni2  1  0.66666700  0.33333300  0.81047300  1
  Ni  Ni3  1  0.00000000  0.00000000  0.83211300  1
  Ni  Ni4  1  0.00000000  0.00000000  0.64503100  1
  Ni  Ni5  1  0.33333300  0.66666700  0.47947800  1
  Ni  Ni6  1  0.66666700  0.33333300  0.68897700  1
  Ni  Ni7  1  0.66666700  0.33333300  0.31291100  1
  Ni  Ni8  1  0.00000000  0.00000000  0.52087500  1
  Ni  Ni9  1  0.00000000  0.00000000  0.14592100  1
  Ni  Ni10  1  0.33333300  0.66666700  0.35439200  1
  Ni  Ni11  1  0.66666700  0.33333300  0.18695500  1
  Cu  Cu12  1  0.82846500  0.65693100  0.91701800  1
  Cu  Cu13  1  0.82846500  0.17153500  0.91701800  1
  Cu  Cu14  1  0.16411900  0.32823700  0.74956700  1
  Cu  Cu15  1  0.34306900  0.17153500  0.91701800  1
  Cu  Cu16  1  0.16411900  0.83588100  0.74956700  1
  Cu  Cu17  1  0.33333300  0.66666700  0.85710500  1
  Cu  Cu18  1  0.33333300  0.66666700  0.66649500  1
  Cu  Cu19  1  0.50005300  0.00010600  0.58349600  1
  Cu  Cu20  1  0.67176300  0.83588100  0.74956700  1
  Cu  Cu21  1  0.50005300  0.49994700  0.58349600  1
  Cu  Cu22  1  0.66666700  0.33333300  0.50014800  1
  Cu  Cu23  1  0.83318500  0.66636900  0.41684000  1
  Cu  Cu24  1  0.99989400  0.49994700  0.58349600  1
  Cu  Cu25  1  0.83318500  0.16681500  0.41684000  1
  Cu  Cu26  1  0.66740200  0.83370100  0.25028200  1
  Cu  Cu27  1  0.00000000  0.00000000  0.33376400  1
  Cu  Cu28  1  0.16629900  0.33259800  0.25028200  1
  Cu  Cu29  1  0.33363100  0.16681500  0.41684000  1
  Cu  Cu30  1  0.16629900  0.83370100  0.25028200  1
  Cu  Cu31  1  0.00535200  0.50267600  0.08375600  1
  Cu  Cu32  1  0.33333300  0.66666700  0.16764300  1
  Cu  Cu33  1  0.49732400  0.99464800  0.08375600  1
  Cu  Cu34  1  0.49732400  0.50267600  0.08375600  1
  Cu  Cu35  1  0.00000000  0.00000000  0.02155300  1
  C  C36  1  0.51381800  0.48618200  0.95330500  1
  C  C37  1  0.66666700  0.33333300  0.88003600  1
  C  C38  1  0.51381800  0.02763600  0.95330500  1
  C  C39  1  0.97236400  0.48618200  0.95330500  1
  C  C40  1  0.84639600  0.15360400  0.78538100  1
  C  C41  1  0.68032500  0.84016300  0.87913000  1
  C  C42  1  0.00000000  0.00000000  0.95594500  1
  C  C43  1  0.15983700  0.31967500  0.87913000  1
  C  C44  1  0.00000000  0.00000000  0.71346500  1
  C  C45  1  0.84639600  0.69279200  0.78538100  1
  C  C46  1  0.15983700  0.84016300  0.87913000  1
  C  C47  1  0.30720800  0.15360400  0.78538100  1
  C  C48  1  0.18499100  0.81500900  0.62273100  1
  C  C49  1  0.04176300  0.52088200  0.71124400  1
  C  C50  1  0.47911800  0.95823700  0.71124400  1
  C  C51  1  0.33333300  0.66666700  0.79187600  1
  C  C52  1  0.33333300  0.66666700  0.54853700  1
  C  C53  1  0.18499100  0.36998300  0.62273100  1
  C  C54  1  0.47911800  0.52088200  0.71124400  1
  C  C55  1  0.63001700  0.81500900  0.62273100  1
  C  C56  1  0.51796800  0.48203200  0.45595900  1
  C  C57  1  0.36978900  0.18489500  0.54400300  1
  C  C58  1  0.81510500  0.63021100  0.54400300  1
  C  C59  1  0.51796800  0.03593700  0.45595900  1
  C  C60  1  0.66666700  0.33333300  0.61890100  1
  C  C61  1  0.66666700  0.33333300  0.38180100  1
  C  C62  1  0.81510500  0.18489500  0.54400300  1
  C  C63  1  0.96406300  0.48203200  0.45595900  1
  C  C64  1  0.85134200  0.14865800  0.28915100  1
  C  C65  1  0.70308400  0.85154200  0.37702800  1
  C  C66  1  0.00000000  0.00000000  0.21494000  1
  C  C67  1  0.14845800  0.29691600  0.37702800  1
  C  C68  1  0.00000000  0.00000000  0.45140600  1
  C  C69  1  0.85134200  0.70268300  0.28915100  1
  C  C70  1  0.14845800  0.85154200  0.37702800  1
  C  C71  1  0.29731700  0.14865800  0.28915100  1
  C  C72  1  0.18575900  0.81424100  0.12330200  1
  C  C73  1  0.03554800  0.51777400  0.21037900  1
  C  C74  1  0.48222600  0.96445200  0.21037900  1
  C  C75  1  0.33333300  0.66666700  0.28462000  1
  C  C76  1  0.33333300  0.66666700  0.04805200  1
  C  C77  1  0.18575900  0.37151800  0.12330200  1
  C  C78  1  0.48222600  0.51777400  0.21037900  1
  C  C79  1  0.62848200  0.81424100  0.12330200  1
  C  C80  1  0.33902000  0.16951000  0.04558900  1
  C  C81  1  0.83049000  0.66098000  0.04558900  1
  C  C82  1  0.66666700  0.33333300  0.11584900  1
  C  C83  1  0.83049000  0.16951000  0.04558900  1
