# generated using pymatgen
data_Cu5Ni2C5
_symmetry_space_group_name_H-M   'P 1'
_cell_length_a   4.30120800
_cell_length_b   4.30120800
_cell_length_c   13.10970489
_cell_angle_alpha   99.44186060
_cell_angle_beta   99.44186060
_cell_angle_gamma   90.00000000
_symmetry_Int_Tables_number   1
_chemical_formula_structural   Cu5Ni2C5
_chemical_formula_sum   'Cu5 Ni2 C5'
_cell_volume   235.91745760
_cell_formula_units_Z   1
loop_
 _symmetry_equiv_pos_site_id
 _symmetry_equiv_pos_as_xyz
  1  'x, y, z'
loop_
 _atom_site_type_symbol
 _atom_site_label
 _atom_site_symmetry_multiplicity
 _atom_site_fract_x
 _atom_site_fract_y
 _atom_site_fract_z
 _atom_site_occupancy
  C  C0  1  0.66124600  0.66124600  0.32249200  1
  C  C1  1  0.50000000  0.50000000  0.00000000  1
  C  C2  1  0.33875400  0.33875400  0.67750800  1
  C  C3  1  0.91757200  0.91757200  0.83514400  1
  C  C4  1  0.08242800  0.08242800  0.16485600  1
  Ni  Ni5  1  0.20518900  0.20518900  0.41037800  1
  Ni  Ni6  1  0.79481100  0.79481100  0.58962200  1
  Cu  Cu7  1  0.09405900  0.59405900  0.18811800  1
  Cu  Cu8  1  0.40594100  0.90594100  0.81188200  1
  Cu  Cu9  1  0.90594100  0.40594100  0.81188200  1
  Cu  Cu10  1  0.00000000  0.00000000  0.00000000  1
  Cu  Cu11  1  0.59405900  0.09405900  0.18811800  1
