# generated using pymatgen
data_Cu5NiC3
_symmetry_space_group_name_H-M   'P 1'
_cell_length_a   9.44761446
_cell_length_b   9.44761446
_cell_length_c   8.11284000
_cell_angle_alpha   90.00000000
_cell_angle_beta   90.00000000
_cell_angle_gamma   119.17860835
_symmetry_Int_Tables_number   1
_chemical_formula_structural   Cu5NiC3
_chemical_formula_sum   'Cu10 Ni2 C6'
_cell_volume   632.24192788
_cell_formula_units_Z   2
loop_
 _symmetry_equiv_pos_site_id
 _symmetry_equiv_pos_as_xyz
  1  'x, y, z'
loop_
 _atom_site_type_symbol
 _atom_site_label
 _atom_site_symmetry_multiplicity
 _atom_site_fract_x
 _atom_site_fract_y
 _atom_site_fract_z
 _atom_site_occupancy
  C  C0  1  0.32893500  0.67106500  0.10417900  1
  C  C1  1  0.93335600  0.06664400  0.44738500  1
  C  C2  1  0.67106500  0.32893500  0.60417900  1
  C  C3  1  0.06664400  0.93335600  0.94738500  1
  C  C4  1  0.17432000  0.82568000  0.48611900  1
  C  C5  1  0.82568000  0.17432000  0.98611900  1
  Ni  Ni6  1  0.86963100  0.13036900  0.80045400  1
  Ni  Ni7  1  0.13036900  0.86963100  0.30045400  1
  Cu  Cu8  1  0.76858500  0.23141500  0.28095600  1
  Cu  Cu9  1  0.26066400  0.09600400  0.59516700  1
  Cu  Cu10  1  0.44516700  0.89462100  0.43828600  1
  Cu  Cu11  1  0.89462100  0.44516700  0.93828600  1
  Cu  Cu12  1  0.90399600  0.73933600  0.59516700  1
  Cu  Cu13  1  0.23141500  0.76858500  0.78095600  1
  Cu  Cu14  1  0.10537900  0.55483300  0.43828600  1
  Cu  Cu15  1  0.73933600  0.90399600  0.09516700  1
  Cu  Cu16  1  0.55483300  0.10537900  0.93828600  1
  Cu  Cu17  1  0.09600400  0.26066400  0.09516700  1
