# generated using pymatgen
data_Cu3NiC
_symmetry_space_group_name_H-M   'P 1'
_cell_length_a   7.16862134
_cell_length_b   7.16862134
_cell_length_c   19.21602500
_cell_angle_alpha   90.00000000
_cell_angle_beta   90.00000000
_cell_angle_gamma   119.99999391
_symmetry_Int_Tables_number   1
_chemical_formula_structural   Cu3NiC
_chemical_formula_sum   'Cu18 Ni6 C6'
_cell_volume   855.19567318
_cell_formula_units_Z   6
loop_
 _symmetry_equiv_pos_site_id
 _symmetry_equiv_pos_as_xyz
  1  'x, y, z'
loop_
 _atom_site_type_symbol
 _atom_site_label
 _atom_site_symmetry_multiplicity
 _atom_site_fract_x
 _atom_site_fract_y
 _atom_site_fract_z
 _atom_site_occupancy
  C  C0  1  0.32692400  0.32852300  0.00457900  1
  C  C1  1  0.99840100  0.32692400  0.17124500  1
  C  C2  1  0.32852300  0.00159900  0.83791200  1
  C  C3  1  0.67147700  0.99840100  0.33791200  1
  C  C4  1  0.00159900  0.67307600  0.67124500  1
  C  C5  1  0.67307600  0.67147700  0.50457900  1
  Ni  Ni6  1  0.66322000  0.68105100  0.14104100  1
  Ni  Ni7  1  0.98216900  0.66322000  0.30770800  1
  Ni  Ni8  1  0.68105100  0.01783100  0.97437400  1
  Ni  Ni9  1  0.31894900  0.98216900  0.47437400  1
  Ni  Ni10  1  0.01783100  0.33678000  0.80770800  1
  Ni  Ni11  1  0.33678000  0.31894900  0.64104100  1
  Cu  Cu12  1  0.36120600  0.31682800  0.15297500  1
  Cu  Cu13  1  0.04437800  0.36120600  0.31964200  1
  Cu  Cu14  1  0.31682800  0.95562200  0.98630900  1
  Cu  Cu15  1  0.68317200  0.04437800  0.48630900  1
  Cu  Cu16  1  0.95562200  0.63879400  0.81964200  1
  Cu  Cu17  1  0.63879400  0.68317200  0.65297500  1
  Cu  Cu18  1  0.96918000  0.34811400  0.02207800  1
  Cu  Cu19  1  0.62106600  0.96918000  0.18874400  1
  Cu  Cu20  1  0.34811400  0.37893400  0.85541100  1
  Cu  Cu21  1  0.65188600  0.62106600  0.35541100  1
  Cu  Cu22  1  0.37893400  0.03082000  0.68874400  1
  Cu  Cu23  1  0.03082000  0.65188600  0.52207800  1
  Cu  Cu24  1  0.00534200  0.70791600  0.17932800  1
  Cu  Cu25  1  0.29742600  0.00534200  0.34599400  1
  Cu  Cu26  1  0.70791600  0.70257400  0.01266100  1
  Cu  Cu27  1  0.29208400  0.29742600  0.51266100  1
  Cu  Cu28  1  0.70257400  0.99465800  0.84599400  1
  Cu  Cu29  1  0.99465800  0.29208400  0.67932800  1
