# generated using pymatgen
data_Cu2Ni7C31
_symmetry_space_group_name_H-M   'P 1'
_cell_length_a   5.45982200
_cell_length_b   12.43975200
_cell_length_c   16.43066038
_cell_angle_alpha   82.14912850
_cell_angle_beta   90.00000000
_cell_angle_gamma   90.00000000
_symmetry_Int_Tables_number   1
_chemical_formula_structural   Cu2Ni7C31
_chemical_formula_sum   'Cu4 Ni14 C62'
_cell_volume   1105.49139067
_cell_formula_units_Z   2
loop_
 _symmetry_equiv_pos_site_id
 _symmetry_equiv_pos_as_xyz
  1  'x, y, z'
loop_
 _atom_site_type_symbol
 _atom_site_label
 _atom_site_symmetry_multiplicity
 _atom_site_fract_x
 _atom_site_fract_y
 _atom_site_fract_z
 _atom_site_occupancy
  Ni  Ni0  1  0.14633800  0.96237400  0.40584100  1
  Ni  Ni1  1  0.14633800  0.53762600  0.59415900  1
  Ni  Ni2  1  0.16348900  0.11032000  0.13698200  1
  Ni  Ni3  1  0.16348900  0.38968000  0.86301800  1
  Ni  Ni4  1  0.70067200  0.51677400  0.93595800  1
  Ni  Ni5  1  0.83651100  0.88968000  0.86301800  1
  Ni  Ni6  1  0.29932800  0.48322600  0.06404200  1
  Ni  Ni7  1  0.70067200  0.98322600  0.06404200  1
  Ni  Ni8  1  0.71702500  0.75000000  0.50000000  1
  Ni  Ni9  1  0.85366200  0.03762600  0.59415900  1
  Ni  Ni10  1  0.85366200  0.46237400  0.40584100  1
  Ni  Ni11  1  0.83651100  0.61032000  0.13698200  1
  Ni  Ni12  1  0.29932800  0.01677400  0.93595800  1
  Ni  Ni13  1  0.28297500  0.25000000  0.50000000  1
  Cu  Cu14  1  0.65135600  0.68713200  0.72526600  1
  Cu  Cu15  1  0.34864400  0.31286800  0.27473400  1
  Cu  Cu16  1  0.65135600  0.81286800  0.27473400  1
  Cu  Cu17  1  0.34864400  0.18713200  0.72526600  1
  C  C18  1  0.13667200  0.65699200  0.86964300  1
  C  C19  1  0.15714500  0.80488800  0.60981500  1
  C  C20  1  0.58328300  0.25000000  0.00000000  1
  C  C21  1  0.41671700  0.75000000  0.00000000  1
  C  C22  1  0.15714500  0.69511200  0.39018500  1
  C  C23  1  0.86332800  0.34300800  0.13035700  1
  C  C24  1  0.13667200  0.84300800  0.13035700  1
  C  C25  1  0.62759900  0.05415400  0.27857300  1
  C  C26  1  0.84285500  0.19511200  0.39018500  1
  C  C27  1  0.84285500  0.30488800  0.60981500  1
  C  C28  1  0.86332800  0.15699200  0.86964300  1
  C  C29  1  0.37240100  0.55415400  0.27857300  1
  C  C30  1  0.37240100  0.94584600  0.72142700  1
  C  C31  1  0.62759900  0.44584600  0.72142700  1
  C  C32  1  0.94066300  0.37682500  0.53486700  1
  C  C33  1  0.85334200  0.11930100  0.31508400  1
  C  C34  1  0.02246800  0.28929800  0.36243000  1
  C  C35  1  0.55424000  0.85577000  0.98405500  1
  C  C36  1  0.85334200  0.38069900  0.68491600  1
  C  C37  1  0.67797000  0.34712400  0.19899100  1
  C  C38  1  0.12146700  0.94954700  0.07360800  1
  C  C39  1  0.32203000  0.84712400  0.19899100  1
  C  C40  1  0.42239800  0.76519200  0.60644300  1
  C  C41  1  0.54669400  0.53818300  0.65430200  1
  C  C42  1  0.87853300  0.05045300  0.92639200  1
  C  C43  1  0.45330600  0.03818300  0.65430200  1
  C  C44  1  0.05933700  0.62317500  0.46513300  1
  C  C45  1  0.88959800  0.70468900  0.83776600  1
  C  C46  1  0.42165300  0.36540500  0.74801700  1
  C  C47  1  0.77082800  0.25224100  0.92357100  1
  C  C48  1  0.44576000  0.35577000  0.98405500  1
  C  C49  1  0.94066300  0.12317500  0.46513300  1
  C  C50  1  0.57834700  0.63459500  0.25198300  1
  C  C51  1  0.14665800  0.88069900  0.68491600  1
  C  C52  1  0.55424000  0.64423000  0.01594500  1
  C  C53  1  0.25202200  0.99827000  0.79068600  1
  C  C54  1  0.05933700  0.87682500  0.53486700  1
  C  C55  1  0.22917200  0.75224100  0.92357100  1
  C  C56  1  0.54669400  0.96181700  0.34569800  1
  C  C57  1  0.14665800  0.61930100  0.31508400  1
  C  C58  1  0.12146700  0.55045300  0.92639200  1
  C  C59  1  0.45330600  0.46181700  0.34569800  1
  C  C60  1  0.74797800  0.49827000  0.79068600  1
  C  C61  1  0.22917200  0.74775900  0.07642900  1
  C  C62  1  0.02246800  0.21070200  0.63757000  1
  C  C63  1  0.87853300  0.44954700  0.07360800  1
  C  C64  1  0.25202200  0.50173000  0.20931400  1
  C  C65  1  0.77082800  0.24775900  0.07642900  1
  C  C66  1  0.11040200  0.20468900  0.83776600  1
  C  C67  1  0.57760200  0.26519200  0.60644300  1
  C  C68  1  0.67797000  0.15287600  0.80100900  1
  C  C69  1  0.42165300  0.13459500  0.25198300  1
  C  C70  1  0.32203000  0.65287600  0.80100900  1
  C  C71  1  0.44576000  0.14423000  0.01594500  1
  C  C72  1  0.57760200  0.23480800  0.39355700  1
  C  C73  1  0.74797800  0.00173000  0.20931400  1
  C  C74  1  0.11040200  0.29531100  0.16223400  1
  C  C75  1  0.97753200  0.71070200  0.63757000  1
  C  C76  1  0.88959800  0.79531100  0.16223400  1
  C  C77  1  0.57834700  0.86540500  0.74801700  1
  C  C78  1  0.97753200  0.78929800  0.36243000  1
  C  C79  1  0.42239800  0.73480800  0.39355700  1
