# generated using pymatgen
data_Cu14Ni2C13
_symmetry_space_group_name_H-M   'P 1'
_cell_length_a   10.51454100
_cell_length_b   10.51454100
_cell_length_c   20.82249800
_cell_angle_alpha   90.00000000
_cell_angle_beta   90.00000000
_cell_angle_gamma   90.00000000
_symmetry_Int_Tables_number   1
_chemical_formula_structural   Cu14Ni2C13
_chemical_formula_sum   'Cu28 Ni4 C26'
_cell_volume   2302.04318603
_cell_formula_units_Z   2
loop_
 _symmetry_equiv_pos_site_id
 _symmetry_equiv_pos_as_xyz
  1  'x, y, z'
loop_
 _atom_site_type_symbol
 _atom_site_label
 _atom_site_symmetry_multiplicity
 _atom_site_fract_x
 _atom_site_fract_y
 _atom_site_fract_z
 _atom_site_occupancy
  Ni  Ni0  1  0.50000000  0.50000000  0.59606200  1
  Ni  Ni1  1  0.50000000  0.50000000  0.40393800  1
  Ni  Ni2  1  0.50000000  0.50000000  0.09606200  1
  Ni  Ni3  1  0.50000000  0.50000000  0.90393800  1
  Cu  Cu4  1  0.24998400  0.05496900  0.00000000  1
  Cu  Cu5  1  0.41279500  0.69867900  0.81774000  1
  Cu  Cu6  1  0.69867900  0.41279500  0.68226000  1
  Cu  Cu7  1  0.69867900  0.58720500  0.81774000  1
  Cu  Cu8  1  0.24998400  0.94503100  0.50000000  1
  Cu  Cu9  1  0.41279500  0.30132100  0.31774000  1
  Cu  Cu10  1  0.30132100  0.58720500  0.68226000  1
  Cu  Cu11  1  0.05496900  0.24998400  0.50000000  1
  Cu  Cu12  1  0.41279500  0.69867900  0.18226000  1
  Cu  Cu13  1  0.69867900  0.58720500  0.18226000  1
  Cu  Cu14  1  0.00000000  0.00000000  0.87141500  1
  Cu  Cu15  1  0.94503100  0.24998400  0.00000000  1
  Cu  Cu16  1  0.30132100  0.41279500  0.81774000  1
  Cu  Cu17  1  0.00000000  0.00000000  0.62858500  1
  Cu  Cu18  1  0.30132100  0.58720500  0.31774000  1
  Cu  Cu19  1  0.58720500  0.69867900  0.68226000  1
  Cu  Cu20  1  0.75001600  0.94503100  0.00000000  1
  Cu  Cu21  1  0.69867900  0.41279500  0.31774000  1
  Cu  Cu22  1  0.00000000  0.00000000  0.12858500  1
  Cu  Cu23  1  0.58720500  0.30132100  0.18226000  1
  Cu  Cu24  1  0.58720500  0.30132100  0.81774000  1
  Cu  Cu25  1  0.94503100  0.75001600  0.50000000  1
  Cu  Cu26  1  0.00000000  0.00000000  0.37141500  1
  Cu  Cu27  1  0.75001600  0.05496900  0.50000000  1
  Cu  Cu28  1  0.58720500  0.69867900  0.31774000  1
  Cu  Cu29  1  0.30132100  0.41279500  0.18226000  1
  Cu  Cu30  1  0.05496900  0.75001600  0.00000000  1
  Cu  Cu31  1  0.41279500  0.30132100  0.68226000  1
  C  C32  1  0.00000000  0.00000000  0.00000000  1
  C  C33  1  0.00000000  0.00000000  0.50000000  1
  C  C34  1  0.36711300  0.77674700  0.00000000  1
  C  C35  1  0.70186600  0.06268900  0.65233800  1
  C  C36  1  0.93731100  0.29813400  0.84766200  1
  C  C37  1  0.06268900  0.29813400  0.34766200  1
  C  C38  1  0.93731100  0.70186600  0.65233800  1
  C  C39  1  0.06268900  0.70186600  0.84766200  1
  C  C40  1  0.29813400  0.06268900  0.84766200  1
  C  C41  1  0.93731100  0.70186600  0.34766200  1
  C  C42  1  0.77674700  0.36711300  0.50000000  1
  C  C43  1  0.70186600  0.93731100  0.84766200  1
  C  C44  1  0.29813400  0.93731100  0.65233800  1
  C  C45  1  0.36711300  0.22325300  0.50000000  1
  C  C46  1  0.29813400  0.06268900  0.15233800  1
  C  C47  1  0.06268900  0.70186600  0.15233800  1
  C  C48  1  0.06268900  0.29813400  0.65233800  1
  C  C49  1  0.70186600  0.06268900  0.34766200  1
  C  C50  1  0.22325300  0.36711300  0.00000000  1
  C  C51  1  0.70186600  0.93731100  0.15233800  1
  C  C52  1  0.22325300  0.63288700  0.50000000  1
  C  C53  1  0.93731100  0.29813400  0.15233800  1
  C  C54  1  0.63288700  0.77674700  0.50000000  1
  C  C55  1  0.29813400  0.93731100  0.34766200  1
  C  C56  1  0.77674700  0.63288700  0.00000000  1
  C  C57  1  0.63288700  0.22325300  0.00000000  1
