# generated using pymatgen
data_Cu13(NiC4)2
_symmetry_space_group_name_H-M   'P 1'
_cell_length_a   5.50708400
_cell_length_b   15.64849500
_cell_length_c   20.76890361
_cell_angle_alpha   57.25599148
_cell_angle_beta   90.00000000
_cell_angle_gamma   90.00000000
_symmetry_Int_Tables_number   1
_chemical_formula_structural   Cu13(NiC4)2
_chemical_formula_sum   'Cu52 Ni8 C32'
_cell_volume   1505.40445564
_cell_formula_units_Z   4
loop_
 _symmetry_equiv_pos_site_id
 _symmetry_equiv_pos_as_xyz
  1  'x, y, z'
loop_
 _atom_site_type_symbol
 _atom_site_label
 _atom_site_symmetry_multiplicity
 _atom_site_fract_x
 _atom_site_fract_y
 _atom_site_fract_z
 _atom_site_occupancy
  C  C0  1  0.25789900  0.77191000  0.78066500  1
  C  C1  1  0.77005400  0.59580200  0.92544600  1
  C  C2  1  0.27005400  0.40419800  0.57455400  1
  C  C3  1  0.74210100  0.22809000  0.21933500  1
  C  C4  1  0.22994600  0.40419800  0.07455400  1
  C  C5  1  0.72994600  0.59580200  0.42544600  1
  C  C6  1  0.24210100  0.77191000  0.28066500  1
  C  C7  1  0.75789900  0.22809000  0.71933500  1
  C  C8  1  0.66546000  0.94093100  0.65260700  1
  C  C9  1  0.33454000  0.05906900  0.34739300  1
  C  C10  1  0.16546000  0.05906900  0.84739300  1
  C  C11  1  0.83454000  0.94093100  0.15260700  1
  C  C12  1  0.79893300  0.26674000  0.54054700  1
  C  C13  1  0.59607300  0.94242400  0.82492300  1
  C  C14  1  0.20106700  0.73326000  0.45945300  1
  C  C15  1  0.30337000  0.31137200  0.78783300  1
  C  C16  1  0.32223400  0.90429800  0.05957200  1
  C  C17  1  0.09607300  0.05757600  0.67507700  1
  C  C18  1  0.68549000  0.52321800  0.11440600  1
  C  C19  1  0.40392700  0.05757600  0.17507700  1
  C  C20  1  0.80337000  0.68862800  0.71216700  1
  C  C21  1  0.17776600  0.90429800  0.55957200  1
  C  C22  1  0.29893300  0.73326000  0.95945300  1
  C  C23  1  0.67776600  0.09570200  0.94042800  1
  C  C24  1  0.69663000  0.68862800  0.21216700  1
  C  C25  1  0.18549000  0.47678200  0.38559400  1
  C  C26  1  0.19663000  0.31137200  0.28783300  1
  C  C27  1  0.70106700  0.26674000  0.04054700  1
  C  C28  1  0.81451000  0.52321800  0.61440600  1
  C  C29  1  0.90392700  0.94242400  0.32492300  1
  C  C30  1  0.31451000  0.47678200  0.88559400  1
  C  C31  1  0.82223400  0.09570200  0.44042800  1
  Ni  Ni32  1  0.73677200  0.76592700  0.53301900  1
  Ni  Ni33  1  0.76346500  0.42487600  0.81967400  1
  Ni  Ni34  1  0.26322800  0.23407300  0.46698100  1
  Ni  Ni35  1  0.23677200  0.23407300  0.96698100  1
  Ni  Ni36  1  0.76322800  0.76592700  0.03301900  1
  Ni  Ni37  1  0.23653500  0.57512400  0.18032600  1
  Ni  Ni38  1  0.26346500  0.57512400  0.68032600  1
  Ni  Ni39  1  0.73653500  0.42487600  0.31967400  1
  Cu  Cu40  1  0.94659100  0.06998900  0.75425500  1
  Cu  Cu41  1  0.07269600  0.78754000  0.66992600  1
  Cu  Cu42  1  0.54108500  0.74524100  0.88788300  1
  Cu  Cu43  1  0.85497700  0.02636700  0.90430100  1
  Cu  Cu44  1  0.96351300  0.43126400  0.47323800  1
  Cu  Cu45  1  0.86366200  0.96360700  0.55756600  1
  Cu  Cu46  1  0.20046400  0.88997600  0.39037400  1
  Cu  Cu47  1  0.55540200  0.39008200  0.15528300  1
  Cu  Cu48  1  0.36366200  0.03639300  0.94243400  1
  Cu  Cu49  1  0.63633800  0.96360700  0.05756600  1
  Cu  Cu50  1  0.94378800  0.65556000  0.80700500  1
  Cu  Cu51  1  0.57269600  0.21246000  0.83007400  1
  Cu  Cu52  1  0.06707300  0.71644700  0.89875000  1
  Cu  Cu53  1  0.53648700  0.43126400  0.97323800  1
  Cu  Cu54  1  0.45891500  0.25475900  0.11211700  1
  Cu  Cu55  1  0.14502300  0.97363300  0.09569900  1
  Cu  Cu56  1  0.92345600  0.78439900  0.20471800  1
  Cu  Cu57  1  0.55340900  0.06998900  0.25425500  1
  Cu  Cu58  1  0.42345600  0.21560100  0.29528200  1
  Cu  Cu59  1  0.44378800  0.34444000  0.69299500  1
  Cu  Cu60  1  0.92868000  0.52297300  0.04866700  1
  Cu  Cu61  1  0.42730400  0.78754000  0.16992600  1
  Cu  Cu62  1  0.44459800  0.60991800  0.84471700  1
  Cu  Cu63  1  0.45924600  0.07603500  0.78452900  1
  Cu  Cu64  1  0.70046400  0.11002400  0.10962600  1
  Cu  Cu65  1  0.35497700  0.97363300  0.59569900  1
  Cu  Cu66  1  0.04075400  0.07603500  0.28452900  1
  Cu  Cu67  1  0.44659100  0.93001100  0.74574500  1
  Cu  Cu68  1  0.03648700  0.56873600  0.52676200  1
  Cu  Cu69  1  0.94459800  0.39008200  0.65528300  1
  Cu  Cu70  1  0.07132000  0.47702700  0.95133300  1
  Cu  Cu71  1  0.95924600  0.92396500  0.71547100  1
  Cu  Cu72  1  0.55621200  0.65556000  0.30700500  1
  Cu  Cu73  1  0.95891500  0.74524100  0.38788300  1
  Cu  Cu74  1  0.93292700  0.28355300  0.10125000  1
  Cu  Cu75  1  0.13633800  0.03639300  0.44243400  1
  Cu  Cu76  1  0.64502300  0.02636700  0.40430100  1
  Cu  Cu77  1  0.54075400  0.92396500  0.21547100  1
  Cu  Cu78  1  0.05340900  0.93001100  0.24574500  1
  Cu  Cu79  1  0.05540200  0.60991800  0.34471700  1
  Cu  Cu80  1  0.79953600  0.11002400  0.60962600  1
  Cu  Cu81  1  0.46351300  0.56873600  0.02676200  1
  Cu  Cu82  1  0.56707300  0.28355300  0.60125000  1
  Cu  Cu83  1  0.92730400  0.21246000  0.33007400  1
  Cu  Cu84  1  0.05621200  0.34444000  0.19299500  1
  Cu  Cu85  1  0.29953600  0.88997600  0.89037400  1
  Cu  Cu86  1  0.04108500  0.25475900  0.61211700  1
  Cu  Cu87  1  0.57654400  0.78439900  0.70471800  1
  Cu  Cu88  1  0.43292700  0.71644700  0.39875000  1
  Cu  Cu89  1  0.42868000  0.47702700  0.45133300  1
  Cu  Cu90  1  0.57132000  0.52297300  0.54866700  1
  Cu  Cu91  1  0.07654400  0.21560100  0.79528200  1
