# generated using pymatgen
data_Cu12Ni2C11
_symmetry_space_group_name_H-M   'P 1'
_cell_length_a   9.54828083
_cell_length_b   9.54828083
_cell_length_c   10.43147500
_cell_angle_alpha   90.00000000
_cell_angle_beta   90.00000000
_cell_angle_gamma   120.00000575
_symmetry_Int_Tables_number   1
_chemical_formula_structural   Cu12Ni2C11
_chemical_formula_sum   'Cu24 Ni4 C22'
_cell_volume   823.61964271
_cell_formula_units_Z   2
loop_
 _symmetry_equiv_pos_site_id
 _symmetry_equiv_pos_as_xyz
  1  'x, y, z'
loop_
 _atom_site_type_symbol
 _atom_site_label
 _atom_site_symmetry_multiplicity
 _atom_site_fract_x
 _atom_site_fract_y
 _atom_site_fract_z
 _atom_site_occupancy
  C  C0  1  0.71624300  0.72022700  0.25000000  1
  C  C1  1  0.28375700  0.27977300  0.75000000  1
  C  C2  1  0.27977300  0.99601600  0.25000000  1
  C  C3  1  0.72022700  0.00398400  0.75000000  1
  C  C4  1  0.99601600  0.71624300  0.75000000  1
  C  C5  1  0.00398400  0.28375700  0.25000000  1
  C  C6  1  0.00007400  0.37176900  0.57452800  1
  C  C7  1  0.37176900  0.37169500  0.42547200  1
  C  C8  1  0.37169500  0.99992600  0.92547200  1
  C  C9  1  0.99992600  0.62823100  0.42547200  1
  C  C10  1  0.62823100  0.62830500  0.92547200  1
  C  C11  1  0.99992600  0.62823100  0.07452800  1
  C  C12  1  0.62830500  0.00007400  0.42547200  1
  C  C13  1  0.66666700  0.33333300  0.75000000  1
  C  C14  1  0.37176900  0.37169500  0.07452800  1
  C  C15  1  0.62823100  0.62830500  0.57452800  1
  C  C16  1  0.62830500  0.00007400  0.07452800  1
  C  C17  1  0.00000000  0.00000000  0.50000000  1
  C  C18  1  0.37169500  0.99992600  0.57452800  1
  C  C19  1  0.00000000  0.00000000  0.00000000  1
  C  C20  1  0.00007400  0.37176900  0.92547200  1
  C  C21  1  0.33333300  0.66666700  0.25000000  1
  Ni  Ni22  1  0.33333300  0.66666700  0.52083000  1
  Ni  Ni23  1  0.66666700  0.33333300  0.47917000  1
  Ni  Ni24  1  0.66666700  0.33333300  0.02083000  1
  Ni  Ni25  1  0.33333300  0.66666700  0.97917000  1
  Cu  Cu26  1  0.35104400  0.19382000  0.25000000  1
  Cu  Cu27  1  0.17005800  0.91570200  0.38475400  1
  Cu  Cu28  1  0.43450700  0.95740400  0.25000000  1
  Cu  Cu29  1  0.04259600  0.47710300  0.25000000  1
  Cu  Cu30  1  0.08429800  0.25435600  0.11524600  1
  Cu  Cu31  1  0.74564400  0.82994200  0.38475400  1
  Cu  Cu32  1  0.64895600  0.80618000  0.75000000  1
  Cu  Cu33  1  0.08429800  0.25435600  0.38475400  1
  Cu  Cu34  1  0.91570200  0.74564400  0.61524600  1
  Cu  Cu35  1  0.82994200  0.08429800  0.88475400  1
  Cu  Cu36  1  0.25435600  0.17005800  0.88475400  1
  Cu  Cu37  1  0.19382000  0.84277600  0.75000000  1
  Cu  Cu38  1  0.84277600  0.64895600  0.25000000  1
  Cu  Cu39  1  0.56549300  0.04259600  0.75000000  1
  Cu  Cu40  1  0.91570200  0.74564400  0.88475400  1
  Cu  Cu41  1  0.25435600  0.17005800  0.61524600  1
  Cu  Cu42  1  0.17005800  0.91570200  0.11524600  1
  Cu  Cu43  1  0.82994200  0.08429800  0.61524600  1
  Cu  Cu44  1  0.52289700  0.56549300  0.25000000  1
  Cu  Cu45  1  0.15722400  0.35104400  0.75000000  1
  Cu  Cu46  1  0.80618000  0.15722400  0.25000000  1
  Cu  Cu47  1  0.47710300  0.43450700  0.75000000  1
  Cu  Cu48  1  0.95740400  0.52289700  0.75000000  1
  Cu  Cu49  1  0.74564400  0.82994200  0.11524600  1
