# generated using pymatgen
data_Cu10Ni4C5
_symmetry_space_group_name_H-M   'P 1'
_cell_length_a   12.01260500
_cell_length_b   12.01260500
_cell_length_c   3.94131800
_cell_angle_alpha   90.00000000
_cell_angle_beta   90.00000000
_cell_angle_gamma   90.00000000
_symmetry_Int_Tables_number   1
_chemical_formula_structural   Cu10Ni4C5
_chemical_formula_sum   'Cu20 Ni8 C10'
_cell_volume   568.74274574
_cell_formula_units_Z   2
loop_
 _symmetry_equiv_pos_site_id
 _symmetry_equiv_pos_as_xyz
  1  'x, y, z'
loop_
 _atom_site_type_symbol
 _atom_site_label
 _atom_site_symmetry_multiplicity
 _atom_site_fract_x
 _atom_site_fract_y
 _atom_site_fract_z
 _atom_site_occupancy
  C  C0  1  0.00000000  0.00000000  0.00000000  1
  C  C1  1  0.50000000  0.50000000  0.00000000  1
  C  C2  1  0.67623100  0.17623100  0.50000000  1
  C  C3  1  0.17623100  0.32376900  0.50000000  1
  C  C4  1  0.82376900  0.67623100  0.50000000  1
  C  C5  1  0.32376900  0.82376900  0.50000000  1
  C  C6  1  0.88845700  0.38845700  0.50000000  1
  C  C7  1  0.38845700  0.11154300  0.50000000  1
  C  C8  1  0.61154300  0.88845700  0.50000000  1
  C  C9  1  0.11154300  0.61154300  0.50000000  1
  Ni  Ni10  1  0.52431300  0.25404300  0.00000000  1
  Ni  Ni11  1  0.25404300  0.47568700  0.00000000  1
  Ni  Ni12  1  0.74595700  0.52431300  0.00000000  1
  Ni  Ni13  1  0.47568700  0.74595700  0.00000000  1
  Ni  Ni14  1  0.97568700  0.75404300  0.00000000  1
  Ni  Ni15  1  0.02431300  0.24595700  0.00000000  1
  Ni  Ni16  1  0.75404300  0.02431300  0.00000000  1
  Ni  Ni17  1  0.24595700  0.97568700  0.00000000  1
  Cu  Cu18  1  0.56817100  0.06817100  0.00000000  1
  Cu  Cu19  1  0.06817100  0.43182900  0.00000000  1
  Cu  Cu20  1  0.93182900  0.56817100  0.00000000  1
  Cu  Cu21  1  0.43182900  0.93182900  0.00000000  1
  Cu  Cu22  1  0.19805700  0.15680300  0.00000000  1
  Cu  Cu23  1  0.15680300  0.80194300  0.00000000  1
  Cu  Cu24  1  0.84319700  0.19805700  0.00000000  1
  Cu  Cu25  1  0.80194300  0.84319700  0.00000000  1
  Cu  Cu26  1  0.30194300  0.65680300  0.00000000  1
  Cu  Cu27  1  0.69805700  0.34319700  0.00000000  1
  Cu  Cu28  1  0.65680300  0.69805700  0.00000000  1
  Cu  Cu29  1  0.34319700  0.30194300  0.00000000  1
  Cu  Cu30  1  0.00200900  0.16373400  0.50000000  1
  Cu  Cu31  1  0.16373400  0.99799100  0.50000000  1
  Cu  Cu32  1  0.83626600  0.00200900  0.50000000  1
  Cu  Cu33  1  0.99799100  0.83626600  0.50000000  1
  Cu  Cu34  1  0.49799100  0.66373400  0.50000000  1
  Cu  Cu35  1  0.50200900  0.33626600  0.50000000  1
  Cu  Cu36  1  0.66373400  0.50200900  0.50000000  1
  Cu  Cu37  1  0.33626600  0.49799100  0.50000000  1
