# generated using pymatgen
data_Cu16Ni5C2
_symmetry_space_group_name_H-M   'P 1'
_cell_length_a   18.24249300
_cell_length_b   7.52404600
_cell_length_c   12.86102981
_cell_angle_alpha   55.86831010
_cell_angle_beta   90.00000000
_cell_angle_gamma   90.00000000
_symmetry_Int_Tables_number   1
_chemical_formula_structural   Cu16Ni5C2
_chemical_formula_sum   'Cu64 Ni20 C8'
_cell_volume   1461.20324784
_cell_formula_units_Z   4
loop_
 _symmetry_equiv_pos_site_id
 _symmetry_equiv_pos_as_xyz
  1  'x, y, z'
loop_
 _atom_site_type_symbol
 _atom_site_label
 _atom_site_symmetry_multiplicity
 _atom_site_fract_x
 _atom_site_fract_y
 _atom_site_fract_z
 _atom_site_occupancy
  C  C0  1  0.23322000  0.98299600  0.25879900  1
  C  C1  1  0.26678000  0.98299600  0.75879900  1
  C  C2  1  0.76678000  0.01700400  0.74120100  1
  C  C3  1  0.73322000  0.01700400  0.24120100  1
  C  C4  1  0.50170100  0.49865700  0.76573500  1
  C  C5  1  0.00170100  0.50134300  0.73426500  1
  C  C6  1  0.99829900  0.49865700  0.26573500  1
  C  C7  1  0.49829900  0.50134300  0.23426500  1
  Ni  Ni8  1  0.62203400  0.47331500  0.43296900  1
  Ni  Ni9  1  0.36816500  0.11767800  0.44931900  1
  Ni  Ni10  1  0.50533400  0.98999900  0.24688200  1
  Ni  Ni11  1  0.87796600  0.47331500  0.93296900  1
  Ni  Ni12  1  0.67982900  0.32411300  0.90093200  1
  Ni  Ni13  1  0.66374700  0.66660200  0.06291000  1
  Ni  Ni14  1  0.99466600  0.98999900  0.74688200  1
  Ni  Ni15  1  0.37796600  0.52668500  0.56703100  1
  Ni  Ni16  1  0.33625300  0.33339800  0.93709000  1
  Ni  Ni17  1  0.17982900  0.67588700  0.59906800  1
  Ni  Ni18  1  0.32017100  0.67588700  0.09906800  1
  Ni  Ni19  1  0.12203400  0.52668500  0.06703100  1
  Ni  Ni20  1  0.49466600  0.01000100  0.75311800  1
  Ni  Ni21  1  0.82017100  0.32411300  0.40093200  1
  Ni  Ni22  1  0.83625300  0.66660200  0.56291000  1
  Ni  Ni23  1  0.00533400  0.01000100  0.25311800  1
  Ni  Ni24  1  0.16374700  0.33339800  0.43709000  1
  Ni  Ni25  1  0.13183500  0.11767800  0.94931900  1
  Ni  Ni26  1  0.63183500  0.88232200  0.55068100  1
  Ni  Ni27  1  0.86816500  0.88232200  0.05068100  1
  Cu  Cu28  1  0.20038600  0.20399900  0.01939100  1
  Cu  Cu29  1  0.41721000  0.69733500  0.13908900  1
  Cu  Cu30  1  0.58721500  0.35107800  0.35037100  1
  Cu  Cu31  1  0.09687500  0.99879500  0.19829800  1
  Cu  Cu32  1  0.91278500  0.35107800  0.85037100  1
  Cu  Cu33  1  0.16892700  0.59682800  0.41461400  1
  Cu  Cu34  1  0.70038600  0.79600100  0.48060900  1
  Cu  Cu35  1  0.30519600  0.73725200  0.47982600  1
  Cu  Cu36  1  0.19480400  0.73725200  0.97982600  1
  Cu  Cu37  1  0.17607000  0.94411200  0.45150600  1
  Cu  Cu38  1  0.22627400  0.72933600  0.70437500  1
  Cu  Cu39  1  0.29961400  0.20399900  0.51939100  1
  Cu  Cu40  1  0.40312500  0.99879500  0.69829800  1
  Cu  Cu41  1  0.69480400  0.26274800  0.52017400  1
  Cu  Cu42  1  0.72627400  0.27066400  0.79562500  1
  Cu  Cu43  1  0.32393000  0.94411200  0.95150600  1
  Cu  Cu44  1  0.58279000  0.30266500  0.86091100  1
  Cu  Cu45  1  0.18298200  0.21245700  0.80544300  1
  Cu  Cu46  1  0.94818800  0.10338100  0.11481300  1
  Cu  Cu47  1  0.06973500  0.34985000  0.89064500  1
  Cu  Cu48  1  0.08721500  0.64892200  0.14962900  1
  Cu  Cu49  1  0.51262800  0.70209600  0.79251500  1
  Cu  Cu50  1  0.93605400  0.68265700  0.58752800  1
  Cu  Cu51  1  0.82393000  0.05588800  0.54849400  1
  Cu  Cu52  1  0.18576700  0.34040900  0.19102700  1
  Cu  Cu53  1  0.98737200  0.70209600  0.29251500  1
  Cu  Cu54  1  0.66892700  0.40317200  0.08538600  1
  Cu  Cu55  1  0.52412900  0.69128500  0.30266800  1
  Cu  Cu56  1  0.33107300  0.59682800  0.91461400  1
  Cu  Cu57  1  0.02412900  0.30871500  0.19733200  1
  Cu  Cu58  1  0.31701800  0.21245700  0.30544300  1
  Cu  Cu59  1  0.56394600  0.68265700  0.08752800  1
  Cu  Cu60  1  0.83107300  0.40317200  0.58538600  1
  Cu  Cu61  1  0.34150600  0.16404900  0.10777300  1
  Cu  Cu62  1  0.48737200  0.29790400  0.20748500  1
  Cu  Cu63  1  0.01262800  0.29790400  0.70748500  1
  Cu  Cu64  1  0.93026500  0.65015000  0.10935500  1
  Cu  Cu65  1  0.67607000  0.05588800  0.04849400  1
  Cu  Cu66  1  0.97587100  0.69128500  0.80266800  1
  Cu  Cu67  1  0.15849400  0.16404900  0.60777300  1
  Cu  Cu68  1  0.91721000  0.30266500  0.36091100  1
  Cu  Cu69  1  0.08279000  0.69733500  0.63908900  1
  Cu  Cu70  1  0.55181200  0.10338100  0.61481300  1
  Cu  Cu71  1  0.84150600  0.83595100  0.39222700  1
  Cu  Cu72  1  0.81423300  0.65959100  0.80897300  1
  Cu  Cu73  1  0.43026500  0.34985000  0.39064500  1
  Cu  Cu74  1  0.47587100  0.30871500  0.69733200  1
  Cu  Cu75  1  0.68576700  0.65959100  0.30897300  1
  Cu  Cu76  1  0.41278500  0.64892200  0.64962900  1
  Cu  Cu77  1  0.43605400  0.31734300  0.91247200  1
  Cu  Cu78  1  0.56973500  0.65015000  0.60935500  1
  Cu  Cu79  1  0.06394600  0.31734300  0.41247200  1
  Cu  Cu80  1  0.05181200  0.89661900  0.88518700  1
  Cu  Cu81  1  0.90312500  0.00120500  0.80170200  1
  Cu  Cu82  1  0.77372600  0.27066400  0.29562500  1
  Cu  Cu83  1  0.31423300  0.34040900  0.69102700  1
  Cu  Cu84  1  0.59687500  0.00120500  0.30170200  1
  Cu  Cu85  1  0.27372600  0.72933600  0.20437500  1
  Cu  Cu86  1  0.80519600  0.26274800  0.02017400  1
  Cu  Cu87  1  0.44818800  0.89661900  0.38518700  1
  Cu  Cu88  1  0.79961400  0.79600100  0.98060900  1
  Cu  Cu89  1  0.65849400  0.83595100  0.89222700  1
  Cu  Cu90  1  0.81701800  0.78754300  0.19455700  1
  Cu  Cu91  1  0.68298200  0.78754300  0.69455700  1
