# generated using pymatgen
data_Cu10NiC13
_symmetry_space_group_name_H-M   'P 1'
_cell_length_a   6.81737100
_cell_length_b   6.81737100
_cell_length_c   18.43761000
_cell_angle_alpha   90.00000000
_cell_angle_beta   90.00000000
_cell_angle_gamma   90.00000000
_symmetry_Int_Tables_number   1
_chemical_formula_structural   Cu10NiC13
_chemical_formula_sum   'Cu40 Ni4 C52'
_cell_volume   856.91645422
_cell_formula_units_Z   4
loop_
 _symmetry_equiv_pos_site_id
 _symmetry_equiv_pos_as_xyz
  1  'x, y, z'
loop_
 _atom_site_type_symbol
 _atom_site_label
 _atom_site_symmetry_multiplicity
 _atom_site_fract_x
 _atom_site_fract_y
 _atom_site_fract_z
 _atom_site_occupancy
  C  C0  1  0.28826500  0.71173500  0.25000000  1
  C  C1  1  0.78826500  0.78826500  0.50000000  1
  C  C2  1  0.71173500  0.28826500  0.75000000  1
  C  C3  1  0.21173500  0.21173500  0.00000000  1
  C  C4  1  0.42822200  0.85539500  0.54428000  1
  C  C5  1  0.14460500  0.57177800  0.95572000  1
  C  C6  1  0.50731600  0.96884800  0.18335500  1
  C  C7  1  0.57820500  0.64895000  0.70834400  1
  C  C8  1  0.64895000  0.57820500  0.29165600  1
  C  C9  1  0.72582600  0.01309300  0.38247700  1
  C  C10  1  0.58239500  0.75475000  0.34599700  1
  C  C11  1  0.22582600  0.48690700  0.36752300  1
  C  C12  1  0.07177800  0.35539500  0.70572000  1
  C  C13  1  0.53630000  0.37605700  0.05840100  1
  C  C14  1  0.41760500  0.24525000  0.84599700  1
  C  C15  1  0.03115200  0.49268400  0.31664500  1
  C  C16  1  0.77417400  0.51309300  0.86752300  1
  C  C17  1  0.48690700  0.22582600  0.63247700  1
  C  C18  1  0.08239500  0.74525000  0.40400300  1
  C  C19  1  0.53115200  0.00731600  0.43335500  1
  C  C20  1  0.00731600  0.53115200  0.56664500  1
  C  C21  1  0.25475000  0.91760500  0.09599700  1
  C  C22  1  0.96370000  0.87605700  0.19159900  1
  C  C23  1  0.14895000  0.92179500  0.45834400  1
  C  C24  1  0.57177800  0.14460500  0.04428000  1
  C  C25  1  0.46370000  0.62394300  0.55840100  1
  C  C26  1  0.35105000  0.42179500  0.79165600  1
  C  C27  1  0.51309300  0.77417400  0.13247700  1
  C  C28  1  0.01309300  0.72582600  0.61752300  1
  C  C29  1  0.92822200  0.64460500  0.20572000  1
  C  C30  1  0.74525000  0.08239500  0.59599700  1
  C  C31  1  0.85105000  0.07820500  0.95834400  1
  C  C32  1  0.37605700  0.53630000  0.94159900  1
  C  C33  1  0.62394300  0.46370000  0.44159900  1
  C  C34  1  0.35539500  0.07177800  0.29428000  1
  C  C35  1  0.03630000  0.12394300  0.69159900  1
  C  C36  1  0.49268400  0.03115200  0.68335500  1
  C  C37  1  0.27417400  0.98690700  0.88247700  1
  C  C38  1  0.42179500  0.35105000  0.20834400  1
  C  C39  1  0.85539500  0.42822200  0.45572000  1
  C  C40  1  0.96884800  0.50731600  0.81664500  1
  C  C41  1  0.46884800  0.99268400  0.93335500  1
  C  C42  1  0.87605700  0.96370000  0.80840100  1
  C  C43  1  0.24525000  0.41760500  0.15400300  1
  C  C44  1  0.12394300  0.03630000  0.30840100  1
  C  C45  1  0.64460500  0.92822200  0.79428000  1
  C  C46  1  0.75475000  0.58239500  0.65400300  1
  C  C47  1  0.98690700  0.27417400  0.11752300  1
  C  C48  1  0.92179500  0.14895000  0.54165600  1
  C  C49  1  0.91760500  0.25475000  0.90400300  1
  C  C50  1  0.07820500  0.85105000  0.04165600  1
  C  C51  1  0.99268400  0.46884800  0.06664500  1
  Ni  Ni52  1  0.70790100  0.70790100  0.00000000  1
  Ni  Ni53  1  0.29209900  0.29209900  0.50000000  1
  Ni  Ni54  1  0.20790100  0.79209900  0.75000000  1
  Ni  Ni55  1  0.79209900  0.20790100  0.25000000  1
  Cu  Cu56  1  0.25541400  0.97347900  0.30675200  1
  Cu  Cu57  1  0.85943200  0.42808700  0.83648700  1
  Cu  Cu58  1  0.17928300  0.95128700  0.05187500  1
  Cu  Cu59  1  0.88863600  0.12574700  0.18400400  1
  Cu  Cu60  1  0.14056800  0.57191300  0.33648700  1
  Cu  Cu61  1  0.17179200  0.57552100  0.75477000  1
  Cu  Cu62  1  0.42808700  0.85943200  0.16351300  1
  Cu  Cu63  1  0.37425300  0.38863600  0.43400400  1
  Cu  Cu64  1  0.42447900  0.82820800  0.74523000  1
  Cu  Cu65  1  0.62574700  0.61136400  0.93400400  1
  Cu  Cu66  1  0.52652100  0.75541400  0.55675200  1
  Cu  Cu67  1  0.47347900  0.24458600  0.05675200  1
  Cu  Cu68  1  0.67179200  0.92447900  0.99523000  1
  Cu  Cu69  1  0.95128700  0.17928300  0.94812500  1
  Cu  Cu70  1  0.75541400  0.52652100  0.44324800  1
  Cu  Cu71  1  0.61136400  0.62574700  0.06599600  1
  Cu  Cu72  1  0.07552100  0.32820800  0.50477000  1
  Cu  Cu73  1  0.57552100  0.17179200  0.24523000  1
  Cu  Cu74  1  0.04871300  0.82071700  0.44812500  1
  Cu  Cu75  1  0.32071700  0.45128700  0.19812500  1
  Cu  Cu76  1  0.02652100  0.74458600  0.19324800  1
  Cu  Cu77  1  0.64056800  0.92808700  0.41351300  1
  Cu  Cu78  1  0.97347900  0.25541400  0.69324800  1
  Cu  Cu79  1  0.87425300  0.11136400  0.31599600  1
  Cu  Cu80  1  0.35943200  0.07191300  0.91351300  1
  Cu  Cu81  1  0.24458600  0.47347900  0.94324800  1
  Cu  Cu82  1  0.12574700  0.88863600  0.81599600  1
  Cu  Cu83  1  0.92447900  0.67179200  0.00477000  1
  Cu  Cu84  1  0.74458600  0.02652100  0.80675200  1
  Cu  Cu85  1  0.11136400  0.87425300  0.68400400  1
  Cu  Cu86  1  0.57191300  0.14056800  0.66351300  1
  Cu  Cu87  1  0.54871300  0.67928300  0.30187500  1
  Cu  Cu88  1  0.38863600  0.37425300  0.56599600  1
  Cu  Cu89  1  0.82820800  0.42447900  0.25477000  1
  Cu  Cu90  1  0.92808700  0.64056800  0.58648700  1
  Cu  Cu91  1  0.82071700  0.04871300  0.55187500  1
  Cu  Cu92  1  0.45128700  0.32071700  0.80187500  1
  Cu  Cu93  1  0.32820800  0.07552100  0.49523000  1
  Cu  Cu94  1  0.67928300  0.54871300  0.69812500  1
  Cu  Cu95  1  0.07191300  0.35943200  0.08648700  1
