# generated using pymatgen
data_Cu3NiC2
_symmetry_space_group_name_H-M   'P 1'
_cell_length_a   4.65344648
_cell_length_b   4.65344648
_cell_length_c   5.38293100
_cell_angle_alpha   90.00000000
_cell_angle_beta   90.00000000
_cell_angle_gamma   120.00000676
_symmetry_Int_Tables_number   1
_chemical_formula_structural   Cu3NiC2
_chemical_formula_sum   'Cu6 Ni2 C4'
_cell_volume   100.94826543
_cell_formula_units_Z   2
loop_
 _symmetry_equiv_pos_site_id
 _symmetry_equiv_pos_as_xyz
  1  'x, y, z'
loop_
 _atom_site_type_symbol
 _atom_site_label
 _atom_site_symmetry_multiplicity
 _atom_site_fract_x
 _atom_site_fract_y
 _atom_site_fract_z
 _atom_site_occupancy
  C  C0  1  0.33333300  0.66666700  0.00000000  1
  C  C1  1  0.66666700  0.33333300  0.00000000  1
  C  C2  1  0.33333300  0.66666700  0.50000000  1
  C  C3  1  0.66666700  0.33333300  0.50000000  1
  Ni  Ni4  1  0.00000000  0.00000000  0.25000000  1
  Ni  Ni5  1  0.00000000  0.00000000  0.75000000  1
  Cu  Cu6  1  0.71990900  0.00000000  0.75000000  1
  Cu  Cu7  1  0.28009100  0.00000000  0.25000000  1
  Cu  Cu8  1  0.00000000  0.71990900  0.75000000  1
  Cu  Cu9  1  0.00000000  0.28009100  0.25000000  1
  Cu  Cu10  1  0.28009100  0.28009100  0.75000000  1
  Cu  Cu11  1  0.71990900  0.71990900  0.25000000  1
