# generated using pymatgen
data_Cu2NiC4
_symmetry_space_group_name_H-M   'P 1'
_cell_length_a   6.04709981
_cell_length_b   6.04710060
_cell_length_c   30.19583204
_cell_angle_alpha   59.95653355
_cell_angle_beta   59.95652882
_cell_angle_gamma   59.99999731
_symmetry_Int_Tables_number   1
_chemical_formula_structural   Cu2NiC4
_chemical_formula_sum   'Cu20 Ni10 C40'
_cell_volume   780.26237855
_cell_formula_units_Z   10
loop_
 _symmetry_equiv_pos_site_id
 _symmetry_equiv_pos_as_xyz
  1  'x, y, z'
loop_
 _atom_site_type_symbol
 _atom_site_label
 _atom_site_symmetry_multiplicity
 _atom_site_fract_x
 _atom_site_fract_y
 _atom_site_fract_z
 _atom_site_occupancy
  Ni  Ni0  1  0.00138900  0.00138900  0.99916700  1
  Ni  Ni1  1  0.99959600  0.99959600  0.20024300  1
  Ni  Ni2  1  0.62617100  0.62617100  0.02429700  1
  Ni  Ni3  1  0.24933200  0.24933200  0.25040100  1
  Ni  Ni4  1  0.00154400  0.00154400  0.39907400  1
  Ni  Ni5  1  0.24974600  0.24974600  0.45015300  1
  Ni  Ni6  1  0.00171200  0.00171200  0.59897300  1
  Ni  Ni7  1  0.00053200  0.00053200  0.79968100  1
  Ni  Ni8  1  0.25089400  0.25089400  0.64946400  1
  Ni  Ni9  1  0.24858400  0.24858400  0.85085000  1
  Cu  Cu10  1  0.24688500  0.24688500  0.05186900  1
  Cu  Cu11  1  0.12294200  0.62506800  0.12538400  1
  Cu  Cu12  1  0.62506800  0.12294200  0.12538400  1
  Cu  Cu13  1  0.62506800  0.62506800  0.12538400  1
  Cu  Cu14  1  0.12466900  0.62505100  0.32504600  1
  Cu  Cu15  1  0.62505100  0.12466900  0.32504600  1
  Cu  Cu16  1  0.62429800  0.62429800  0.22542100  1
  Cu  Cu17  1  0.62505100  0.62505100  0.32504600  1
  Cu  Cu18  1  0.12479700  0.62584700  0.52470200  1
  Cu  Cu19  1  0.62584700  0.12479700  0.52470200  1
  Cu  Cu20  1  0.62465400  0.62465400  0.42520800  1
  Cu  Cu21  1  0.62584700  0.62584700  0.52470200  1
  Cu  Cu22  1  0.12478700  0.62528500  0.72492800  1
  Cu  Cu23  1  0.62528500  0.12478700  0.72492800  1
  Cu  Cu24  1  0.62551100  0.62551100  0.62469300  1
  Cu  Cu25  1  0.62528500  0.62528500  0.72492800  1
  Cu  Cu26  1  0.12000700  0.62592800  0.92562800  1
  Cu  Cu27  1  0.62592800  0.12000700  0.92562800  1
  Cu  Cu28  1  0.62393200  0.62393200  0.82564100  1
  Cu  Cu29  1  0.62592800  0.62592800  0.92562800  1
  C  C30  1  0.37340200  0.37340200  0.07959400  1
  C  C31  1  0.38625400  0.38625400  0.16824700  1
  C  C32  1  0.37340200  0.85522400  0.07959400  1
  C  C33  1  0.85522400  0.37340200  0.07959400  1
  C  C34  1  0.38495300  0.38495300  0.27722400  1
  C  C35  1  0.40646800  0.86434500  0.17296800  1
  C  C36  1  0.86434500  0.40646800  0.17296800  1
  C  C37  1  0.38571900  0.38571900  0.36856900  1
  C  C38  1  0.38495300  0.84397100  0.27722400  1
  C  C39  1  0.86369900  0.86369900  0.08178100  1
  C  C40  1  0.84397100  0.38495300  0.27722400  1
  C  C41  1  0.86434500  0.86434500  0.17296800  1
  C  C42  1  0.38547300  0.38547300  0.47699600  1
  C  C43  1  0.40753300  0.86564300  0.37223600  1
  C  C44  1  0.86564300  0.40753300  0.37223600  1
  C  C45  1  0.38637000  0.38637000  0.56817800  1
  C  C46  1  0.38547300  0.84407300  0.47699600  1
  C  C47  1  0.86500300  0.86500300  0.28099800  1
  C  C48  1  0.84407300  0.38547300  0.47699600  1
  C  C49  1  0.86564300  0.86564300  0.37223600  1
  C  C50  1  0.38677500  0.38677500  0.67641900  1
  C  C51  1  0.40789900  0.86633700  0.57188500  1
  C  C52  1  0.86633700  0.40789900  0.57188500  1
  C  C53  1  0.38530900  0.38530900  0.76881500  1
  C  C54  1  0.86637100  0.86637100  0.48017700  1
  C  C55  1  0.38677500  0.84435400  0.67641900  1
  C  C56  1  0.84435400  0.38677500  0.67641900  1
  C  C57  1  0.86633700  0.86633700  0.57188500  1
  C  C58  1  0.40683200  0.86494900  0.77265400  1
  C  C59  1  0.38590200  0.38590200  0.87744300  1
  C  C60  1  0.86494900  0.40683200  0.77265400  1
  C  C61  1  0.37822000  0.37822000  0.97306800  1
  C  C62  1  0.86591500  0.86591500  0.68045100  1
  C  C63  1  0.38590200  0.84098000  0.87744300  1
  C  C64  1  0.84098000  0.38590200  0.87744300  1
  C  C65  1  0.86494900  0.86494900  0.77265400  1
  C  C66  1  0.40274800  0.87004200  0.97143400  1
  C  C67  1  0.87004200  0.40274800  0.97143400  1
  C  C68  1  0.86507600  0.86507600  0.88095400  1
  C  C69  1  0.87004200  0.87004200  0.97143400  1
