# generated using pymatgen
data_Cu5NiC2
_symmetry_space_group_name_H-M   'P 1'
_cell_length_a   5.13292573
_cell_length_b   5.13292573
_cell_length_c   10.56303200
_cell_angle_alpha   90.00000000
_cell_angle_beta   90.00000000
_cell_angle_gamma   119.99999652
_symmetry_Int_Tables_number   1
_chemical_formula_structural   Cu5NiC2
_chemical_formula_sum   'Cu10 Ni2 C4'
_cell_volume   241.01784727
_cell_formula_units_Z   2
loop_
 _symmetry_equiv_pos_site_id
 _symmetry_equiv_pos_as_xyz
  1  'x, y, z'
loop_
 _atom_site_type_symbol
 _atom_site_label
 _atom_site_symmetry_multiplicity
 _atom_site_fract_x
 _atom_site_fract_y
 _atom_site_fract_z
 _atom_site_occupancy
  C  C0  1  0.00000000  0.00000000  0.00000000  1
  C  C1  1  0.00000000  0.00000000  0.50000000  1
  C  C2  1  0.33333300  0.66666700  0.25000000  1
  C  C3  1  0.66666700  0.33333300  0.75000000  1
  Ni  Ni4  1  0.66666700  0.33333300  0.25000000  1
  Ni  Ni5  1  0.33333300  0.66666700  0.75000000  1
  Cu  Cu6  1  0.33333300  0.66666700  0.42301700  1
  Cu  Cu7  1  0.62471600  0.81235800  0.75000000  1
  Cu  Cu8  1  0.37528400  0.18764200  0.25000000  1
  Cu  Cu9  1  0.18764200  0.37528400  0.75000000  1
  Cu  Cu10  1  0.33333300  0.66666700  0.07698300  1
  Cu  Cu11  1  0.66666700  0.33333300  0.92301700  1
  Cu  Cu12  1  0.81235800  0.62471600  0.25000000  1
  Cu  Cu13  1  0.18764200  0.81235800  0.75000000  1
  Cu  Cu14  1  0.66666700  0.33333300  0.57698300  1
  Cu  Cu15  1  0.81235800  0.18764200  0.25000000  1
