# generated using pymatgen
data_CuNi4C5
_symmetry_space_group_name_H-M   'P 1'
_cell_length_a   12.39905000
_cell_length_b   7.17462200
_cell_length_c   9.39549945
_cell_angle_alpha   73.12894158
_cell_angle_beta   90.00000000
_cell_angle_gamma   90.00000000
_symmetry_Int_Tables_number   1
_chemical_formula_structural   CuNi4C5
_chemical_formula_sum   'Cu4 Ni16 C20'
_cell_volume   799.83652073
_cell_formula_units_Z   4
loop_
 _symmetry_equiv_pos_site_id
 _symmetry_equiv_pos_as_xyz
  1  'x, y, z'
loop_
 _atom_site_type_symbol
 _atom_site_label
 _atom_site_symmetry_multiplicity
 _atom_site_fract_x
 _atom_site_fract_y
 _atom_site_fract_z
 _atom_site_occupancy
  C  C0  1  0.83210000  0.87187300  0.41986700  1
  C  C1  1  0.16790000  0.12812700  0.58013300  1
  C  C2  1  0.33210000  0.62812700  0.58013300  1
  C  C3  1  0.66790000  0.37187300  0.41986700  1
  Ni  Ni4  1  0.92327900  0.23920200  0.15170700  1
  Ni  Ni5  1  0.89314800  0.62457500  0.75870200  1
  Ni  Ni6  1  0.42327900  0.26079800  0.84829300  1
  Ni  Ni7  1  0.42512900  0.47776500  0.31072300  1
  Ni  Ni8  1  0.39314800  0.87542500  0.24129800  1
  Ni  Ni9  1  0.61695500  0.30985000  0.97764200  1
  Ni  Ni10  1  0.10685200  0.37542500  0.24129800  1
  Ni  Ni11  1  0.07672100  0.76079800  0.84829300  1
  Ni  Ni12  1  0.57487100  0.52223500  0.68927700  1
  Ni  Ni13  1  0.07487100  0.97776500  0.31072300  1
  Ni  Ni14  1  0.88304500  0.80985000  0.97764200  1
  Ni  Ni15  1  0.57672100  0.73920200  0.15170700  1
  Ni  Ni16  1  0.38304500  0.69015000  0.02235800  1
  Ni  Ni17  1  0.60685200  0.12457500  0.75870200  1
  Ni  Ni18  1  0.92512900  0.02223500  0.68927700  1
  Ni  Ni19  1  0.11695500  0.19015000  0.02235800  1
  Cu  Cu20  1  0.16180700  0.45387700  0.61416600  1
  Cu  Cu21  1  0.33819300  0.95387700  0.61416600  1
  Cu  Cu22  1  0.83819300  0.54612300  0.38583400  1
  Cu  Cu23  1  0.66180700  0.04612300  0.38583400  1
  C  C24  1  0.98728000  0.22852600  0.00401000  1
  C  C25  1  0.51272000  0.72852600  0.00401000  1
  C  C26  1  0.44557600  0.47131600  0.72117000  1
  C  C27  1  0.48728000  0.27147400  0.99599000  1
  C  C28  1  0.37788000  0.65987100  0.36588400  1
  C  C29  1  0.66475200  0.14272000  0.90867100  1
  C  C30  1  0.12212000  0.15987100  0.36588400  1
  C  C31  1  0.62212000  0.34012900  0.63411600  1
  C  C32  1  0.94557600  0.02868400  0.27883000  1
  C  C33  1  0.87788000  0.84012900  0.63411600  1
  C  C34  1  0.05442400  0.97131600  0.72117000  1
  C  C35  1  0.01272000  0.77147400  0.99599000  1
  C  C36  1  0.83524800  0.64272000  0.90867100  1
  C  C37  1  0.33524800  0.85728000  0.09132900  1
  C  C38  1  0.55442400  0.52868400  0.27883000  1
  C  C39  1  0.16475200  0.35728000  0.09132900  1
