# generated using pymatgen
data_Cu2NiC8
_symmetry_space_group_name_H-M   'P 1'
_cell_length_a   5.74237485
_cell_length_b   5.74237485
_cell_length_c   10.04527611
_cell_angle_alpha   88.57839587
_cell_angle_beta   88.57839587
_cell_angle_gamma   114.12457768
_symmetry_Int_Tables_number   1
_chemical_formula_structural   Cu2NiC8
_chemical_formula_sum   'Cu4 Ni2 C16'
_cell_volume   301.99580815
_cell_formula_units_Z   2
loop_
 _symmetry_equiv_pos_site_id
 _symmetry_equiv_pos_as_xyz
  1  'x, y, z'
loop_
 _atom_site_type_symbol
 _atom_site_label
 _atom_site_symmetry_multiplicity
 _atom_site_fract_x
 _atom_site_fract_y
 _atom_site_fract_z
 _atom_site_occupancy
  C  C0  1  0.25693300  0.61466600  0.10380500  1
  C  C1  1  0.38533400  0.74306700  0.39619500  1
  C  C2  1  0.74306700  0.38533400  0.89619500  1
  C  C3  1  0.61466600  0.25693300  0.60380500  1
  Ni  Ni4  1  0.72422500  0.27577500  0.25000000  1
  Ni  Ni5  1  0.27577500  0.72422500  0.75000000  1
  Cu  Cu6  1  0.85868700  0.83910600  0.13793000  1
  Cu  Cu7  1  0.14131300  0.16089400  0.86207000  1
  Cu  Cu8  1  0.83910600  0.85868700  0.63793000  1
  Cu  Cu9  1  0.16089400  0.14131300  0.36207000  1
  C  C10  1  0.08532900  0.91467100  0.25000000  1
  C  C11  1  0.46277700  0.23032300  0.39086100  1
  C  C12  1  0.08341600  0.37018700  0.31108800  1
  C  C13  1  0.53722300  0.76967700  0.60913900  1
  C  C14  1  0.23032300  0.46277700  0.89086100  1
  C  C15  1  0.76967700  0.53722300  0.10913900  1
  C  C16  1  0.91658400  0.62981300  0.68891200  1
  C  C17  1  0.00000000  0.00000000  0.50000000  1
  C  C18  1  0.37018700  0.08341600  0.81108800  1
  C  C19  1  0.62981300  0.91658400  0.18891200  1
  C  C20  1  0.91467100  0.08532900  0.75000000  1
  C  C21  1  0.00000000  0.00000000  0.00000000  1
