# generated using pymatgen
data_Cu4Ni9C5
_symmetry_space_group_name_H-M   'P 1'
_cell_length_a   11.95795247
_cell_length_b   11.95795247
_cell_length_c   20.10285165
_cell_angle_alpha   58.19393469
_cell_angle_beta   58.19393469
_cell_angle_gamma   30.69510472
_symmetry_Int_Tables_number   1
_chemical_formula_structural   Cu4Ni9C5
_chemical_formula_sum   'Cu8 Ni18 C10'
_cell_volume   1228.83167148
_cell_formula_units_Z   2
loop_
 _symmetry_equiv_pos_site_id
 _symmetry_equiv_pos_as_xyz
  1  'x, y, z'
loop_
 _atom_site_type_symbol
 _atom_site_label
 _atom_site_symmetry_multiplicity
 _atom_site_fract_x
 _atom_site_fract_y
 _atom_site_fract_z
 _atom_site_occupancy
  C  C0  1  0.00437800  0.12406700  0.13947100  1
  C  C1  1  0.59553000  0.25744100  0.23416800  1
  C  C2  1  0.12406700  0.00437800  0.63947100  1
  C  C3  1  0.40447000  0.74255900  0.76583200  1
  C  C4  1  0.25744100  0.59553000  0.73416800  1
  C  C5  1  0.87593300  0.99562200  0.36052900  1
  C  C6  1  0.74255900  0.40447000  0.26583200  1
  C  C7  1  0.99562200  0.87593300  0.86052900  1
  Ni  Ni8  1  0.69524300  0.30475700  0.75000000  1
  Ni  Ni9  1  0.40563400  0.65308900  0.56982000  1
  Ni  Ni10  1  0.81635400  0.84624000  0.32789800  1
  Ni  Ni11  1  0.46104500  0.21239500  0.40118800  1
  Ni  Ni12  1  0.06718600  0.03537600  0.87490900  1
  Ni  Ni13  1  0.18364600  0.15376000  0.67210200  1
  Ni  Ni14  1  0.59436600  0.34691100  0.43018000  1
  Ni  Ni15  1  0.84624000  0.81635400  0.82789800  1
  Ni  Ni16  1  0.15376000  0.18364600  0.17210200  1
  Ni  Ni17  1  0.30475700  0.69524300  0.25000000  1
  Ni  Ni18  1  0.96462400  0.93281400  0.62509100  1
  Ni  Ni19  1  0.21239500  0.46104500  0.90118800  1
  Ni  Ni20  1  0.65308900  0.40563400  0.06982000  1
  Ni  Ni21  1  0.93281400  0.96462400  0.12509100  1
  Ni  Ni22  1  0.78760500  0.53895500  0.09881200  1
  Ni  Ni23  1  0.53895500  0.78760500  0.59881200  1
  Ni  Ni24  1  0.03537600  0.06718600  0.37490900  1
  Ni  Ni25  1  0.34691100  0.59436600  0.93018000  1
  Cu  Cu26  1  0.73414700  0.59148600  0.78480600  1
  Cu  Cu27  1  0.26585300  0.40851300  0.21519400  1
  Cu  Cu28  1  0.40851400  0.26585300  0.71519400  1
  Cu  Cu29  1  0.59148700  0.73414700  0.28480600  1
  Cu  Cu30  1  0.96633500  0.31911600  0.50318600  1
  Cu  Cu31  1  0.03366500  0.68088400  0.49681400  1
  Cu  Cu32  1  0.68088400  0.03366500  0.99681400  1
  Cu  Cu33  1  0.31911600  0.96633500  0.00318600  1
  C  C34  1  0.80418600  0.19581400  0.25000000  1
  C  C35  1  0.19581400  0.80418600  0.75000000  1
