# generated using pymatgen
data_Cu10Ni6C23
_symmetry_space_group_name_H-M   'P 1'
_cell_length_a   7.34695200
_cell_length_b   9.08627300
_cell_length_c   16.34311634
_cell_angle_alpha   59.12724548
_cell_angle_beta   90.00000000
_cell_angle_gamma   90.00000000
_symmetry_Int_Tables_number   1
_chemical_formula_structural   Cu10Ni6C23
_chemical_formula_sum   'Cu20 Ni12 C46'
_cell_volume   936.42182522
_cell_formula_units_Z   2
loop_
 _symmetry_equiv_pos_site_id
 _symmetry_equiv_pos_as_xyz
  1  'x, y, z'
loop_
 _atom_site_type_symbol
 _atom_site_label
 _atom_site_symmetry_multiplicity
 _atom_site_fract_x
 _atom_site_fract_y
 _atom_site_fract_z
 _atom_site_occupancy
  C  C0  1  0.50000000  0.00000000  0.50000000  1
  C  C1  1  0.00000000  0.00000000  0.00000000  1
  C  C2  1  0.38967200  0.53239200  0.23853700  1
  C  C3  1  0.61032800  0.46760800  0.76146300  1
  C  C4  1  0.29673700  0.63077700  0.13672500  1
  C  C5  1  0.23035600  0.14221100  0.20694000  1
  C  C6  1  0.88967200  0.46760800  0.26146300  1
  C  C7  1  0.26964400  0.14221100  0.70694000  1
  C  C8  1  0.49966000  0.47521200  0.13716700  1
  C  C9  1  0.90262000  0.85892300  0.41690300  1
  C  C10  1  0.50842200  0.04116200  0.18183400  1
  C  C11  1  0.09738000  0.14107700  0.58309700  1
  C  C12  1  0.49612600  0.66780100  0.31462600  1
  C  C13  1  0.59738000  0.85892300  0.91690300  1
  C  C14  1  0.49157800  0.95883800  0.81816600  1
  C  C15  1  0.19364800  0.16705600  0.29394500  1
  C  C16  1  0.45897600  0.68487800  0.88452600  1
  C  C17  1  0.02034600  0.46718600  0.89125600  1
  C  C18  1  0.00842200  0.95883800  0.31816600  1
  C  C19  1  0.77978800  0.42368700  0.62714100  1
  C  C20  1  0.69364800  0.83294400  0.20605500  1
  C  C21  1  0.79673700  0.36922300  0.36327500  1
  C  C22  1  0.80635200  0.83294400  0.70605500  1
  C  C23  1  0.72021200  0.42368700  0.12714100  1
  C  C24  1  0.04102400  0.68487800  0.38452600  1
  C  C25  1  0.11032800  0.53239200  0.73853700  1
  C  C26  1  0.22021200  0.57631300  0.37285900  1
  C  C27  1  0.70326300  0.36922300  0.86327500  1
  C  C28  1  0.95897600  0.31512200  0.61547400  1
  C  C29  1  0.52034600  0.53281400  0.60874400  1
  C  C30  1  0.20326300  0.63077700  0.63672500  1
  C  C31  1  0.99612600  0.33219900  0.18537400  1
  C  C32  1  0.47965400  0.46718600  0.39125600  1
  C  C33  1  0.00387400  0.66780100  0.81462600  1
  C  C34  1  0.27978800  0.57631300  0.87285900  1
  C  C35  1  0.40262000  0.14107700  0.08309700  1
  C  C36  1  0.54102400  0.31512200  0.11547400  1
  C  C37  1  0.30635200  0.16705600  0.79394500  1
  C  C38  1  0.73035600  0.85778900  0.29306000  1
  C  C39  1  0.99966000  0.52478800  0.36283300  1
  C  C40  1  0.97965400  0.53281400  0.10874400  1
  C  C41  1  0.76964400  0.85778900  0.79306000  1
  C  C42  1  0.50034000  0.52478800  0.86283300  1
  C  C43  1  0.99157800  0.04116200  0.68183400  1
  C  C44  1  0.00034000  0.47521200  0.63716700  1
  C  C45  1  0.50387400  0.33219900  0.68537400  1
  Ni  Ni46  1  0.20373200  0.15120500  0.44449700  1
  Ni  Ni47  1  0.89097600  0.14761000  0.83585000  1
  Ni  Ni48  1  0.70373200  0.84879500  0.05550300  1
  Ni  Ni49  1  0.61727400  0.24234800  0.51525400  1
  Ni  Ni50  1  0.39097600  0.85239000  0.66415000  1
  Ni  Ni51  1  0.88272600  0.24234800  0.01525400  1
  Ni  Ni52  1  0.60902400  0.14761000  0.33585000  1
  Ni  Ni53  1  0.38272600  0.75765200  0.48474600  1
  Ni  Ni54  1  0.79626800  0.84879500  0.55550300  1
  Ni  Ni55  1  0.29626800  0.15120500  0.94449700  1
  Ni  Ni56  1  0.10902400  0.85239000  0.16415000  1
  Ni  Ni57  1  0.11727400  0.75765200  0.98474600  1
  Cu  Cu58  1  0.08457500  0.56483000  0.83787300  1
  Cu  Cu59  1  0.63842600  0.47487200  0.81882400  1
  Cu  Cu60  1  0.06363400  0.14730400  0.63960300  1
  Cu  Cu61  1  0.93636600  0.85269600  0.36039700  1
  Cu  Cu62  1  0.58457500  0.43517000  0.66212700  1
  Cu  Cu63  1  0.13842600  0.52512800  0.68117600  1
  Cu  Cu64  1  0.56363400  0.85269600  0.86039700  1
  Cu  Cu65  1  0.13148300  0.14943200  0.24634200  1
  Cu  Cu66  1  0.43636600  0.14730400  0.13960300  1
  Cu  Cu67  1  0.86157400  0.47487200  0.31882400  1
  Cu  Cu68  1  0.41093900  0.56860000  0.89690400  1
  Cu  Cu69  1  0.86851700  0.85056800  0.75365800  1
  Cu  Cu70  1  0.41542500  0.56483000  0.33787300  1
  Cu  Cu71  1  0.08906100  0.56860000  0.39690400  1
  Cu  Cu72  1  0.36851700  0.14943200  0.74634200  1
  Cu  Cu73  1  0.36157400  0.52512800  0.18117600  1
  Cu  Cu74  1  0.91542500  0.43517000  0.16212700  1
  Cu  Cu75  1  0.91093900  0.43140000  0.60309600  1
  Cu  Cu76  1  0.63148300  0.85056800  0.25365800  1
  Cu  Cu77  1  0.58906100  0.43140000  0.10309600  1
