# generated using pymatgen
data_Cu(NiC2)2
_symmetry_space_group_name_H-M   'P 1'
_cell_length_a   5.83802266
_cell_length_b   5.83802221
_cell_length_c   40.76520058
_cell_angle_alpha   60.14573825
_cell_angle_beta   60.14574148
_cell_angle_gamma   59.67477406
_symmetry_Int_Tables_number   1
_chemical_formula_structural   Cu(NiC2)2
_chemical_formula_sum   'Cu14 Ni28 C56'
_cell_volume   982.14545976
_cell_formula_units_Z   14
loop_
 _symmetry_equiv_pos_site_id
 _symmetry_equiv_pos_as_xyz
  1  'x, y, z'
loop_
 _atom_site_type_symbol
 _atom_site_label
 _atom_site_symmetry_multiplicity
 _atom_site_fract_x
 _atom_site_fract_y
 _atom_site_fract_z
 _atom_site_occupancy
  Ni  Ni0  1  0.13622987  0.13622987  0.01493596  1
  Ni  Ni1  1  0.50786158  0.50786158  0.99745809  1
  Ni  Ni2  1  0.49954540  0.49954540  0.07139462  1
  Ni  Ni3  1  0.49492370  0.99857670  0.21526944  1
  Ni  Ni4  1  0.49131517  0.49131517  0.14535497  1
  Ni  Ni5  1  0.49408562  0.49408562  0.21527400  1
  Ni  Ni6  1  0.50016607  0.00011542  0.35719868  1
  Ni  Ni7  1  0.86292280  0.86292280  0.12786940  1
  Ni  Ni8  1  0.49788750  0.49788750  0.28602842  1
  Ni  Ni9  1  0.99857670  0.49492370  0.21526944  1
  Ni  Ni10  1  0.49948261  0.49948261  0.35738894  1
  Ni  Ni11  1  0.49958797  0.99966469  0.49992938  1
  Ni  Ni12  1  0.49972929  0.49972929  0.42859330  1
  Ni  Ni13  1  0.00011542  0.50016607  0.35719868  1
  Ni  Ni14  1  0.49872477  0.49872477  0.50030348  1
  Ni  Ni15  1  0.50358626  0.00273206  0.64303685  1
  Ni  Ni16  1  0.50112476  0.50112476  0.57147981  1
  Ni  Ni17  1  0.99966469  0.49958797  0.49992938  1
  Ni  Ni18  1  0.50442624  0.50442624  0.64243521  1
  Ni  Ni19  1  0.99875360  0.49850770  0.78556309  1
  Ni  Ni20  1  0.49850770  0.99875360  0.78556309  1
  Ni  Ni21  1  0.50041157  0.50041157  0.71425723  1
  Ni  Ni22  1  0.00273206  0.50358626  0.64303685  1
  Ni  Ni23  1  0.49832506  0.49832506  0.78577230  1
  Ni  Ni24  1  0.50428029  0.00069153  0.92754501  1
  Ni  Ni25  1  0.50128778  0.50128778  0.85680623  1
  Ni  Ni26  1  0.50507271  0.50507271  0.92756496  1
  Ni  Ni27  1  0.00069153  0.50428029  0.92754501  1
  Cu  Cu28  1  0.12622324  0.12622324  0.15955264  1
  Cu  Cu29  1  0.49951635  0.99951267  0.07141091  1
  Cu  Cu30  1  0.11961596  0.11961596  0.30507373  1
  Cu  Cu31  1  0.99951267  0.49951635  0.07141091  1
  Cu  Cu32  1  0.12355232  0.12355232  0.44662700  1
  Cu  Cu33  1  0.12781528  0.12781528  0.58925046  1
  Cu  Cu34  1  0.87443484  0.87443484  0.26755263  1
  Cu  Cu35  1  0.12510040  0.12510040  0.73171680  1
  Cu  Cu36  1  0.87440576  0.87440576  0.41100607  1
  Cu  Cu37  1  0.12480112  0.12480112  0.87522344  1
  Cu  Cu38  1  0.87558691  0.87558691  0.55361387  1
  Cu  Cu39  1  0.87662431  0.87662431  0.69656122  1
  Cu  Cu40  1  0.87852103  0.87852103  0.83789276  1
  Cu  Cu41  1  0.87300088  0.87300088  0.98325927  1
  C  C42  1  0.27768674  0.27768674  0.02811349  1
  C  C43  1  0.28125421  0.28125421  0.09990211  1
  C  C44  1  0.28004324  0.74932259  0.03200299  1
  C  C45  1  0.74932259  0.28004324  0.03200299  1
  C  C46  1  0.25885744  0.25885744  0.18269921  1
  C  C47  1  0.24978302  0.71897036  0.11082392  1
  C  C48  1  0.71897036  0.24978302  0.11082392  1
  C  C49  1  0.25357130  0.69989564  0.18296958  1
  C  C50  1  0.26144404  0.26144404  0.24460809  1
  C  C51  1  0.71776594  0.71776594  0.04291913  1
  C  C52  1  0.69989564  0.25357130  0.18296958  1
  C  C53  1  0.72143029  0.72143029  0.11469969  1
  C  C54  1  0.26640694  0.26640694  0.32356635  1
  C  C55  1  0.29872598  0.73421963  0.24730350  1
  C  C56  1  0.73421963  0.29872598  0.24730350  1
  C  C57  1  0.26637035  0.70169137  0.32369112  1
  C  C58  1  0.74003957  0.74003957  0.18252876  1
  C  C59  1  0.26619340  0.26619340  0.38616302  1
  C  C60  1  0.70169137  0.26637035  0.32369112  1
  C  C61  1  0.73057108  0.73057108  0.24807219  1
  C  C62  1  0.26604257  0.26604257  0.46636798  1
  C  C63  1  0.29730812  0.73712406  0.39033748  1
  C  C64  1  0.73712406  0.29730812  0.39033748  1
  C  C65  1  0.73412743  0.73412743  0.32785871  1
  C  C66  1  0.26545493  0.26545493  0.52896425  1
  C  C67  1  0.26567628  0.70265343  0.46650190  1
  C  C68  1  0.73383075  0.73383075  0.39073369  1
  C  C69  1  0.70265343  0.26567628  0.46650190  1
  C  C70  1  0.26743468  0.26743468  0.60972310  1
  C  C71  1  0.29691189  0.73377165  0.53362650  1
  C  C72  1  0.73377165  0.29691189  0.53362650  1
  C  C73  1  0.27091402  0.27091402  0.67176011  1
  C  C74  1  0.26859260  0.70598339  0.60921508  1
  C  C75  1  0.73201069  0.73201069  0.47108311  1
  C  C76  1  0.70598339  0.26859260  0.60921508  1
  C  C77  1  0.73531580  0.73531580  0.53317983  1
  C  C78  1  0.26593906  0.26593906  0.75193535  1
  C  C79  1  0.29942224  0.73946175  0.67605860  1
  C  C80  1  0.73946175  0.29942224  0.67605860  1
  C  C81  1  0.73787974  0.73787974  0.61390753  1
  C  C82  1  0.26455629  0.26455629  0.81498444  1
  C  C83  1  0.26131578  0.70194197  0.75263694  1
  C  C84  1  0.70194197  0.26131578  0.75263694  1
  C  C85  1  0.73418544  0.73418544  0.67707292  1
  C  C86  1  0.26851341  0.26851341  0.89477995  1
  C  C87  1  0.29680233  0.73249762  0.81927052  1
  C  C88  1  0.25911688  0.25911688  0.96030146  1
  C  C89  1  0.73249762  0.29680233  0.81927052  1
  C  C90  1  0.73091009  0.73091009  0.75676984  1
  C  C91  1  0.26509943  0.70051396  0.89553670  1
  C  C92  1  0.70051396  0.26509943  0.89553670  1
  C  C93  1  0.73283834  0.73283834  0.81907405  1
  C  C94  1  0.29927600  0.74557484  0.95986735  1
  C  C95  1  0.74557484  0.29927600  0.95986735  1
  C  C96  1  0.73772218  0.73772218  0.89825834  1
  C  C97  1  0.74030746  0.74030746  0.96013538  1
