# generated using pymatgen
data_Cu2NiC15
_symmetry_space_group_name_H-M   'P 1'
_cell_length_a   5.31640200
_cell_length_b   13.01591700
_cell_length_c   19.84334635
_cell_angle_alpha   55.68404473
_cell_angle_beta   90.00000000
_cell_angle_gamma   90.00000000
_symmetry_Int_Tables_number   1
_chemical_formula_structural   Cu2NiC15
_chemical_formula_sum   'Cu8 Ni4 C60'
_cell_volume   1134.11396433
_cell_formula_units_Z   4
loop_
 _symmetry_equiv_pos_site_id
 _symmetry_equiv_pos_as_xyz
  1  'x, y, z'
loop_
 _atom_site_type_symbol
 _atom_site_label
 _atom_site_symmetry_multiplicity
 _atom_site_fract_x
 _atom_site_fract_y
 _atom_site_fract_z
 _atom_site_occupancy
  C  C0  1  0.75975400  0.65631200  0.11705700  1
  C  C1  1  0.37635600  0.33573400  0.62952700  1
  C  C2  1  0.87635600  0.66426600  0.87047300  1
  C  C3  1  0.74024600  0.65631200  0.61705700  1
  C  C4  1  0.62364400  0.66426600  0.37047300  1
  C  C5  1  0.24024600  0.34368800  0.88294300  1
  C  C6  1  0.12364400  0.33573400  0.12952700  1
  C  C7  1  0.25975400  0.34368800  0.38294300  1
  Ni  Ni8  1  0.83747900  0.96420200  0.89027900  1
  Ni  Ni9  1  0.66252100  0.96420200  0.39027900  1
  Ni  Ni10  1  0.16252100  0.03579800  0.10972100  1
  Ni  Ni11  1  0.33747900  0.03579800  0.60972100  1
  Cu  Cu12  1  0.75619100  0.82671000  0.30742500  1
  Cu  Cu13  1  0.24380900  0.17329000  0.69257500  1
  Cu  Cu14  1  0.75079600  0.82452600  0.58111100  1
  Cu  Cu15  1  0.24920400  0.17547400  0.41888900  1
  Cu  Cu16  1  0.74380900  0.82671000  0.80742500  1
  Cu  Cu17  1  0.25619100  0.17329000  0.19257500  1
  Cu  Cu18  1  0.25079600  0.17547400  0.91888900  1
  Cu  Cu19  1  0.74920400  0.82452600  0.08111100  1
  C  C20  1  0.05157500  0.09058100  0.23867100  1
  C  C21  1  0.02527200  0.17987600  0.73279000  1
  C  C22  1  0.97472800  0.82012400  0.26721000  1
  C  C23  1  0.34035400  0.15848300  0.12276700  1
  C  C24  1  0.14300800  0.11320600  0.50749300  1
  C  C25  1  0.06053800  0.16620900  0.37106100  1
  C  C26  1  0.00620600  0.86057200  0.08081800  1
  C  C27  1  0.65964600  0.84151700  0.87723300  1
  C  C28  1  0.35699200  0.11320600  0.00749300  1
  C  C29  1  0.94842500  0.90941900  0.76132900  1
  C  C30  1  0.52527200  0.82012400  0.76721000  1
  C  C31  1  0.38412500  0.90777600  0.41518200  1
  C  C32  1  0.11587500  0.90777600  0.91518200  1
  C  C33  1  0.50620600  0.13942800  0.41918200  1
  C  C34  1  0.61587500  0.09222400  0.58481800  1
  C  C35  1  0.85699200  0.88679400  0.49250700  1
  C  C36  1  0.56053800  0.83379100  0.12893900  1
  C  C37  1  0.64300800  0.88679400  0.99250700  1
  C  C38  1  0.44842500  0.09058100  0.73867100  1
  C  C39  1  0.49379400  0.86057200  0.58081800  1
  C  C40  1  0.84035400  0.84151700  0.37723300  1
  C  C41  1  0.99379400  0.13942800  0.91918200  1
  C  C42  1  0.43946200  0.16620900  0.87106100  1
  C  C43  1  0.15964600  0.15848300  0.62276700  1
  C  C44  1  0.47472800  0.17987600  0.23279000  1
  C  C45  1  0.88412500  0.09222400  0.08481800  1
  C  C46  1  0.55157500  0.90941900  0.26132900  1
  C  C47  1  0.93946200  0.83379100  0.62893900  1
  C  C48  1  0.35372200  0.41064800  0.30663400  1
  C  C49  1  0.02636300  0.38376800  0.38283000  1
  C  C50  1  0.14627800  0.41064800  0.80663400  1
  C  C51  1  0.90880300  0.64315500  0.06742900  1
  C  C52  1  0.04704600  0.36685300  0.18051600  1
  C  C53  1  0.95295400  0.63314700  0.81948400  1
  C  C54  1  0.80163900  0.58356100  0.42107100  1
  C  C55  1  0.40880300  0.35684500  0.43257100  1
  C  C56  1  0.47363700  0.38376800  0.88283000  1
  C  C57  1  0.57349200  0.33989500  0.58550900  1
  C  C58  1  0.30163900  0.41643900  0.07892900  1
  C  C59  1  0.45295400  0.36685300  0.68051600  1
  C  C60  1  0.92650800  0.33989500  0.08550900  1
  C  C61  1  0.52636300  0.61623200  0.11717000  1
  C  C62  1  0.42650800  0.66010500  0.41449100  1
  C  C63  1  0.97363700  0.61623200  0.61717000  1
  C  C64  1  0.69836100  0.58356100  0.92107100  1
  C  C65  1  0.19836100  0.41643900  0.57892900  1
  C  C66  1  0.59119700  0.64315500  0.56742900  1
  C  C67  1  0.64627800  0.58935200  0.69336600  1
  C  C68  1  0.09119700  0.35684500  0.93257100  1
  C  C69  1  0.07349200  0.66010500  0.91449100  1
  C  C70  1  0.85372200  0.58935200  0.19336600  1
  C  C71  1  0.54704600  0.63314700  0.31948400  1
