# generated using pymatgen
data_CuNi2C5
_symmetry_space_group_name_H-M   'P 1'
_cell_length_a   6.37460900
_cell_length_b   8.97024300
_cell_length_c   9.85701000
_cell_angle_alpha   90.00000000
_cell_angle_beta   90.00000000
_cell_angle_gamma   90.00000000
_symmetry_Int_Tables_number   1
_chemical_formula_structural   CuNi2C5
_chemical_formula_sum   'Cu4 Ni8 C20'
_cell_volume   563.64149320
_cell_formula_units_Z   4
loop_
 _symmetry_equiv_pos_site_id
 _symmetry_equiv_pos_as_xyz
  1  'x, y, z'
loop_
 _atom_site_type_symbol
 _atom_site_label
 _atom_site_symmetry_multiplicity
 _atom_site_fract_x
 _atom_site_fract_y
 _atom_site_fract_z
 _atom_site_occupancy
  C  C0  1  0.50000000  0.02961300  0.85629400  1
  C  C1  1  0.50000000  0.47038700  0.35629400  1
  C  C2  1  0.50000000  0.52961300  0.64370600  1
  C  C3  1  0.50000000  0.97038700  0.14370600  1
  Ni  Ni4  1  0.28853300  0.74191100  0.46800000  1
  Ni  Ni5  1  0.71146700  0.25808900  0.53200000  1
  Ni  Ni6  1  0.28853300  0.24191100  0.03200000  1
  Ni  Ni7  1  0.28853300  0.25808900  0.53200000  1
  Ni  Ni8  1  0.71146700  0.24191100  0.03200000  1
  Ni  Ni9  1  0.71146700  0.75808900  0.96800000  1
  Ni  Ni10  1  0.28853300  0.75808900  0.96800000  1
  Ni  Ni11  1  0.71146700  0.74191100  0.46800000  1
  Cu  Cu12  1  0.00000000  0.96236300  0.71239900  1
  Cu  Cu13  1  0.00000000  0.46236300  0.78760100  1
  Cu  Cu14  1  0.00000000  0.03763700  0.28760100  1
  Cu  Cu15  1  0.00000000  0.53763700  0.21240000  1
  C  C16  1  0.00000000  0.67558300  0.08730100  1
  C  C17  1  0.23208900  0.44044400  0.19599800  1
  C  C18  1  0.00000000  0.88316100  0.87252600  1
  C  C19  1  0.00000000  0.38316100  0.62747400  1
  C  C20  1  0.00000000  0.32441700  0.91269900  1
  C  C21  1  0.23208900  0.55955600  0.80400200  1
  C  C22  1  0.00000000  0.11683900  0.12747400  1
  C  C23  1  0.23208900  0.94044400  0.30400200  1
  C  C24  1  0.00000000  0.61683900  0.37252600  1
  C  C25  1  0.23208900  0.05955600  0.69599800  1
  C  C26  1  0.76791100  0.05955600  0.69599800  1
  C  C27  1  0.00000000  0.17558300  0.41269900  1
  C  C28  1  0.76791100  0.44044400  0.19599800  1
  C  C29  1  0.00000000  0.82441700  0.58730100  1
  C  C30  1  0.76791100  0.55955600  0.80400200  1
  C  C31  1  0.76791100  0.94044400  0.30400200  1
