# generated using pymatgen
data_Cu2NiC
_symmetry_space_group_name_H-M   'P 1'
_cell_length_a   4.84239808
_cell_length_b   4.84239808
_cell_length_c   7.02282700
_cell_angle_alpha   90.00000000
_cell_angle_beta   90.00000000
_cell_angle_gamma   90.36659000
_symmetry_Int_Tables_number   1
_chemical_formula_structural   Cu2NiC
_chemical_formula_sum   'Cu4 Ni2 C2'
_cell_volume   164.67362986
_cell_formula_units_Z   2
loop_
 _symmetry_equiv_pos_site_id
 _symmetry_equiv_pos_as_xyz
  1  'x, y, z'
loop_
 _atom_site_type_symbol
 _atom_site_label
 _atom_site_symmetry_multiplicity
 _atom_site_fract_x
 _atom_site_fract_y
 _atom_site_fract_z
 _atom_site_occupancy
  C  C0  1  0.75000000  0.25000000  0.88944000  1
  C  C1  1  0.25000000  0.75000000  0.11056000  1
  Ni  Ni2  1  0.25000000  0.75000000  0.66415600  1
  Ni  Ni3  1  0.75000000  0.25000000  0.33584400  1
  Cu  Cu4  1  0.43030600  0.56969400  0.80804300  1
  Cu  Cu5  1  0.56969400  0.43030600  0.19195700  1
  Cu  Cu6  1  0.93030600  0.06969400  0.19195700  1
  Cu  Cu7  1  0.06969400  0.93030600  0.80804300  1
