# generated using pymatgen
data_CuNi2C9
_symmetry_space_group_name_H-M   'P 1'
_cell_length_a   11.38334900
_cell_length_b   10.20008300
_cell_length_c   13.17928743
_cell_angle_alpha   82.41245142
_cell_angle_beta   90.00000000
_cell_angle_gamma   90.00000000
_symmetry_Int_Tables_number   1
_chemical_formula_structural   CuNi2C9
_chemical_formula_sum   'Cu8 Ni16 C72'
_cell_volume   1516.86304684
_cell_formula_units_Z   8
loop_
 _symmetry_equiv_pos_site_id
 _symmetry_equiv_pos_as_xyz
  1  'x, y, z'
loop_
 _atom_site_type_symbol
 _atom_site_label
 _atom_site_symmetry_multiplicity
 _atom_site_fract_x
 _atom_site_fract_y
 _atom_site_fract_z
 _atom_site_occupancy
  C  C0  1  0.14886200  0.21929100  0.51197700  1
  C  C1  1  0.85113800  0.78070900  0.48802300  1
  C  C2  1  0.35113800  0.21929100  0.01197700  1
  C  C3  1  0.64886200  0.78070900  0.98802300  1
  Ni  Ni4  1  0.91383700  0.16464700  0.85526600  1
  Ni  Ni5  1  0.45701000  0.64990600  0.32736900  1
  Ni  Ni6  1  0.18491100  0.84990500  0.22444200  1
  Ni  Ni7  1  0.41383700  0.83535300  0.64473400  1
  Ni  Ni8  1  0.68491100  0.15009500  0.27555800  1
  Ni  Ni9  1  0.65215600  0.33321200  0.74553500  1
  Ni  Ni10  1  0.08616300  0.83535300  0.14473400  1
  Ni  Ni11  1  0.54299000  0.35009400  0.67263100  1
  Ni  Ni12  1  0.31508900  0.84990500  0.72444200  1
  Ni  Ni13  1  0.84784400  0.33321200  0.24553500  1
  Ni  Ni14  1  0.95701000  0.35009400  0.17263100  1
  Ni  Ni15  1  0.34784400  0.66678800  0.25446500  1
  Ni  Ni16  1  0.58616300  0.16464700  0.35526600  1
  Ni  Ni17  1  0.81508900  0.15009500  0.77555800  1
  Ni  Ni18  1  0.04299000  0.64990600  0.82736900  1
  Ni  Ni19  1  0.15215600  0.66678800  0.75446500  1
  Cu  Cu20  1  0.70356900  0.30329500  0.17590900  1
  Cu  Cu21  1  0.20356900  0.69670500  0.32409100  1
  Cu  Cu22  1  0.83827400  0.17718700  0.33839400  1
  Cu  Cu23  1  0.79643100  0.30329500  0.67590900  1
  Cu  Cu24  1  0.33827400  0.82281300  0.16160600  1
  Cu  Cu25  1  0.16172600  0.82281300  0.66160600  1
  Cu  Cu26  1  0.66172600  0.17718700  0.83839400  1
  Cu  Cu27  1  0.29643100  0.69670500  0.82409100  1
  C  C28  1  0.32120600  0.99351500  0.77569500  1
  C  C29  1  0.82120600  0.00648500  0.72430500  1
  C  C30  1  0.17879400  0.99351500  0.27569500  1
  C  C31  1  0.67879400  0.00648500  0.22430500  1
  C  C32  1  0.33548100  0.54103800  0.17943700  1
  C  C33  1  0.83548100  0.45896200  0.32056300  1
  C  C34  1  0.16451900  0.54103800  0.67943700  1
  C  C35  1  0.66451900  0.45896200  0.82056300  1
  C  C36  1  0.88063300  0.40262800  0.69104900  1
  C  C37  1  0.23063800  0.73828700  0.42109900  1
  C  C38  1  0.38063300  0.59737200  0.80895100  1
  C  C39  1  0.11936700  0.59737200  0.30895100  1
  C  C40  1  0.76936200  0.26171300  0.57890100  1
  C  C41  1  0.61936700  0.40262800  0.19104900  1
  C  C42  1  0.26936200  0.73828700  0.92109900  1
  C  C43  1  0.73063800  0.26171300  0.07890100  1
  C  C44  1  0.93869000  0.81535000  0.59555700  1
  C  C45  1  0.81230200  0.95366300  0.46635700  1
  C  C46  1  0.47138500  0.75645300  0.37706300  1
  C  C47  1  0.93719300  0.45786400  0.10293600  1
  C  C48  1  0.05556100  0.36855900  0.22443100  1
  C  C49  1  0.60737900  0.27463800  0.40071500  1
  C  C50  1  0.02465900  0.18214100  0.59153000  1
  C  C51  1  0.31230200  0.04633700  0.03364300  1
  C  C52  1  0.39249800  0.38686900  0.98961700  1
  C  C53  1  0.22956700  0.24788200  0.92932300  1
  C  C54  1  0.51891500  0.82353300  0.69127700  1
  C  C55  1  0.18769800  0.04633700  0.53364300  1
  C  C56  1  0.08412900  0.94077900  0.07155500  1
  C  C57  1  0.60750200  0.61313100  0.01038300  1
  C  C58  1  0.01891500  0.17646700  0.80872300  1
  C  C59  1  0.06280700  0.54213600  0.89706400  1
  C  C60  1  0.98108500  0.82353300  0.19127700  1
  C  C61  1  0.39262100  0.72536200  0.59928500  1
  C  C62  1  0.48108500  0.17646700  0.30872300  1
  C  C63  1  0.52861500  0.24354700  0.62293700  1
  C  C64  1  0.91587100  0.05922100  0.92844500  1
  C  C65  1  0.40701200  0.92763000  0.21614700  1
  C  C66  1  0.72956700  0.75211800  0.57067700  1
  C  C67  1  0.90701200  0.07237000  0.28385300  1
  C  C68  1  0.76548300  0.75110500  0.38160400  1
  C  C69  1  0.97138500  0.24354700  0.12293700  1
  C  C70  1  0.55556100  0.63144100  0.27556900  1
  C  C71  1  0.43869000  0.18465000  0.90444300  1
  C  C72  1  0.10737900  0.72536200  0.09928500  1
  C  C73  1  0.59298800  0.07237000  0.78385300  1
  C  C74  1  0.10750200  0.38686900  0.48961700  1
  C  C75  1  0.43719300  0.54213600  0.39706400  1
  C  C76  1  0.47534100  0.18214100  0.09153000  1
  C  C77  1  0.56280700  0.45786400  0.60293600  1
  C  C78  1  0.09298800  0.92763000  0.71614700  1
  C  C79  1  0.27043300  0.24788200  0.42932300  1
  C  C80  1  0.94443900  0.63144100  0.77556900  1
  C  C81  1  0.77043300  0.75211800  0.07067700  1
  C  C82  1  0.23451700  0.24889500  0.61839600  1
  C  C83  1  0.26548300  0.24889500  0.11839600  1
  C  C84  1  0.56131000  0.81535000  0.09555700  1
  C  C85  1  0.52465900  0.81785900  0.90847000  1
  C  C86  1  0.41587100  0.94077900  0.57155500  1
  C  C87  1  0.73451700  0.75110500  0.88160400  1
  C  C88  1  0.68769800  0.95366300  0.96635700  1
  C  C89  1  0.58412900  0.05922100  0.42844500  1
  C  C90  1  0.44443900  0.36855900  0.72443100  1
  C  C91  1  0.89262100  0.27463800  0.90071500  1
  C  C92  1  0.06131000  0.18465000  0.40444300  1
  C  C93  1  0.89249800  0.61313100  0.51038300  1
  C  C94  1  0.97534100  0.81785900  0.40847000  1
  C  C95  1  0.02861500  0.75645300  0.87706300  1
