# generated using pymatgen
data_Cu3NiC10
_symmetry_space_group_name_H-M   'P 1'
_cell_length_a   7.44132800
_cell_length_b   12.84561900
_cell_length_c   13.78132300
_cell_angle_alpha   90.00000000
_cell_angle_beta   90.00000000
_cell_angle_gamma   90.00000000
_symmetry_Int_Tables_number   1
_chemical_formula_structural   Cu3NiC10
_chemical_formula_sum   'Cu24 Ni8 C80'
_cell_volume   1317.33550217
_cell_formula_units_Z   8
loop_
 _symmetry_equiv_pos_site_id
 _symmetry_equiv_pos_as_xyz
  1  'x, y, z'
loop_
 _atom_site_type_symbol
 _atom_site_label
 _atom_site_symmetry_multiplicity
 _atom_site_fract_x
 _atom_site_fract_y
 _atom_site_fract_z
 _atom_site_occupancy
  C  C0  1  0.50135100  0.10174500  0.07082100  1
  C  C1  1  0.50135100  0.10174500  0.42917900  1
  C  C2  1  0.00135100  0.39825500  0.57082100  1
  C  C3  1  0.99864900  0.60174500  0.42917900  1
  C  C4  1  0.49864900  0.89825500  0.92917900  1
  C  C5  1  0.99864900  0.60174500  0.07082100  1
  C  C6  1  0.49864900  0.89825500  0.57082100  1
  C  C7  1  0.00135100  0.39825500  0.92917900  1
  Ni  Ni8  1  0.65607400  0.50537400  0.49966000  1
  Ni  Ni9  1  0.65607400  0.50537400  0.00034000  1
  Ni  Ni10  1  0.15607400  0.99462600  0.99966000  1
  Ni  Ni11  1  0.84392600  0.00537400  0.00034000  1
  Ni  Ni12  1  0.34392600  0.49462600  0.50034000  1
  Ni  Ni13  1  0.34392600  0.49462600  0.99966000  1
  Ni  Ni14  1  0.84392600  0.00537400  0.49966000  1
  Ni  Ni15  1  0.15607400  0.99462600  0.50034000  1
  Cu  Cu16  1  0.98397200  0.84085700  0.86193800  1
  Cu  Cu17  1  0.48397200  0.65914300  0.13806200  1
  Cu  Cu18  1  0.19394300  0.83207600  0.36215400  1
  Cu  Cu19  1  0.30605700  0.33207600  0.13784600  1
  Cu  Cu20  1  0.80605700  0.16792400  0.86215400  1
  Cu  Cu21  1  0.26916500  0.65657300  0.86337400  1
  Cu  Cu22  1  0.73083500  0.34342700  0.13662600  1
  Cu  Cu23  1  0.73083500  0.34342700  0.36337400  1
  Cu  Cu24  1  0.26916500  0.65657300  0.63662600  1
  Cu  Cu25  1  0.01602800  0.15914300  0.36193800  1
  Cu  Cu26  1  0.80605700  0.16792400  0.63784600  1
  Cu  Cu27  1  0.98397200  0.84085700  0.63806200  1
  Cu  Cu28  1  0.69394300  0.66792400  0.86215400  1
  Cu  Cu29  1  0.76916500  0.84342700  0.36337400  1
  Cu  Cu30  1  0.23083500  0.15657300  0.63662600  1
  Cu  Cu31  1  0.51602800  0.34085700  0.63806200  1
  Cu  Cu32  1  0.01602800  0.15914300  0.13806200  1
  Cu  Cu33  1  0.51602800  0.34085700  0.86193800  1
  Cu  Cu34  1  0.30605700  0.33207600  0.36215400  1
  Cu  Cu35  1  0.19394300  0.83207600  0.13784600  1
  Cu  Cu36  1  0.48397200  0.65914300  0.36193800  1
  Cu  Cu37  1  0.76916500  0.84342700  0.13662600  1
  Cu  Cu38  1  0.23083500  0.15657300  0.86337400  1
  Cu  Cu39  1  0.69394300  0.66792400  0.63784600  1
  C  C40  1  0.11682700  0.50881400  0.25000000  1
  C  C41  1  0.88317300  0.49118600  0.75000000  1
  C  C42  1  0.38317300  0.00881400  0.25000000  1
  C  C43  1  0.58858800  0.00159200  0.25000000  1
  C  C44  1  0.91141200  0.50159200  0.25000000  1
  C  C45  1  0.08858800  0.49840800  0.75000000  1
  C  C46  1  0.61682700  0.99118600  0.75000000  1
  C  C47  1  0.41141200  0.99840800  0.75000000  1
  C  C48  1  0.77170300  0.58471000  0.56216100  1
  C  C49  1  0.28929100  0.71711300  0.37659700  1
  C  C50  1  0.76559200  0.38123000  0.25000000  1
  C  C51  1  0.27170300  0.91529000  0.06216100  1
  C  C52  1  0.23440800  0.61877000  0.75000000  1
  C  C53  1  0.49948800  0.61850900  0.25000000  1
  C  C54  1  0.47882400  0.69611900  0.87480700  1
  C  C55  1  0.76841700  0.12730600  0.75000000  1
  C  C56  1  0.00051200  0.11850900  0.25000000  1
  C  C57  1  0.73158300  0.62730600  0.75000000  1
  C  C58  1  0.71070900  0.28288700  0.87659700  1
  C  C59  1  0.34948700  0.26175000  0.88447300  1
  C  C60  1  0.97882400  0.80388100  0.37480700  1
  C  C61  1  0.50659900  0.43897400  0.93445700  1
  C  C62  1  0.84948700  0.23825000  0.38447300  1
  C  C63  1  0.28808500  0.06497500  0.56363100  1
  C  C64  1  0.00659900  0.06102600  0.06554300  1
  C  C65  1  0.97882400  0.80388100  0.12519300  1
  C  C66  1  0.72829700  0.08471000  0.56216100  1
  C  C67  1  0.99948800  0.88149100  0.75000000  1
  C  C68  1  0.02117600  0.19611900  0.62519300  1
  C  C69  1  0.02117600  0.19611900  0.87480700  1
  C  C70  1  0.22829700  0.41529000  0.43783900  1
  C  C71  1  0.72829700  0.08471000  0.93783900  1
  C  C72  1  0.28808500  0.06497500  0.93636900  1
  C  C73  1  0.50659900  0.43897400  0.56554300  1
  C  C74  1  0.49054900  0.05336500  0.25000000  1
  C  C75  1  0.34948700  0.26175000  0.61552700  1
  C  C76  1  0.78808500  0.43502500  0.43636900  1
  C  C77  1  0.71070900  0.28288700  0.62340300  1
  C  C78  1  0.99054900  0.44663500  0.75000000  1
  C  C79  1  0.47882400  0.69611900  0.62519300  1
  C  C80  1  0.52117600  0.30388100  0.12519300  1
  C  C81  1  0.22829700  0.41529000  0.06216100  1
  C  C82  1  0.23158300  0.87269400  0.25000000  1
  C  C83  1  0.77170300  0.58471000  0.93783900  1
  C  C84  1  0.99340100  0.93897400  0.56554300  1
  C  C85  1  0.78808500  0.43502500  0.06363100  1
  C  C86  1  0.15051300  0.76175000  0.61552700  1
  C  C87  1  0.21070900  0.21711300  0.37659700  1
  C  C88  1  0.73440800  0.88123000  0.25000000  1
  C  C89  1  0.49340100  0.56102600  0.06554300  1
  C  C90  1  0.78929100  0.78288700  0.87659700  1
  C  C91  1  0.65051300  0.73825000  0.11552700  1
  C  C92  1  0.50945100  0.94663500  0.75000000  1
  C  C93  1  0.21191500  0.56497500  0.56363100  1
  C  C94  1  0.27170300  0.91529000  0.43783900  1
  C  C95  1  0.26841700  0.37269400  0.25000000  1
  C  C96  1  0.21191500  0.56497500  0.93636900  1
  C  C97  1  0.00659900  0.06102600  0.43445700  1
  C  C98  1  0.78929100  0.78288700  0.62340300  1
  C  C99  1  0.71191500  0.93502500  0.06363100  1
  C  C100  1  0.28929100  0.71711300  0.12340300  1
  C  C101  1  0.52117600  0.30388100  0.37480700  1
  C  C102  1  0.00945100  0.55336500  0.25000000  1
  C  C103  1  0.49340100  0.56102600  0.43445700  1
  C  C104  1  0.65051300  0.73825000  0.38447300  1
  C  C105  1  0.21070900  0.21711300  0.12340300  1
  C  C106  1  0.50051200  0.38149100  0.75000000  1
  C  C107  1  0.71191500  0.93502500  0.43636900  1
  C  C108  1  0.15051300  0.76175000  0.88447300  1
  C  C109  1  0.99340100  0.93897400  0.93445700  1
  C  C110  1  0.84948700  0.23825000  0.11552700  1
  C  C111  1  0.26559200  0.11877000  0.75000000  1
