# generated using pymatgen
data_Cu4NiC2
_symmetry_space_group_name_H-M   'P 1'
_cell_length_a   7.67334700
_cell_length_b   7.67334700
_cell_length_c   12.25078500
_cell_angle_alpha   90.00000000
_cell_angle_beta   90.00000000
_cell_angle_gamma   90.00000000
_symmetry_Int_Tables_number   1
_chemical_formula_structural   Cu4NiC2
_chemical_formula_sum   'Cu16 Ni4 C8'
_cell_volume   721.32933473
_cell_formula_units_Z   4
loop_
 _symmetry_equiv_pos_site_id
 _symmetry_equiv_pos_as_xyz
  1  'x, y, z'
loop_
 _atom_site_type_symbol
 _atom_site_label
 _atom_site_symmetry_multiplicity
 _atom_site_fract_x
 _atom_site_fract_y
 _atom_site_fract_z
 _atom_site_occupancy
  C  C0  1  0.00000000  0.50000000  0.25000000  1
  C  C1  1  0.00000000  0.50000000  0.00000000  1
  C  C2  1  0.00000000  0.50000000  0.75000000  1
  C  C3  1  0.50000000  0.00000000  0.50000000  1
  C  C4  1  0.50000000  0.00000000  0.00000000  1
  C  C5  1  0.50000000  0.00000000  0.75000000  1
  C  C6  1  0.00000000  0.50000000  0.50000000  1
  C  C7  1  0.50000000  0.00000000  0.25000000  1
  Ni  Ni8  1  0.00000000  0.00000000  0.12903900  1
  Ni  Ni9  1  0.50000000  0.50000000  0.37096100  1
  Ni  Ni10  1  0.50000000  0.50000000  0.62903900  1
  Ni  Ni11  1  0.00000000  0.00000000  0.87096100  1
  Cu  Cu12  1  0.65800700  0.16181100  0.62483600  1
  Cu  Cu13  1  0.34199300  0.16181100  0.37516400  1
  Cu  Cu14  1  0.65800700  0.83818900  0.37516400  1
  Cu  Cu15  1  0.84199300  0.33818900  0.87516400  1
  Cu  Cu16  1  0.83818900  0.65800700  0.62483600  1
  Cu  Cu17  1  0.66181100  0.84199300  0.87516400  1
  Cu  Cu18  1  0.83818900  0.34199300  0.37516400  1
  Cu  Cu19  1  0.84199300  0.66181100  0.12483600  1
  Cu  Cu20  1  0.16181100  0.65800700  0.37516400  1
  Cu  Cu21  1  0.15800700  0.33818900  0.12483600  1
  Cu  Cu22  1  0.16181100  0.34199300  0.62483600  1
  Cu  Cu23  1  0.33818900  0.84199300  0.12483600  1
  Cu  Cu24  1  0.34199300  0.83818900  0.62483600  1
  Cu  Cu25  1  0.15800700  0.66181100  0.87516400  1
  Cu  Cu26  1  0.33818900  0.15800700  0.87516400  1
  Cu  Cu27  1  0.66181100  0.15800700  0.12483600  1
