# generated using pymatgen
data_Cu2NiC3
_symmetry_space_group_name_H-M   'P 1'
_cell_length_a   8.03896365
_cell_length_b   8.03896365
_cell_length_c   7.31767900
_cell_angle_alpha   90.00000000
_cell_angle_beta   90.00000000
_cell_angle_gamma   122.91307356
_symmetry_Int_Tables_number   1
_chemical_formula_structural   Cu2NiC3
_chemical_formula_sum   'Cu4 Ni2 C6'
_cell_volume   397.00142510
_cell_formula_units_Z   2
loop_
 _symmetry_equiv_pos_site_id
 _symmetry_equiv_pos_as_xyz
  1  'x, y, z'
loop_
 _atom_site_type_symbol
 _atom_site_label
 _atom_site_symmetry_multiplicity
 _atom_site_fract_x
 _atom_site_fract_y
 _atom_site_fract_z
 _atom_site_occupancy
  C  C0  1  0.50579500  0.18249700  0.22978200  1
  C  C1  1  0.18249700  0.50579500  0.22978200  1
  C  C2  1  0.81750300  0.49420500  0.72978200  1
  C  C3  1  0.49420500  0.81750300  0.72978200  1
  C  C4  1  0.02443700  0.02443700  0.58580600  1
  C  C5  1  0.97556300  0.97556300  0.08580600  1
  Ni  Ni6  1  0.20293200  0.20293200  0.31487300  1
  Ni  Ni7  1  0.79706800  0.79706800  0.81487300  1
  Cu  Cu8  1  0.45645000  0.13801200  0.83277800  1
  Cu  Cu9  1  0.13801200  0.45645000  0.83277800  1
  Cu  Cu10  1  0.54355000  0.86198800  0.33277800  1
  Cu  Cu11  1  0.86198800  0.54355000  0.33277800  1
