# generated using pymatgen
data_Cu(NiC2)2
_symmetry_space_group_name_H-M   'P 1'
_cell_length_a   5.81204136
_cell_length_b   5.81204142
_cell_length_c   23.37140860
_cell_angle_alpha   60.17428620
_cell_angle_beta   60.17428589
_cell_angle_gamma   60.00000410
_symmetry_Int_Tables_number   1
_chemical_formula_structural   Cu(NiC2)2
_chemical_formula_sum   'Cu8 Ni16 C32'
_cell_volume   559.71425539
_cell_formula_units_Z   8
loop_
 _symmetry_equiv_pos_site_id
 _symmetry_equiv_pos_as_xyz
  1  'x, y, z'
loop_
 _atom_site_type_symbol
 _atom_site_label
 _atom_site_symmetry_multiplicity
 _atom_site_fract_x
 _atom_site_fract_y
 _atom_site_fract_z
 _atom_site_occupancy
  Ni  Ni0  1  0.00674184  0.49617817  0.12522545  1
  Ni  Ni1  1  0.49617817  0.49617817  0.12522545  1
  Ni  Ni2  1  0.00161869  0.49596031  0.37661517  1
  Ni  Ni3  1  0.49617817  0.00674184  0.12522545  1
  Ni  Ni4  1  0.49596031  0.49596031  0.37661517  1
  Ni  Ni5  1  0.00035583  0.50103047  0.62439581  1
  Ni  Ni6  1  0.88079041  0.88079041  0.21440719  1
  Ni  Ni7  1  0.50031204  0.50031204  0.49976597  1
  Ni  Ni8  1  0.49596031  0.00161869  0.37661517  1
  Ni  Ni9  1  0.50103047  0.50103047  0.62439581  1
  Ni  Ni10  1  0.00801098  0.49905922  0.87346765  1
  Ni  Ni11  1  0.50287778  0.50287778  0.74784166  1
  Ni  Ni12  1  0.50103047  0.00035583  0.62439581  1
  Ni  Ni13  1  0.49905922  0.49905922  0.87346765  1
  Ni  Ni14  1  0.49905922  0.00801098  0.87346765  1
  Ni  Ni15  1  0.87763831  0.87763831  0.96677127  1
  Cu  Cu16  1  0.12425916  0.12425916  0.03180563  1
  Cu  Cu17  1  0.12065108  0.12065108  0.28451169  1
  Cu  Cu18  1  0.49936925  0.49936925  0.00047306  1
  Cu  Cu19  1  0.49668151  0.49668151  0.25248887  1
  Cu  Cu20  1  0.12323272  0.12323272  0.53257546  1
  Cu  Cu21  1  0.12746883  0.12746883  0.77939838  1
  Cu  Cu22  1  0.87777280  0.87777280  0.46667040  1
  Cu  Cu23  1  0.87228913  0.87228913  0.72078315  1
  C  C24  1  0.25053593  0.25053593  0.07293889  1
  C  C25  1  0.26046530  0.26046530  0.17965103  1
  C  C26  1  0.25053593  0.70717259  0.07293889  1
  C  C27  1  0.70717259  0.25053593  0.07293889  1
  C  C28  1  0.24553698  0.24553698  0.32492923  1
  C  C29  1  0.26926782  0.75464707  0.18035951  1
  C  C30  1  0.75464707  0.26926782  0.18035951  1
  C  C31  1  0.26134070  0.26134070  0.42899447  1
  C  C32  1  0.74458568  0.74458568  0.06656074  1
  C  C33  1  0.24553698  0.70920910  0.32492923  1
  C  C34  1  0.75464707  0.75464707  0.18035951  1
  C  C35  1  0.70920910  0.24553698  0.32492923  1
  C  C36  1  0.26621377  0.26621377  0.56586170  1
  C  C37  1  0.30341189  0.73249835  0.43289785  1
  C  C38  1  0.75128197  0.75128197  0.31153852  1
  C  C39  1  0.73249835  0.30341189  0.43289785  1
  C  C40  1  0.26712737  0.26712737  0.67465447  1
  C  C41  1  0.26621377  0.70412565  0.56586170  1
  C  C42  1  0.73249835  0.73249835  0.43289785  1
  C  C43  1  0.70412565  0.26621377  0.56586170  1
  C  C44  1  0.26887296  0.26887296  0.81461301  1
  C  C45  1  0.29705821  0.73598352  0.68274368  1
  C  C46  1  0.73597342  0.73597342  0.57301993  1
  C  C47  1  0.26639441  0.26639441  0.92520419  1
  C  C48  1  0.73598352  0.29705821  0.68274368  1
  C  C49  1  0.26887296  0.70380206  0.81461301  1
  C  C50  1  0.73598352  0.73598352  0.68274368  1
  C  C51  1  0.70380206  0.26887296  0.81461301  1
  C  C52  1  0.25983736  0.75922148  0.93042992  1
  C  C53  1  0.72739963  0.72739963  0.82945027  1
  C  C54  1  0.75922148  0.25983736  0.93042992  1
  C  C55  1  0.75922148  0.75922148  0.93042992  1
