# generated using pymatgen
data_Cu3NiC
_symmetry_space_group_name_H-M   'P 1'
_cell_length_a   15.31653200
_cell_length_b   4.30029100
_cell_length_c   17.29398677
_cell_angle_alpha   87.40213221
_cell_angle_beta   90.00000000
_cell_angle_gamma   90.00000000
_symmetry_Int_Tables_number   1
_chemical_formula_structural   Cu3NiC
_chemical_formula_sum   'Cu24 Ni8 C8'
_cell_volume   1137.90717979
_cell_formula_units_Z   8
loop_
 _symmetry_equiv_pos_site_id
 _symmetry_equiv_pos_as_xyz
  1  'x, y, z'
loop_
 _atom_site_type_symbol
 _atom_site_label
 _atom_site_symmetry_multiplicity
 _atom_site_fract_x
 _atom_site_fract_y
 _atom_site_fract_z
 _atom_site_occupancy
  C  C0  1  0.28673000  0.73547800  0.67286700  1
  C  C1  1  0.21327000  0.73547800  0.17286700  1
  C  C2  1  0.71327000  0.26452200  0.32713300  1
  C  C3  1  0.78673000  0.26452200  0.82713300  1
  C  C4  1  0.87095000  0.29982300  0.09104600  1
  C  C5  1  0.12905000  0.70017700  0.90895400  1
  C  C6  1  0.62905000  0.29982300  0.59104600  1
  C  C7  1  0.37095000  0.70017700  0.40895400  1
  Ni  Ni8  1  0.87366900  0.73070200  0.52577300  1
  Ni  Ni9  1  0.62633100  0.73070200  0.02577300  1
  Ni  Ni10  1  0.37366900  0.26929800  0.97422700  1
  Ni  Ni11  1  0.97426400  0.75359200  0.29654300  1
  Ni  Ni12  1  0.47426400  0.24640800  0.20345700  1
  Ni  Ni13  1  0.02573600  0.24640800  0.70345700  1
  Ni  Ni14  1  0.12633100  0.26929800  0.47422700  1
  Ni  Ni15  1  0.52573600  0.75359200  0.79654300  1
  Cu  Cu16  1  0.52942000  0.66386000  0.30257400  1
  Cu  Cu17  1  0.02942000  0.33614000  0.19742600  1
  Cu  Cu18  1  0.97058000  0.66386000  0.80257400  1
  Cu  Cu19  1  0.17075600  0.73075500  0.37334300  1
  Cu  Cu20  1  0.82924400  0.26924500  0.62665700  1
  Cu  Cu21  1  0.91871500  0.31994400  0.40831500  1
  Cu  Cu22  1  0.08128500  0.68005600  0.59168500  1
  Cu  Cu23  1  0.79457000  0.79080000  0.98489700  1
  Cu  Cu24  1  0.32924400  0.73075500  0.87334300  1
  Cu  Cu25  1  0.70543000  0.79080000  0.48489700  1
  Cu  Cu26  1  0.67075600  0.26924500  0.12665700  1
  Cu  Cu27  1  0.41871500  0.68005600  0.09168500  1
  Cu  Cu28  1  0.01334300  0.81965100  0.05896000  1
  Cu  Cu29  1  0.17251000  0.21160800  0.78946700  1
  Cu  Cu30  1  0.47058000  0.33614000  0.69742600  1
  Cu  Cu31  1  0.32749000  0.21160800  0.28946700  1
  Cu  Cu32  1  0.58128500  0.31994400  0.90831500  1
  Cu  Cu33  1  0.82749000  0.78839200  0.21053300  1
  Cu  Cu34  1  0.67251000  0.78839200  0.71053300  1
  Cu  Cu35  1  0.20543000  0.20920000  0.01510300  1
  Cu  Cu36  1  0.98665700  0.18034900  0.94104000  1
  Cu  Cu37  1  0.48665700  0.81965100  0.55896000  1
  Cu  Cu38  1  0.51334300  0.18034900  0.44104000  1
  Cu  Cu39  1  0.29457000  0.20920000  0.51510300  1
