# generated using pymatgen
data_CuNiC13
_symmetry_space_group_name_H-M   'P 1'
_cell_length_a   7.72239500
_cell_length_b   7.82897500
_cell_length_c   15.83312000
_cell_angle_alpha   90.00000000
_cell_angle_beta   90.00000000
_cell_angle_gamma   90.00000000
_symmetry_Int_Tables_number   1
_chemical_formula_structural   CuNiC13
_chemical_formula_sum   'Cu4 Ni4 C52'
_cell_volume   957.24569429
_cell_formula_units_Z   4
loop_
 _symmetry_equiv_pos_site_id
 _symmetry_equiv_pos_as_xyz
  1  'x, y, z'
loop_
 _atom_site_type_symbol
 _atom_site_label
 _atom_site_symmetry_multiplicity
 _atom_site_fract_x
 _atom_site_fract_y
 _atom_site_fract_z
 _atom_site_occupancy
  Ni  Ni0  1  0.75000000  0.14099400  0.14576300  1
  Ni  Ni1  1  0.25000000  0.85900600  0.85423700  1
  Ni  Ni2  1  0.75000000  0.64099400  0.35423700  1
  Ni  Ni3  1  0.25000000  0.35900600  0.64576300  1
  Cu  Cu4  1  0.75000000  0.06232500  0.77658200  1
  Cu  Cu5  1  0.25000000  0.43767500  0.27658200  1
  Cu  Cu6  1  0.75000000  0.56232500  0.72341800  1
  Cu  Cu7  1  0.25000000  0.93767500  0.22341800  1
  C  C8  1  0.00067600  0.11032900  0.39853700  1
  C  C9  1  0.75000000  0.73750700  0.94401400  1
  C  C10  1  0.50067600  0.88967100  0.60146300  1
  C  C11  1  0.25000000  0.76249300  0.44401400  1
  C  C12  1  0.49932400  0.11032900  0.39853700  1
  C  C13  1  0.25000000  0.26249300  0.05598600  1
  C  C14  1  0.99932400  0.88967100  0.60146300  1
  C  C15  1  0.75000000  0.23750700  0.55598600  1
  C  C16  1  0.99932400  0.38967100  0.89853700  1
  C  C17  1  0.00067600  0.61032900  0.10146300  1
  C  C18  1  0.49932400  0.61032900  0.10146300  1
  C  C19  1  0.50067600  0.38967100  0.89853700  1
  C  C20  1  0.98615600  0.65572500  0.96401000  1
  C  C21  1  0.51384400  0.65572500  0.96401000  1
  C  C22  1  0.46697600  0.49603900  0.80235300  1
  C  C23  1  0.47101200  0.82274800  0.13113000  1
  C  C24  1  0.75000000  0.44127000  0.91151200  1
  C  C25  1  0.03302400  0.99603900  0.69764700  1
  C  C26  1  0.48615600  0.84427500  0.46401000  1
  C  C27  1  0.75000000  0.27898700  0.66622700  1
  C  C28  1  0.75000000  0.43732800  0.50945700  1
  C  C29  1  0.03302400  0.49603900  0.80235300  1
  C  C30  1  0.75000000  0.61427500  0.07321700  1
  C  C31  1  0.75000000  0.94127000  0.58848800  1
  C  C32  1  0.53302400  0.00396100  0.30235300  1
  C  C33  1  0.02898800  0.32274800  0.36887000  1
  C  C34  1  0.97101200  0.17725200  0.86887000  1
  C  C35  1  0.75000000  0.93732800  0.99054300  1
  C  C36  1  0.53302400  0.50396100  0.19764700  1
  C  C37  1  0.51384400  0.15572500  0.53599000  1
  C  C38  1  0.02898800  0.82274800  0.13113000  1
  C  C39  1  0.96697600  0.00396100  0.30235300  1
  C  C40  1  0.52898800  0.17725200  0.86887000  1
  C  C41  1  0.25000000  0.55873000  0.08848800  1
  C  C42  1  0.48615600  0.34427500  0.03599000  1
  C  C43  1  0.01384400  0.34427500  0.03599000  1
  C  C44  1  0.25000000  0.06267200  0.00945700  1
  C  C45  1  0.25000000  0.72101300  0.33377300  1
  C  C46  1  0.25000000  0.22101300  0.16622700  1
  C  C47  1  0.96697600  0.50396100  0.19764700  1
  C  C48  1  0.75000000  0.77898700  0.83377300  1
  C  C49  1  0.98615600  0.15572500  0.53599000  1
  C  C50  1  0.25000000  0.05873000  0.41151200  1
  C  C51  1  0.47101200  0.32274800  0.36887000  1
  C  C52  1  0.01384400  0.84427500  0.46401000  1
  C  C53  1  0.75000000  0.11427500  0.42678300  1
  C  C54  1  0.25000000  0.88572500  0.57321700  1
  C  C55  1  0.25000000  0.38572500  0.92678300  1
  C  C56  1  0.25000000  0.56267200  0.49054300  1
  C  C57  1  0.52898800  0.67725200  0.63113000  1
  C  C58  1  0.97101200  0.67725200  0.63113000  1
  C  C59  1  0.46697600  0.99603900  0.69764700  1
