# generated using pymatgen
data_Cu3Ni4C5
_symmetry_space_group_name_H-M   'P 1'
_cell_length_a   6.11676100
_cell_length_b   9.79884900
_cell_length_c   10.42896750
_cell_angle_alpha   69.52138002
_cell_angle_beta   90.00000000
_cell_angle_gamma   90.00000000
_symmetry_Int_Tables_number   1
_chemical_formula_structural   Cu3Ni4C5
_chemical_formula_sum   'Cu6 Ni8 C10'
_cell_volume   585.57978123
_cell_formula_units_Z   2
loop_
 _symmetry_equiv_pos_site_id
 _symmetry_equiv_pos_as_xyz
  1  'x, y, z'
loop_
 _atom_site_type_symbol
 _atom_site_label
 _atom_site_symmetry_multiplicity
 _atom_site_fract_x
 _atom_site_fract_y
 _atom_site_fract_z
 _atom_site_occupancy
  C  C0  1  0.75000000  0.40008400  0.17706900  1
  C  C1  1  0.75000000  0.87219500  0.94357200  1
  C  C2  1  0.25000000  0.59991600  0.82293100  1
  C  C3  1  0.25000000  0.12780500  0.05642800  1
  C  C4  1  0.25000000  0.59263900  0.36822700  1
  C  C5  1  0.75000000  0.88405400  0.47241100  1
  C  C6  1  0.25000000  0.11594600  0.52758900  1
  C  C7  1  0.75000000  0.40736100  0.63177300  1
  C  C8  1  0.75000000  0.30743000  0.88189000  1
  C  C9  1  0.25000000  0.69257000  0.11811000  1
  Ni  Ni10  1  0.75000000  0.58011900  0.39237600  1
  Ni  Ni11  1  0.75000000  0.16234300  0.53260100  1
  Ni  Ni12  1  0.25000000  0.98106400  0.76614500  1
  Ni  Ni13  1  0.25000000  0.83765700  0.46739900  1
  Ni  Ni14  1  0.75000000  0.01893600  0.23385500  1
  Ni  Ni15  1  0.25000000  0.41988100  0.60762400  1
  Ni  Ni16  1  0.25000000  0.27680200  0.29316700  1
  Ni  Ni17  1  0.75000000  0.72319800  0.70683300  1
  Cu  Cu18  1  0.25000000  0.85247600  0.08060800  1
  Cu  Cu19  1  0.45054500  0.64017500  0.06859700  1
  Cu  Cu20  1  0.75000000  0.14752400  0.91939200  1
  Cu  Cu21  1  0.54945500  0.35982500  0.93140300  1
  Cu  Cu22  1  0.95054500  0.35982500  0.93140300  1
  Cu  Cu23  1  0.04945500  0.64017500  0.06859700  1
