# generated using pymatgen
data_Cu4Ni5C6
_symmetry_space_group_name_H-M   'P 1'
_cell_length_a   9.90377000
_cell_length_b   14.33676000
_cell_length_c   21.48499900
_cell_angle_alpha   90.00000000
_cell_angle_beta   90.00000000
_cell_angle_gamma   90.00000000
_symmetry_Int_Tables_number   1
_chemical_formula_structural   Cu4Ni5C6
_chemical_formula_sum   'Cu32 Ni40 C48'
_cell_volume   3050.61147049
_cell_formula_units_Z   8
loop_
 _symmetry_equiv_pos_site_id
 _symmetry_equiv_pos_as_xyz
  1  'x, y, z'
loop_
 _atom_site_type_symbol
 _atom_site_label
 _atom_site_symmetry_multiplicity
 _atom_site_fract_x
 _atom_site_fract_y
 _atom_site_fract_z
 _atom_site_occupancy
  C  C0  1  0.94445900  0.25000000  0.37048600  1
  C  C1  1  0.05554100  0.75000000  0.62951400  1
  C  C2  1  0.44445900  0.25000000  0.12951400  1
  C  C3  1  0.46633300  0.75000000  0.38075200  1
  C  C4  1  0.96633300  0.75000000  0.11924800  1
  C  C5  1  0.03366700  0.25000000  0.88075200  1
  C  C6  1  0.55554100  0.75000000  0.87048600  1
  C  C7  1  0.53366700  0.25000000  0.61924800  1
  C  C8  1  0.41233800  0.39481000  0.36871000  1
  C  C9  1  0.57204700  0.89355600  0.04655800  1
  C  C10  1  0.91233800  0.10519000  0.13129000  1
  C  C11  1  0.51860000  0.10163300  0.82207200  1
  C  C12  1  0.01860000  0.39836700  0.67792800  1
  C  C13  1  0.07204700  0.89355600  0.45344200  1
  C  C14  1  0.41233800  0.10519000  0.36871000  1
  C  C15  1  0.08766200  0.60519000  0.86871000  1
  C  C16  1  0.19921100  0.50979900  0.97944900  1
  C  C17  1  0.19921100  0.99020100  0.97944900  1
  C  C18  1  0.92795300  0.39355600  0.54655800  1
  C  C19  1  0.69921100  0.99020100  0.52055100  1
  C  C20  1  0.57204700  0.60644400  0.04655800  1
  C  C21  1  0.08766200  0.89481000  0.86871000  1
  C  C22  1  0.79489000  0.96929400  0.72806100  1
  C  C23  1  0.30078900  0.49020100  0.47944900  1
  C  C24  1  0.42795300  0.39355600  0.95344200  1
  C  C25  1  0.42795300  0.10644400  0.95344200  1
  C  C26  1  0.70511000  0.03070600  0.22806100  1
  C  C27  1  0.58766200  0.60519000  0.63129000  1
  C  C28  1  0.01860000  0.10163300  0.67792800  1
  C  C29  1  0.51860000  0.39836700  0.82207200  1
  C  C30  1  0.20511000  0.46929400  0.27193900  1
  C  C31  1  0.98140000  0.60163300  0.32207200  1
  C  C32  1  0.91233800  0.39481000  0.13129000  1
  C  C33  1  0.80078900  0.00979900  0.02055100  1
  C  C34  1  0.48140000  0.89836700  0.17792800  1
  C  C35  1  0.07204700  0.60644400  0.45344200  1
  C  C36  1  0.70511000  0.46929400  0.22806100  1
  C  C37  1  0.98140000  0.89836700  0.32207200  1
  C  C38  1  0.92795300  0.10644400  0.54655800  1
  C  C39  1  0.29489000  0.53070600  0.77193900  1
  C  C40  1  0.58766200  0.89481000  0.63129000  1
  C  C41  1  0.79489000  0.53070600  0.72806100  1
  C  C42  1  0.20511000  0.03070600  0.27193900  1
  C  C43  1  0.80078900  0.49020100  0.02055100  1
  C  C44  1  0.29489000  0.96929400  0.77193900  1
  C  C45  1  0.30078900  0.00979900  0.47944900  1
  C  C46  1  0.48140000  0.60163300  0.17792800  1
  C  C47  1  0.69921100  0.50979900  0.52055100  1
  Ni  Ni48  1  0.58943900  0.96564900  0.20536200  1
  Ni  Ni49  1  0.31374000  0.46717700  0.93610100  1
  Ni  Ni50  1  0.60583800  0.57398300  0.56116900  1
  Ni  Ni51  1  0.18677000  0.93227200  0.81829700  1
  Ni  Ni52  1  0.51458500  0.12704200  0.89368400  1
  Ni  Ni53  1  0.31374000  0.03282300  0.93610100  1
  Ni  Ni54  1  0.81374000  0.03282300  0.56389900  1
  Ni  Ni55  1  0.18677000  0.56772800  0.81829700  1
  Ni  Ni56  1  0.01458500  0.12704200  0.60631600  1
  Ni  Ni57  1  0.31323000  0.43227200  0.31829700  1
  Ni  Ni58  1  0.60583800  0.92601700  0.56116900  1
  Ni  Ni59  1  0.41056100  0.03435100  0.79463800  1
  Ni  Ni60  1  0.81374000  0.46717700  0.56389900  1
  Ni  Ni61  1  0.08943900  0.53435100  0.29463800  1
  Ni  Ni62  1  0.89416200  0.42601700  0.06116900  1
  Ni  Ni63  1  0.51458500  0.37295800  0.89368400  1
  Ni  Ni64  1  0.91056100  0.03435100  0.70536200  1
  Ni  Ni65  1  0.10583800  0.57398300  0.93883100  1
  Ni  Ni66  1  0.89416200  0.07398300  0.06116900  1
  Ni  Ni67  1  0.39416200  0.07398300  0.43883100  1
  Ni  Ni68  1  0.48541500  0.87295800  0.10631600  1
  Ni  Ni69  1  0.68626000  0.53282300  0.06389900  1
  Ni  Ni70  1  0.91056100  0.46564900  0.70536200  1
  Ni  Ni71  1  0.98541500  0.62704200  0.39368400  1
  Ni  Ni72  1  0.81323000  0.06772800  0.18170300  1
  Ni  Ni73  1  0.18626000  0.53282300  0.43610100  1
  Ni  Ni74  1  0.98541500  0.87295800  0.39368400  1
  Ni  Ni75  1  0.01458500  0.37295800  0.60631600  1
  Ni  Ni76  1  0.58943900  0.53435100  0.20536200  1
  Ni  Ni77  1  0.18626000  0.96717700  0.43610100  1
  Ni  Ni78  1  0.68677000  0.93227200  0.68170300  1
  Ni  Ni79  1  0.31323000  0.06772800  0.31829700  1
  Ni  Ni80  1  0.68677000  0.56772800  0.68170300  1
  Ni  Ni81  1  0.68626000  0.96717700  0.06389900  1
  Ni  Ni82  1  0.81323000  0.43227200  0.18170300  1
  Ni  Ni83  1  0.41056100  0.46564900  0.79463800  1
  Ni  Ni84  1  0.39416200  0.42601700  0.43883100  1
  Ni  Ni85  1  0.48541500  0.62704200  0.10631600  1
  Ni  Ni86  1  0.08943900  0.96564900  0.29463800  1
  Ni  Ni87  1  0.10583800  0.92601700  0.93883100  1
  Cu  Cu88  1  0.41200900  0.12621600  0.63059500  1
  Cu  Cu89  1  0.80597700  0.75000000  0.18795600  1
  Cu  Cu90  1  0.08799100  0.62621600  0.13059500  1
  Cu  Cu91  1  0.37524300  0.75000000  0.47227500  1
  Cu  Cu92  1  0.87524300  0.75000000  0.02772500  1
  Cu  Cu93  1  0.88211200  0.75000000  0.56822000  1
  Cu  Cu94  1  0.67348900  0.87449100  0.88822200  1
  Cu  Cu95  1  0.82651100  0.37449100  0.38822200  1
  Cu  Cu96  1  0.91200900  0.12621600  0.86940500  1
  Cu  Cu97  1  0.17348900  0.62550900  0.61177800  1
  Cu  Cu98  1  0.58799100  0.87378400  0.36940500  1
  Cu  Cu99  1  0.91200900  0.37378400  0.86940500  1
  Cu  Cu100  1  0.98778100  0.75000000  0.72495500  1
  Cu  Cu101  1  0.38211200  0.75000000  0.93178000  1
  Cu  Cu102  1  0.69402300  0.25000000  0.68795600  1
  Cu  Cu103  1  0.01221900  0.25000000  0.27504500  1
  Cu  Cu104  1  0.41200900  0.37378400  0.63059500  1
  Cu  Cu105  1  0.82651100  0.12550900  0.38822200  1
  Cu  Cu106  1  0.08799100  0.87378400  0.13059500  1
  Cu  Cu107  1  0.62475700  0.25000000  0.52772500  1
  Cu  Cu108  1  0.19402300  0.25000000  0.81204400  1
  Cu  Cu109  1  0.67348900  0.62550900  0.88822200  1
  Cu  Cu110  1  0.11788800  0.25000000  0.43178000  1
  Cu  Cu111  1  0.32651100  0.37449100  0.11177800  1
  Cu  Cu112  1  0.51221900  0.25000000  0.22495500  1
  Cu  Cu113  1  0.12475700  0.25000000  0.97227500  1
  Cu  Cu114  1  0.17348900  0.87449100  0.61177800  1
  Cu  Cu115  1  0.30597700  0.75000000  0.31204400  1
  Cu  Cu116  1  0.32651100  0.12550900  0.11177800  1
  Cu  Cu117  1  0.58799100  0.62621600  0.36940500  1
  Cu  Cu118  1  0.61788800  0.25000000  0.06822000  1
  Cu  Cu119  1  0.48778100  0.75000000  0.77504500  1
