# generated using pymatgen
data_Cu3(NiC7)2
_symmetry_space_group_name_H-M   'P 1'
_cell_length_a   8.13736100
_cell_length_b   9.61858800
_cell_length_c   9.89886800
_cell_angle_alpha   90.00000000
_cell_angle_beta   90.00000000
_cell_angle_gamma   90.00000000
_symmetry_Int_Tables_number   1
_chemical_formula_structural   Cu3(NiC7)2
_chemical_formula_sum   'Cu12 Ni8 C56'
_cell_volume   774.78363482
_cell_formula_units_Z   4
loop_
 _symmetry_equiv_pos_site_id
 _symmetry_equiv_pos_as_xyz
  1  'x, y, z'
loop_
 _atom_site_type_symbol
 _atom_site_label
 _atom_site_symmetry_multiplicity
 _atom_site_fract_x
 _atom_site_fract_y
 _atom_site_fract_z
 _atom_site_occupancy
  C  C0  1  0.00000000  0.00000000  0.00000000  1
  C  C1  1  0.50000000  0.50000000  0.00000000  1
  C  C2  1  0.00000000  0.00000000  0.50000000  1
  C  C3  1  0.50000000  0.50000000  0.50000000  1
  C  C4  1  0.63703300  0.04934400  0.11241100  1
  C  C5  1  0.13703300  0.45065600  0.88758900  1
  C  C6  1  0.36296700  0.04934400  0.38758900  1
  C  C7  1  0.86296700  0.45065600  0.61241100  1
  C  C8  1  0.36296700  0.95065600  0.88758900  1
  C  C9  1  0.86296700  0.54934400  0.11241100  1
  C  C10  1  0.63703300  0.95065600  0.61241100  1
  C  C11  1  0.13703300  0.54934400  0.38758900  1
  Ni  Ni12  1  0.28578800  0.20869300  0.10498300  1
  Ni  Ni13  1  0.78578800  0.29130700  0.89501700  1
  Ni  Ni14  1  0.71421200  0.20869300  0.39501700  1
  Ni  Ni15  1  0.21421200  0.29130700  0.60498300  1
  Ni  Ni16  1  0.71421200  0.79130700  0.89501700  1
  Ni  Ni17  1  0.21421200  0.70869300  0.10498300  1
  Ni  Ni18  1  0.28578800  0.79130700  0.60498300  1
  Ni  Ni19  1  0.78578800  0.70869300  0.39501700  1
  Cu  Cu20  1  0.50000000  0.84732800  0.25000000  1
  Cu  Cu21  1  0.00000000  0.65267200  0.75000000  1
  Cu  Cu22  1  0.50000000  0.15267200  0.75000000  1
  Cu  Cu23  1  0.00000000  0.34732800  0.25000000  1
  Cu  Cu24  1  0.15546100  0.87022000  0.31065000  1
  Cu  Cu25  1  0.65546100  0.62978000  0.68935000  1
  Cu  Cu26  1  0.84453900  0.87022000  0.18935000  1
  Cu  Cu27  1  0.34453900  0.62978000  0.81065000  1
  Cu  Cu28  1  0.84453900  0.12978000  0.68935000  1
  Cu  Cu29  1  0.34453900  0.37022000  0.31065000  1
  Cu  Cu30  1  0.15546100  0.12978000  0.81065000  1
  Cu  Cu31  1  0.65546100  0.37022000  0.18935000  1
  C  C32  1  0.33201100  0.21160300  0.25753900  1
  C  C33  1  0.83201100  0.28839700  0.74246100  1
  C  C34  1  0.66798900  0.21160300  0.24246100  1
  C  C35  1  0.16798900  0.28839700  0.75753900  1
  C  C36  1  0.66798900  0.78839700  0.74246100  1
  C  C37  1  0.16798900  0.71160300  0.25753900  1
  C  C38  1  0.33201100  0.78839700  0.75753900  1
  C  C39  1  0.83201100  0.71160300  0.24246100  1
  C  C40  1  0.41394000  0.11217200  0.03006000  1
  C  C41  1  0.91394000  0.38782800  0.96994000  1
  C  C42  1  0.58606000  0.11217200  0.46994000  1
  C  C43  1  0.08606000  0.38782800  0.53006000  1
  C  C44  1  0.58606000  0.88782800  0.96994000  1
  C  C45  1  0.08606000  0.61217200  0.03006000  1
  C  C46  1  0.41394000  0.88782800  0.53006000  1
  C  C47  1  0.91394000  0.61217200  0.46994000  1
  C  C48  1  0.29748000  0.35841400  0.04339700  1
  C  C49  1  0.79748000  0.14158600  0.95660300  1
  C  C50  1  0.70252000  0.35841400  0.45660300  1
  C  C51  1  0.20252000  0.14158600  0.54339700  1
  C  C52  1  0.70252000  0.64158600  0.95660300  1
  C  C53  1  0.20252000  0.85841400  0.04339700  1
  C  C54  1  0.29748000  0.64158600  0.54339700  1
  C  C55  1  0.79748000  0.85841400  0.45660300  1
  C  C56  1  0.11016300  0.15687600  0.08912800  1
  C  C57  1  0.61016300  0.34312400  0.91087200  1
  C  C58  1  0.88983700  0.15687600  0.41087200  1
  C  C59  1  0.38983700  0.34312400  0.58912800  1
  C  C60  1  0.88983700  0.84312400  0.91087200  1
  C  C61  1  0.38983700  0.65687600  0.08912800  1
  C  C62  1  0.11016300  0.84312400  0.58912800  1
  C  C63  1  0.61016300  0.65687600  0.41087200  1
  C  C64  1  0.50000000  0.94896200  0.25000000  1
  C  C65  1  0.00000000  0.55103800  0.75000000  1
  C  C66  1  0.50000000  0.05103800  0.75000000  1
  C  C67  1  0.00000000  0.44896200  0.25000000  1
  C  C68  1  0.15156700  0.96776000  0.34552300  1
  C  C69  1  0.65156700  0.53224000  0.65447700  1
  C  C70  1  0.84843300  0.96776000  0.15447700  1
  C  C71  1  0.34843300  0.53224000  0.84552300  1
  C  C72  1  0.84843300  0.03224000  0.65447700  1
  C  C73  1  0.34843300  0.46776000  0.34552300  1
  C  C74  1  0.15156700  0.03224000  0.84552300  1
  C  C75  1  0.65156700  0.46776000  0.15447700  1
