# generated using pymatgen
data_Cu3NiC6
_symmetry_space_group_name_H-M   'P 1'
_cell_length_a   11.82212700
_cell_length_b   4.30268800
_cell_length_c   7.33790136
_cell_angle_alpha   88.95204249
_cell_angle_beta   90.00000000
_cell_angle_gamma   90.00000000
_symmetry_Int_Tables_number   1
_chemical_formula_structural   Cu3NiC6
_chemical_formula_sum   'Cu12 Ni4 C24'
_cell_volume   373.19403860
_cell_formula_units_Z   4
loop_
 _symmetry_equiv_pos_site_id
 _symmetry_equiv_pos_as_xyz
  1  'x, y, z'
loop_
 _atom_site_type_symbol
 _atom_site_label
 _atom_site_symmetry_multiplicity
 _atom_site_fract_x
 _atom_site_fract_y
 _atom_site_fract_z
 _atom_site_occupancy
  Ni  Ni0  1  0.61378800  0.16351200  0.63171700  1
  Ni  Ni1  1  0.11378800  0.83648800  0.86828300  1
  Ni  Ni2  1  0.88621200  0.16351200  0.13171700  1
  Ni  Ni3  1  0.38621200  0.83648800  0.36828300  1
  Cu  Cu4  1  0.09340300  0.79882300  0.36926300  1
  Cu  Cu5  1  0.16266400  0.31772400  0.20671900  1
  Cu  Cu6  1  0.12508000  0.30920900  0.56547100  1
  Cu  Cu7  1  0.33733600  0.31772400  0.70671900  1
  Cu  Cu8  1  0.40659700  0.79882300  0.86926300  1
  Cu  Cu9  1  0.62508000  0.69079100  0.93452900  1
  Cu  Cu10  1  0.66266400  0.68227600  0.29328100  1
  Cu  Cu11  1  0.87492000  0.69079100  0.43452900  1
  Cu  Cu12  1  0.90659700  0.20117700  0.63073700  1
  Cu  Cu13  1  0.59340300  0.20117700  0.13073700  1
  Cu  Cu14  1  0.37492000  0.30920900  0.06547100  1
  Cu  Cu15  1  0.83733600  0.68227600  0.79328100  1
  C  C16  1  0.84102500  0.34543900  0.77334600  1
  C  C17  1  0.88311500  0.35768600  0.45877400  1
  C  C18  1  0.41865900  0.23098000  0.56086000  1
  C  C19  1  0.08134100  0.23098000  0.06086000  1
  C  C20  1  0.77901400  0.78844900  0.32212300  1
  C  C21  1  0.38311500  0.64231400  0.04122600  1
  C  C22  1  0.61688500  0.35768600  0.95877400  1
  C  C23  1  0.65897500  0.34543900  0.27334600  1
  C  C24  1  0.58134100  0.76902000  0.43914000  1
  C  C25  1  0.47129300  0.19355000  0.17728600  1
  C  C26  1  0.15897500  0.65456100  0.22665400  1
  C  C27  1  0.37232300  0.14619700  0.88315700  1
  C  C28  1  0.11688500  0.64231400  0.54122600  1
  C  C29  1  0.52870700  0.80645000  0.82271400  1
  C  C30  1  0.97129300  0.80645000  0.32271400  1
  C  C31  1  0.91865900  0.76902000  0.93914000  1
  C  C32  1  0.27901400  0.21155100  0.17787700  1
  C  C33  1  0.87232300  0.85380300  0.61684300  1
  C  C34  1  0.02870700  0.19355000  0.67728600  1
  C  C35  1  0.72098600  0.78844900  0.82212300  1
  C  C36  1  0.34102500  0.65456100  0.72665400  1
  C  C37  1  0.22098600  0.21155100  0.67787700  1
  C  C38  1  0.12767700  0.14619700  0.38315700  1
  C  C39  1  0.62767700  0.85380300  0.11684300  1
