# generated using pymatgen
data_Cu2Ni2C3
_symmetry_space_group_name_H-M   'P 1'
_cell_length_a   9.05374861
_cell_length_b   9.05374861
_cell_length_c   7.31605700
_cell_angle_alpha   90.00000000
_cell_angle_beta   90.00000000
_cell_angle_gamma   132.35207279
_symmetry_Int_Tables_number   1
_chemical_formula_structural   Cu2Ni2C3
_chemical_formula_sum   'Cu4 Ni4 C6'
_cell_volume   443.18966329
_cell_formula_units_Z   2
loop_
 _symmetry_equiv_pos_site_id
 _symmetry_equiv_pos_as_xyz
  1  'x, y, z'
loop_
 _atom_site_type_symbol
 _atom_site_label
 _atom_site_symmetry_multiplicity
 _atom_site_fract_x
 _atom_site_fract_y
 _atom_site_fract_z
 _atom_site_occupancy
  C  C0  1  0.86683200  0.13316800  0.50000000  1
  C  C1  1  0.36683200  0.63316800  0.00000000  1
  C  C2  1  0.13316800  0.86683200  0.50000000  1
  C  C3  1  0.63316800  0.36683200  0.00000000  1
  C  C4  1  0.00000000  0.00000000  0.00000000  1
  C  C5  1  0.50000000  0.50000000  0.50000000  1
  Ni  Ni6  1  0.84544200  0.15455800  0.00000000  1
  Ni  Ni7  1  0.15455800  0.84544200  0.00000000  1
  Ni  Ni8  1  0.34544200  0.65455800  0.50000000  1
  Ni  Ni9  1  0.65455800  0.34544200  0.50000000  1
  Cu  Cu10  1  0.78140100  0.78140100  0.21858000  1
  Cu  Cu11  1  0.21859900  0.21859900  0.78142000  1
  Cu  Cu12  1  0.28140100  0.28140100  0.28142000  1
  Cu  Cu13  1  0.71859900  0.71859900  0.71858000  1
