# generated using pymatgen
data_CuNiC2
_symmetry_space_group_name_H-M   'P 1'
_cell_length_a   7.91509900
_cell_length_b   6.67153700
_cell_length_c   13.52278045
_cell_angle_alpha   62.15647645
_cell_angle_beta   90.00000000
_cell_angle_gamma   90.00000000
_symmetry_Int_Tables_number   1
_chemical_formula_structural   CuNiC2
_chemical_formula_sum   'Cu12 Ni12 C24'
_cell_volume   631.41041856
_cell_formula_units_Z   12
loop_
 _symmetry_equiv_pos_site_id
 _symmetry_equiv_pos_as_xyz
  1  'x, y, z'
loop_
 _atom_site_type_symbol
 _atom_site_label
 _atom_site_symmetry_multiplicity
 _atom_site_fract_x
 _atom_site_fract_y
 _atom_site_fract_z
 _atom_site_occupancy
  C  C0  1  0.86449600  0.95995500  0.39400200  1
  C  C1  1  0.62214200  0.43413000  0.17620600  1
  C  C2  1  0.87785800  0.43413000  0.67620600  1
  C  C3  1  0.12214200  0.56587000  0.32379400  1
  C  C4  1  0.37785800  0.56587000  0.82379400  1
  C  C5  1  0.36449600  0.04004500  0.10599800  1
  C  C6  1  0.38790400  0.96884400  0.38707400  1
  C  C7  1  0.13550400  0.04004500  0.60599800  1
  C  C8  1  0.61209600  0.03115600  0.61292600  1
  C  C9  1  0.63550400  0.95995500  0.89400200  1
  C  C10  1  0.11209600  0.96884400  0.88707400  1
  C  C11  1  0.88790400  0.03115600  0.11292600  1
  C  C12  1  0.72271200  0.39804400  0.89464100  1
  C  C13  1  0.46792900  0.40219300  0.38782900  1
  C  C14  1  0.87402100  0.75808500  0.79435600  1
  C  C15  1  0.77728800  0.39804400  0.39464100  1
  C  C16  1  0.03207100  0.40219300  0.88782900  1
  C  C17  1  0.22271200  0.60195600  0.60535900  1
  C  C18  1  0.96792900  0.59780700  0.11217100  1
  C  C19  1  0.53207100  0.59780700  0.61217100  1
  C  C20  1  0.37402100  0.24191500  0.70564400  1
  C  C21  1  0.27728800  0.60195600  0.10535900  1
  C  C22  1  0.62597900  0.75808500  0.29435600  1
  C  C23  1  0.12597900  0.24191500  0.20564400  1
  Ni  Ni24  1  0.62303900  0.27107000  0.39927700  1
  Ni  Ni25  1  0.78952200  0.64409600  0.32614800  1
  Ni  Ni26  1  0.87696100  0.27107000  0.89927700  1
  Ni  Ni27  1  0.03941700  0.64868200  0.81979300  1
  Ni  Ni28  1  0.28952200  0.35590400  0.17385200  1
  Ni  Ni29  1  0.96058300  0.35131800  0.18020700  1
  Ni  Ni30  1  0.37696100  0.72893000  0.60072300  1
  Ni  Ni31  1  0.53941700  0.35131800  0.68020700  1
  Ni  Ni32  1  0.12303900  0.72893000  0.10072300  1
  Ni  Ni33  1  0.46058300  0.64868200  0.31979300  1
  Ni  Ni34  1  0.21047800  0.35590400  0.67385200  1
  Ni  Ni35  1  0.71047800  0.64409600  0.82614800  1
  Cu  Cu36  1  0.91526900  0.26858300  0.46011100  1
  Cu  Cu37  1  0.08473100  0.73141700  0.53988900  1
  Cu  Cu38  1  0.67553100  0.72435900  0.55594300  1
  Cu  Cu39  1  0.17553100  0.27564100  0.94405700  1
  Cu  Cu40  1  0.37258900  0.99876200  0.75990300  1
  Cu  Cu41  1  0.82446900  0.72435900  0.05594300  1
  Cu  Cu42  1  0.41526900  0.73141700  0.03988900  1
  Cu  Cu43  1  0.32446900  0.27564100  0.44405700  1
  Cu  Cu44  1  0.62741100  0.00123800  0.24009700  1
  Cu  Cu45  1  0.12741100  0.99876200  0.25990300  1
  Cu  Cu46  1  0.87258900  0.00123800  0.74009700  1
  Cu  Cu47  1  0.58473100  0.26858300  0.96011100  1
