# generated using pymatgen
data_Cu3Ni3C46
_symmetry_space_group_name_H-M   'P 1'
_cell_length_a   14.08254276
_cell_length_b   14.08254276
_cell_length_c   7.37334700
_cell_angle_alpha   90.00000000
_cell_angle_beta   90.00000000
_cell_angle_gamma   120.00000357
_symmetry_Int_Tables_number   1
_chemical_formula_structural   Cu3Ni3C46
_chemical_formula_sum   'Cu6 Ni6 C92'
_cell_volume   1266.36076391
_cell_formula_units_Z   2
loop_
 _symmetry_equiv_pos_site_id
 _symmetry_equiv_pos_as_xyz
  1  'x, y, z'
loop_
 _atom_site_type_symbol
 _atom_site_label
 _atom_site_symmetry_multiplicity
 _atom_site_fract_x
 _atom_site_fract_y
 _atom_site_fract_z
 _atom_site_occupancy
  C  C0  1  0.33333300  0.66666700  0.75000000  1
  C  C1  1  0.66666700  0.33333300  0.25000000  1
  C  C2  1  0.36450600  0.87074200  0.53612300  1
  C  C3  1  0.49376400  0.36450600  0.03612300  1
  C  C4  1  0.87074200  0.50623600  0.03612300  1
  C  C5  1  0.12925800  0.49376400  0.53612300  1
  C  C6  1  0.50623600  0.63549400  0.53612300  1
  C  C7  1  0.63549400  0.12925800  0.03612300  1
  C  C8  1  0.63549400  0.12925800  0.46387700  1
  C  C9  1  0.50623600  0.63549400  0.96387700  1
  C  C10  1  0.12925800  0.49376400  0.96387700  1
  C  C11  1  0.87074200  0.50623600  0.46387700  1
  C  C12  1  0.49376400  0.36450600  0.46387700  1
  C  C13  1  0.36450600  0.87074200  0.96387700  1
  C  C14  1  0.27685600  0.77025200  0.42257300  1
  C  C15  1  0.50660400  0.27685600  0.92257300  1
  C  C16  1  0.77025200  0.49339600  0.92257300  1
  C  C17  1  0.22974800  0.50660400  0.42257300  1
  C  C18  1  0.49339600  0.72314400  0.42257300  1
  C  C19  1  0.72314400  0.22974800  0.92257300  1
  C  C20  1  0.72314400  0.22974800  0.57742700  1
  C  C21  1  0.49339600  0.72314400  0.07742700  1
  C  C22  1  0.22974800  0.50660400  0.07742700  1
  C  C23  1  0.77025200  0.49339600  0.57742700  1
  C  C24  1  0.50660400  0.27685600  0.57742700  1
  C  C25  1  0.27685600  0.77025200  0.07742700  1
  C  C26  1  0.09948400  0.64607300  0.64251600  1
  C  C27  1  0.45341200  0.09948400  0.14251600  1
  C  C28  1  0.64607300  0.54658800  0.14251600  1
  C  C29  1  0.35392700  0.45341200  0.64251600  1
  C  C30  1  0.54658800  0.90051600  0.64251600  1
  C  C31  1  0.90051600  0.35392700  0.14251600  1
  C  C32  1  0.90051600  0.35392700  0.35748400  1
  C  C33  1  0.54658800  0.90051600  0.85748400  1
  C  C34  1  0.35392700  0.45341200  0.85748400  1
  C  C35  1  0.64607300  0.54658800  0.35748400  1
  C  C36  1  0.45341200  0.09948400  0.35748400  1
  C  C37  1  0.09948400  0.64607300  0.85748400  1
  Ni  Ni38  1  0.77695300  0.77144200  0.75000000  1
  Ni  Ni39  1  0.00551100  0.77695300  0.25000000  1
  Ni  Ni40  1  0.77144200  0.99448900  0.25000000  1
  Ni  Ni41  1  0.22855800  0.00551100  0.75000000  1
  Ni  Ni42  1  0.99448900  0.22304700  0.75000000  1
  Ni  Ni43  1  0.22304700  0.22855800  0.25000000  1
  Cu  Cu44  1  0.67931300  0.62013700  0.75000000  1
  Cu  Cu45  1  0.05917600  0.67931300  0.25000000  1
  Cu  Cu46  1  0.62013700  0.94082400  0.25000000  1
  Cu  Cu47  1  0.37986300  0.05917600  0.75000000  1
  Cu  Cu48  1  0.94082400  0.32068700  0.75000000  1
  Cu  Cu49  1  0.32068700  0.37986300  0.25000000  1
  C  C50  1  0.33794900  0.79301000  0.50882900  1
  C  C51  1  0.54493900  0.33794900  0.00882900  1
  C  C52  1  0.79301000  0.45506100  0.00882900  1
  C  C53  1  0.20699000  0.54493900  0.50882900  1
  C  C54  1  0.45506100  0.66205100  0.50882900  1
  C  C55  1  0.66205100  0.20699000  0.00882900  1
  C  C56  1  0.66205100  0.20699000  0.49117100  1
  C  C57  1  0.45506100  0.66205100  0.99117100  1
  C  C58  1  0.20699000  0.54493900  0.99117100  1
  C  C59  1  0.79301000  0.45506100  0.49117100  1
  C  C60  1  0.54493900  0.33794900  0.49117100  1
  C  C61  1  0.33794900  0.79301000  0.99117100  1
  C  C62  1  0.14384500  0.65370300  0.75000000  1
  C  C63  1  0.49014200  0.14384500  0.25000000  1
  C  C64  1  0.65370300  0.50985800  0.25000000  1
  C  C65  1  0.34629700  0.49014200  0.75000000  1
  C  C66  1  0.50985800  0.85615500  0.75000000  1
  C  C67  1  0.85615500  0.34629700  0.25000000  1
  C  C68  1  0.61641800  0.60077200  0.58229600  1
  C  C69  1  0.01564700  0.61641800  0.08229600  1
  C  C70  1  0.60077200  0.98435300  0.08229600  1
  C  C71  1  0.39922800  0.01564700  0.58229600  1
  C  C72  1  0.98435300  0.38358200  0.58229600  1
  C  C73  1  0.38358200  0.39922800  0.08229600  1
  C  C74  1  0.38358200  0.39922800  0.41770400  1
  C  C75  1  0.98435300  0.38358200  0.91770400  1
  C  C76  1  0.39922800  0.01564700  0.91770400  1
  C  C77  1  0.60077200  0.98435300  0.41770400  1
  C  C78  1  0.01564700  0.61641800  0.41770400  1
  C  C79  1  0.61641800  0.60077200  0.91770400  1
  C  C80  1  0.75063800  0.57189400  0.75000000  1
  C  C81  1  0.17874400  0.75063800  0.25000000  1
  C  C82  1  0.57189400  0.82125600  0.25000000  1
  C  C83  1  0.42810600  0.17874400  0.75000000  1
  C  C84  1  0.82125600  0.24936200  0.75000000  1
  C  C85  1  0.24936200  0.42810600  0.25000000  1
  C  C86  1  0.71951600  0.82501800  0.75000000  1
  C  C87  1  0.89449800  0.71951600  0.25000000  1
  C  C88  1  0.82501800  0.10550200  0.25000000  1
  C  C89  1  0.17498200  0.89449800  0.75000000  1
  C  C90  1  0.10550200  0.28048400  0.75000000  1
  C  C91  1  0.28048400  0.17498200  0.25000000  1
  C  C92  1  0.84120800  0.80079700  0.60102800  1
  C  C93  1  0.04041000  0.84120800  0.10102800  1
  C  C94  1  0.80079700  0.95959000  0.10102800  1
  C  C95  1  0.19920300  0.04041000  0.60102800  1
  C  C96  1  0.95959000  0.15879200  0.60102800  1
  C  C97  1  0.15879200  0.19920300  0.10102800  1
  C  C98  1  0.15879200  0.19920300  0.39897200  1
  C  C99  1  0.95959000  0.15879200  0.89897200  1
  C  C100  1  0.19920300  0.04041000  0.89897200  1
  C  C101  1  0.80079700  0.95959000  0.39897200  1
  C  C102  1  0.04041000  0.84120800  0.39897200  1
  C  C103  1  0.84120800  0.80079700  0.89897200  1
