# generated using pymatgen
data_Cu10NiC7
_symmetry_space_group_name_H-M   'P 1'
_cell_length_a   6.89356461
_cell_length_b   6.89356461
_cell_length_c   9.11672837
_cell_angle_alpha   66.28627088
_cell_angle_beta   66.28627088
_cell_angle_gamma   49.22626330
_symmetry_Int_Tables_number   1
_chemical_formula_structural   Cu10NiC7
_chemical_formula_sum   'Cu10 Ni1 C7'
_cell_volume   294.24248925
_cell_formula_units_Z   1
loop_
 _symmetry_equiv_pos_site_id
 _symmetry_equiv_pos_as_xyz
  1  'x, y, z'
loop_
 _atom_site_type_symbol
 _atom_site_label
 _atom_site_symmetry_multiplicity
 _atom_site_fract_x
 _atom_site_fract_y
 _atom_site_fract_z
 _atom_site_occupancy
  C  C0  1  0.49966200  0.49966200  0.70802200  1
  C  C1  1  0.74641400  0.74641400  0.87241200  1
  C  C2  1  0.00000000  0.00000000  0.00000000  1
  C  C3  1  0.25358600  0.25358600  0.12758900  1
  C  C4  1  0.50033800  0.50033800  0.29197800  1
  C  C5  1  0.78505300  0.78505300  0.39260400  1
  C  C6  1  0.21494700  0.21494700  0.60739600  1
  Ni  Ni7  1  0.00000000  0.00000000  0.50000000  1
  Cu  Cu8  1  0.62598300  0.13309600  0.91584300  1
  Cu  Cu9  1  0.62314900  0.09433300  0.24672000  1
  Cu  Cu10  1  0.63980600  0.63980600  0.39927900  1
  Cu  Cu11  1  0.36019400  0.36019400  0.60072100  1
  Cu  Cu12  1  0.13309600  0.62598300  0.91584300  1
  Cu  Cu13  1  0.86690400  0.37401700  0.08415700  1
  Cu  Cu14  1  0.09433300  0.62314900  0.24672000  1
  Cu  Cu15  1  0.37401700  0.86690400  0.08415700  1
  Cu  Cu16  1  0.90566700  0.37685100  0.75328000  1
  Cu  Cu17  1  0.37685100  0.90566700  0.75328000  1
