# generated using pymatgen
data_Cu21(NiC8)2
_symmetry_space_group_name_H-M   'P 1'
_cell_length_a   10.27248031
_cell_length_b   10.27248031
_cell_length_c   13.44940300
_cell_angle_alpha   90.00000000
_cell_angle_beta   90.00000000
_cell_angle_gamma   120.00000201
_symmetry_Int_Tables_number   1
_chemical_formula_structural   Cu21(NiC8)2
_chemical_formula_sum   'Cu42 Ni4 C32'
_cell_volume   1229.09164109
_cell_formula_units_Z   2
loop_
 _symmetry_equiv_pos_site_id
 _symmetry_equiv_pos_as_xyz
  1  'x, y, z'
loop_
 _atom_site_type_symbol
 _atom_site_label
 _atom_site_symmetry_multiplicity
 _atom_site_fract_x
 _atom_site_fract_y
 _atom_site_fract_z
 _atom_site_occupancy
  C  C0  1  0.33333300  0.66666700  0.99344000  1
  C  C1  1  0.66666700  0.33333300  0.00656000  1
  C  C2  1  0.66666700  0.33333300  0.49344000  1
  C  C3  1  0.66666700  0.33333300  0.25000000  1
  C  C4  1  0.33333300  0.66666700  0.50656000  1
  C  C5  1  0.33333300  0.66666700  0.25000000  1
  C  C6  1  0.66666700  0.33333300  0.75000000  1
  C  C7  1  0.33333300  0.66666700  0.75000000  1
  C  C8  1  0.97470900  0.57773300  0.63646800  1
  C  C9  1  0.57773300  0.60302400  0.13646800  1
  C  C10  1  0.60302400  0.02529100  0.86353200  1
  C  C11  1  0.42226700  0.39697600  0.86353200  1
  C  C12  1  0.39697600  0.97470900  0.36353200  1
  C  C13  1  0.57773300  0.60302400  0.36353200  1
  C  C14  1  0.39697600  0.97470900  0.13646800  1
  C  C15  1  0.02529100  0.42226700  0.13646800  1
  C  C16  1  0.02529100  0.42226700  0.36353200  1
  C  C17  1  0.42226700  0.39697600  0.63646800  1
  C  C18  1  0.60302400  0.02529100  0.63646800  1
  C  C19  1  0.97470900  0.57773300  0.86353200  1
  C  C20  1  0.98765000  0.25530300  0.89240400  1
  C  C21  1  0.01235000  0.74469700  0.39240400  1
  C  C22  1  0.73234700  0.98765000  0.39240400  1
  C  C23  1  0.73234700  0.98765000  0.10759600  1
  C  C24  1  0.74469700  0.73234700  0.89240400  1
  C  C25  1  0.25530300  0.26765300  0.39240400  1
  C  C26  1  0.26765300  0.01235000  0.89240400  1
  C  C27  1  0.25530300  0.26765300  0.10759600  1
  C  C28  1  0.26765300  0.01235000  0.60759600  1
  C  C29  1  0.74469700  0.73234700  0.60759600  1
  C  C30  1  0.01235000  0.74469700  0.10759600  1
  C  C31  1  0.98765000  0.25530300  0.60759600  1
  Ni  Ni32  1  0.00000000  0.00000000  0.25000000  1
  Ni  Ni33  1  0.00000000  0.00000000  0.75000000  1
  Ni  Ni34  1  0.00000000  0.00000000  0.50000000  1
  Ni  Ni35  1  0.00000000  0.00000000  0.00000000  1
  Cu  Cu36  1  0.92939600  0.61420200  0.75000000  1
  Cu  Cu37  1  0.07323200  0.33031300  0.05664500  1
  Cu  Cu38  1  0.07060400  0.38579800  0.25000000  1
  Cu  Cu39  1  0.14894000  0.62383300  0.62850500  1
  Cu  Cu40  1  0.46382300  0.85909000  0.12115700  1
  Cu  Cu41  1  0.31519400  0.92939600  0.25000000  1
  Cu  Cu42  1  0.33031300  0.25708100  0.94335500  1
  Cu  Cu43  1  0.60473300  0.46382300  0.87884300  1
  Cu  Cu44  1  0.25708100  0.92676800  0.44335500  1
  Cu  Cu45  1  0.39526700  0.53617700  0.37884300  1
  Cu  Cu46  1  0.85909000  0.39526700  0.87884300  1
  Cu  Cu47  1  0.74291900  0.07323200  0.55664500  1
  Cu  Cu48  1  0.66968700  0.74291900  0.44335500  1
  Cu  Cu49  1  0.46382300  0.85909000  0.37884300  1
  Cu  Cu50  1  0.53617700  0.14091000  0.62115700  1
  Cu  Cu51  1  0.62383300  0.47489300  0.37149500  1
  Cu  Cu52  1  0.47489300  0.85106000  0.87149500  1
  Cu  Cu53  1  0.74291900  0.07323200  0.94335500  1
  Cu  Cu54  1  0.66968700  0.74291900  0.05664500  1
  Cu  Cu55  1  0.14091000  0.60473300  0.37884300  1
  Cu  Cu56  1  0.85106000  0.37616700  0.37149500  1
  Cu  Cu57  1  0.14894000  0.62383300  0.87149500  1
  Cu  Cu58  1  0.38579800  0.31519400  0.75000000  1
  Cu  Cu59  1  0.52510700  0.14894000  0.37149500  1
  Cu  Cu60  1  0.14091000  0.60473300  0.12115700  1
  Cu  Cu61  1  0.07323200  0.33031300  0.44335500  1
  Cu  Cu62  1  0.92676800  0.66968700  0.55664500  1
  Cu  Cu63  1  0.39526700  0.53617700  0.12115700  1
  Cu  Cu64  1  0.62383300  0.47489300  0.12850500  1
  Cu  Cu65  1  0.85106000  0.37616700  0.12850500  1
  Cu  Cu66  1  0.53617700  0.14091000  0.87884300  1
  Cu  Cu67  1  0.68480600  0.07060400  0.75000000  1
  Cu  Cu68  1  0.33031300  0.25708100  0.55664500  1
  Cu  Cu69  1  0.47489300  0.85106000  0.62850500  1
  Cu  Cu70  1  0.52510700  0.14894000  0.12850500  1
  Cu  Cu71  1  0.85909000  0.39526700  0.62115700  1
  Cu  Cu72  1  0.25708100  0.92676800  0.05664500  1
  Cu  Cu73  1  0.37616700  0.52510700  0.87149500  1
  Cu  Cu74  1  0.60473300  0.46382300  0.62115700  1
  Cu  Cu75  1  0.61420200  0.68480600  0.25000000  1
  Cu  Cu76  1  0.37616700  0.52510700  0.62850500  1
  Cu  Cu77  1  0.92676800  0.66968700  0.94335500  1
