# generated using pymatgen
data_Cu6NiC7
_symmetry_space_group_name_H-M   'P 1'
_cell_length_a   4.99488600
_cell_length_b   5.87990500
_cell_length_c   18.31688100
_cell_angle_alpha   90.00000000
_cell_angle_beta   90.00000000
_cell_angle_gamma   90.00000000
_symmetry_Int_Tables_number   1
_chemical_formula_structural   Cu6NiC7
_chemical_formula_sum   'Cu24 Ni4 C28'
_cell_volume   537.95681531
_cell_formula_units_Z   4
loop_
 _symmetry_equiv_pos_site_id
 _symmetry_equiv_pos_as_xyz
  1  'x, y, z'
loop_
 _atom_site_type_symbol
 _atom_site_label
 _atom_site_symmetry_multiplicity
 _atom_site_fract_x
 _atom_site_fract_y
 _atom_site_fract_z
 _atom_site_occupancy
  C  C0  1  0.85994000  0.75000000  0.26534700  1
  C  C1  1  0.35994000  0.25000000  0.23465300  1
  C  C2  1  0.14006000  0.25000000  0.73465300  1
  C  C3  1  0.64006000  0.75000000  0.76534700  1
  Ni  Ni4  1  0.28361700  0.75000000  0.14636000  1
  Ni  Ni5  1  0.78361700  0.25000000  0.35364000  1
  Ni  Ni6  1  0.71638300  0.25000000  0.85364000  1
  Ni  Ni7  1  0.21638300  0.75000000  0.64636000  1
  Cu  Cu8  1  0.55826200  0.75000000  0.52272900  1
  Cu  Cu9  1  0.05826200  0.25000000  0.97727100  1
  Cu  Cu10  1  0.44173800  0.25000000  0.47727100  1
  Cu  Cu11  1  0.94173800  0.75000000  0.02272900  1
  Cu  Cu12  1  0.90912400  0.75000000  0.52394200  1
  Cu  Cu13  1  0.40912400  0.25000000  0.97605800  1
  Cu  Cu14  1  0.09087600  0.25000000  0.47605800  1
  Cu  Cu15  1  0.59087600  0.75000000  0.02394200  1
  Cu  Cu16  1  0.31737600  0.88313600  0.34993400  1
  Cu  Cu17  1  0.81737600  0.11686400  0.15006600  1
  Cu  Cu18  1  0.68262400  0.38313600  0.65006600  1
  Cu  Cu19  1  0.18262400  0.61686400  0.84993400  1
  Cu  Cu20  1  0.68262400  0.11686400  0.65006600  1
  Cu  Cu21  1  0.18262400  0.88313600  0.84993400  1
  Cu  Cu22  1  0.31737600  0.61686400  0.34993400  1
  Cu  Cu23  1  0.81737600  0.38313600  0.15006600  1
  Cu  Cu24  1  0.74058300  0.89497800  0.45908900  1
  Cu  Cu25  1  0.24058300  0.10502200  0.04091100  1
  Cu  Cu26  1  0.25941700  0.39497800  0.54091100  1
  Cu  Cu27  1  0.75941700  0.60502200  0.95908900  1
  Cu  Cu28  1  0.25941700  0.10502200  0.54091100  1
  Cu  Cu29  1  0.75941700  0.89497800  0.95908900  1
  Cu  Cu30  1  0.74058300  0.60502200  0.45908900  1
  Cu  Cu31  1  0.24058300  0.39497800  0.04091100  1
  C  C32  1  0.73646000  0.75000000  0.49111900  1
  C  C33  1  0.23646000  0.25000000  0.00888100  1
  C  C34  1  0.26354000  0.25000000  0.50888100  1
  C  C35  1  0.76354000  0.75000000  0.99111900  1
  C  C36  1  0.57999100  0.75000000  0.16717200  1
  C  C37  1  0.07999100  0.25000000  0.33282800  1
  C  C38  1  0.42000900  0.25000000  0.83282800  1
  C  C39  1  0.92000900  0.75000000  0.66717200  1
  C  C40  1  0.13273800  0.96281000  0.17953200  1
  C  C41  1  0.63273800  0.03719000  0.32046800  1
  C  C42  1  0.86726200  0.46281000  0.82046800  1
  C  C43  1  0.36726200  0.53719000  0.67953200  1
  C  C44  1  0.86726200  0.03719000  0.82046800  1
  C  C45  1  0.36726200  0.96281000  0.67953200  1
  C  C46  1  0.13273800  0.53719000  0.17953200  1
  C  C47  1  0.63273800  0.46281000  0.32046800  1
  C  C48  1  0.25337100  0.75000000  0.06181600  1
  C  C49  1  0.75337100  0.25000000  0.43818400  1
  C  C50  1  0.74662900  0.25000000  0.93818400  1
  C  C51  1  0.24662900  0.75000000  0.56181600  1
  C  C52  1  0.19828100  0.75000000  0.35673200  1
  C  C53  1  0.69828100  0.25000000  0.14326800  1
  C  C54  1  0.80171900  0.25000000  0.64326800  1
  C  C55  1  0.30171900  0.75000000  0.85673200  1
