# generated using pymatgen
data_Cu3NiC2
_symmetry_space_group_name_H-M   'P 1'
_cell_length_a   7.79328300
_cell_length_b   7.18728500
_cell_length_c   13.89566734
_cell_angle_alpha   88.00183514
_cell_angle_beta   90.00000000
_cell_angle_gamma   90.00000000
_symmetry_Int_Tables_number   1
_chemical_formula_structural   Cu3NiC2
_chemical_formula_sum   'Cu12 Ni4 C8'
_cell_volume   777.85843713
_cell_formula_units_Z   4
loop_
 _symmetry_equiv_pos_site_id
 _symmetry_equiv_pos_as_xyz
  1  'x, y, z'
loop_
 _atom_site_type_symbol
 _atom_site_label
 _atom_site_symmetry_multiplicity
 _atom_site_fract_x
 _atom_site_fract_y
 _atom_site_fract_z
 _atom_site_occupancy
  C  C0  1  0.00000000  0.50000000  0.00000000  1
  C  C1  1  0.50000000  0.50000000  0.50000000  1
  C  C2  1  0.19985900  0.00711400  0.23860200  1
  C  C3  1  0.80014100  0.99288600  0.76139800  1
  C  C4  1  0.30014100  0.00711400  0.73860200  1
  C  C5  1  0.69985900  0.99288600  0.26139800  1
  C  C6  1  0.50000000  0.00000000  0.00000000  1
  C  C7  1  0.00000000  0.00000000  0.50000000  1
  Ni  Ni8  1  0.54190300  0.16220800  0.83190900  1
  Ni  Ni9  1  0.95809700  0.16220800  0.33190900  1
  Ni  Ni10  1  0.45809700  0.83779200  0.16809100  1
  Ni  Ni11  1  0.04190300  0.83779200  0.66809100  1
  Cu  Cu12  1  0.20242500  0.36907800  0.56368700  1
  Cu  Cu13  1  0.05018700  0.35644100  0.82930500  1
  Cu  Cu14  1  0.44981300  0.35644100  0.32930500  1
  Cu  Cu15  1  0.70242500  0.63092200  0.93631300  1
  Cu  Cu16  1  0.29757500  0.36907800  0.06368700  1
  Cu  Cu17  1  0.14651000  0.81797700  0.93878000  1
  Cu  Cu18  1  0.55018700  0.64355900  0.67069500  1
  Cu  Cu19  1  0.85349000  0.18202300  0.06122000  1
  Cu  Cu20  1  0.79757500  0.63092200  0.43631300  1
  Cu  Cu21  1  0.64651000  0.18202300  0.56122000  1
  Cu  Cu22  1  0.94981300  0.64355900  0.17069500  1
  Cu  Cu23  1  0.35349000  0.81797700  0.43878000  1
