# generated using pymatgen
data_Cu25NiC39
_symmetry_space_group_name_H-M   'P 1'
_cell_length_a   9.01738900
_cell_length_b   9.01872164
_cell_length_c   14.68172495
_cell_angle_alpha   90.16505900
_cell_angle_beta   90.09363720
_cell_angle_gamma   109.62967292
_symmetry_Int_Tables_number   1
_chemical_formula_structural   Cu25NiC39
_chemical_formula_sum   'Cu25 Ni1 C39'
_cell_volume   1124.59629088
_cell_formula_units_Z   1
loop_
 _symmetry_equiv_pos_site_id
 _symmetry_equiv_pos_as_xyz
  1  'x, y, z'
loop_
 _atom_site_type_symbol
 _atom_site_label
 _atom_site_symmetry_multiplicity
 _atom_site_fract_x
 _atom_site_fract_y
 _atom_site_fract_z
 _atom_site_occupancy
  Ni  Ni0  1  0.50084100  0.50428500  0.49723500  1
  Cu  Cu1  1  0.02412500  0.32521400  0.16734800  1
  Cu  Cu2  1  0.39417900  0.23391800  0.09705000  1
  Cu  Cu3  1  0.83288300  0.52411500  0.33413400  1
  Cu  Cu4  1  0.24124200  0.74132100  0.42807600  1
  Cu  Cu5  1  0.53020300  0.83276600  0.66304000  1
  Cu  Cu6  1  0.77259800  0.57872200  0.08313300  1
  Cu  Cu7  1  0.90391300  0.73383500  0.59636400  1
  Cu  Cu8  1  0.44467900  0.58231900  0.25330300  1
  Cu  Cu9  1  0.08381300  0.94518600  0.24713700  1
  Cu  Cu10  1  0.33164200  0.02392900  0.83140800  1
  Cu  Cu11  1  0.73239700  0.23214500  0.92888900  1
  Cu  Cu12  1  0.73604800  0.90338100  0.40598900  1
  Cu  Cu13  1  0.22617500  0.73371800  0.07639800  1
  Cu  Cu14  1  0.27679400  0.08828200  0.58180200  1
  Cu  Cu15  1  0.65371400  0.98814400  0.15438800  1
  Cu  Cu16  1  0.93784800  0.09405900  0.74019600  1
  Cu  Cu17  1  0.58140600  0.44687400  0.74834100  1
  Cu  Cu18  1  0.08821900  0.27490900  0.41524700  1
  Cu  Cu19  1  0.23226800  0.38494000  0.90920800  1
  Cu  Cu20  1  0.48724900  0.15913100  0.34581400  1
  Cu  Cu21  1  0.73397200  0.25313500  0.56598600  1
  Cu  Cu22  1  0.17297800  0.49228300  0.64745600  1
  Cu  Cu23  1  0.56107300  0.76710100  0.92083100  1
  Cu  Cu24  1  0.99586500  0.63819900  0.84235400  1
  Cu  Cu25  1  0.98403500  0.98019200  0.98639100  1
  C  C26  1  0.06296000  0.42488300  0.31102500  1
  C  C27  1  0.69937400  0.32123400  0.05717200  1
  C  C28  1  0.13369400  0.50072000  0.50007100  1
  C  C29  1  0.55078800  0.43631900  0.18649000  1
  C  C30  1  0.37998000  0.37951500  0.37672900  1
  C  C31  1  0.74236100  0.49672000  0.50223000  1
  C  C32  1  0.92633100  0.56500200  0.18862500  1
  C  C33  1  0.00298800  0.73659800  0.37718000  1
  C  C34  1  0.56397400  0.92346200  0.81367600  1
  C  C35  1  0.23277700  0.49804400  0.12082700  1
  C  C36  1  0.19728700  0.82297300  0.55711400  1
  C  C37  1  0.68636300  0.68601400  0.31591400  1
  C  C38  1  0.62760400  0.00067300  0.00020200  1
  C  C39  1  0.68874500  0.68951500  0.68920200  1
  C  C40  1  0.50804900  0.74963300  0.50267100  1
  C  C41  1  0.04503900  0.93603900  0.69017700  1
  C  C42  1  0.50682100  0.75402800  0.13031800  1
  C  C43  1  0.89512200  0.89900600  0.11705000  1
  C  C44  1  0.25605200  0.00551700  0.36962900  1
  C  C45  1  0.42354600  0.06723600  0.68992400  1
  C  C46  1  0.49925700  0.23585300  0.87889600  1
  C  C47  1  0.93612600  0.05090900  0.31185500  1
  C  C48  1  0.56646000  0.94489800  0.32026500  1
  C  C49  1  0.74311300  0.00806600  0.62625400  1
  C  C50  1  0.18357000  0.18270700  0.81580500  1
  C  C51  1  0.00818500  0.22238200  0.00166800  1
  C  C52  1  0.01652000  0.25726400  0.63075800  1
  C  C53  1  0.44231100  0.06586000  0.18075500  1
  C  C54  1  0.37749700  0.38559700  0.62068600  1
  C  C55  1  0.82183100  0.19983000  0.44218300  1
  C  C56  1  0.75674100  0.51254700  0.86698200  1
  C  C57  1  0.50058800  0.13437300  0.50075400  1
  C  C58  1  0.43177900  0.54696900  0.81758200  1
  C  C59  1  0.06193300  0.43288100  0.82418000  1
  C  C60  1  0.19485300  0.19505000  0.19519900  1
  C  C61  1  0.95064100  0.56752300  0.68288500  1
  C  C62  1  0.31343400  0.70226600  0.94471500  1
  C  C63  1  0.99893500  0.62857700  0.99955300  1
  C  C64  1  0.22321300  0.00321300  0.00728300  1
