# generated using pymatgen
data_Cu(NiC2)2
_symmetry_space_group_name_H-M   'P 1'
_cell_length_a   5.75435552
_cell_length_b   5.75435552
_cell_length_c   18.91255559
_cell_angle_alpha   81.54627071
_cell_angle_beta   81.54627071
_cell_angle_gamma   60.22246487
_symmetry_Int_Tables_number   1
_chemical_formula_structural   Cu(NiC2)2
_chemical_formula_sum   'Cu8 Ni16 C32'
_cell_volume   535.64820976
_cell_formula_units_Z   8
loop_
 _symmetry_equiv_pos_site_id
 _symmetry_equiv_pos_as_xyz
  1  'x, y, z'
loop_
 _atom_site_type_symbol
 _atom_site_label
 _atom_site_symmetry_multiplicity
 _atom_site_fract_x
 _atom_site_fract_y
 _atom_site_fract_z
 _atom_site_occupancy
  Ni  Ni0  1  0.12501200  0.62929200  0.12567300  1
  Ni  Ni1  1  0.99982200  0.99982200  0.00291900  1
  Ni  Ni2  1  0.90049000  0.90049000  0.28445000  1
  Ni  Ni3  1  0.62929200  0.12501200  0.12567300  1
  Ni  Ni4  1  0.37487700  0.87531100  0.37487400  1
  Ni  Ni5  1  0.15012800  0.15012800  0.53297400  1
  Ni  Ni6  1  0.87531100  0.37487700  0.37487400  1
  Ni  Ni7  1  0.60109700  0.60109700  0.21627800  1
  Ni  Ni8  1  0.39881400  0.39881400  0.78120400  1
  Ni  Ni9  1  0.12474700  0.62471300  0.62448300  1
  Ni  Ni10  1  0.84965000  0.84965000  0.46646200  1
  Ni  Ni11  1  0.62471300  0.12474700  0.62448300  1
  Ni  Ni12  1  0.87200700  0.37642900  0.87397500  1
  Ni  Ni13  1  0.37642900  0.87200700  0.87397500  1
  Ni  Ni14  1  0.09909800  0.09909800  0.71653900  1
  Ni  Ni15  1  0.34975700  0.34975700  0.96974500  1
  Cu  Cu16  1  0.65510500  0.65510500  0.03172700  1
  Cu  Cu17  1  0.12520100  0.12520100  0.12585300  1
  Cu  Cu18  1  0.37508900  0.37508900  0.37508000  1
  Cu  Cu19  1  0.25099600  0.25099600  0.24961100  1
  Cu  Cu20  1  0.62495300  0.62495300  0.62462400  1
  Cu  Cu21  1  0.50001500  0.50001500  0.49986900  1
  Cu  Cu22  1  0.87317800  0.87317800  0.87420700  1
  Cu  Cu23  1  0.74885800  0.74885800  0.74998800  1
  C  C24  1  0.27507900  0.81560100  0.06379500  1
  C  C25  1  0.93158600  0.93158600  0.18757900  1
  C  C26  1  0.81560100  0.27507900  0.06379500  1
  C  C27  1  0.83149000  0.83149000  0.06701100  1
  C  C28  1  0.43972500  0.43972500  0.18159100  1
  C  C29  1  0.55168000  0.04915200  0.31696500  1
  C  C30  1  0.32025000  0.32025000  0.06660600  1
  C  C31  1  0.04915200  0.55168000  0.31696500  1
  C  C32  1  0.45399900  0.94796300  0.18308800  1
  C  C33  1  0.18044900  0.18044900  0.43485800  1
  C  C34  1  0.06384800  0.06384800  0.31778300  1
  C  C35  1  0.94796300  0.45399900  0.18308800  1
  C  C36  1  0.68680600  0.68680600  0.43291300  1
  C  C37  1  0.80260700  0.29818900  0.56649200  1
  C  C38  1  0.70145600  0.19760700  0.43362800  1
  C  C39  1  0.56977200  0.56977200  0.31524600  1
  C  C40  1  0.29818900  0.80260700  0.56649200  1
  C  C41  1  0.43011400  0.43011400  0.68331700  1
  C  C42  1  0.31260000  0.31260000  0.56707500  1
  C  C43  1  0.19760700  0.70145600  0.43362800  1
  C  C44  1  0.93620100  0.93620100  0.68301600  1
  C  C45  1  0.05470500  0.54528700  0.81590400  1
  C  C46  1  0.95093700  0.44725000  0.68358200  1
  C  C47  1  0.81948100  0.81948100  0.56528500  1
  C  C48  1  0.54528700  0.05470500  0.81590400  1
  C  C49  1  0.67836000  0.67836000  0.92552900  1
  C  C50  1  0.55788400  0.55788400  0.81628400  1
  C  C51  1  0.44725000  0.95093700  0.68358200  1
  C  C52  1  0.17944100  0.17944100  0.93722700  1
  C  C53  1  0.06880000  0.06880000  0.81586900  1
  C  C54  1  0.18843100  0.70861000  0.93818100  1
  C  C55  1  0.70861000  0.18843100  0.93818100  1
