# generated using pymatgen
data_Cu2NiC15
_symmetry_space_group_name_H-M   'P 1'
_cell_length_a   9.13617300
_cell_length_b   7.95029200
_cell_length_c   11.59397680
_cell_angle_alpha   88.04264378
_cell_angle_beta   90.00000000
_cell_angle_gamma   90.00000000
_symmetry_Int_Tables_number   1
_chemical_formula_structural   Cu2NiC15
_chemical_formula_sum   'Cu8 Ni4 C60'
_cell_volume   841.63996062
_cell_formula_units_Z   4
loop_
 _symmetry_equiv_pos_site_id
 _symmetry_equiv_pos_as_xyz
  1  'x, y, z'
loop_
 _atom_site_type_symbol
 _atom_site_label
 _atom_site_symmetry_multiplicity
 _atom_site_fract_x
 _atom_site_fract_y
 _atom_site_fract_z
 _atom_site_occupancy
  C  C0  1  0.49787900  0.96273900  0.75056200  1
  C  C1  1  0.99787900  0.03726100  0.74943800  1
  C  C2  1  0.00212100  0.96273900  0.25056200  1
  C  C3  1  0.50212100  0.03726100  0.24943800  1
  C  C4  1  0.52579500  0.83443300  0.05225600  1
  C  C5  1  0.17456800  0.18550400  0.37788200  1
  C  C6  1  0.91500500  0.37961800  0.35277200  1
  C  C7  1  0.01200000  0.81096800  0.94552600  1
  C  C8  1  0.51200000  0.18903200  0.55447400  1
  C  C9  1  0.67757400  0.44398900  0.43308200  1
  C  C10  1  0.72003400  0.63557600  0.91426000  1
  C  C11  1  0.79115200  0.35414100  0.25029000  1
  C  C12  1  0.27996600  0.36442400  0.08574000  1
  C  C13  1  0.58499500  0.37961800  0.85277200  1
  C  C14  1  0.67456800  0.81449600  0.12211800  1
  C  C15  1  0.82742800  0.16665800  0.10304800  1
  C  C16  1  0.17257200  0.83334200  0.89695200  1
  C  C17  1  0.82543200  0.81449600  0.62211800  1
  C  C18  1  0.39239000  0.47021100  0.25300900  1
  C  C19  1  0.22003400  0.36442400  0.58574000  1
  C  C20  1  0.08499500  0.62038200  0.64722800  1
  C  C21  1  0.20884800  0.64585900  0.74971000  1
  C  C22  1  0.67257200  0.16665800  0.60304800  1
  C  C23  1  0.14428000  0.41648200  0.18927000  1
  C  C24  1  0.70884800  0.35414100  0.75029000  1
  C  C25  1  0.85572000  0.58351800  0.81073000  1
  C  C26  1  0.32242600  0.55601100  0.56691800  1
  C  C27  1  0.41500500  0.62038200  0.14722800  1
  C  C28  1  0.17757400  0.55601100  0.06691800  1
  C  C29  1  0.64428000  0.58351800  0.31073000  1
  C  C30  1  0.77996600  0.63557600  0.41426000  1
  C  C31  1  0.02579500  0.16556700  0.44774400  1
  C  C32  1  0.60761000  0.52978900  0.74699100  1
  C  C33  1  0.97420500  0.83443300  0.55225600  1
  C  C34  1  0.29115200  0.64585900  0.24971000  1
  C  C35  1  0.98800000  0.18903200  0.05447400  1
  C  C36  1  0.47420500  0.16556700  0.94774400  1
  C  C37  1  0.32742800  0.83334200  0.39695200  1
  C  C38  1  0.35572000  0.41648200  0.68927000  1
  C  C39  1  0.89239000  0.52978900  0.24699100  1
  C  C40  1  0.32543200  0.18550400  0.87788200  1
  C  C41  1  0.10761000  0.47021100  0.75300900  1
  C  C42  1  0.48800000  0.81096800  0.44552600  1
  C  C43  1  0.82242600  0.44398900  0.93308200  1
  C  C44  1  0.77284900  0.53223500  0.87038900  1
  C  C45  1  0.27284900  0.46776500  0.62961100  1
  C  C46  1  0.72715100  0.53223500  0.37038900  1
  C  C47  1  0.22715100  0.46776500  0.12961100  1
  Ni  Ni48  1  0.33904400  0.55691100  0.19835200  1
  Ni  Ni49  1  0.66095600  0.44308900  0.80164800  1
  Ni  Ni50  1  0.83904400  0.44308900  0.30164800  1
  Ni  Ni51  1  0.16095600  0.55691100  0.69835200  1
  C  C52  1  0.09614600  0.25394000  0.88468900  1
  C  C53  1  0.75095300  0.01241900  0.34445900  1
  C  C54  1  0.24904700  0.98758100  0.65554100  1
  C  C55  1  0.58873400  0.26384000  0.10679700  1
  C  C56  1  0.25095300  0.98758100  0.15554100  1
  C  C57  1  0.40385400  0.25394000  0.38468900  1
  C  C58  1  0.90385400  0.74606000  0.11531100  1
  C  C59  1  0.74904700  0.01241900  0.84445900  1
  C  C60  1  0.08873400  0.73616000  0.39320300  1
  C  C61  1  0.59614600  0.74606000  0.61531100  1
  C  C62  1  0.41126600  0.73616000  0.89320300  1
  C  C63  1  0.91126600  0.26384000  0.60679700  1
  Cu  Cu64  1  0.06736700  0.16935500  0.36906700  1
  Cu  Cu65  1  0.56736700  0.83064500  0.13093300  1
  Cu  Cu66  1  0.93263300  0.83064500  0.63093300  1
  Cu  Cu67  1  0.06883900  0.82807900  0.87360900  1
  Cu  Cu68  1  0.43116100  0.82807900  0.37360900  1
  Cu  Cu69  1  0.43263300  0.16935500  0.86906700  1
  Cu  Cu70  1  0.56883900  0.17192100  0.62639100  1
  Cu  Cu71  1  0.93116100  0.17192100  0.12639100  1
