# generated using pymatgen
data_CuNi2C7
_symmetry_space_group_name_H-M   'P 1'
_cell_length_a   6.11789269
_cell_length_b   6.11789269
_cell_length_c   6.17854721
_cell_angle_alpha   60.04388255
_cell_angle_beta   60.04388255
_cell_angle_gamma   60.11223137
_symmetry_Int_Tables_number   1
_chemical_formula_structural   CuNi2C7
_chemical_formula_sum   'Cu1 Ni2 C7'
_cell_volume   163.76848159
_cell_formula_units_Z   1
loop_
 _symmetry_equiv_pos_site_id
 _symmetry_equiv_pos_as_xyz
  1  'x, y, z'
loop_
 _atom_site_type_symbol
 _atom_site_label
 _atom_site_symmetry_multiplicity
 _atom_site_fract_x
 _atom_site_fract_y
 _atom_site_fract_z
 _atom_site_occupancy
  Ni  Ni0  1  0.24842400  0.24842400  0.25737300  1
  Ni  Ni1  1  0.75157600  0.75157600  0.74262700  1
  Cu  Cu2  1  0.00000000  0.00000000  0.00000000  1
  C  C3  1  0.50000000  0.50000000  0.50000000  1
  C  C4  1  0.30135600  0.76854300  0.69454100  1
  C  C5  1  0.23145700  0.69864400  0.30545900  1
  C  C6  1  0.69864400  0.23145700  0.30545900  1
  C  C7  1  0.76854300  0.30135600  0.69454100  1
  C  C8  1  0.73037700  0.73037700  0.20518600  1
  C  C9  1  0.26962300  0.26962300  0.79481400  1
