# generated using pymatgen
data_Cu2Ni8C5
_symmetry_space_group_name_H-M   'P 1'
_cell_length_a   6.10481600
_cell_length_b   7.51368700
_cell_length_c   10.58199700
_cell_angle_alpha   90.00000000
_cell_angle_beta   90.00000000
_cell_angle_gamma   90.00000000
_symmetry_Int_Tables_number   1
_chemical_formula_structural   Cu2Ni8C5
_chemical_formula_sum   'Cu8 Ni32 C20'
_cell_volume   485.39278035
_cell_formula_units_Z   4
loop_
 _symmetry_equiv_pos_site_id
 _symmetry_equiv_pos_as_xyz
  1  'x, y, z'
loop_
 _atom_site_type_symbol
 _atom_site_label
 _atom_site_symmetry_multiplicity
 _atom_site_fract_x
 _atom_site_fract_y
 _atom_site_fract_z
 _atom_site_occupancy
  C  C0  1  0.75000000  0.25042200  0.08276400  1
  C  C1  1  0.25000000  0.74957800  0.91723600  1
  C  C2  1  0.75000000  0.75042200  0.41723600  1
  C  C3  1  0.25000000  0.24957800  0.58276400  1
  Ni  Ni4  1  0.11252700  0.66966200  0.53657700  1
  Ni  Ni5  1  0.88625600  0.11381800  0.67462300  1
  Ni  Ni6  1  0.75000000  0.92044200  0.63605200  1
  Ni  Ni7  1  0.38625600  0.88618200  0.32537700  1
  Ni  Ni8  1  0.61252700  0.33033800  0.46342300  1
  Ni  Ni9  1  0.75000000  0.88341000  0.16924500  1
  Ni  Ni10  1  0.25000000  0.57955800  0.13605200  1
  Ni  Ni11  1  0.25000000  0.00293800  0.21488000  1
  Ni  Ni12  1  0.25000000  0.50293800  0.28512000  1
  Ni  Ni13  1  0.75000000  0.16790700  0.38531200  1
  Ni  Ni14  1  0.75000000  0.49706200  0.71488000  1
  Ni  Ni15  1  0.88747300  0.33033800  0.46342300  1
  Ni  Ni16  1  0.75000000  0.99706200  0.78512000  1
  Ni  Ni17  1  0.75000000  0.42044200  0.86394800  1
  Ni  Ni18  1  0.25000000  0.07955800  0.36394800  1
  Ni  Ni19  1  0.61374400  0.11381800  0.67462300  1
  Ni  Ni20  1  0.25000000  0.11659000  0.83075500  1
  Ni  Ni21  1  0.75000000  0.38341000  0.33075500  1
  Ni  Ni22  1  0.25000000  0.83209300  0.61468800  1
  Ni  Ni23  1  0.38625600  0.38618200  0.17462300  1
  Ni  Ni24  1  0.88747300  0.83033800  0.03657700  1
  Ni  Ni25  1  0.25000000  0.61659000  0.66924500  1
  Ni  Ni26  1  0.88625600  0.61381800  0.82537700  1
  Ni  Ni27  1  0.11252700  0.16966200  0.96342300  1
  Ni  Ni28  1  0.38747300  0.16966200  0.96342300  1
  Ni  Ni29  1  0.61374400  0.61381800  0.82537700  1
  Ni  Ni30  1  0.25000000  0.33209300  0.88531200  1
  Ni  Ni31  1  0.61252700  0.83033800  0.03657700  1
  Ni  Ni32  1  0.75000000  0.66790700  0.11468800  1
  Ni  Ni33  1  0.38747300  0.66966200  0.53657700  1
  Ni  Ni34  1  0.11374400  0.88618200  0.32537700  1
  Ni  Ni35  1  0.11374400  0.38618200  0.17462300  1
  Cu  Cu36  1  0.25000000  0.96469800  0.30786100  1
  Cu  Cu37  1  0.25000000  0.69585500  0.59043700  1
  Cu  Cu38  1  0.75000000  0.53530200  0.80786100  1
  Cu  Cu39  1  0.25000000  0.19585500  0.90956300  1
  Cu  Cu40  1  0.25000000  0.46469800  0.19213900  1
  Cu  Cu41  1  0.75000000  0.30414500  0.40956300  1
  Cu  Cu42  1  0.75000000  0.03530200  0.69213900  1
  Cu  Cu43  1  0.75000000  0.80414500  0.09043700  1
  C  C44  1  0.25000000  0.78174100  0.06304300  1
  C  C45  1  0.75000000  0.45503200  0.11398600  1
  C  C46  1  0.53516500  0.17127200  0.13895100  1
  C  C47  1  0.46483500  0.32872800  0.63895100  1
  C  C48  1  0.75000000  0.95503200  0.38601400  1
  C  C49  1  0.46483500  0.82872800  0.86104900  1
  C  C50  1  0.96483500  0.17127200  0.13895100  1
  C  C51  1  0.25000000  0.54496800  0.88601400  1
  C  C52  1  0.75000000  0.71825900  0.56304300  1
  C  C53  1  0.25000000  0.28174100  0.43695700  1
  C  C54  1  0.03516500  0.32872800  0.63895100  1
  C  C55  1  0.03516500  0.82872800  0.86104900  1
  C  C56  1  0.25000000  0.04496800  0.61398600  1
  C  C57  1  0.96483500  0.67127200  0.36104900  1
  C  C58  1  0.53516500  0.67127200  0.36104900  1
  C  C59  1  0.75000000  0.21825900  0.93695700  1
