# generated using pymatgen
data_Cu5NiC3
_symmetry_space_group_name_H-M   'P 1'
_cell_length_a   5.85680800
_cell_length_b   6.95079000
_cell_length_c   9.29533191
_cell_angle_alpha   88.23063376
_cell_angle_beta   90.00000000
_cell_angle_gamma   90.00000000
_symmetry_Int_Tables_number   1
_chemical_formula_structural   Cu5NiC3
_chemical_formula_sum   'Cu20 Ni4 C12'
_cell_volume   378.22735912
_cell_formula_units_Z   4
loop_
 _symmetry_equiv_pos_site_id
 _symmetry_equiv_pos_as_xyz
  1  'x, y, z'
loop_
 _atom_site_type_symbol
 _atom_site_label
 _atom_site_symmetry_multiplicity
 _atom_site_fract_x
 _atom_site_fract_y
 _atom_site_fract_z
 _atom_site_occupancy
  C  C0  1  0.13716500  0.90866200  0.14563100  1
  C  C1  1  0.86283500  0.90866200  0.14563100  1
  C  C2  1  0.00000000  0.73663500  0.24207300  1
  C  C3  1  0.00000000  0.60962900  0.59281200  1
  C  C4  1  0.00000000  0.83587100  0.67958300  1
  C  C5  1  0.00000000  0.60502000  0.77179800  1
  C  C6  1  0.50000000  0.11337400  0.91593000  1
  C  C7  1  0.50000000  0.33417300  0.82137300  1
  C  C8  1  0.50000000  0.10808100  0.73608100  1
  C  C9  1  0.50000000  0.38019400  0.41341900  1
  C  C10  1  0.50000000  0.39926300  0.23284800  1
  C  C11  1  0.50000000  0.16776600  0.31688800  1
  Ni  Ni12  1  0.50000000  0.68133800  0.93540800  1
  Ni  Ni13  1  0.50000000  0.81359200  0.42239800  1
  Ni  Ni14  1  0.00000000  0.29674300  0.07481000  1
  Ni  Ni15  1  0.00000000  0.18374500  0.57174800  1
  Cu  Cu16  1  0.50000000  0.54231800  0.81690900  1
  Cu  Cu17  1  0.50000000  0.95774700  0.29897800  1
  Cu  Cu18  1  0.00000000  0.42654400  0.19325200  1
  Cu  Cu19  1  0.00000000  0.03701400  0.69331300  1
  Cu  Cu20  1  0.50000000  0.57892600  0.07422900  1
  Cu  Cu21  1  0.50000000  0.91246100  0.55691500  1
  Cu  Cu22  1  0.00000000  0.40214200  0.93768200  1
  Cu  Cu23  1  0.00000000  0.08776800  0.43658300  1
  Cu  Cu24  1  0.29820000  0.80143400  0.92025900  1
  Cu  Cu25  1  0.70262500  0.69406600  0.40853300  1
  Cu  Cu26  1  0.79613900  0.17138500  0.08411300  1
  Cu  Cu27  1  0.20217900  0.30357600  0.58771100  1
  Cu  Cu28  1  0.20386100  0.17138500  0.08411300  1
  Cu  Cu29  1  0.79782100  0.30357600  0.58771100  1
  Cu  Cu30  1  0.70180000  0.80143400  0.92025900  1
  Cu  Cu31  1  0.29737500  0.69406600  0.40853300  1
  Cu  Cu32  1  0.00000000  0.82449400  0.15650100  1
  Cu  Cu33  1  0.00000000  0.68171500  0.68118700  1
  Cu  Cu34  1  0.50000000  0.18326200  0.82320800  1
  Cu  Cu35  1  0.50000000  0.31727200  0.32096500  1
