# generated using pymatgen
data_Cu3Ni3C2
_symmetry_space_group_name_H-M   'P 1'
_cell_length_a   8.39846100
_cell_length_b   10.43114500
_cell_length_c   26.77015400
_cell_angle_alpha   90.00000000
_cell_angle_beta   90.00000000
_cell_angle_gamma   90.00000000
_symmetry_Int_Tables_number   1
_chemical_formula_structural   Cu3Ni3C2
_chemical_formula_sum   'Cu48 Ni48 C32'
_cell_volume   2345.21445206
_cell_formula_units_Z   16
loop_
 _symmetry_equiv_pos_site_id
 _symmetry_equiv_pos_as_xyz
  1  'x, y, z'
loop_
 _atom_site_type_symbol
 _atom_site_label
 _atom_site_symmetry_multiplicity
 _atom_site_fract_x
 _atom_site_fract_y
 _atom_site_fract_z
 _atom_site_occupancy
  C  C0  1  0.25394600  0.75937000  0.37459200  1
  C  C1  1  0.25394600  0.24063000  0.12540800  1
  C  C2  1  0.24839000  0.00000000  0.75000000  1
  C  C3  1  0.24605400  0.25937000  0.62540800  1
  C  C4  1  0.74605400  0.75937000  0.87459200  1
  C  C5  1  0.00386400  0.72270400  0.62750600  1
  C  C6  1  0.74839000  0.50000000  0.75000000  1
  C  C7  1  0.99613600  0.27729600  0.37249400  1
  C  C8  1  0.00000000  0.50000000  0.00000000  1
  C  C9  1  0.50000000  0.00000000  0.50000000  1
  C  C10  1  0.49613600  0.77729600  0.12750600  1
  C  C11  1  0.25161000  0.50000000  0.25000000  1
  C  C12  1  0.24605400  0.74063000  0.87459200  1
  C  C13  1  0.75394600  0.74063000  0.37459200  1
  C  C14  1  0.00000000  0.50000000  0.50000000  1
  C  C15  1  0.00386400  0.27729600  0.87249400  1
  C  C16  1  0.50000000  0.00000000  0.00000000  1
  C  C17  1  0.50386400  0.77729600  0.62750600  1
  C  C18  1  0.74605400  0.24063000  0.62540800  1
  C  C19  1  0.49613600  0.22270400  0.37249400  1
  C  C20  1  0.99613600  0.72270400  0.12750600  1
  C  C21  1  0.50386400  0.22270400  0.87249400  1
  C  C22  1  0.75161000  0.00000000  0.25000000  1
  C  C23  1  0.75394600  0.25937000  0.12540800  1
  C  C24  1  0.75074000  0.00000000  0.75000000  1
  C  C25  1  0.00000000  0.00000000  0.50000000  1
  C  C26  1  0.74926000  0.50000000  0.25000000  1
  C  C27  1  0.00000000  0.00000000  0.00000000  1
  C  C28  1  0.25074000  0.50000000  0.75000000  1
  C  C29  1  0.50000000  0.50000000  0.00000000  1
  C  C30  1  0.50000000  0.50000000  0.50000000  1
  C  C31  1  0.24926000  0.00000000  0.25000000  1
  Ni  Ni32  1  0.40936100  0.45166300  0.70380900  1
  Ni  Ni33  1  0.34268900  0.44956100  0.45323400  1
  Ni  Ni34  1  0.34488400  0.44858400  0.95346800  1
  Ni  Ni35  1  0.15511600  0.94858400  0.04653200  1
  Ni  Ni36  1  0.34268900  0.55043900  0.04676600  1
  Ni  Ni37  1  0.65731100  0.55043900  0.54676600  1
  Ni  Ni38  1  0.84268900  0.94956100  0.04676600  1
  Ni  Ni39  1  0.59063900  0.45166300  0.20380900  1
  Ni  Ni40  1  0.99938600  0.16416900  0.52819100  1
  Ni  Ni41  1  0.00061400  0.16416900  0.02819100  1
  Ni  Ni42  1  0.50061400  0.33583100  0.02819100  1
  Ni  Ni43  1  0.59063900  0.54833700  0.29619100  1
  Ni  Ni44  1  0.74910500  0.33486700  0.27749800  1
  Ni  Ni45  1  0.40859800  0.95136500  0.29595400  1
  Ni  Ni46  1  0.75089500  0.16513300  0.77749800  1
  Ni  Ni47  1  0.59140200  0.04863500  0.70404600  1
  Ni  Ni48  1  0.09140200  0.54863500  0.79595400  1
  Ni  Ni49  1  0.09063900  0.95166300  0.29619100  1
  Ni  Ni50  1  0.15731100  0.94956100  0.54676600  1
  Ni  Ni51  1  0.49938600  0.33583100  0.52819100  1
  Ni  Ni52  1  0.90936100  0.95166300  0.79619100  1
  Ni  Ni53  1  0.24910500  0.16513300  0.27749800  1
  Ni  Ni54  1  0.15511600  0.05141600  0.45346800  1
  Ni  Ni55  1  0.09063900  0.04833700  0.20380900  1
  Ni  Ni56  1  0.00061400  0.83583100  0.47180900  1
  Ni  Ni57  1  0.75089500  0.83486700  0.72250200  1
  Ni  Ni58  1  0.90859800  0.54863500  0.29595400  1
  Ni  Ni59  1  0.09140200  0.45136500  0.70404600  1
  Ni  Ni60  1  0.90859800  0.45136500  0.20404600  1
  Ni  Ni61  1  0.99938600  0.83583100  0.97180900  1
  Ni  Ni62  1  0.25089500  0.33486700  0.77749800  1
  Ni  Ni63  1  0.84488400  0.05141600  0.95346800  1
  Ni  Ni64  1  0.40936100  0.54833700  0.79619100  1
  Ni  Ni65  1  0.34488400  0.55141600  0.54653200  1
  Ni  Ni66  1  0.40859800  0.04863500  0.20404600  1
  Ni  Ni67  1  0.65511600  0.55141600  0.04653200  1
  Ni  Ni68  1  0.65511600  0.44858400  0.45346800  1
  Ni  Ni69  1  0.49938600  0.66416900  0.97180900  1
  Ni  Ni70  1  0.15731100  0.05043900  0.95323400  1
  Ni  Ni71  1  0.50061400  0.66416900  0.47180900  1
  Ni  Ni72  1  0.90936100  0.04833700  0.70380900  1
  Ni  Ni73  1  0.84488400  0.94858400  0.54653200  1
  Ni  Ni74  1  0.24910500  0.83486700  0.22250200  1
  Ni  Ni75  1  0.74910500  0.66513300  0.22250200  1
  Ni  Ni76  1  0.25089500  0.66513300  0.72250200  1
  Ni  Ni77  1  0.84268900  0.05043900  0.45323400  1
  Ni  Ni78  1  0.65731100  0.44956100  0.95323400  1
  Ni  Ni79  1  0.59140200  0.95136500  0.79595400  1
  Cu  Cu80  1  0.75004000  0.58326500  0.07635300  1
  Cu  Cu81  1  0.00435300  0.08135900  0.67420300  1
  Cu  Cu82  1  0.49573900  0.08158600  0.67461500  1
  Cu  Cu83  1  0.50435300  0.58135900  0.82579700  1
  Cu  Cu84  1  0.24987900  0.76688600  0.70366500  1
  Cu  Cu85  1  0.24661100  0.41699700  0.42388800  1
  Cu  Cu86  1  0.24661100  0.58300300  0.07611200  1
  Cu  Cu87  1  0.25012100  0.26688600  0.29633500  1
  Cu  Cu88  1  0.75338900  0.58300300  0.57611200  1
  Cu  Cu89  1  0.99573900  0.41841400  0.67461500  1
  Cu  Cu90  1  0.75004000  0.41673500  0.42364700  1
  Cu  Cu91  1  0.24996000  0.58326500  0.57635300  1
  Cu  Cu92  1  0.99573900  0.58158600  0.82538500  1
  Cu  Cu93  1  0.74996000  0.08326500  0.92364700  1
  Cu  Cu94  1  0.25338900  0.91699700  0.57611200  1
  Cu  Cu95  1  0.00131200  0.73499600  0.45215400  1
  Cu  Cu96  1  0.00131200  0.26500400  0.04784600  1
  Cu  Cu97  1  0.00426100  0.58158600  0.32538500  1
  Cu  Cu98  1  0.25004000  0.91673500  0.07635300  1
  Cu  Cu99  1  0.25338900  0.08300300  0.92388800  1
  Cu  Cu100  1  0.50426100  0.91841400  0.32538500  1
  Cu  Cu101  1  0.99564700  0.08135900  0.17420300  1
  Cu  Cu102  1  0.74987900  0.73311400  0.70366500  1
  Cu  Cu103  1  0.99868800  0.26500400  0.54784600  1
  Cu  Cu104  1  0.49868800  0.76500400  0.95215400  1
  Cu  Cu105  1  0.99564700  0.91864100  0.32579700  1
  Cu  Cu106  1  0.75012100  0.76688600  0.20366500  1
  Cu  Cu107  1  0.24996000  0.41673500  0.92364700  1
  Cu  Cu108  1  0.99868800  0.73499600  0.95215400  1
  Cu  Cu109  1  0.74987900  0.26688600  0.79633500  1
  Cu  Cu110  1  0.74996000  0.91673500  0.57635300  1
  Cu  Cu111  1  0.50426100  0.08158600  0.17461500  1
  Cu  Cu112  1  0.74661100  0.91699700  0.07611200  1
  Cu  Cu113  1  0.25012100  0.73311400  0.20366500  1
  Cu  Cu114  1  0.75338900  0.41699700  0.92388800  1
  Cu  Cu115  1  0.25004000  0.08326500  0.42364700  1
  Cu  Cu116  1  0.50131200  0.76500400  0.45215400  1
  Cu  Cu117  1  0.49564700  0.41864100  0.17420300  1
  Cu  Cu118  1  0.00426100  0.41841400  0.17461500  1
  Cu  Cu119  1  0.74661100  0.08300300  0.42388800  1
  Cu  Cu120  1  0.24987900  0.23311400  0.79633500  1
  Cu  Cu121  1  0.75012100  0.23311400  0.29633500  1
  Cu  Cu122  1  0.50131200  0.23499600  0.04784600  1
  Cu  Cu123  1  0.49573900  0.91841400  0.82538500  1
  Cu  Cu124  1  0.49868800  0.23499600  0.54784600  1
  Cu  Cu125  1  0.49564700  0.58135900  0.32579700  1
  Cu  Cu126  1  0.00435300  0.91864100  0.82579700  1
  Cu  Cu127  1  0.50435300  0.41864100  0.67420300  1
