# generated using pymatgen
data_CuNi2C7
_symmetry_space_group_name_H-M   'P 1'
_cell_length_a   6.08103900
_cell_length_b   6.08103900
_cell_length_c   34.54696000
_cell_angle_alpha   90.00000000
_cell_angle_beta   90.00000000
_cell_angle_gamma   90.00000000
_symmetry_Int_Tables_number   1
_chemical_formula_structural   CuNi2C7
_chemical_formula_sum   'Cu8 Ni16 C56'
_cell_volume   1277.51325402
_cell_formula_units_Z   8
loop_
 _symmetry_equiv_pos_site_id
 _symmetry_equiv_pos_as_xyz
  1  'x, y, z'
loop_
 _atom_site_type_symbol
 _atom_site_label
 _atom_site_symmetry_multiplicity
 _atom_site_fract_x
 _atom_site_fract_y
 _atom_site_fract_z
 _atom_site_occupancy
  Ni  Ni0  1  0.50000000  0.00000000  0.06236000  1
  Ni  Ni1  1  0.00000000  0.50000000  0.18755100  1
  Ni  Ni2  1  0.00000000  0.50000000  0.06236000  1
  Ni  Ni3  1  0.50000000  0.00000000  0.31292500  1
  Ni  Ni4  1  0.50000000  0.00000000  0.18755100  1
  Ni  Ni5  1  0.00000000  0.50000000  0.43860200  1
  Ni  Ni6  1  0.00000000  0.50000000  0.31292500  1
  Ni  Ni7  1  0.50000000  0.00000000  0.56152700  1
  Ni  Ni8  1  0.50000000  0.00000000  0.43860200  1
  Ni  Ni9  1  0.00000000  0.50000000  0.68739400  1
  Ni  Ni10  1  0.00000000  0.50000000  0.56152700  1
  Ni  Ni11  1  0.50000000  0.00000000  0.81180200  1
  Ni  Ni12  1  0.50000000  0.00000000  0.68739400  1
  Ni  Ni13  1  0.00000000  0.50000000  0.93791500  1
  Ni  Ni14  1  0.00000000  0.50000000  0.81180200  1
  Ni  Ni15  1  0.50000000  0.00000000  0.93791500  1
  Cu  Cu16  1  0.00000000  0.00000000  0.12597000  1
  Cu  Cu17  1  0.50000000  0.50000000  0.25004900  1
  Cu  Cu18  1  0.00000000  0.00000000  0.37547800  1
  Cu  Cu19  1  0.50000000  0.50000000  0.49992400  1
  Cu  Cu20  1  0.00000000  0.00000000  0.62453300  1
  Cu  Cu21  1  0.50000000  0.50000000  0.74917700  1
  Cu  Cu22  1  0.50000000  0.50000000  0.87594700  1
  Cu  Cu23  1  0.00000000  0.00000000  0.99960000  1
  C  C24  1  0.50000000  0.50000000  0.12465100  1
  C  C25  1  0.00000000  0.00000000  0.25049000  1
  C  C26  1  0.50000000  0.50000000  0.37516100  1
  C  C27  1  0.50000000  0.50000000  0.62456200  1
  C  C28  1  0.00000000  0.00000000  0.87434700  1
  C  C29  1  0.00000000  0.00000000  0.49991800  1
  C  C30  1  0.00000000  0.00000000  0.75006600  1
  C  C31  1  0.50000000  0.50000000  0.00047600  1
  C  C32  1  0.00000000  0.00000000  0.06312000  1
  C  C33  1  0.72616900  0.25649500  0.12569500  1
  C  C34  1  0.25649500  0.27383100  0.12569500  1
  C  C35  1  0.50000000  0.50000000  0.18382900  1
  C  C36  1  0.50000000  0.50000000  0.06460800  1
  C  C37  1  0.74350500  0.72616900  0.12569500  1
  C  C38  1  0.22708200  0.75538100  0.24991700  1
  C  C39  1  0.27383100  0.74350500  0.12569500  1
  C  C40  1  0.75538100  0.77291800  0.24991700  1
  C  C41  1  0.00000000  0.00000000  0.30915900  1
  C  C42  1  0.00000000  0.00000000  0.19184800  1
  C  C43  1  0.24461900  0.22708200  0.24991700  1
  C  C44  1  0.72659800  0.25589100  0.37427300  1
  C  C45  1  0.77291800  0.24461900  0.24991700  1
  C  C46  1  0.25589100  0.27340200  0.37427300  1
  C  C47  1  0.50000000  0.50000000  0.43347000  1
  C  C48  1  0.50000000  0.50000000  0.31545500  1
  C  C49  1  0.74410900  0.72659800  0.37427300  1
  C  C50  1  0.23260000  0.75010500  0.49988300  1
  C  C51  1  0.27340200  0.74410900  0.37427300  1
  C  C52  1  0.75010500  0.76740000  0.49988300  1
  C  C53  1  0.00000000  0.00000000  0.56052300  1
  C  C54  1  0.00000000  0.00000000  0.43920500  1
  C  C55  1  0.24989500  0.23260000  0.49988300  1
  C  C56  1  0.72679800  0.25597000  0.62504800  1
  C  C57  1  0.76740000  0.24989500  0.49988300  1
  C  C58  1  0.25597000  0.27320200  0.62504800  1
  C  C59  1  0.50000000  0.50000000  0.68299300  1
  C  C60  1  0.50000000  0.50000000  0.56594500  1
  C  C61  1  0.74403000  0.72679800  0.62504800  1
  C  C62  1  0.23117600  0.75216600  0.75015400  1
  C  C63  1  0.27320200  0.74403000  0.62504800  1
  C  C64  1  0.75216600  0.76882400  0.75015400  1
  C  C65  1  0.00000000  0.00000000  0.81443500  1
  C  C66  1  0.00000000  0.00000000  0.68945400  1
  C  C67  1  0.24783400  0.23117600  0.75015400  1
  C  C68  1  0.75629700  0.22656700  0.87462000  1
  C  C69  1  0.76882400  0.24783400  0.75015400  1
  C  C70  1  0.22656700  0.24370300  0.87462000  1
  C  C71  1  0.50000000  0.50000000  0.94041100  1
  C  C72  1  0.50000000  0.50000000  0.81240000  1
  C  C73  1  0.77343300  0.75629700  0.87462000  1
  C  C74  1  0.25125800  0.73200000  0.00049700  1
  C  C75  1  0.24370300  0.77343300  0.87462000  1
  C  C76  1  0.73200000  0.74874200  0.00049700  1
  C  C77  1  0.00000000  0.00000000  0.93223700  1
  C  C78  1  0.26800000  0.25125800  0.00049700  1
  C  C79  1  0.74874200  0.26800000  0.00049700  1
