# generated using pymatgen
data_Cu(Ni2C25)3
_symmetry_space_group_name_H-M   'P 1'
_cell_length_a   16.98914413
_cell_length_b   16.98914413
_cell_length_c   16.98914413
_cell_angle_alpha   123.36857325
_cell_angle_beta   123.36857325
_cell_angle_gamma   84.25821024
_symmetry_Int_Tables_number   1
_chemical_formula_structural   Cu(Ni2C25)3
_chemical_formula_sum   'Cu2 Ni12 C150'
_cell_volume   3272.84461018
_cell_formula_units_Z   2
loop_
 _symmetry_equiv_pos_site_id
 _symmetry_equiv_pos_as_xyz
  1  'x, y, z'
loop_
 _atom_site_type_symbol
 _atom_site_label
 _atom_site_symmetry_multiplicity
 _atom_site_fract_x
 _atom_site_fract_y
 _atom_site_fract_z
 _atom_site_occupancy
  Ni  Ni0  1  0.37992300  0.62939100  0.00931400  1
  Ni  Ni1  1  0.87631200  0.37631200  0.25262500  1
  Ni  Ni2  1  0.12939100  0.87992300  0.00931400  1
  Ni  Ni3  1  0.62939100  0.62007700  0.24946800  1
  Ni  Ni4  1  0.37631200  0.12368800  0.50000000  1
  Ni  Ni5  1  0.62007700  0.37060900  0.99068600  1
  Ni  Ni6  1  0.62368800  0.87631200  0.50000000  1
  Ni  Ni7  1  0.37060900  0.37992300  0.75053200  1
  Ni  Ni8  1  0.12368800  0.62368800  0.74737500  1
  Ni  Ni9  1  0.87060900  0.12007700  0.99068600  1
  Ni  Ni10  1  0.12007700  0.12939100  0.24946800  1
  Ni  Ni11  1  0.87992300  0.87060900  0.75053200  1
  Cu  Cu12  1  0.25000000  0.75000000  0.50000000  1
  Cu  Cu13  1  0.75000000  0.25000000  0.50000000  1
  C  C14  1  0.75000000  0.49305600  0.74305600  1
  C  C15  1  0.50694400  0.25000000  0.25694400  1
  C  C16  1  0.25000000  0.99305600  0.74305600  1
  C  C17  1  0.49751200  0.99751200  0.74250800  1
  C  C18  1  0.00694400  0.75000000  0.25694400  1
  C  C19  1  0.25000000  0.50694400  0.25694400  1
  C  C20  1  0.99751200  0.25500500  0.50000000  1
  C  C21  1  0.99305600  0.25000000  0.74305600  1
  C  C22  1  0.50000000  0.50000000  0.50000000  1
  C  C23  1  0.24499500  0.50248800  0.50000000  1
  C  C24  1  0.00000000  0.50000000  0.00000000  1
  C  C25  1  0.74499500  0.24499500  0.74250800  1
  C  C26  1  0.75500500  0.49751200  0.50000000  1
  C  C27  1  0.75000000  0.00694400  0.25694400  1
  C  C28  1  0.75000000  0.75000000  0.00000000  1
  C  C29  1  0.00248800  0.74499500  0.50000000  1
  C  C30  1  0.49305600  0.75000000  0.74305600  1
  C  C31  1  0.25500500  0.75500500  0.25749200  1
  C  C32  1  0.50248800  0.00248800  0.25749200  1
  C  C33  1  0.50000000  0.00000000  0.00000000  1
  C  C34  1  0.00000000  0.00000000  0.50000000  1
  C  C35  1  0.25000000  0.25000000  0.00000000  1
  C  C36  1  0.43613000  0.72094000  0.50000000  1
  C  C37  1  0.03848600  0.01032800  0.72883800  1
  C  C38  1  0.22094000  0.93613000  0.50000000  1
  C  C39  1  0.53848600  0.80964800  0.02815800  1
  C  C40  1  0.30964800  0.03848600  0.02815800  1
  C  C41  1  0.77906000  0.06387000  0.50000000  1
  C  C42  1  0.21851000  0.48967200  0.02815800  1
  C  C43  1  0.98967200  0.71851000  0.02815800  1
  C  C44  1  0.01032800  0.28149000  0.97184200  1
  C  C45  1  0.06387000  0.56387000  0.28481000  1
  C  C46  1  0.71851000  0.69035200  0.72883800  1
  C  C47  1  0.80964800  0.78149000  0.27116200  1
  C  C48  1  0.72094000  0.22094000  0.28481000  1
  C  C49  1  0.93613000  0.43613000  0.71519000  1
  C  C50  1  0.46151400  0.19035200  0.97184200  1
  C  C51  1  0.69035200  0.96151400  0.97184200  1
  C  C52  1  0.56387000  0.27906000  0.50000000  1
  C  C53  1  0.27906000  0.77906000  0.71519000  1
  C  C54  1  0.51032800  0.53848600  0.72883800  1
  C  C55  1  0.19035200  0.21851000  0.72883800  1
  C  C56  1  0.48967200  0.46151400  0.27116200  1
  C  C57  1  0.96151400  0.98967200  0.27116200  1
  C  C58  1  0.28149000  0.30964800  0.27116200  1
  C  C59  1  0.78149000  0.51032800  0.97184200  1
  C  C60  1  0.58210500  0.31008500  0.74194200  1
  C  C61  1  0.18450100  0.68450100  0.02178100  1
  C  C62  1  0.07716000  0.07716000  0.00000000  1
  C  C63  1  0.15983700  0.41789500  0.72797900  1
  C  C64  1  0.57716000  0.57716000  0.00000000  1
  C  C65  1  0.93185800  0.18991500  0.27202100  1
  C  C66  1  0.07584300  0.57584300  0.50000000  1
  C  C67  1  0.42284000  0.42284000  0.00000000  1
  C  C68  1  0.68450100  0.66272000  0.50000000  1
  C  C69  1  0.92415700  0.42415700  0.50000000  1
  C  C70  1  0.57584300  0.07584300  0.50000000  1
  C  C71  1  0.06814200  0.81008500  0.72797900  1
  C  C72  1  0.92284000  0.92284000  0.00000000  1
  C  C73  1  0.66272000  0.16272000  0.97821900  1
  C  C74  1  0.91789500  0.65983700  0.72797900  1
  C  C75  1  0.08210500  0.34016300  0.27202100  1
  C  C76  1  0.42415700  0.92415700  0.50000000  1
  C  C77  1  0.81008500  0.08210500  0.74194200  1
  C  C78  1  0.16272000  0.18450100  0.50000000  1
  C  C79  1  0.18991500  0.91789500  0.25805800  1
  C  C80  1  0.65983700  0.93185800  0.74194200  1
  C  C81  1  0.81549900  0.31549900  0.97821900  1
  C  C82  1  0.83728000  0.81549900  0.50000000  1
  C  C83  1  0.33728000  0.83728000  0.02178100  1
  C  C84  1  0.41789500  0.68991500  0.25805800  1
  C  C85  1  0.84016300  0.58210500  0.27202100  1
  C  C86  1  0.68991500  0.43185800  0.27202100  1
  C  C87  1  0.34016300  0.06814200  0.25805800  1
  C  C88  1  0.31549900  0.33728000  0.50000000  1
  C  C89  1  0.43185800  0.15983700  0.74194200  1
  C  C90  1  0.31008500  0.56814200  0.72797900  1
  C  C91  1  0.56814200  0.84016300  0.25805800  1
  C  C92  1  0.40506100  0.31851000  0.32839500  1
  C  C93  1  0.18260100  0.56405300  0.37627200  1
  C  C94  1  0.57666600  0.49011600  0.67160500  1
  C  C95  1  0.92333400  0.59493900  0.91344900  1
  C  C96  1  0.80606600  0.42850700  0.86982800  1
  C  C97  1  0.81739900  0.43594700  0.62372800  1
  C  C98  1  0.19367100  0.81739900  0.38145300  1
  C  C99  1  0.73722100  0.57463300  0.91352200  1
  C  C100  1  0.59439300  0.37405100  0.50000000  1
  C  C101  1  0.80632900  0.18260100  0.61854700  1
  C  C102  1  0.76277900  0.67630100  0.83741200  1
  C  C103  1  0.55867900  0.93623800  0.13017200  1
  C  C104  1  0.16111100  0.07463300  0.83741200  1
  C  C105  1  0.69367100  0.31221800  0.37627200  1
  C  C106  1  0.30606600  0.43623800  0.37755900  1
  C  C107  1  0.92536700  0.76277900  0.08647800  1
  C  C108  1  0.07666600  0.40506100  0.08655100  1
  C  C109  1  0.50988400  0.18149000  0.08655100  1
  C  C110  1  0.82369900  0.73722100  0.16258800  1
  C  C111  1  0.68149000  0.00988400  0.08655100  1
  C  C112  1  0.00988400  0.92333400  0.32839500  1
  C  C113  1  0.37405100  0.87405100  0.77965800  1
  C  C114  1  0.49011600  0.81851000  0.91344900  1
  C  C115  1  0.42333400  0.50988400  0.32839500  1
  C  C116  1  0.66111200  0.82369900  0.08647800  1
  C  C117  1  0.94132100  0.07149300  0.37755900  1
  C  C118  1  0.56405300  0.18778200  0.38145300  1
  C  C119  1  0.09439300  0.59439300  0.22034200  1
  C  C120  1  0.31851000  0.99011600  0.91344900  1
  C  C121  1  0.43623800  0.05867900  0.13017200  1
  C  C122  1  0.09493900  0.42333400  0.91344900  1
  C  C123  1  0.57463300  0.66111200  0.83741200  1
  C  C124  1  0.33888800  0.17630100  0.91352200  1
  C  C125  1  0.56376200  0.94132100  0.86982800  1
  C  C126  1  0.93594700  0.31739900  0.62372800  1
  C  C127  1  0.83888800  0.92536700  0.16258800  1
  C  C128  1  0.19393400  0.57149300  0.13017200  1
  C  C129  1  0.40560700  0.62594900  0.50000000  1
  C  C130  1  0.07463300  0.23722100  0.91352200  1
  C  C131  1  0.42850700  0.55867900  0.62244100  1
  C  C132  1  0.57149300  0.44132100  0.37755900  1
  C  C133  1  0.06405300  0.68260100  0.37627200  1
  C  C134  1  0.62594900  0.12594900  0.22034200  1
  C  C135  1  0.81851000  0.90506100  0.32839500  1
  C  C136  1  0.44132100  0.06376200  0.86982800  1
  C  C137  1  0.68260100  0.30632900  0.61854700  1
  C  C138  1  0.99011600  0.07666600  0.67160500  1
  C  C139  1  0.06376200  0.19393400  0.62244100  1
  C  C140  1  0.69393400  0.56376200  0.62244100  1
  C  C141  1  0.87405100  0.09439300  0.50000000  1
  C  C142  1  0.18149000  0.09493900  0.67160500  1
  C  C143  1  0.31221800  0.93594600  0.61854700  1
  C  C144  1  0.18778200  0.80632900  0.62372800  1
  C  C145  1  0.26277900  0.42536700  0.08647800  1
  C  C146  1  0.23722100  0.32369900  0.16258800  1
  C  C147  1  0.32369900  0.16111200  0.08647800  1
  C  C148  1  0.67630100  0.83888800  0.91352200  1
  C  C149  1  0.30632900  0.68778200  0.62372800  1
  C  C150  1  0.31739900  0.69367100  0.38145300  1
  C  C151  1  0.81221800  0.19367100  0.37627200  1
  C  C152  1  0.92850700  0.30606600  0.86982800  1
  C  C153  1  0.68778200  0.06405300  0.38145300  1
  C  C154  1  0.12594900  0.90560700  0.50000000  1
  C  C155  1  0.90560700  0.40560700  0.77965800  1
  C  C156  1  0.93623800  0.80606600  0.37755900  1
  C  C157  1  0.05867900  0.92850700  0.62244100  1
  C  C158  1  0.17630100  0.26277900  0.83741200  1
  C  C159  1  0.90506100  0.57666600  0.08655100  1
  C  C160  1  0.43594700  0.81221800  0.61854700  1
  C  C161  1  0.07149300  0.69393400  0.13017200  1
  C  C162  1  0.42536700  0.33888800  0.16258800  1
  C  C163  1  0.59493900  0.68149000  0.67160500  1
