# generated using pymatgen
data_Cu5Ni2C15
_symmetry_space_group_name_H-M   'P 1'
_cell_length_a   9.86081292
_cell_length_b   9.86081292
_cell_length_c   15.49120645
_cell_angle_alpha   62.89691296
_cell_angle_beta   62.89691296
_cell_angle_gamma   37.06974725
_symmetry_Int_Tables_number   1
_chemical_formula_structural   Cu5Ni2C15
_chemical_formula_sum   'Cu10 Ni4 C30'
_cell_volume   796.28168871
_cell_formula_units_Z   2
loop_
 _symmetry_equiv_pos_site_id
 _symmetry_equiv_pos_as_xyz
  1  'x, y, z'
loop_
 _atom_site_type_symbol
 _atom_site_label
 _atom_site_symmetry_multiplicity
 _atom_site_fract_x
 _atom_site_fract_y
 _atom_site_fract_z
 _atom_site_occupancy
  C  C0  1  0.34814000  0.34814000  0.83410000  1
  C  C1  1  0.93075700  0.93075700  0.46544400  1
  C  C2  1  0.06924300  0.06924300  0.53455600  1
  C  C3  1  0.56036800  0.56036800  0.04732400  1
  C  C4  1  0.76788300  0.26099300  0.74322000  1
  C  C5  1  0.43963200  0.43963200  0.95267600  1
  C  C6  1  0.23211700  0.73900700  0.25678000  1
  C  C7  1  0.50000000  0.50000000  0.50000000  1
  C  C8  1  0.65186000  0.65186000  0.16590000  1
  C  C9  1  0.26099300  0.76788300  0.74322000  1
  C  C10  1  0.00000000  0.00000000  0.00000000  1
  C  C11  1  0.73900700  0.23211700  0.25678000  1
  C  C12  1  0.79386600  0.79386600  0.36063200  1
  C  C13  1  0.20613400  0.20613400  0.63936800  1
  Ni  Ni14  1  0.12660700  0.12660700  0.29103200  1
  Ni  Ni15  1  0.87339300  0.87339300  0.70896800  1
  Ni  Ni16  1  0.64231300  0.64231300  0.80031600  1
  Ni  Ni17  1  0.35768700  0.35768700  0.19968400  1
  Cu  Cu18  1  0.30478900  0.30478900  0.00523900  1
  Cu  Cu19  1  0.58627500  0.58627500  0.55085800  1
  Cu  Cu20  1  0.93689900  0.93689900  0.91977300  1
  Cu  Cu21  1  0.06310100  0.06310100  0.08022700  1
  Cu  Cu22  1  0.78999300  0.78999300  0.55941800  1
  Cu  Cu23  1  0.21000700  0.21000700  0.44058200  1
  Cu  Cu24  1  0.23797300  0.23797300  0.81249400  1
  Cu  Cu25  1  0.76202700  0.76202700  0.18750600  1
  Cu  Cu26  1  0.69521100  0.69521100  0.99476100  1
  Cu  Cu27  1  0.41372500  0.41372500  0.44914200  1
  C  C28  1  0.40260800  0.83181600  0.74950100  1
  C  C29  1  0.68882400  0.12512800  0.74755400  1
  C  C30  1  0.94765600  0.94765600  0.58272200  1
  C  C31  1  0.12512800  0.68882400  0.74755400  1
  C  C32  1  0.31117600  0.87487200  0.25244600  1
  C  C33  1  0.83181600  0.40260800  0.74950100  1
  C  C34  1  0.87487200  0.31117600  0.25244600  1
  C  C35  1  0.59739200  0.16818400  0.25049900  1
  C  C36  1  0.16818400  0.59739200  0.25049900  1
  C  C37  1  0.55839300  0.55839300  0.92016300  1
  C  C38  1  0.93289700  0.93289700  0.33952700  1
  C  C39  1  0.05234400  0.05234400  0.41727800  1
  C  C40  1  0.44160700  0.44160700  0.07983700  1
  C  C41  1  0.54002300  0.54002300  0.18081600  1
  C  C42  1  0.45997700  0.45997700  0.81918400  1
  C  C43  1  0.06710300  0.06710300  0.66047300  1
