# generated using pymatgen
data_Cu3NiC
_symmetry_space_group_name_H-M   'P 1'
_cell_length_a   6.14443458
_cell_length_b   6.14443458
_cell_length_c   6.14443499
_cell_angle_alpha   102.95624981
_cell_angle_beta   102.95624981
_cell_angle_gamma   102.95625226
_symmetry_Int_Tables_number   1
_chemical_formula_structural   Cu3NiC
_chemical_formula_sum   'Cu12 Ni4 C4'
_cell_volume   210.91491109
_cell_formula_units_Z   4
loop_
 _symmetry_equiv_pos_site_id
 _symmetry_equiv_pos_as_xyz
  1  'x, y, z'
loop_
 _atom_site_type_symbol
 _atom_site_label
 _atom_site_symmetry_multiplicity
 _atom_site_fract_x
 _atom_site_fract_y
 _atom_site_fract_z
 _atom_site_occupancy
  C  C0  1  0.00000000  0.00000000  0.00000000  1
  C  C1  1  0.00000000  0.45745900  0.54254100  1
  C  C2  1  0.54254100  0.00000000  0.45745900  1
  C  C3  1  0.45745900  0.54254100  0.00000000  1
  Ni  Ni4  1  0.50000000  0.04334900  0.95665100  1
  Ni  Ni5  1  0.95665100  0.50000000  0.04334900  1
  Ni  Ni6  1  0.04334900  0.95665100  0.50000000  1
  Ni  Ni7  1  0.50000000  0.50000000  0.50000000  1
  Cu  Cu8  1  0.38064600  0.19151900  0.97497300  1
  Cu  Cu9  1  0.02502700  0.80848100  0.61935400  1
  Cu  Cu10  1  0.80848100  0.61935400  0.02502700  1
  Cu  Cu11  1  0.61935400  0.02502700  0.80848100  1
  Cu  Cu12  1  0.63496700  0.36503300  0.50000000  1
  Cu  Cu13  1  0.36503300  0.50000000  0.63496700  1
  Cu  Cu14  1  0.50000000  0.63496700  0.36503300  1
  Cu  Cu15  1  0.90790200  0.09209800  0.50000000  1
  Cu  Cu16  1  0.09209800  0.50000000  0.90790200  1
  Cu  Cu17  1  0.50000000  0.90790200  0.09209800  1
  Cu  Cu18  1  0.19151900  0.97497300  0.38064600  1
  Cu  Cu19  1  0.97497300  0.38064600  0.19151900  1
