# generated using pymatgen
data_CuNiC18
_symmetry_space_group_name_H-M   'P 1'
_cell_length_a   9.10677300
_cell_length_b   5.36091300
_cell_length_c   9.89431132
_cell_angle_alpha   75.01450879
_cell_angle_beta   90.00000000
_cell_angle_gamma   90.00000000
_symmetry_Int_Tables_number   1
_chemical_formula_structural   CuNiC18
_chemical_formula_sum   'Cu2 Ni2 C36'
_cell_volume   466.61862805
_cell_formula_units_Z   2
loop_
 _symmetry_equiv_pos_site_id
 _symmetry_equiv_pos_as_xyz
  1  'x, y, z'
loop_
 _atom_site_type_symbol
 _atom_site_label
 _atom_site_symmetry_multiplicity
 _atom_site_fract_x
 _atom_site_fract_y
 _atom_site_fract_z
 _atom_site_occupancy
  C  C0  1  0.55287300  0.00000000  0.75000000  1
  C  C1  1  0.44712700  0.00000000  0.25000000  1
  Ni  Ni2  1  0.04953700  0.50000000  0.25000000  1
  Ni  Ni3  1  0.95046300  0.50000000  0.75000000  1
  Cu  Cu4  1  0.64637900  0.50000000  0.25000000  1
  Cu  Cu5  1  0.35362100  0.50000000  0.75000000  1
  C  C6  1  0.15162400  0.00000000  0.75000000  1
  C  C7  1  0.84837600  0.00000000  0.25000000  1
  C  C8  1  0.84072400  0.19747200  0.53916900  1
  C  C9  1  0.84072400  0.80252800  0.96083100  1
  C  C10  1  0.33927300  0.70001300  0.03681600  1
  C  C11  1  0.15927600  0.19747200  0.03916900  1
  C  C12  1  0.33927300  0.29998700  0.46318400  1
  C  C13  1  0.15927600  0.80252800  0.46083100  1
  C  C14  1  0.66072700  0.70001300  0.53681600  1
  C  C15  1  0.66072700  0.29998700  0.96318400  1
  C  C16  1  0.76649800  0.09545800  0.90224100  1
  C  C17  1  0.99737400  0.20919600  0.61235700  1
  C  C18  1  0.83592700  0.28315600  0.36788800  1
  C  C19  1  0.26027300  0.58996400  0.40037800  1
  C  C20  1  0.83592700  0.71684400  0.13211200  1
  C  C21  1  0.49706100  0.70022100  0.11011000  1
  C  C22  1  0.23350200  0.09545800  0.40224100  1
  C  C23  1  0.99737400  0.79080400  0.88764300  1
  C  C24  1  0.33465300  0.77599900  0.86690900  1
  C  C25  1  0.00262600  0.20919600  0.11235700  1
  C  C26  1  0.76649800  0.90454200  0.59775900  1
  C  C27  1  0.16407300  0.28315600  0.86788800  1
  C  C28  1  0.33465300  0.22400100  0.63309100  1
  C  C29  1  0.73972700  0.58996400  0.90037800  1
  C  C30  1  0.49706100  0.29977900  0.38989000  1
  C  C31  1  0.16407300  0.71684400  0.63211200  1
  C  C32  1  0.50293900  0.70022100  0.61011000  1
  C  C33  1  0.26027300  0.41003600  0.09962200  1
  C  C34  1  0.00262600  0.79080400  0.38764300  1
  C  C35  1  0.66534700  0.77599900  0.36690900  1
  C  C36  1  0.23350200  0.90454200  0.09775900  1
  C  C37  1  0.66534700  0.22400100  0.13309100  1
  C  C38  1  0.50293900  0.29977900  0.88989000  1
  C  C39  1  0.73972700  0.41003600  0.59962200  1
