# generated using pymatgen
data_CuNi3C22
_symmetry_space_group_name_H-M   'P 1'
_cell_length_a   11.92467100
_cell_length_b   10.64805300
_cell_length_c   10.66628332
_cell_angle_alpha   60.06990222
_cell_angle_beta   90.00000000
_cell_angle_gamma   90.00000000
_symmetry_Int_Tables_number   1
_chemical_formula_structural   CuNi3C22
_chemical_formula_sum   'Cu4 Ni12 C88'
_cell_volume   1173.72359418
_cell_formula_units_Z   4
loop_
 _symmetry_equiv_pos_site_id
 _symmetry_equiv_pos_as_xyz
  1  'x, y, z'
loop_
 _atom_site_type_symbol
 _atom_site_label
 _atom_site_symmetry_multiplicity
 _atom_site_fract_x
 _atom_site_fract_y
 _atom_site_fract_z
 _atom_site_occupancy
  Ni  Ni0  1  0.50000000  0.82280800  0.87914000  1
  Ni  Ni1  1  0.00000000  0.66106800  0.67160400  1
  Ni  Ni2  1  0.00000000  0.30953800  0.83431900  1
  Ni  Ni3  1  0.50000000  0.30435300  0.83642300  1
  Ni  Ni4  1  0.74973200  0.11728100  0.74961500  1
  Ni  Ni5  1  0.25026800  0.11728100  0.74961500  1
  Ni  Ni6  1  0.00000000  0.86076000  0.32475800  1
  Ni  Ni7  1  0.50000000  0.86548800  0.32170800  1
  Ni  Ni8  1  0.75020300  0.73164600  0.16476500  1
  Ni  Ni9  1  0.24979700  0.73164600  0.16476500  1
  Ni  Ni10  1  0.75106600  0.14118900  0.12872200  1
  Ni  Ni11  1  0.24893400  0.14118900  0.12872200  1
  Cu  Cu12  1  0.00000000  0.81420900  0.87550200  1
  Cu  Cu13  1  0.50000000  0.66407100  0.67652300  1
  Cu  Cu14  1  0.75053400  0.32971500  0.34224600  1
  Cu  Cu15  1  0.24946600  0.32971500  0.34224600  1
  C  C16  1  0.12855800  0.49188800  0.00787100  1
  C  C17  1  0.12568200  0.49595200  0.50876400  1
  C  C18  1  0.62593600  0.49782200  0.50753800  1
  C  C19  1  0.87431800  0.49595200  0.50876400  1
  C  C20  1  0.37406400  0.49782200  0.50753800  1
  C  C21  1  0.12719000  0.99595200  0.51473900  1
  C  C22  1  0.87281000  0.99595200  0.51473900  1
  C  C23  1  0.37375200  0.99803400  0.51427100  1
  C  C24  1  0.62624800  0.99803400  0.51427100  1
  C  C25  1  0.62611400  0.49477500  0.00943600  1
  C  C26  1  0.87144200  0.49188800  0.00787100  1
  C  C27  1  0.37388600  0.49477500  0.00943600  1
  C  C28  1  0.74723500  0.76877800  0.78288500  1
  C  C29  1  0.25276500  0.76877800  0.78288500  1
  C  C30  1  0.74903200  0.45372800  0.77783300  1
  C  C31  1  0.25096800  0.45372800  0.77783300  1
  C  C32  1  0.12528900  0.99558200  0.01132400  1
  C  C33  1  0.87471100  0.99558200  0.01132400  1
  C  C34  1  0.62991600  0.99467600  0.01484100  1
  C  C35  1  0.37008400  0.99467600  0.01484100  1
  C  C36  1  0.25061600  0.76616300  0.47490900  1
  C  C37  1  0.74938400  0.76616300  0.47490900  1
  C  C38  1  0.00000000  0.22149600  0.55643900  1
  C  C39  1  0.50000000  0.22334400  0.55588300  1
  C  C40  1  0.00000000  0.54103200  0.23765400  1
  C  C41  1  0.50000000  0.54089300  0.23728000  1
  C  C42  1  0.00000000  0.22338300  0.23819700  1
  C  C43  1  0.50000000  0.22407400  0.23578100  1
  C  C44  1  0.84879100  0.69842700  0.83550400  1
  C  C45  1  0.35390500  0.69497200  0.82875300  1
  C  C46  1  0.15120900  0.69842700  0.83550400  1
  C  C47  1  0.64609500  0.69497200  0.82875300  1
  C  C48  1  0.00000000  0.47628900  0.91367500  1
  C  C49  1  0.50000000  0.47594900  0.91027500  1
  C  C50  1  0.74806000  0.91785500  0.67965000  1
  C  C51  1  0.25194000  0.91785500  0.67965000  1
  C  C52  1  0.74940000  0.41332700  0.92621000  1
  C  C53  1  0.25060000  0.41332700  0.92621000  1
  C  C54  1  0.00000000  0.90174500  0.63604400  1
  C  C55  1  0.50000000  0.90000800  0.63194300  1
  C  C56  1  0.64665500  0.47735100  0.70721900  1
  C  C57  1  0.84997600  0.47061500  0.70839700  1
  C  C58  1  0.15002400  0.47061500  0.70839700  1
  C  C59  1  0.35334500  0.47735100  0.70721900  1
  C  C60  1  0.64720400  0.81266600  0.50059300  1
  C  C61  1  0.14956700  0.81754100  0.49504900  1
  C  C62  1  0.85043300  0.81754100  0.49504900  1
  C  C63  1  0.35279600  0.81266600  0.50059300  1
  C  C64  1  0.00000000  0.61503700  0.48107800  1
  C  C65  1  0.50000000  0.61735000  0.48583600  1
  C  C66  1  0.74951800  0.66272300  0.42837600  1
  C  C67  1  0.25048200  0.66272300  0.42837600  1
  C  C68  1  0.00000000  0.32942300  0.59573800  1
  C  C69  1  0.50000000  0.33191400  0.59417200  1
  C  C70  1  0.74946700  0.37395900  0.53184500  1
  C  C71  1  0.25053300  0.37395900  0.53184500  1
  C  C72  1  0.86678300  0.92980700  0.15914400  1
  C  C73  1  0.36376500  0.93974300  0.16202100  1
  C  C74  1  0.63623500  0.93974300  0.16202100  1
  C  C75  1  0.13321700  0.92980700  0.15914400  1
  C  C76  1  0.89674500  0.17136500  0.53881400  1
  C  C77  1  0.39699600  0.17240900  0.53883600  1
  C  C78  1  0.10325500  0.17136500  0.53881400  1
  C  C79  1  0.60300400  0.17240900  0.53883600  1
  C  C80  1  0.10297000  0.51959000  0.30637300  1
  C  C81  1  0.89703000  0.51959000  0.30637300  1
  C  C82  1  0.60280100  0.52346900  0.30600100  1
  C  C83  1  0.39719900  0.52346900  0.30600100  1
  C  C84  1  0.12756500  0.91048800  0.94581500  1
  C  C85  1  0.63786100  0.90202700  0.95957700  1
  C  C86  1  0.36213900  0.90202700  0.95957700  1
  C  C87  1  0.87243500  0.91048800  0.94581500  1
  C  C88  1  0.74954900  0.09388800  0.38817800  1
  C  C89  1  0.25045100  0.09388800  0.38817800  1
  C  C90  1  0.00000000  0.58732200  0.08814100  1
  C  C91  1  0.50000000  0.57889000  0.09058400  1
  C  C92  1  0.00000000  0.07707800  0.34876700  1
  C  C93  1  0.50000000  0.07856200  0.34735400  1
  C  C94  1  0.75000200  0.51993600  0.10790100  1
  C  C95  1  0.24999800  0.51993600  0.10790100  1
  C  C96  1  0.10284900  0.29196300  0.18576900  1
  C  C97  1  0.60291500  0.29231800  0.18309800  1
  C  C98  1  0.89715100  0.29196300  0.18576900  1
  C  C99  1  0.39708500  0.29231800  0.18309800  1
  C  C100  1  0.13372700  0.14282300  0.92617400  1
  C  C101  1  0.63469800  0.14251300  0.92253400  1
  C  C102  1  0.86627300  0.14282300  0.92617400  1
  C  C103  1  0.36530200  0.14251300  0.92253400  1
