# generated using pymatgen
data_Cu16NiC4
_symmetry_space_group_name_H-M   'P 1'
_cell_length_a   16.53966022
_cell_length_b   14.04421519
_cell_length_c   13.70136335
_cell_angle_alpha   73.17307032
_cell_angle_beta   54.36717230
_cell_angle_gamma   52.45975737
_symmetry_Int_Tables_number   1
_chemical_formula_structural   Cu16NiC4
_chemical_formula_sum   'Cu32 Ni2 C8'
_cell_volume   2040.47667470
_cell_formula_units_Z   2
loop_
 _symmetry_equiv_pos_site_id
 _symmetry_equiv_pos_as_xyz
  1  'x, y, z'
loop_
 _atom_site_type_symbol
 _atom_site_label
 _atom_site_symmetry_multiplicity
 _atom_site_fract_x
 _atom_site_fract_y
 _atom_site_fract_z
 _atom_site_occupancy
  Ni  Ni0  1  0.99781900  0.00218100  0.00218100  1
  Ni  Ni1  1  0.24781900  0.25218100  0.25218100  1
  Cu  Cu2  1  0.81776300  0.17323000  0.53407400  1
  Cu  Cu3  1  0.61009000  0.20127000  0.51599900  1
  Cu  Cu4  1  0.43881100  0.73804800  0.44087500  1
  Cu  Cu5  1  0.68177700  0.65148100  0.79367100  1
  Cu  Cu6  1  0.30433800  0.71275500  0.51878200  1
  Cu  Cu7  1  0.54401000  0.85764600  0.57524500  1
  Cu  Cu8  1  0.75280500  0.21385500  0.41823900  1
  Cu  Cu9  1  0.73121800  0.78587600  0.94566200  1
  Cu  Cu10  1  0.67264100  0.51599900  0.20127000  1
  Cu  Cu11  1  0.02309900  0.57524500  0.85764600  1
  Cu  Cu12  1  0.80912500  0.86773400  0.81118900  1
  Cu  Cu13  1  0.84955400  0.66462200  0.00650400  1
  Cu  Cu14  1  0.87307200  0.79367100  0.65148100  1
  Cu  Cu15  1  0.47493200  0.53407400  0.17323000  1
  Cu  Cu16  1  0.59851900  0.56822300  0.37692800  1
  Cu  Cu17  1  0.71592600  0.77506800  0.43223700  1
  Cu  Cu18  1  0.51195200  0.81118900  0.86773400  1
  Cu  Cu19  1  0.45632900  0.37692800  0.56822300  1
  Cu  Cu20  1  0.38226600  0.44087500  0.73804800  1
  Cu  Cu21  1  0.53724500  0.94566200  0.78587600  1
  Cu  Cu22  1  0.24349600  0.77068100  0.40044600  1
  Cu  Cu23  1  0.83176100  0.63490000  0.49719500  1
  Cu  Cu24  1  0.03614500  0.49719500  0.63490000  1
  Cu  Cu25  1  0.67475500  0.22690100  0.70599000  1
  Cu  Cu26  1  0.39235400  0.70599000  0.22690100  1
  Cu  Cu27  1  0.46412400  0.51878200  0.71275500  1
  Cu  Cu28  1  0.07677000  0.43223700  0.77506800  1
  Cu  Cu29  1  0.47931900  0.00650400  0.66462200  1
  Cu  Cu30  1  0.73400100  0.57735900  0.63991000  1
  Cu  Cu31  1  0.61510000  0.41823900  0.21385500  1
  Cu  Cu32  1  0.04873000  0.63991000  0.57735900  1
  Cu  Cu33  1  0.58537800  0.40044600  0.77068100  1
  C  C34  1  0.19028200  0.79944700  0.00595000  1
  C  C35  1  0.24178100  0.45078400  0.24533900  1
  C  C36  1  0.00432100  0.00595000  0.79944700  1
  C  C37  1  0.79921600  0.00821900  0.18790400  1
  C  C38  1  0.45055300  0.05971800  0.24567900  1
  C  C39  1  0.24405000  0.24567900  0.05971800  1
  C  C40  1  0.06209600  0.24533900  0.45078400  1
  C  C41  1  0.00466100  0.18790400  0.00821900  1
