# generated using pymatgen
data_Cu2Ni2C15
_symmetry_space_group_name_H-M   'P 1'
_cell_length_a   5.80403889
_cell_length_b   5.80403889
_cell_length_c   14.06625600
_cell_angle_alpha   90.00000000
_cell_angle_beta   90.00000000
_cell_angle_gamma   118.78789246
_symmetry_Int_Tables_number   1
_chemical_formula_structural   Cu2Ni2C15
_chemical_formula_sum   'Cu4 Ni4 C30'
_cell_volume   415.28448535
_cell_formula_units_Z   2
loop_
 _symmetry_equiv_pos_site_id
 _symmetry_equiv_pos_as_xyz
  1  'x, y, z'
loop_
 _atom_site_type_symbol
 _atom_site_label
 _atom_site_symmetry_multiplicity
 _atom_site_fract_x
 _atom_site_fract_y
 _atom_site_fract_z
 _atom_site_occupancy
  C  C0  1  0.89703500  0.10296500  0.25000000  1
  C  C1  1  0.10296500  0.89703500  0.75000000  1
  Ni  Ni2  1  0.50000000  0.00000000  0.50000000  1
  Ni  Ni3  1  0.00000000  0.50000000  0.50000000  1
  Ni  Ni4  1  0.50000000  0.00000000  0.00000000  1
  Ni  Ni5  1  0.00000000  0.50000000  0.00000000  1
  Cu  Cu6  1  0.24259500  0.75740500  0.35042900  1
  Cu  Cu7  1  0.75740500  0.24259500  0.64957100  1
  Cu  Cu8  1  0.24259500  0.75740500  0.14957100  1
  Cu  Cu9  1  0.75740500  0.24259500  0.85042900  1
  C  C10  1  0.51763400  0.48236600  0.30549900  1
  C  C11  1  0.48236600  0.51763400  0.69450100  1
  C  C12  1  0.51763400  0.48236600  0.19450100  1
  C  C13  1  0.48236600  0.51763400  0.80549900  1
  C  C14  1  0.66758300  0.33241700  0.38745000  1
  C  C15  1  0.33241700  0.66758300  0.61255000  1
  C  C16  1  0.66758300  0.33241700  0.11255000  1
  C  C17  1  0.33241700  0.66758300  0.88745000  1
  C  C18  1  0.15430800  0.84569200  0.25000000  1
  C  C19  1  0.84569200  0.15430800  0.75000000  1
  C  C20  1  0.56078300  0.90583600  0.36559400  1
  C  C21  1  0.90583600  0.56078300  0.63440600  1
  C  C22  1  0.56078300  0.90583600  0.13440600  1
  C  C23  1  0.90583600  0.56078300  0.86559400  1
  C  C24  1  0.43921700  0.09416400  0.63440600  1
  C  C25  1  0.09416400  0.43921700  0.36559400  1
  C  C26  1  0.43921700  0.09416400  0.86559400  1
  C  C27  1  0.09416400  0.43921700  0.13440600  1
  C  C28  1  0.14585800  0.85414200  0.44601400  1
  C  C29  1  0.85414200  0.14585800  0.55398600  1
  C  C30  1  0.14585800  0.85414200  0.05398600  1
  C  C31  1  0.85414200  0.14585800  0.94601400  1
  C  C32  1  0.64734700  0.35265300  0.45495900  1
  C  C33  1  0.35265300  0.64734700  0.54504100  1
  C  C34  1  0.64734700  0.35265300  0.04504100  1
  C  C35  1  0.35265300  0.64734700  0.95495900  1
  C  C36  1  0.57694800  0.42305200  0.25000000  1
  C  C37  1  0.42305200  0.57694800  0.75000000  1
