# generated using pymatgen
data_CuNiC10
_symmetry_space_group_name_H-M   'P 1'
_cell_length_a   5.88776800
_cell_length_b   6.33989780
_cell_length_c   6.85355593
_cell_angle_alpha   110.60039910
_cell_angle_beta   88.69672964
_cell_angle_gamma   100.62741140
_symmetry_Int_Tables_number   1
_chemical_formula_structural   CuNiC10
_chemical_formula_sum   'Cu2 Ni2 C20'
_cell_volume   235.11542015
_cell_formula_units_Z   2
loop_
 _symmetry_equiv_pos_site_id
 _symmetry_equiv_pos_as_xyz
  1  'x, y, z'
loop_
 _atom_site_type_symbol
 _atom_site_label
 _atom_site_symmetry_multiplicity
 _atom_site_fract_x
 _atom_site_fract_y
 _atom_site_fract_z
 _atom_site_occupancy
  C  C0  1  0.56576900  0.58617100  0.27698800  1
  C  C1  1  0.43423100  0.41382900  0.72301200  1
  C  C2  1  0.24357400  0.86474800  0.43974900  1
  C  C3  1  0.75642600  0.13525200  0.56025100  1
  C  C4  1  0.10572200  0.61678700  0.28285300  1
  C  C5  1  0.89427800  0.38321300  0.71714700  1
  C  C6  1  0.04041900  0.06479600  0.81534400  1
  C  C7  1  0.95958100  0.93520400  0.18465600  1
  C  C8  1  0.87978900  0.18807300  0.02907400  1
  C  C9  1  0.12021100  0.81192700  0.97092600  1
  C  C10  1  0.79175600  0.90451100  0.86673300  1
  C  C11  1  0.20824400  0.09548900  0.13326700  1
  Ni  Ni12  1  0.93354500  0.03608400  0.93409200  1
  Ni  Ni13  1  0.06645500  0.96391600  0.06590800  1
  Cu  Cu14  1  0.25313200  0.73197500  0.30633000  1
  Cu  Cu15  1  0.74686800  0.26802500  0.69367000  1
  C  C16  1  0.86210100  0.43246200  0.21528000  1
  C  C17  1  0.13789900  0.56753800  0.78472000  1
  C  C18  1  0.37687700  0.31932200  0.00890500  1
  C  C19  1  0.62312300  0.68067800  0.99109500  1
  C  C20  1  0.78271400  0.92051400  0.36511000  1
  C  C21  1  0.21728600  0.07948600  0.63489000  1
  C  C22  1  0.61536300  0.69014600  0.61693100  1
  C  C23  1  0.38463700  0.30985400  0.38306900  1
