# generated using pymatgen
data_Cu2Ni4C9
_symmetry_space_group_name_H-M   'P 1'
_cell_length_a   6.96011500
_cell_length_b   6.49991700
_cell_length_c   12.64073644
_cell_angle_alpha   87.15790007
_cell_angle_beta   90.00000000
_cell_angle_gamma   90.00000000
_symmetry_Int_Tables_number   1
_chemical_formula_structural   Cu2Ni4C9
_chemical_formula_sum   'Cu8 Ni16 C36'
_cell_volume   571.16564901
_cell_formula_units_Z   4
loop_
 _symmetry_equiv_pos_site_id
 _symmetry_equiv_pos_as_xyz
  1  'x, y, z'
loop_
 _atom_site_type_symbol
 _atom_site_label
 _atom_site_symmetry_multiplicity
 _atom_site_fract_x
 _atom_site_fract_y
 _atom_site_fract_z
 _atom_site_occupancy
  C  C0  1  0.00000000  0.00000000  0.50000000  1
  C  C1  1  0.00000000  0.00000000  0.00000000  1
  C  C2  1  0.30067900  0.50000000  0.75000000  1
  C  C3  1  0.69932100  0.50000000  0.25000000  1
  C  C4  1  0.97003900  0.13699100  0.74930700  1
  C  C5  1  0.97003900  0.86300900  0.75069300  1
  C  C6  1  0.02996100  0.86300900  0.25069300  1
  C  C7  1  0.02996100  0.13699100  0.24930700  1
  C  C8  1  0.54392000  0.20377500  0.58321800  1
  C  C9  1  0.54392000  0.79622500  0.91678200  1
  C  C10  1  0.45608000  0.79622500  0.41678200  1
  C  C11  1  0.45608000  0.20377500  0.08321800  1
  C  C12  1  0.72654800  0.33023200  0.65393500  1
  C  C13  1  0.72654800  0.66976800  0.84606500  1
  C  C14  1  0.27345200  0.66976800  0.34606500  1
  C  C15  1  0.27345200  0.33023200  0.15393500  1
  C  C16  1  0.72413400  0.68618900  0.65292100  1
  C  C17  1  0.72413400  0.31381100  0.84707900  1
  C  C18  1  0.27586600  0.31381100  0.34707900  1
  C  C19  1  0.27586600  0.68618900  0.15292100  1
  C  C20  1  0.54177300  0.82947200  0.58413700  1
  C  C21  1  0.54177300  0.17052800  0.91586300  1
  C  C22  1  0.45822700  0.17052800  0.41586300  1
  C  C23  1  0.45822700  0.82947200  0.08413700  1
  C  C24  1  0.29789300  0.00583400  0.67935700  1
  C  C25  1  0.29789300  0.99416600  0.82064300  1
  C  C26  1  0.70210700  0.99416600  0.32064300  1
  C  C27  1  0.70210700  0.00583400  0.17935700  1
  Ni  Ni28  1  0.87770600  0.00000000  0.75000000  1
  Ni  Ni29  1  0.12229400  0.00000000  0.25000000  1
  Ni  Ni30  1  0.63459000  0.19294700  0.65435300  1
  Ni  Ni31  1  0.63459000  0.80705300  0.84564700  1
  Ni  Ni32  1  0.36541000  0.80705300  0.34564700  1
  Ni  Ni33  1  0.36541000  0.19294700  0.15435300  1
  Ni  Ni34  1  0.63341500  0.82404900  0.65492400  1
  Ni  Ni35  1  0.63341500  0.17595100  0.84507600  1
  Ni  Ni36  1  0.36658500  0.17595100  0.34507600  1
  Ni  Ni37  1  0.36658500  0.82404900  0.15492400  1
  Ni  Ni38  1  0.38962200  0.00000000  0.75000000  1
  Ni  Ni39  1  0.61037800  0.00000000  0.25000000  1
  Ni  Ni40  1  0.07161700  0.49285700  0.54886100  1
  Ni  Ni41  1  0.07161700  0.50714300  0.95113900  1
  Ni  Ni42  1  0.92838300  0.50714300  0.45113900  1
  Ni  Ni43  1  0.92838300  0.49285700  0.04886100  1
  Cu  Cu44  1  0.75780500  0.00818400  0.65291700  1
  Cu  Cu45  1  0.75780500  0.99181600  0.84708300  1
  Cu  Cu46  1  0.24219500  0.99181600  0.34708300  1
  Cu  Cu47  1  0.24219500  0.00818400  0.15291700  1
  Cu  Cu48  1  0.50935700  0.18916500  0.74952100  1
  Cu  Cu49  1  0.50935700  0.81083500  0.75047900  1
  Cu  Cu50  1  0.49064300  0.81083500  0.25047900  1
  Cu  Cu51  1  0.49064300  0.18916500  0.24952100  1
  C  C52  1  0.10701000  0.65704200  0.59598400  1
  C  C53  1  0.10701000  0.34295800  0.90401600  1
  C  C54  1  0.89299000  0.34295800  0.40401600  1
  C  C55  1  0.89299000  0.65704200  0.09598400  1
  C  C56  1  0.85688200  0.68157500  0.42398900  1
  C  C57  1  0.85688200  0.31842500  0.07601100  1
  C  C58  1  0.14311800  0.31842500  0.57601100  1
  C  C59  1  0.14311800  0.68157500  0.92398900  1
