# generated using pymatgen
data_CuNiC8
_symmetry_space_group_name_H-M   'P 1'
_cell_length_a   5.94078412
_cell_length_b   5.94078412
_cell_length_c   14.75935500
_cell_angle_alpha   90.00000000
_cell_angle_beta   90.00000000
_cell_angle_gamma   120.00000133
_symmetry_Int_Tables_number   1
_chemical_formula_structural   CuNiC8
_chemical_formula_sum   'Cu3 Ni3 C24'
_cell_volume   451.11321180
_cell_formula_units_Z   3
loop_
 _symmetry_equiv_pos_site_id
 _symmetry_equiv_pos_as_xyz
  1  'x, y, z'
loop_
 _atom_site_type_symbol
 _atom_site_label
 _atom_site_symmetry_multiplicity
 _atom_site_fract_x
 _atom_site_fract_y
 _atom_site_fract_z
 _atom_site_occupancy
  C  C0  1  0.66666700  0.33333300  0.90458900  1
  C  C1  1  0.00000000  0.00000000  0.24913800  1
  C  C2  1  0.00000000  0.00000000  0.75086200  1
  C  C3  1  0.66666700  0.33333300  0.59228700  1
  C  C4  1  0.33333300  0.66666700  0.40771300  1
  C  C5  1  0.33333300  0.66666700  0.09541100  1
  Ni  Ni6  1  0.66666700  0.33333300  0.34677900  1
  Ni  Ni7  1  0.00000000  0.00000000  0.00000000  1
  Ni  Ni8  1  0.33333300  0.66666700  0.65322100  1
  Cu  Cu9  1  0.33333300  0.66666700  0.84377800  1
  Cu  Cu10  1  0.66666700  0.33333300  0.15622200  1
  Cu  Cu11  1  0.00000000  0.00000000  0.50000000  1
  C  C12  1  0.84282900  0.15717100  0.42264700  1
  C  C13  1  0.17230100  0.34460200  0.91535000  1
  C  C14  1  0.84282900  0.68565700  0.42264700  1
  C  C15  1  0.31434300  0.15717100  0.42264700  1
  C  C16  1  0.15717100  0.84282900  0.57735300  1
  C  C17  1  0.82769900  0.65539800  0.08465000  1
  C  C18  1  0.34460200  0.17230100  0.08465000  1
  C  C19  1  0.17230100  0.82769900  0.91535000  1
  C  C20  1  0.51287300  0.02574600  0.24265600  1
  C  C21  1  0.48712700  0.97425400  0.75734400  1
  C  C22  1  0.65539800  0.82769900  0.91535000  1
  C  C23  1  0.15717100  0.31434300  0.57735300  1
  C  C24  1  0.48712700  0.51287300  0.75734400  1
  C  C25  1  0.02574600  0.51287300  0.75734400  1
  C  C26  1  0.68565700  0.84282900  0.57735300  1
  C  C27  1  0.97425400  0.48712700  0.24265600  1
  C  C28  1  0.82769900  0.17230100  0.08465000  1
  C  C29  1  0.51287300  0.48712700  0.24265600  1
