# generated using pymatgen
data_CuNiC3
_symmetry_space_group_name_H-M   'P 1'
_cell_length_a   4.99059900
_cell_length_b   9.06394500
_cell_length_c   9.34514000
_cell_angle_alpha   90.00000000
_cell_angle_beta   90.00000000
_cell_angle_gamma   90.00000000
_symmetry_Int_Tables_number   1
_chemical_formula_structural   CuNiC3
_chemical_formula_sum   'Cu8 Ni8 C24'
_cell_volume   422.72287413
_cell_formula_units_Z   8
loop_
 _symmetry_equiv_pos_site_id
 _symmetry_equiv_pos_as_xyz
  1  'x, y, z'
loop_
 _atom_site_type_symbol
 _atom_site_label
 _atom_site_symmetry_multiplicity
 _atom_site_fract_x
 _atom_site_fract_y
 _atom_site_fract_z
 _atom_site_occupancy
  Ni  Ni0  1  0.25000000  0.27250000  0.00000000  1
  Ni  Ni1  1  0.25000000  0.90263600  0.00000000  1
  Ni  Ni2  1  0.25000000  0.77250000  0.50000000  1
  Ni  Ni3  1  0.75000000  0.59736400  0.50000000  1
  Ni  Ni4  1  0.75000000  0.72750000  0.00000000  1
  Ni  Ni5  1  0.75000000  0.09736400  0.00000000  1
  Ni  Ni6  1  0.75000000  0.22750000  0.50000000  1
  Ni  Ni7  1  0.25000000  0.40263600  0.50000000  1
  Cu  Cu8  1  0.32939700  0.59151500  0.20610600  1
  Cu  Cu9  1  0.32939700  0.09151500  0.29389400  1
  Cu  Cu10  1  0.17060300  0.59151500  0.79389400  1
  Cu  Cu11  1  0.82939700  0.40848500  0.20610600  1
  Cu  Cu12  1  0.17060300  0.09151500  0.70610600  1
  Cu  Cu13  1  0.82939700  0.90848500  0.29389400  1
  Cu  Cu14  1  0.67060300  0.90848500  0.70610600  1
  Cu  Cu15  1  0.67060300  0.40848500  0.79389400  1
  C  C16  1  0.48329200  0.55293600  0.84958500  1
  C  C17  1  0.11196500  0.09267500  0.87868300  1
  C  C18  1  0.07476000  0.23586200  0.62066300  1
  C  C19  1  0.38803500  0.09267500  0.12131700  1
  C  C20  1  0.48329200  0.05293600  0.65041500  1
  C  C21  1  0.61196500  0.40732500  0.62131700  1
  C  C22  1  0.57476000  0.76413800  0.62066300  1
  C  C23  1  0.07476000  0.73586200  0.87933700  1
  C  C24  1  0.42524000  0.23586200  0.37933700  1
  C  C25  1  0.57476000  0.26413800  0.87933700  1
  C  C26  1  0.92524000  0.26413800  0.12066300  1
  C  C27  1  0.38803500  0.59267500  0.37868300  1
  C  C28  1  0.11196500  0.59267500  0.62131700  1
  C  C29  1  0.01670800  0.55293600  0.15041500  1
  C  C30  1  0.01670800  0.05293600  0.34958500  1
  C  C31  1  0.51670800  0.94706400  0.34958500  1
  C  C32  1  0.98329200  0.94706400  0.65041500  1
  C  C33  1  0.61196500  0.90732500  0.87868300  1
  C  C34  1  0.88803500  0.90732500  0.12131700  1
  C  C35  1  0.88803500  0.40732500  0.37868300  1
  C  C36  1  0.98329200  0.44706400  0.84958500  1
  C  C37  1  0.51670800  0.44706400  0.15041500  1
  C  C38  1  0.42524000  0.73586200  0.12066300  1
  C  C39  1  0.92524000  0.76413800  0.37933700  1
