# generated using pymatgen
data_Cu2(Ni3C2)3
_symmetry_space_group_name_H-M   'P 1'
_cell_length_a   8.97927788
_cell_length_b   8.97927788
_cell_length_c   25.15106500
_cell_angle_alpha   90.00000000
_cell_angle_beta   90.00000000
_cell_angle_gamma   104.33890034
_symmetry_Int_Tables_number   1
_chemical_formula_structural   Cu2(Ni3C2)3
_chemical_formula_sum   'Cu8 Ni36 C24'
_cell_volume   1964.69330793
_cell_formula_units_Z   4
loop_
 _symmetry_equiv_pos_site_id
 _symmetry_equiv_pos_as_xyz
  1  'x, y, z'
loop_
 _atom_site_type_symbol
 _atom_site_label
 _atom_site_symmetry_multiplicity
 _atom_site_fract_x
 _atom_site_fract_y
 _atom_site_fract_z
 _atom_site_occupancy
  Ni  Ni0  1  0.73415900  0.26584100  0.15451000  1
  Ni  Ni1  1  0.52344500  0.47655500  0.15180200  1
  Ni  Ni2  1  0.37310900  0.37310900  0.50000000  1
  Ni  Ni3  1  0.00000000  0.50000000  0.50000000  1
  Ni  Ni4  1  0.62570800  0.12112600  0.25000000  1
  Ni  Ni5  1  0.63068700  0.87041000  0.34211800  1
  Ni  Ni6  1  0.26584100  0.73415900  0.84549000  1
  Ni  Ni7  1  0.12959000  0.36931300  0.34211800  1
  Ni  Ni8  1  0.52344500  0.47655500  0.34819800  1
  Ni  Ni9  1  0.87041000  0.63068700  0.65788200  1
  Ni  Ni10  1  0.12959000  0.36931300  0.15788200  1
  Ni  Ni11  1  0.62689100  0.62689100  0.50000000  1
  Ni  Ni12  1  0.63499400  0.61506200  0.25000000  1
  Ni  Ni13  1  0.63828300  0.36171700  0.44627000  1
  Ni  Ni14  1  0.47655500  0.52344500  0.65180200  1
  Ni  Ni15  1  0.36171700  0.63828300  0.94627000  1
  Ni  Ni16  1  0.36931300  0.12959000  0.84211800  1
  Ni  Ni17  1  0.73415900  0.26584100  0.34549000  1
  Ni  Ni18  1  0.12112600  0.62570800  0.75000000  1
  Ni  Ni19  1  0.36931300  0.12959000  0.65788200  1
  Ni  Ni20  1  0.36171700  0.63828300  0.55373000  1
  Ni  Ni21  1  0.47655500  0.52344500  0.84819800  1
  Ni  Ni22  1  0.62689100  0.62689100  0.00000000  1
  Ni  Ni23  1  0.36500600  0.38493800  0.75000000  1
  Ni  Ni24  1  0.50000000  0.00000000  0.00000000  1
  Ni  Ni25  1  0.87887400  0.37429200  0.25000000  1
  Ni  Ni26  1  0.63828300  0.36171700  0.05373000  1
  Ni  Ni27  1  0.87041000  0.63068700  0.84211800  1
  Ni  Ni28  1  0.37429200  0.87887400  0.75000000  1
  Ni  Ni29  1  0.61506200  0.63499400  0.75000000  1
  Ni  Ni30  1  0.26584100  0.73415900  0.65451000  1
  Ni  Ni31  1  0.63068700  0.87041000  0.15788200  1
  Ni  Ni32  1  0.38493800  0.36500600  0.25000000  1
  Ni  Ni33  1  0.37310900  0.37310900  0.00000000  1
  Ni  Ni34  1  0.00000000  0.50000000  0.00000000  1
  Ni  Ni35  1  0.50000000  0.00000000  0.50000000  1
  Cu  Cu36  1  0.32156200  0.05965700  0.12057300  1
  Cu  Cu37  1  0.05965700  0.32156200  0.62057300  1
  Cu  Cu38  1  0.94034300  0.67843800  0.12057300  1
  Cu  Cu39  1  0.67843800  0.94034300  0.87942700  1
  Cu  Cu40  1  0.67843800  0.94034300  0.62057300  1
  Cu  Cu41  1  0.05965700  0.32156200  0.87942700  1
  Cu  Cu42  1  0.32156200  0.05965700  0.37942700  1
  Cu  Cu43  1  0.94034300  0.67843800  0.37942700  1
  C  C44  1  0.46761900  0.93983400  0.65742100  1
  C  C45  1  0.57841700  0.84603900  0.95153800  1
  C  C46  1  0.06016600  0.53238100  0.84257900  1
  C  C47  1  0.84603900  0.57841700  0.04846200  1
  C  C48  1  0.57841700  0.84603900  0.54846200  1
  C  C49  1  0.68060200  0.72811200  0.84417800  1
  C  C50  1  0.84603900  0.57841700  0.45153800  1
  C  C51  1  0.42158300  0.15396100  0.04846200  1
  C  C52  1  0.31939800  0.27188800  0.34417800  1
  C  C53  1  0.93983400  0.46761900  0.34257900  1
  C  C54  1  0.31939800  0.27188800  0.15582200  1
  C  C55  1  0.27188800  0.31939800  0.65582200  1
  C  C56  1  0.53238100  0.06016600  0.34257900  1
  C  C57  1  0.27188800  0.31939800  0.84417800  1
  C  C58  1  0.72811200  0.68060200  0.15582200  1
  C  C59  1  0.72811200  0.68060200  0.34417800  1
  C  C60  1  0.42158300  0.15396100  0.45153800  1
  C  C61  1  0.68060200  0.72811200  0.65582200  1
  C  C62  1  0.53238100  0.06016600  0.15742100  1
  C  C63  1  0.15396100  0.42158300  0.54846200  1
  C  C64  1  0.15396100  0.42158300  0.95153800  1
  C  C65  1  0.06016600  0.53238100  0.65742100  1
  C  C66  1  0.93983400  0.46761900  0.15742100  1
  C  C67  1  0.46761900  0.93983400  0.84257900  1
