# generated using pymatgen
data_Cu6NiC2
_symmetry_space_group_name_H-M   'P 1'
_cell_length_a   18.05985800
_cell_length_b   14.22487600
_cell_length_c   16.08377582
_cell_angle_alpha   71.73994871
_cell_angle_beta   90.00000000
_cell_angle_gamma   90.00000000
_symmetry_Int_Tables_number   1
_chemical_formula_structural   Cu6NiC2
_chemical_formula_sum   'Cu96 Ni16 C32'
_cell_volume   3923.84406305
_cell_formula_units_Z   16
loop_
 _symmetry_equiv_pos_site_id
 _symmetry_equiv_pos_as_xyz
  1  'x, y, z'
loop_
 _atom_site_type_symbol
 _atom_site_label
 _atom_site_symmetry_multiplicity
 _atom_site_fract_x
 _atom_site_fract_y
 _atom_site_fract_z
 _atom_site_occupancy
  C  C0  1  0.32284200  0.65886500  0.51568400  1
  C  C1  1  0.12400200  0.05165000  0.46314300  1
  C  C2  1  0.01622500  0.48456200  0.36812100  1
  C  C3  1  0.37599800  0.55165000  0.96314300  1
  C  C4  1  0.92795800  0.34313700  0.95964000  1
  C  C5  1  0.67715800  0.34113500  0.48431600  1
  C  C6  1  0.42795800  0.15686300  0.54036000  1
  C  C7  1  0.51622500  0.01543800  0.13187900  1
  C  C8  1  0.87599800  0.94835000  0.53685700  1
  C  C9  1  0.98377500  0.51543800  0.63187900  1
  C  C10  1  0.57204200  0.84313700  0.45964000  1
  C  C11  1  0.62400200  0.44835000  0.03685700  1
  C  C12  1  0.82284200  0.84113500  0.98431600  1
  C  C13  1  0.17715800  0.15886500  0.01568400  1
  C  C14  1  0.48377500  0.98456200  0.86812100  1
  C  C15  1  0.07204200  0.65686300  0.04036000  1
  C  C16  1  0.21764600  0.35993100  0.29889500  1
  C  C17  1  0.71764600  0.14006900  0.20110500  1
  C  C18  1  0.88297400  0.24848400  0.25026900  1
  C  C19  1  0.38214200  0.32706900  0.82693300  1
  C  C20  1  0.71586000  0.20805000  0.77297300  1
  C  C21  1  0.78235400  0.64006900  0.70110500  1
  C  C22  1  0.61702600  0.74848400  0.75026900  1
  C  C23  1  0.61785800  0.67293100  0.17306700  1
  C  C24  1  0.78414000  0.70805000  0.27297300  1
  C  C25  1  0.38297400  0.25151600  0.24973100  1
  C  C26  1  0.21586000  0.29195000  0.72702700  1
  C  C27  1  0.11702600  0.75151600  0.74973100  1
  C  C28  1  0.28414000  0.79195000  0.22702700  1
  C  C29  1  0.28235400  0.85993100  0.79889500  1
  C  C30  1  0.88214200  0.17293100  0.67306700  1
  C  C31  1  0.11785800  0.82706900  0.32693300  1
  Ni  Ni32  1  0.79093900  0.66461700  0.48874100  1
  Ni  Ni33  1  0.29093900  0.83538300  0.01125900  1
  Ni  Ni34  1  0.54935000  0.28062100  0.69077500  1
  Ni  Ni35  1  0.10852500  0.75025300  0.54323400  1
  Ni  Ni36  1  0.89147500  0.24974700  0.45676600  1
  Ni  Ni37  1  0.05203500  0.30543600  0.16449800  1
  Ni  Ni38  1  0.94796500  0.69456400  0.83550200  1
  Ni  Ni39  1  0.70906100  0.16461700  0.98874100  1
  Ni  Ni40  1  0.60852500  0.74974700  0.95676600  1
  Ni  Ni41  1  0.45065000  0.71937900  0.30922500  1
  Ni  Ni42  1  0.44796500  0.80543600  0.66449800  1
  Ni  Ni43  1  0.20906100  0.33538300  0.51125900  1
  Ni  Ni44  1  0.04935000  0.21937900  0.80922500  1
  Ni  Ni45  1  0.95065000  0.78062100  0.19077500  1
  Ni  Ni46  1  0.55203500  0.19456400  0.33550200  1
  Ni  Ni47  1  0.39147500  0.25025300  0.04323400  1
  Cu  Cu48  1  0.75439500  0.28318000  0.89358400  1
  Cu  Cu49  1  0.03851600  0.94755600  0.31822900  1
  Cu  Cu50  1  0.38409700  0.83988300  0.31281600  1
  Cu  Cu51  1  0.97583500  0.38586300  0.21341500  1
  Cu  Cu52  1  0.97513300  0.87412600  0.07428800  1
  Cu  Cu53  1  0.21587300  0.90901300  0.91751100  1
  Cu  Cu54  1  0.15737200  0.92877000  0.73029100  1
  Cu  Cu55  1  0.44510400  0.19572700  0.95595900  1
  Cu  Cu56  1  0.68957300  0.66603900  0.03886700  1
  Cu  Cu57  1  0.21962900  0.86269000  0.65790800  1
  Cu  Cu58  1  0.74560500  0.78318000  0.39358400  1
  Cu  Cu59  1  0.52021000  0.68861300  0.66918800  1
  Cu  Cu60  1  0.46148400  0.44755600  0.81822900  1
  Cu  Cu61  1  0.95369900  0.28626100  0.74241700  1
  Cu  Cu62  1  0.47583500  0.11413700  0.28658500  1
  Cu  Cu63  1  0.61768300  0.32829900  0.77364800  1
  Cu  Cu64  1  0.22863500  0.94098600  0.26171000  1
  Cu  Cu65  1  0.31042700  0.33396100  0.96113300  1
  Cu  Cu66  1  0.47979000  0.31138700  0.33081200  1
  Cu  Cu67  1  0.88409700  0.66011700  0.18718400  1
  Cu  Cu68  1  0.11590300  0.33988300  0.81281600  1
  Cu  Cu69  1  0.84262800  0.07123000  0.26970900  1
  Cu  Cu70  1  0.78764900  0.31770500  0.67152400  1
  Cu  Cu71  1  0.97979000  0.18861300  0.16918800  1
  Cu  Cu72  1  0.65247300  0.85587500  0.85023300  1
  Cu  Cu73  1  0.95386700  0.16491000  0.40098000  1
  Cu  Cu74  1  0.11768300  0.17170100  0.72635200  1
  Cu  Cu75  1  0.28412700  0.40901300  0.41751100  1
  Cu  Cu76  1  0.59216900  0.12496800  0.45345800  1
  Cu  Cu77  1  0.02416500  0.61413700  0.78658500  1
  Cu  Cu78  1  0.66604600  0.59992100  0.32757200  1
  Cu  Cu79  1  0.25439500  0.21682000  0.60641600  1
  Cu  Cu80  1  0.05489600  0.69572700  0.45595900  1
  Cu  Cu81  1  0.16604600  0.90007900  0.17242800  1
  Cu  Cu82  1  0.71235100  0.81770500  0.17152400  1
  Cu  Cu83  1  0.84634500  0.50569400  0.76977900  1
  Cu  Cu84  1  0.86791900  0.76426500  0.74248600  1
  Cu  Cu85  1  0.63576600  0.21105100  0.06729600  1
  Cu  Cu86  1  0.88231700  0.82829900  0.27364800  1
  Cu  Cu87  1  0.20531700  0.68270200  0.85238200  1
  Cu  Cu88  1  0.83470300  0.57815400  0.42098200  1
  Cu  Cu89  1  0.15365500  0.49430600  0.23022100  1
  Cu  Cu90  1  0.54630100  0.78626100  0.24241700  1
  Cu  Cu91  1  0.28764900  0.18229500  0.82847600  1
  Cu  Cu92  1  0.79468300  0.31729800  0.14761800  1
  Cu  Cu93  1  0.21235100  0.68229500  0.32847600  1
  Cu  Cu94  1  0.28037100  0.36269000  0.15790800  1
  Cu  Cu95  1  0.83395400  0.09992100  0.82757200  1
  Cu  Cu96  1  0.71587300  0.59098700  0.58248900  1
  Cu  Cu97  1  0.52486700  0.37412600  0.57428800  1
  Cu  Cu98  1  0.34634500  0.99430600  0.73022100  1
  Cu  Cu99  1  0.36423400  0.78894900  0.93270400  1
  Cu  Cu100  1  0.86423400  0.71105100  0.56729600  1
  Cu  Cu101  1  0.27136500  0.44098600  0.76171000  1
  Cu  Cu102  1  0.34752700  0.14412500  0.14976700  1
  Cu  Cu103  1  0.66529700  0.07815400  0.92098200  1
  Cu  Cu104  1  0.02021000  0.81138700  0.83081200  1
  Cu  Cu105  1  0.65737200  0.57123000  0.76970900  1
  Cu  Cu106  1  0.54613300  0.66491000  0.90098000  1
  Cu  Cu107  1  0.55489600  0.80427300  0.04404100  1
  Cu  Cu108  1  0.40783100  0.87503200  0.54654200  1
  Cu  Cu109  1  0.36791900  0.73573500  0.75751400  1
  Cu  Cu110  1  0.65365500  0.00569400  0.26977900  1
  Cu  Cu111  1  0.71962900  0.63731000  0.84209200  1
  Cu  Cu112  1  0.63208100  0.26426500  0.24248600  1
  Cu  Cu113  1  0.38231700  0.67170100  0.22635200  1
  Cu  Cu114  1  0.33395400  0.40007900  0.67242800  1
  Cu  Cu115  1  0.53851600  0.55244400  0.18177100  1
  Cu  Cu116  1  0.33470300  0.92184600  0.07901800  1
  Cu  Cu117  1  0.96148400  0.05244400  0.68177100  1
  Cu  Cu118  1  0.81042700  0.16603900  0.53886700  1
  Cu  Cu119  1  0.13576600  0.28894900  0.43270400  1
  Cu  Cu120  1  0.15247300  0.64412500  0.64976700  1
  Cu  Cu121  1  0.84752700  0.35587500  0.35023300  1
  Cu  Cu122  1  0.94510400  0.30427300  0.54404100  1
  Cu  Cu123  1  0.52416500  0.88586300  0.71341500  1
  Cu  Cu124  1  0.24560500  0.71682000  0.10641600  1
  Cu  Cu125  1  0.18957300  0.83396100  0.46113300  1
  Cu  Cu126  1  0.16529700  0.42184600  0.57901800  1
  Cu  Cu127  1  0.72863500  0.55901400  0.23829000  1
  Cu  Cu128  1  0.77136500  0.05901400  0.73829000  1
  Cu  Cu129  1  0.04630100  0.71373900  0.25758300  1
  Cu  Cu130  1  0.02486700  0.12587400  0.92571200  1
  Cu  Cu131  1  0.29468300  0.18270200  0.35238200  1
  Cu  Cu132  1  0.78412700  0.09098700  0.08248900  1
  Cu  Cu133  1  0.09216900  0.37503200  0.04654200  1
  Cu  Cu134  1  0.47513300  0.62587400  0.42571200  1
  Cu  Cu135  1  0.45369900  0.21373900  0.75758300  1
  Cu  Cu136  1  0.61590300  0.16011700  0.68718400  1
  Cu  Cu137  1  0.04613300  0.83509000  0.59902000  1
  Cu  Cu138  1  0.90783100  0.62496800  0.95345800  1
  Cu  Cu139  1  0.45386700  0.33509000  0.09902000  1
  Cu  Cu140  1  0.34262800  0.42877000  0.23029100  1
  Cu  Cu141  1  0.70531700  0.81729800  0.64761800  1
  Cu  Cu142  1  0.13208100  0.23573500  0.25751400  1
  Cu  Cu143  1  0.78037100  0.13731000  0.34209200  1
