# generated using pymatgen
data_Cu(NiC2)3
_symmetry_space_group_name_H-M   'P 1'
_cell_length_a   7.52382903
_cell_length_b   7.52382903
_cell_length_c   7.52382885
_cell_angle_alpha   56.64842695
_cell_angle_beta   56.64842695
_cell_angle_gamma   56.64842900
_symmetry_Int_Tables_number   1
_chemical_formula_structural   Cu(NiC2)3
_chemical_formula_sum   'Cu1 Ni3 C6'
_cell_volume   277.84944131
_cell_formula_units_Z   1
loop_
 _symmetry_equiv_pos_site_id
 _symmetry_equiv_pos_as_xyz
  1  'x, y, z'
loop_
 _atom_site_type_symbol
 _atom_site_label
 _atom_site_symmetry_multiplicity
 _atom_site_fract_x
 _atom_site_fract_y
 _atom_site_fract_z
 _atom_site_occupancy
  Ni  Ni0  1  0.80028400  0.80028400  0.80028400  1
  Ni  Ni1  1  0.50000000  0.50000000  0.50000000  1
  Ni  Ni2  1  0.19971600  0.19971600  0.19971600  1
  Cu  Cu3  1  0.00000000  0.00000000  0.00000000  1
  C  C4  1  0.63132300  0.21913800  0.89122200  1
  C  C5  1  0.21913800  0.89122200  0.63132300  1
  C  C6  1  0.89122200  0.63132300  0.21913800  1
  C  C7  1  0.10877800  0.36867700  0.78086200  1
  C  C8  1  0.78086200  0.10877800  0.36867700  1
  C  C9  1  0.36867700  0.78086200  0.10877800  1
