# generated using pymatgen
data_Cu3Ni3C2
_symmetry_space_group_name_H-M   'P 1'
_cell_length_a   8.39330600
_cell_length_b   10.41579500
_cell_length_c   13.44090400
_cell_angle_alpha   90.00000000
_cell_angle_beta   90.00000000
_cell_angle_gamma   90.00000000
_symmetry_Int_Tables_number   1
_chemical_formula_structural   Cu3Ni3C2
_chemical_formula_sum   'Cu24 Ni24 C16'
_cell_volume   1175.04354109
_cell_formula_units_Z   8
loop_
 _symmetry_equiv_pos_site_id
 _symmetry_equiv_pos_as_xyz
  1  'x, y, z'
loop_
 _atom_site_type_symbol
 _atom_site_label
 _atom_site_symmetry_multiplicity
 _atom_site_fract_x
 _atom_site_fract_y
 _atom_site_fract_z
 _atom_site_occupancy
  C  C0  1  0.62652500  0.00000000  0.75000000  1
  C  C1  1  0.12588000  0.26981800  0.00129500  1
  C  C2  1  0.62588000  0.23018200  0.00129500  1
  C  C3  1  0.37347500  0.00000000  0.25000000  1
  C  C4  1  0.87412000  0.73018200  0.99870500  1
  C  C5  1  0.37412000  0.76981800  0.99870500  1
  C  C6  1  0.62588000  0.76981800  0.49870500  1
  C  C7  1  0.12652500  0.50000000  0.75000000  1
  C  C8  1  0.87347500  0.50000000  0.25000000  1
  C  C9  1  0.37412000  0.23018200  0.50129500  1
  C  C10  1  0.12588000  0.73018200  0.49870500  1
  C  C11  1  0.87412000  0.26981800  0.50129500  1
  C  C12  1  0.37658800  0.50000000  0.25000000  1
  C  C13  1  0.62341200  0.50000000  0.75000000  1
  C  C14  1  0.87658800  0.00000000  0.25000000  1
  C  C15  1  0.12341200  0.00000000  0.75000000  1
  Ni  Ni16  1  0.37630800  0.66703800  0.31038100  1
  Ni  Ni17  1  0.53626200  0.55406000  0.15583400  1
  Ni  Ni18  1  0.53626200  0.44594000  0.34416600  1
  Ni  Ni19  1  0.96373800  0.05406000  0.84416600  1
  Ni  Ni20  1  0.78576300  0.44791100  0.84234200  1
  Ni  Ni21  1  0.12369200  0.16703800  0.68961900  1
  Ni  Ni22  1  0.78576300  0.55208900  0.65765800  1
  Ni  Ni23  1  0.21423700  0.44791100  0.34234200  1
  Ni  Ni24  1  0.71423700  0.05208900  0.34234200  1
  Ni  Ni25  1  0.21423700  0.55208900  0.15765800  1
  Ni  Ni26  1  0.71423700  0.94791100  0.15765800  1
  Ni  Ni27  1  0.03626200  0.05406000  0.34416600  1
  Ni  Ni28  1  0.46373800  0.55406000  0.65583400  1
  Ni  Ni29  1  0.03626200  0.94594000  0.15583400  1
  Ni  Ni30  1  0.37630800  0.33296200  0.18961900  1
  Ni  Ni31  1  0.62369200  0.33296200  0.68961900  1
  Ni  Ni32  1  0.46373800  0.44594000  0.84416600  1
  Ni  Ni33  1  0.28576300  0.94791100  0.65765800  1
  Ni  Ni34  1  0.87630800  0.16703800  0.18961900  1
  Ni  Ni35  1  0.28576300  0.05208900  0.84234200  1
  Ni  Ni36  1  0.62369200  0.66703800  0.81038100  1
  Ni  Ni37  1  0.12369200  0.83296200  0.81038100  1
  Ni  Ni38  1  0.87630800  0.83296200  0.31038100  1
  Ni  Ni39  1  0.96373800  0.94594000  0.65583400  1
  Cu  Cu40  1  0.37976500  0.23183300  0.15049100  1
  Cu  Cu41  1  0.38692500  0.08359000  0.89795800  1
  Cu  Cu42  1  0.13644800  0.08797300  0.39965300  1
  Cu  Cu43  1  0.87976500  0.26816700  0.15049100  1
  Cu  Cu44  1  0.88692500  0.58359000  0.60204200  1
  Cu  Cu45  1  0.88692500  0.41641000  0.89795800  1
  Cu  Cu46  1  0.36355200  0.58797300  0.60034700  1
  Cu  Cu47  1  0.63644800  0.41202700  0.39965300  1
  Cu  Cu48  1  0.38692500  0.91641000  0.60204200  1
  Cu  Cu49  1  0.12023500  0.73183300  0.84950900  1
  Cu  Cu50  1  0.87976500  0.73183300  0.34950900  1
  Cu  Cu51  1  0.13644800  0.91202700  0.10034700  1
  Cu  Cu52  1  0.61307500  0.91641000  0.10204200  1
  Cu  Cu53  1  0.36355200  0.41202700  0.89965300  1
  Cu  Cu54  1  0.86355200  0.08797300  0.89965300  1
  Cu  Cu55  1  0.86355200  0.91202700  0.60034700  1
  Cu  Cu56  1  0.11307500  0.41641000  0.39795800  1
  Cu  Cu57  1  0.11307500  0.58359000  0.10204200  1
  Cu  Cu58  1  0.37976500  0.76816700  0.34950900  1
  Cu  Cu59  1  0.12023500  0.26816700  0.65049100  1
  Cu  Cu60  1  0.62023500  0.23183300  0.65049100  1
  Cu  Cu61  1  0.61307500  0.08359000  0.39795800  1
  Cu  Cu62  1  0.62023500  0.76816700  0.84950900  1
  Cu  Cu63  1  0.63644800  0.58797300  0.10034700  1
