# generated using pymatgen
data_Cu3Ni2C
_symmetry_space_group_name_H-M   'P 1'
_cell_length_a   16.27757100
_cell_length_b   3.90294200
_cell_length_c   6.91343705
_cell_angle_alpha   80.56512616
_cell_angle_beta   90.00000000
_cell_angle_gamma   90.00000000
_symmetry_Int_Tables_number   1
_chemical_formula_structural   Cu3Ni2C
_chemical_formula_sum   'Cu12 Ni8 C4'
_cell_volume   433.27209725
_cell_formula_units_Z   4
loop_
 _symmetry_equiv_pos_site_id
 _symmetry_equiv_pos_as_xyz
  1  'x, y, z'
loop_
 _atom_site_type_symbol
 _atom_site_label
 _atom_site_symmetry_multiplicity
 _atom_site_fract_x
 _atom_site_fract_y
 _atom_site_fract_z
 _atom_site_occupancy
  C  C0  1  0.90398400  0.34298500  0.32511600  1
  C  C1  1  0.59601600  0.34298500  0.82511600  1
  C  C2  1  0.40398400  0.65701500  0.17488400  1
  C  C3  1  0.09601600  0.65701500  0.67488400  1
  Ni  Ni4  1  0.78489200  0.87092600  0.95824900  1
  Ni  Ni5  1  0.21510800  0.12907400  0.04175100  1
  Ni  Ni6  1  0.41301200  0.95135200  0.65563300  1
  Ni  Ni7  1  0.91301200  0.04864800  0.84436700  1
  Ni  Ni8  1  0.28489200  0.12907400  0.54175100  1
  Ni  Ni9  1  0.08698800  0.95135200  0.15563300  1
  Ni  Ni10  1  0.58698800  0.04864800  0.34436700  1
  Ni  Ni11  1  0.71510800  0.87092600  0.45824900  1
  Cu  Cu12  1  0.46341700  0.84769800  0.77407400  1
  Cu  Cu13  1  0.28531200  0.19545700  0.05464900  1
  Cu  Cu14  1  0.13761700  0.06392700  0.01326000  1
  Cu  Cu15  1  0.96341700  0.15230200  0.72592600  1
  Cu  Cu16  1  0.71468800  0.80454300  0.94535100  1
  Cu  Cu17  1  0.21468800  0.19545700  0.55464900  1
  Cu  Cu18  1  0.78531200  0.80454300  0.44535100  1
  Cu  Cu19  1  0.03658300  0.84769800  0.27407400  1
  Cu  Cu20  1  0.86238300  0.93607300  0.98674000  1
  Cu  Cu21  1  0.63761700  0.93607300  0.48674000  1
  Cu  Cu22  1  0.36238300  0.06392700  0.51326000  1
  Cu  Cu23  1  0.53658300  0.15230200  0.22592600  1
