# generated using pymatgen
data_Cu3NiC5
_symmetry_space_group_name_H-M   'P 1'
_cell_length_a   7.33119254
_cell_length_b   7.33119254
_cell_length_c   8.49873810
_cell_angle_alpha   73.13719108
_cell_angle_beta   73.13719108
_cell_angle_gamma   48.37178284
_symmetry_Int_Tables_number   1
_chemical_formula_structural   Cu3NiC5
_chemical_formula_sum   'Cu6 Ni2 C10'
_cell_volume   323.70457267
_cell_formula_units_Z   2
loop_
 _symmetry_equiv_pos_site_id
 _symmetry_equiv_pos_as_xyz
  1  'x, y, z'
loop_
 _atom_site_type_symbol
 _atom_site_label
 _atom_site_symmetry_multiplicity
 _atom_site_fract_x
 _atom_site_fract_y
 _atom_site_fract_z
 _atom_site_occupancy
  C  C0  1  0.08294500  0.57653300  0.09040400  1
  C  C1  1  0.57904600  0.08871000  0.07595600  1
  C  C2  1  0.42346700  0.91705500  0.40959600  1
  C  C3  1  0.08871000  0.57904600  0.57595600  1
  C  C4  1  0.75312800  0.24687200  0.75000000  1
  C  C5  1  0.57653300  0.08294500  0.59040400  1
  C  C6  1  0.42095400  0.91129000  0.92404400  1
  C  C7  1  0.91705500  0.42346700  0.90959600  1
  C  C8  1  0.24687200  0.75312800  0.25000000  1
  C  C9  1  0.91129000  0.42095400  0.42404400  1
  Ni  Ni10  1  0.26630700  0.73369300  0.75000000  1
  Ni  Ni11  1  0.73369300  0.26630700  0.25000000  1
  Cu  Cu12  1  0.00000000  0.00000000  0.00000000  1
  Cu  Cu13  1  0.00000000  0.00000000  0.50000000  1
  Cu  Cu14  1  0.32483200  0.34456700  0.82966100  1
  Cu  Cu15  1  0.67516800  0.65543300  0.17033900  1
  Cu  Cu16  1  0.34456700  0.32483200  0.32966100  1
  Cu  Cu17  1  0.65543300  0.67516800  0.67033900  1
