# generated using pymatgen
data_Cu6Ni8C9
_symmetry_space_group_name_H-M   'P 1'
_cell_length_a   8.75598763
_cell_length_b   8.75598763
_cell_length_c   8.53356982
_cell_angle_alpha   80.29614334
_cell_angle_beta   80.29614334
_cell_angle_gamma   79.78256598
_symmetry_Int_Tables_number   1
_chemical_formula_structural   Cu6Ni8C9
_chemical_formula_sum   'Cu6 Ni8 C9'
_cell_volume   628.14154515
_cell_formula_units_Z   1
loop_
 _symmetry_equiv_pos_site_id
 _symmetry_equiv_pos_as_xyz
  1  'x, y, z'
loop_
 _atom_site_type_symbol
 _atom_site_label
 _atom_site_symmetry_multiplicity
 _atom_site_fract_x
 _atom_site_fract_y
 _atom_site_fract_z
 _atom_site_occupancy
  C  C0  1  0.50000000  0.00000000  0.50000000  1
  C  C1  1  0.00000000  0.50000000  0.50000000  1
  C  C2  1  0.36450200  0.72959300  0.23450600  1
  C  C3  1  0.72796300  0.72796300  0.86776200  1
  C  C4  1  0.63549800  0.27040700  0.76549400  1
  C  C5  1  0.27203700  0.27203700  0.13223800  1
  C  C6  1  0.27040700  0.63549800  0.76549400  1
  C  C7  1  0.00000000  0.00000000  0.00000000  1
  C  C8  1  0.72959300  0.36450200  0.23450600  1
  Ni  Ni9  1  0.23640200  0.92150400  0.42102300  1
  Ni  Ni10  1  0.43841200  0.43841200  0.93432700  1
  Ni  Ni11  1  0.56158800  0.56158800  0.06567300  1
  Ni  Ni12  1  0.08527300  0.08527300  0.25776800  1
  Ni  Ni13  1  0.07849600  0.76359800  0.57897700  1
  Ni  Ni14  1  0.92150400  0.23640200  0.42102300  1
  Ni  Ni15  1  0.76359800  0.07849600  0.57897700  1
  Ni  Ni16  1  0.91472700  0.91472700  0.74223200  1
  Cu  Cu17  1  0.96241500  0.35992200  0.85173900  1
  Cu  Cu18  1  0.64623400  0.64623400  0.53507000  1
  Cu  Cu19  1  0.03758500  0.64007800  0.14826100  1
  Cu  Cu20  1  0.35992200  0.96241500  0.85173900  1
  Cu  Cu21  1  0.64007800  0.03758500  0.14826100  1
  Cu  Cu22  1  0.35376600  0.35376600  0.46493000  1
