# generated using pymatgen
data_Cu2Ni8C25
_symmetry_space_group_name_H-M   'P 1'
_cell_length_a   14.11382100
_cell_length_b   14.11382100
_cell_length_c   9.45011300
_cell_angle_alpha   90.00000000
_cell_angle_beta   90.00000000
_cell_angle_gamma   90.00000000
_symmetry_Int_Tables_number   1
_chemical_formula_structural   Cu2Ni8C25
_chemical_formula_sum   'Cu8 Ni32 C100'
_cell_volume   1882.46197302
_cell_formula_units_Z   4
loop_
 _symmetry_equiv_pos_site_id
 _symmetry_equiv_pos_as_xyz
  1  'x, y, z'
loop_
 _atom_site_type_symbol
 _atom_site_label
 _atom_site_symmetry_multiplicity
 _atom_site_fract_x
 _atom_site_fract_y
 _atom_site_fract_z
 _atom_site_occupancy
  C  C0  1  0.25000000  0.75000000  0.75000000  1
  C  C1  1  0.75000000  0.25000000  0.75000000  1
  C  C2  1  0.75000000  0.75000000  0.25000000  1
  C  C3  1  0.25000000  0.25000000  0.25000000  1
  C  C4  1  0.95062400  0.75570400  0.97374200  1
  C  C5  1  0.04937600  0.24429600  0.97374200  1
  C  C6  1  0.74429600  0.45062400  0.47374200  1
  C  C7  1  0.25570400  0.54937600  0.47374200  1
  C  C8  1  0.54937600  0.74429600  0.52625800  1
  C  C9  1  0.45062400  0.25570400  0.52625800  1
  C  C10  1  0.75570400  0.04937600  0.02625800  1
  C  C11  1  0.24429600  0.95062400  0.02625800  1
  C  C12  1  0.04670500  0.08292800  0.71623000  1
  C  C13  1  0.95329500  0.91707200  0.71623000  1
  C  C14  1  0.41707200  0.54670500  0.21623000  1
  C  C15  1  0.58292800  0.45329500  0.21623000  1
  C  C16  1  0.45329500  0.41707200  0.78377000  1
  C  C17  1  0.54670500  0.58292800  0.78377000  1
  C  C18  1  0.08292800  0.95329500  0.28377000  1
  C  C19  1  0.91707200  0.04670500  0.28377000  1
  C  C20  1  0.25778200  0.05922200  0.52055600  1
  C  C21  1  0.74221800  0.94077800  0.52055600  1
  C  C22  1  0.44077800  0.75778200  0.02055600  1
  C  C23  1  0.55922200  0.24221800  0.02055600  1
  C  C24  1  0.24221800  0.44077800  0.97944400  1
  C  C25  1  0.75778200  0.55922200  0.97944400  1
  C  C26  1  0.05922200  0.74221800  0.47944400  1
  C  C27  1  0.94077800  0.25778200  0.47944400  1
  C  C28  1  0.28898300  0.94936700  0.59292900  1
  C  C29  1  0.71101700  0.05063300  0.59292900  1
  C  C30  1  0.55063300  0.78898300  0.09292900  1
  C  C31  1  0.44936700  0.21101700  0.09292900  1
  C  C32  1  0.21101700  0.55063300  0.90707100  1
  C  C33  1  0.78898300  0.44936700  0.90707100  1
  C  C34  1  0.94936700  0.71101700  0.40707100  1
  C  C35  1  0.05063300  0.28898300  0.40707100  1
  C  C36  1  0.12938800  0.13884400  0.60385700  1
  C  C37  1  0.87061200  0.86115600  0.60385700  1
  C  C38  1  0.36115600  0.62938800  0.10385700  1
  C  C39  1  0.63884400  0.37061200  0.10385700  1
  C  C40  1  0.37061200  0.36115600  0.89614300  1
  C  C41  1  0.62938800  0.63884400  0.89614300  1
  C  C42  1  0.13884400  0.87061200  0.39614300  1
  C  C43  1  0.86115600  0.12938800  0.39614300  1
  C  C44  1  0.85761800  0.67777100  0.81926100  1
  C  C45  1  0.14238200  0.32222900  0.81926100  1
  C  C46  1  0.82222900  0.35761800  0.31926100  1
  C  C47  1  0.17777100  0.64238200  0.31926100  1
  C  C48  1  0.64238200  0.82222900  0.68073900  1
  C  C49  1  0.35761800  0.17777100  0.68073900  1
  C  C50  1  0.67777100  0.14238200  0.18073900  1
  C  C51  1  0.32222900  0.85761800  0.18073900  1
  C  C52  1  0.07493400  0.74617800  0.96848900  1
  C  C53  1  0.92506600  0.25382200  0.96848900  1
  C  C54  1  0.75382200  0.57493400  0.46848900  1
  C  C55  1  0.24617800  0.42506600  0.46848900  1
  C  C56  1  0.42506600  0.75382200  0.53151100  1
  C  C57  1  0.57493400  0.24617800  0.53151100  1
  C  C58  1  0.74617800  0.92506600  0.03151100  1
  C  C59  1  0.25382200  0.07493400  0.03151100  1
  C  C60  1  0.90715800  0.60389800  0.68908100  1
  C  C61  1  0.09284200  0.39610200  0.68908100  1
  C  C62  1  0.89610200  0.40715800  0.18908100  1
  C  C63  1  0.10389800  0.59284200  0.18908100  1
  C  C64  1  0.59284200  0.89610200  0.81091900  1
  C  C65  1  0.40715800  0.10389800  0.81091900  1
  C  C66  1  0.60389800  0.09284200  0.31091900  1
  C  C67  1  0.39610200  0.90715800  0.31091900  1
  C  C68  1  0.16223700  0.00276600  0.66137500  1
  C  C69  1  0.83776300  0.99723400  0.66137500  1
  C  C70  1  0.49723400  0.66223700  0.16137500  1
  C  C71  1  0.50276600  0.33776300  0.16137500  1
  C  C72  1  0.33776300  0.49723400  0.83862500  1
  C  C73  1  0.66223700  0.50276600  0.83862500  1
  C  C74  1  0.00276600  0.83776300  0.33862500  1
  C  C75  1  0.99723400  0.16223700  0.33862500  1
  C  C76  1  0.00304000  0.67246900  0.81410500  1
  C  C77  1  0.99696000  0.32753100  0.81410500  1
  C  C78  1  0.82753100  0.50304000  0.31410500  1
  C  C79  1  0.17246900  0.49696000  0.31410500  1
  C  C80  1  0.49696000  0.82753100  0.68589500  1
  C  C81  1  0.50304000  0.17246900  0.68589500  1
  C  C82  1  0.67246900  0.99696000  0.18589500  1
  C  C83  1  0.32753100  0.00304000  0.18589500  1
  C  C84  1  0.13176200  0.91036100  0.76970700  1
  C  C85  1  0.86823800  0.08963900  0.76970700  1
  C  C86  1  0.58963900  0.63176200  0.26970700  1
  C  C87  1  0.41036100  0.36823800  0.26970700  1
  C  C88  1  0.36823800  0.58963900  0.73029300  1
  C  C89  1  0.63176200  0.41036100  0.73029300  1
  C  C90  1  0.91036100  0.86823800  0.23029300  1
  C  C91  1  0.08963900  0.13176200  0.23029300  1
  C  C92  1  0.09934800  0.62939900  0.72375000  1
  C  C93  1  0.90065200  0.37060100  0.72375000  1
  C  C94  1  0.87060100  0.59934800  0.22375000  1
  C  C95  1  0.12939900  0.40065200  0.22375000  1
  C  C96  1  0.40065200  0.87060100  0.77625000  1
  C  C97  1  0.59934800  0.12939900  0.77625000  1
  C  C98  1  0.62939900  0.90065200  0.27625000  1
  C  C99  1  0.37060100  0.09934800  0.27625000  1
  Ni  Ni100  1  0.10710800  0.07988900  0.65715800  1
  Ni  Ni101  1  0.89289200  0.92011100  0.65715800  1
  Ni  Ni102  1  0.42011100  0.60710800  0.15715800  1
  Ni  Ni103  1  0.57988900  0.39289200  0.15715800  1
  Ni  Ni104  1  0.39289200  0.42011100  0.84284200  1
  Ni  Ni105  1  0.60710800  0.57988900  0.84284200  1
  Ni  Ni106  1  0.07988900  0.89289200  0.34284200  1
  Ni  Ni107  1  0.92011100  0.10710800  0.34284200  1
  Ni  Ni108  1  0.23982300  0.00138300  0.57935800  1
  Ni  Ni109  1  0.76017700  0.99861700  0.57935800  1
  Ni  Ni110  1  0.49861700  0.73982300  0.07935800  1
  Ni  Ni111  1  0.50138300  0.26017700  0.07935800  1
  Ni  Ni112  1  0.26017700  0.49861700  0.92064200  1
  Ni  Ni113  1  0.73982300  0.50138300  0.92064200  1
  Ni  Ni114  1  0.00138300  0.76017700  0.42064200  1
  Ni  Ni115  1  0.99861700  0.23982300  0.42064200  1
  Ni  Ni116  1  0.91593900  0.65082300  0.76899900  1
  Ni  Ni117  1  0.08406100  0.34917700  0.76899900  1
  Ni  Ni118  1  0.84917700  0.41593900  0.26899900  1
  Ni  Ni119  1  0.15082300  0.58406100  0.26899900  1
  Ni  Ni120  1  0.58406100  0.84917700  0.73100100  1
  Ni  Ni121  1  0.41593900  0.15082300  0.73100100  1
  Ni  Ni122  1  0.65082300  0.08406100  0.23100100  1
  Ni  Ni123  1  0.34917700  0.91593900  0.23100100  1
  Ni  Ni124  1  0.01021100  0.72834800  0.92853500  1
  Ni  Ni125  1  0.98978900  0.27165200  0.92853500  1
  Ni  Ni126  1  0.77165200  0.51021100  0.42853500  1
  Ni  Ni127  1  0.22834800  0.48978900  0.42853500  1
  Ni  Ni128  1  0.48978900  0.77165200  0.57146500  1
  Ni  Ni129  1  0.51021100  0.22834800  0.57146500  1
  Ni  Ni130  1  0.72834800  0.98978900  0.07146500  1
  Ni  Ni131  1  0.27165200  0.01021100  0.07146500  1
  Cu  Cu132  1  0.23739500  0.75005800  0.03419000  1
  Cu  Cu133  1  0.76260500  0.24994200  0.03419000  1
  Cu  Cu134  1  0.74994200  0.73739500  0.53419000  1
  Cu  Cu135  1  0.25005800  0.26260500  0.53419000  1
  Cu  Cu136  1  0.26260500  0.74994200  0.46581000  1
  Cu  Cu137  1  0.73739500  0.25005800  0.46581000  1
  Cu  Cu138  1  0.75005800  0.76260500  0.96581000  1
  Cu  Cu139  1  0.24994200  0.23739500  0.96581000  1
