# generated using pymatgen
data_Cu2NiC6
_symmetry_space_group_name_H-M   'P 1'
_cell_length_a   6.54290500
_cell_length_b   7.06079600
_cell_length_c   7.97970400
_cell_angle_alpha   90.00000000
_cell_angle_beta   90.00000000
_cell_angle_gamma   90.00000000
_symmetry_Int_Tables_number   1
_chemical_formula_structural   Cu2NiC6
_chemical_formula_sum   'Cu8 Ni4 C24'
_cell_volume   368.64730263
_cell_formula_units_Z   4
loop_
 _symmetry_equiv_pos_site_id
 _symmetry_equiv_pos_as_xyz
  1  'x, y, z'
loop_
 _atom_site_type_symbol
 _atom_site_label
 _atom_site_symmetry_multiplicity
 _atom_site_fract_x
 _atom_site_fract_y
 _atom_site_fract_z
 _atom_site_occupancy
  C  C0  1  0.12126600  0.65665000  0.72149300  1
  C  C1  1  0.87873400  0.15665000  0.27850700  1
  C  C2  1  0.62126600  0.15665000  0.77850700  1
  C  C3  1  0.37873400  0.65665000  0.22149300  1
  C  C4  1  0.89740700  0.79331100  0.87745600  1
  C  C5  1  0.10259300  0.29331100  0.12254400  1
  C  C6  1  0.39740700  0.29331100  0.62254400  1
  C  C7  1  0.60259300  0.79331100  0.37745600  1
  C  C8  1  0.13476800  0.84321100  0.94153000  1
  C  C9  1  0.86523200  0.34321100  0.05847000  1
  C  C10  1  0.63476800  0.34321100  0.55847000  1
  C  C11  1  0.36523200  0.84321100  0.44153000  1
  C  C12  1  0.04078000  0.95281400  0.77526000  1
  C  C13  1  0.95922000  0.45281400  0.22474000  1
  C  C14  1  0.54078000  0.45281400  0.72474000  1
  C  C15  1  0.45922000  0.95281400  0.27526000  1
  C  C16  1  0.29150800  0.68755100  0.66700100  1
  C  C17  1  0.70849200  0.18755100  0.33299900  1
  C  C18  1  0.79150800  0.18755100  0.83299900  1
  C  C19  1  0.20849200  0.68755100  0.16700100  1
  C  C20  1  0.11807600  0.51109600  0.80212400  1
  C  C21  1  0.88192400  0.01109600  0.19787600  1
  C  C22  1  0.61807600  0.01109600  0.69787600  1
  C  C23  1  0.38192400  0.51109600  0.30212400  1
  Ni  Ni24  1  0.96607700  0.63717000  0.57163100  1
  Ni  Ni25  1  0.03392300  0.13717000  0.42836900  1
  Ni  Ni26  1  0.46607700  0.13717000  0.92836900  1
  Ni  Ni27  1  0.53392300  0.63717000  0.07163100  1
  Cu  Cu28  1  0.04362200  0.82538400  0.83776700  1
  Cu  Cu29  1  0.95637800  0.32538400  0.16223300  1
  Cu  Cu30  1  0.54362200  0.32538400  0.66223300  1
  Cu  Cu31  1  0.45637800  0.82538400  0.33776700  1
  Cu  Cu32  1  0.85081400  0.62081200  0.46057900  1
  Cu  Cu33  1  0.14918600  0.12081200  0.53942100  1
  Cu  Cu34  1  0.35081400  0.12081200  0.03942100  1
  Cu  Cu35  1  0.64918600  0.62081200  0.96057900  1
