# generated using pymatgen
data_Cu85(Ni10C17)2
_symmetry_space_group_name_H-M   'P 1'
_cell_length_a   17.48843511
_cell_length_b   17.48843529
_cell_length_c   17.48843523
_cell_angle_alpha   65.44359580
_cell_angle_beta   65.44359554
_cell_angle_gamma   65.44359445
_symmetry_Int_Tables_number   1
_chemical_formula_structural   Cu85(Ni10C17)2
_chemical_formula_sum   'Cu85 Ni20 C34'
_cell_volume   4229.96325917
_cell_formula_units_Z   1
loop_
 _symmetry_equiv_pos_site_id
 _symmetry_equiv_pos_as_xyz
  1  'x, y, z'
loop_
 _atom_site_type_symbol
 _atom_site_label
 _atom_site_symmetry_multiplicity
 _atom_site_fract_x
 _atom_site_fract_y
 _atom_site_fract_z
 _atom_site_occupancy
  C  C0  1  0.49951788  0.10789274  0.10789274  1
  C  C1  1  0.36187500  0.36187500  0.36187500  1
  C  C2  1  0.11259833  0.74238357  0.11259833  1
  C  C3  1  0.49977454  0.15383876  0.71315550  1
  C  C4  1  0.88740167  0.25761643  0.88740167  1
  C  C5  1  0.89210726  0.50048212  0.89210726  1
  C  C6  1  0.25761643  0.88740167  0.88740167  1
  C  C7  1  0.50022546  0.84616124  0.28684450  1
  C  C8  1  0.74292837  0.74292837  0.74292837  1
  C  C9  1  0.50048212  0.89210726  0.89210726  1
  C  C10  1  0.37016294  0.71797200  0.71797200  1
  C  C11  1  0.74238357  0.11259833  0.11259833  1
  C  C12  1  0.84616124  0.50022546  0.28684450  1
  C  C13  1  0.10789274  0.49951788  0.10789274  1
  C  C14  1  0.71797200  0.71797200  0.37016294  1
  C  C15  1  0.71315550  0.49977454  0.15383876  1
  C  C16  1  0.62983706  0.28202800  0.28202800  1
  C  C17  1  0.25707163  0.25707163  0.25707163  1
  C  C18  1  0.50022546  0.28684450  0.84616124  1
  C  C19  1  0.88740167  0.88740167  0.25761643  1
  C  C20  1  0.28684450  0.50022546  0.84616124  1
  C  C21  1  0.11259833  0.11259833  0.74238357  1
  C  C22  1  0.28202800  0.28202800  0.62983706  1
  C  C23  1  0.15383876  0.49977454  0.71315550  1
  C  C24  1  0.84616124  0.28684450  0.50022546  1
  C  C25  1  0.28684450  0.84616124  0.50022546  1
  C  C26  1  0.63812500  0.63812500  0.63812500  1
  C  C27  1  0.49977454  0.71315550  0.15383876  1
  C  C28  1  0.71797200  0.37016294  0.71797200  1
  C  C29  1  0.15383876  0.71315550  0.49977454  1
  C  C30  1  0.10789274  0.10789274  0.49951788  1
  C  C31  1  0.89210726  0.89210726  0.50048212  1
  C  C32  1  0.28202800  0.62983706  0.28202800  1
  C  C33  1  0.71315550  0.15383876  0.49977454  1
  Ni  Ni34  1  0.88191720  0.88191720  0.73901521  1
  Ni  Ni35  1  0.88191720  0.73901521  0.88191720  1
  Ni  Ni36  1  0.10859359  0.96054555  0.10859359  1
  Ni  Ni37  1  0.11368816  0.11368816  0.11368816  1
  Ni  Ni38  1  0.10859359  0.10859359  0.96054555  1
  Ni  Ni39  1  0.03945445  0.89140641  0.89140641  1
  Ni  Ni40  1  0.25454118  0.02192947  0.02192947  1
  Ni  Ni41  1  0.74545882  0.97807053  0.97807053  1
  Ni  Ni42  1  0.73901521  0.88191720  0.88191720  1
  Ni  Ni43  1  0.11808280  0.26098479  0.11808280  1
  Ni  Ni44  1  0.88631184  0.88631184  0.88631184  1
  Ni  Ni45  1  0.11808280  0.11808280  0.26098479  1
  Ni  Ni46  1  0.89140641  0.89140641  0.03945445  1
  Ni  Ni47  1  0.97807053  0.74545882  0.97807053  1
  Ni  Ni48  1  0.02192947  0.25454118  0.02192947  1
  Ni  Ni49  1  0.89140641  0.03945445  0.89140641  1
  Ni  Ni50  1  0.96054555  0.10859359  0.10859359  1
  Ni  Ni51  1  0.97807053  0.97807053  0.74545882  1
  Ni  Ni52  1  0.26098479  0.11808280  0.11808280  1
  Ni  Ni53  1  0.02192947  0.02192947  0.25454118  1
  Cu  Cu54  1  0.60879451  0.60879451  0.98264293  1
  Cu  Cu55  1  0.60250351  0.33640485  0.60250351  1
  Cu  Cu56  1  0.05216976  0.88471309  0.60681769  1
  Cu  Cu57  1  0.84099446  0.28413477  0.10962826  1
  Cu  Cu58  1  0.04653716  0.67370244  0.39151354  1
  Cu  Cu59  1  0.83075832  0.29102426  0.29102426  1
  Cu  Cu60  1  0.28710929  0.01472892  0.28710929  1
  Cu  Cu61  1  0.84099446  0.10962826  0.28413477  1
  Cu  Cu62  1  0.32629756  0.95346284  0.60848646  1
  Cu  Cu63  1  0.31982030  0.14847396  0.49772562  1
  Cu  Cu64  1  0.39318231  0.94783024  0.11528691  1
  Cu  Cu65  1  0.14847396  0.49772562  0.31982030  1
  Cu  Cu66  1  0.15614490  0.49693633  0.49693633  1
  Cu  Cu67  1  0.28710929  0.28710929  0.01472892  1
  Cu  Cu68  1  0.15900554  0.71586523  0.89037174  1
  Cu  Cu69  1  0.49715524  0.49715524  0.33183515  1
  Cu  Cu70  1  0.39151354  0.67370244  0.04653716  1
  Cu  Cu71  1  0.71586523  0.15900554  0.89037174  1
  Cu  Cu72  1  0.29102426  0.83075832  0.29102426  1
  Cu  Cu73  1  0.50284476  0.50284476  0.66816485  1
  Cu  Cu74  1  0.49693633  0.15614490  0.49693633  1
  Cu  Cu75  1  0.71289071  0.71289071  0.98527108  1
  Cu  Cu76  1  0.70897574  0.16924168  0.70897574  1
  Cu  Cu77  1  0.11528691  0.39318231  0.94783024  1
  Cu  Cu78  1  0.95346284  0.60848646  0.32629756  1
  Cu  Cu79  1  0.60848646  0.95346284  0.32629756  1
  Cu  Cu80  1  0.68017970  0.50227438  0.85152604  1
  Cu  Cu81  1  0.60848646  0.32629756  0.95346284  1
  Cu  Cu82  1  0.16924168  0.70897574  0.70897574  1
  Cu  Cu83  1  0.84385510  0.50306367  0.50306367  1
  Cu  Cu84  1  0.15900554  0.89037174  0.71586523  1
  Cu  Cu85  1  0.39151354  0.04653716  0.67370244  1
  Cu  Cu86  1  0.89037174  0.15900554  0.71586523  1
  Cu  Cu87  1  0.39120549  0.39120549  0.01735707  1
  Cu  Cu88  1  0.14847396  0.31982030  0.49772562  1
  Cu  Cu89  1  0.98264293  0.60879451  0.60879451  1
  Cu  Cu90  1  0.88471309  0.05216976  0.60681769  1
  Cu  Cu91  1  0.50284476  0.66816485  0.50284476  1
  Cu  Cu92  1  0.95346284  0.32629756  0.60848646  1
  Cu  Cu93  1  0.60681769  0.05216976  0.88471309  1
  Cu  Cu94  1  0.85152604  0.50227438  0.68017970  1
  Cu  Cu95  1  0.33640485  0.60250351  0.60250351  1
  Cu  Cu96  1  0.66359515  0.39749649  0.39749649  1
  Cu  Cu97  1  0.50306367  0.50306367  0.84385510  1
  Cu  Cu98  1  0.60681769  0.88471309  0.05216976  1
  Cu  Cu99  1  0.67370244  0.39151354  0.04653716  1
  Cu  Cu100  1  0.49715524  0.33183515  0.49715524  1
  Cu  Cu101  1  0.60250351  0.60250351  0.33640485  1
  Cu  Cu102  1  0.85152604  0.68017970  0.50227438  1
  Cu  Cu103  1  0.32629756  0.60848646  0.95346284  1
  Cu  Cu104  1  0.98527108  0.71289071  0.71289071  1
  Cu  Cu105  1  0.28413477  0.10962826  0.84099446  1
  Cu  Cu106  1  0.49772562  0.31982030  0.14847396  1
  Cu  Cu107  1  0.50306367  0.84385510  0.50306367  1
  Cu  Cu108  1  0.60879451  0.98264293  0.60879451  1
  Cu  Cu109  1  0.05216976  0.60681769  0.88471309  1
  Cu  Cu110  1  0.39749649  0.66359515  0.39749649  1
  Cu  Cu111  1  0.49772562  0.14847396  0.31982030  1
  Cu  Cu112  1  0.94783024  0.39318231  0.11528691  1
  Cu  Cu113  1  0.88471309  0.60681769  0.05216976  1
  Cu  Cu114  1  0.50227438  0.85152604  0.68017970  1
  Cu  Cu115  1  0.39749649  0.39749649  0.66359515  1
  Cu  Cu116  1  0.94783024  0.11528691  0.39318231  1
  Cu  Cu117  1  0.39318231  0.11528691  0.94783024  1
  Cu  Cu118  1  0.67370244  0.04653716  0.39151354  1
  Cu  Cu119  1  0.89037174  0.71586523  0.15900554  1
  Cu  Cu120  1  0.71586523  0.89037174  0.15900554  1
  Cu  Cu121  1  0.04653716  0.39151354  0.67370244  1
  Cu  Cu122  1  0.01472892  0.28710929  0.28710929  1
  Cu  Cu123  1  0.29102426  0.29102426  0.83075832  1
  Cu  Cu124  1  0.49693633  0.49693633  0.15614490  1
  Cu  Cu125  1  0.71289071  0.98527108  0.71289071  1
  Cu  Cu126  1  0.11528691  0.94783024  0.39318231  1
  Cu  Cu127  1  0.01735707  0.39120549  0.39120549  1
  Cu  Cu128  1  0.68017970  0.85152604  0.50227438  1
  Cu  Cu129  1  0.31982030  0.49772562  0.14847396  1
  Cu  Cu130  1  0.50227438  0.68017970  0.85152604  1
  Cu  Cu131  1  0.00000000  0.00000000  0.00000000  1
  Cu  Cu132  1  0.10962826  0.28413477  0.84099446  1
  Cu  Cu133  1  0.39120549  0.01735707  0.39120549  1
  Cu  Cu134  1  0.28413477  0.84099446  0.10962826  1
  Cu  Cu135  1  0.66816485  0.50284476  0.50284476  1
  Cu  Cu136  1  0.33183515  0.49715524  0.49715524  1
  Cu  Cu137  1  0.70897574  0.70897574  0.16924168  1
  Cu  Cu138  1  0.10962826  0.84099446  0.28413477  1
