# generated using pymatgen
data_Cu2NiC10
_symmetry_space_group_name_H-M   'P 1'
_cell_length_a   8.12842372
_cell_length_b   8.12842372
_cell_length_c   8.12842421
_cell_angle_alpha   50.08737643
_cell_angle_beta   50.08737643
_cell_angle_gamma   50.08738336
_symmetry_Int_Tables_number   1
_chemical_formula_structural   Cu2NiC10
_chemical_formula_sum   'Cu2 Ni1 C10'
_cell_volume   290.83053227
_cell_formula_units_Z   1
loop_
 _symmetry_equiv_pos_site_id
 _symmetry_equiv_pos_as_xyz
  1  'x, y, z'
loop_
 _atom_site_type_symbol
 _atom_site_label
 _atom_site_symmetry_multiplicity
 _atom_site_fract_x
 _atom_site_fract_y
 _atom_site_fract_z
 _atom_site_occupancy
  C  C0  1  0.81027600  0.81027600  0.81027600  1
  C  C1  1  0.18972400  0.18972400  0.18972400  1
  Ni  Ni2  1  0.50000000  0.50000000  0.50000000  1
  Cu  Cu3  1  0.62689100  0.62689100  0.62689100  1
  Cu  Cu4  1  0.37310900  0.37310900  0.37310900  1
  C  C5  1  0.71663000  0.71663000  0.36275800  1
  C  C6  1  0.63724200  0.28337000  0.28337000  1
  C  C7  1  0.36275800  0.71663000  0.71663000  1
  C  C8  1  0.28337000  0.63724200  0.28337000  1
  C  C9  1  0.28337000  0.28337000  0.63724200  1
  C  C10  1  0.30498600  0.30498600  0.30498600  1
  C  C11  1  0.71663000  0.36275800  0.71663000  1
  C  C12  1  0.69501400  0.69501400  0.69501400  1
