# generated using pymatgen
data_Cu8Ni4C13
_symmetry_space_group_name_H-M   'P 1'
_cell_length_a   8.50605386
_cell_length_b   8.50605386
_cell_length_c   9.20461957
_cell_angle_alpha   71.39701423
_cell_angle_beta   71.39701423
_cell_angle_gamma   56.60723972
_symmetry_Int_Tables_number   1
_chemical_formula_structural   Cu8Ni4C13
_chemical_formula_sum   'Cu16 Ni8 C26'
_cell_volume   518.25745195
_cell_formula_units_Z   2
loop_
 _symmetry_equiv_pos_site_id
 _symmetry_equiv_pos_as_xyz
  1  'x, y, z'
loop_
 _atom_site_type_symbol
 _atom_site_label
 _atom_site_symmetry_multiplicity
 _atom_site_fract_x
 _atom_site_fract_y
 _atom_site_fract_z
 _atom_site_occupancy
  C  C0  1  0.10965500  0.89034500  0.25000000  1
  C  C1  1  0.89034500  0.10965500  0.75000000  1
  C  C2  1  0.76435900  0.11378000  0.22055400  1
  C  C3  1  0.88622000  0.23564100  0.27944600  1
  C  C4  1  0.23564100  0.88622000  0.77944600  1
  C  C5  1  0.11378000  0.76435900  0.72055400  1
  C  C6  1  0.90374000  0.66917400  0.04528000  1
  C  C7  1  0.33082600  0.09626000  0.45472000  1
  C  C8  1  0.09626000  0.33082600  0.95472000  1
  C  C9  1  0.66917400  0.90374000  0.54528000  1
  C  C10  1  0.36569800  0.58882900  0.15124600  1
  C  C11  1  0.41117100  0.63430200  0.34875400  1
  C  C12  1  0.63430200  0.41117100  0.84875400  1
  C  C13  1  0.58882900  0.36569800  0.65124600  1
  C  C14  1  0.54689300  0.12055900  0.12358200  1
  C  C15  1  0.87944100  0.45310700  0.37641800  1
  C  C16  1  0.45310700  0.87944100  0.87641800  1
  C  C17  1  0.12055900  0.54689300  0.62358200  1
  C  C18  1  0.59991400  0.89767100  0.10255700  1
  C  C19  1  0.10232900  0.40008600  0.39744300  1
  C  C20  1  0.40008600  0.10232900  0.89744300  1
  C  C21  1  0.89767100  0.59991400  0.60255700  1
  Ni  Ni22  1  0.82522100  0.90235000  0.13472100  1
  Ni  Ni23  1  0.09765000  0.17477900  0.36527900  1
  Ni  Ni24  1  0.17477900  0.09765000  0.86527900  1
  Ni  Ni25  1  0.90235000  0.82522100  0.63472100  1
  Ni  Ni26  1  0.14794300  0.62701500  0.08904100  1
  Ni  Ni27  1  0.37298500  0.85205700  0.41095900  1
  Ni  Ni28  1  0.85205700  0.37298500  0.91095900  1
  Ni  Ni29  1  0.62701500  0.14794300  0.58904100  1
  C  C30  1  0.28742700  0.44671200  0.98058600  1
  C  C31  1  0.55328800  0.71257300  0.51941400  1
  C  C32  1  0.71257300  0.55328800  0.01941400  1
  C  C33  1  0.44671200  0.28742700  0.48058600  1
  Cu  Cu34  1  0.87788500  0.98650200  0.19062900  1
  Cu  Cu35  1  0.01349800  0.12211500  0.30937100  1
  Cu  Cu36  1  0.12211500  0.01349800  0.80937100  1
  Cu  Cu37  1  0.98650200  0.87788500  0.69062900  1
  Cu  Cu38  1  0.95332000  0.72713000  0.09068100  1
  Cu  Cu39  1  0.27287000  0.04668000  0.40931900  1
  Cu  Cu40  1  0.04668000  0.27287000  0.90931900  1
  Cu  Cu41  1  0.72713000  0.95332000  0.59068100  1
  Cu  Cu42  1  0.21946700  0.67359900  0.16534100  1
  Cu  Cu43  1  0.32640100  0.78053300  0.33465900  1
  Cu  Cu44  1  0.78053300  0.32640100  0.83465900  1
  Cu  Cu45  1  0.67359900  0.21946700  0.66534100  1
  Cu  Cu46  1  0.64500800  0.98213600  0.11092100  1
  Cu  Cu47  1  0.01786400  0.35499200  0.38907900  1
  Cu  Cu48  1  0.35499200  0.01786400  0.88907900  1
  Cu  Cu49  1  0.98213600  0.64500800  0.61092100  1
