# generated using pymatgen
data_Cu6NiC5
_symmetry_space_group_name_H-M   'P 1'
_cell_length_a   5.60266400
_cell_length_b   5.67103700
_cell_length_c   16.28495920
_cell_angle_alpha   84.06740950
_cell_angle_beta   90.00000000
_cell_angle_gamma   90.00000000
_symmetry_Int_Tables_number   1
_chemical_formula_structural   Cu6NiC5
_chemical_formula_sum   'Cu24 Ni4 C20'
_cell_volume   514.64941366
_cell_formula_units_Z   4
loop_
 _symmetry_equiv_pos_site_id
 _symmetry_equiv_pos_as_xyz
  1  'x, y, z'
loop_
 _atom_site_type_symbol
 _atom_site_label
 _atom_site_symmetry_multiplicity
 _atom_site_fract_x
 _atom_site_fract_y
 _atom_site_fract_z
 _atom_site_occupancy
  C  C0  1  0.64316000  0.74634500  0.74751800  1
  C  C1  1  0.14316000  0.25365500  0.75248200  1
  C  C2  1  0.35684000  0.25365500  0.25248200  1
  C  C3  1  0.85684000  0.74634500  0.24751800  1
  C  C4  1  0.17101000  0.80463500  0.59767900  1
  C  C5  1  0.67101000  0.19536500  0.90232100  1
  C  C6  1  0.82899000  0.19536500  0.40232100  1
  C  C7  1  0.32899000  0.80463500  0.09767900  1
  C  C8  1  0.67830400  0.28070700  0.63899900  1
  C  C9  1  0.17830400  0.71929300  0.86100100  1
  C  C10  1  0.32169600  0.71929300  0.36100100  1
  C  C11  1  0.82169600  0.28070700  0.13899900  1
  C  C12  1  0.11179800  0.29612500  0.55119000  1
  C  C13  1  0.61179800  0.70387500  0.94881000  1
  C  C14  1  0.88820200  0.70387500  0.44881000  1
  C  C15  1  0.38820200  0.29612500  0.05119000  1
  C  C16  1  0.32118500  0.25180200  0.49022600  1
  C  C17  1  0.82118500  0.74819800  0.00977400  1
  C  C18  1  0.67881500  0.74819800  0.50977400  1
  C  C19  1  0.17881500  0.25180200  0.99022600  1
  Ni  Ni20  1  0.16265300  0.19212000  0.50911100  1
  Ni  Ni21  1  0.66265300  0.80788000  0.99088900  1
  Ni  Ni22  1  0.83734700  0.80788000  0.49088900  1
  Ni  Ni23  1  0.33734700  0.19212000  0.00911100  1
  Cu  Cu24  1  0.96953800  0.44402500  0.62528900  1
  Cu  Cu25  1  0.46953800  0.55597500  0.87471100  1
  Cu  Cu26  1  0.03046200  0.55597500  0.37471100  1
  Cu  Cu27  1  0.53046200  0.44402500  0.12528900  1
  Cu  Cu28  1  0.86571800  0.01186900  0.65547300  1
  Cu  Cu29  1  0.36571800  0.98813100  0.84452700  1
  Cu  Cu30  1  0.13428200  0.98813100  0.34452700  1
  Cu  Cu31  1  0.63428200  0.01186900  0.15547300  1
  Cu  Cu32  1  0.51351300  0.56007000  0.62741600  1
  Cu  Cu33  1  0.01351300  0.43993000  0.87258400  1
  Cu  Cu34  1  0.48648700  0.43993000  0.37258400  1
  Cu  Cu35  1  0.98648700  0.56007000  0.12741600  1
  Cu  Cu36  1  0.41358700  0.09536700  0.65774900  1
  Cu  Cu37  1  0.91358700  0.90463300  0.84225100  1
  Cu  Cu38  1  0.58641300  0.90463300  0.34225100  1
  Cu  Cu39  1  0.08641300  0.09536700  0.15774900  1
  Cu  Cu40  1  0.69970400  0.31392800  0.75019900  1
  Cu  Cu41  1  0.19970400  0.68607200  0.74980100  1
  Cu  Cu42  1  0.30029600  0.68607200  0.24980100  1
  Cu  Cu43  1  0.80029600  0.31392800  0.25019900  1
  Cu  Cu44  1  0.66145000  0.26438400  0.52860400  1
  Cu  Cu45  1  0.16145000  0.73561600  0.97139600  1
  Cu  Cu46  1  0.33855000  0.73561600  0.47139600  1
  Cu  Cu47  1  0.83855000  0.26438400  0.02860400  1
