# generated using pymatgen
data_Cu2NiC13
_symmetry_space_group_name_H-M   'P 1'
_cell_length_a   14.38031104
_cell_length_b   14.38031104
_cell_length_c   7.69400400
_cell_angle_alpha   90.00000000
_cell_angle_beta   90.00000000
_cell_angle_gamma   164.30055086
_symmetry_Int_Tables_number   1
_chemical_formula_structural   Cu2NiC13
_chemical_formula_sum   'Cu4 Ni2 C26'
_cell_volume   430.52920783
_cell_formula_units_Z   2
loop_
 _symmetry_equiv_pos_site_id
 _symmetry_equiv_pos_as_xyz
  1  'x, y, z'
loop_
 _atom_site_type_symbol
 _atom_site_label
 _atom_site_symmetry_multiplicity
 _atom_site_fract_x
 _atom_site_fract_y
 _atom_site_fract_z
 _atom_site_occupancy
  Ni  Ni0  1  0.25702100  0.74297900  0.75000000  1
  Ni  Ni1  1  0.74297900  0.25702100  0.25000000  1
  Cu  Cu2  1  0.41980300  0.58019700  0.25000000  1
  Cu  Cu3  1  0.58019700  0.41980300  0.75000000  1
  Cu  Cu4  1  0.42728400  0.57271600  0.75000000  1
  Cu  Cu5  1  0.57271600  0.42728400  0.25000000  1
  C  C6  1  0.14579400  0.85420600  0.49493900  1
  C  C7  1  0.85420600  0.14579400  0.50506100  1
  C  C8  1  0.85420600  0.14579400  0.99493900  1
  C  C9  1  0.14579400  0.85420600  0.00506100  1
  C  C10  1  0.00000000  0.00000000  0.50000000  1
  C  C11  1  0.00000000  0.00000000  0.00000000  1
  C  C12  1  0.63043000  0.36957000  0.49263500  1
  C  C13  1  0.36957000  0.63043000  0.50736500  1
  C  C14  1  0.36957000  0.63043000  0.99263500  1
  C  C15  1  0.63043000  0.36957000  0.00736500  1
  C  C16  1  0.20693500  0.79306500  0.45279900  1
  C  C17  1  0.79306500  0.20693500  0.54720100  1
  C  C18  1  0.79306500  0.20693500  0.95279900  1
  C  C19  1  0.20693500  0.79306500  0.04720100  1
  C  C20  1  0.06638100  0.93361900  0.55548200  1
  C  C21  1  0.93361900  0.06638100  0.44451800  1
  C  C22  1  0.93361900  0.06638100  0.05548200  1
  C  C23  1  0.06638100  0.93361900  0.94451800  1
  C  C24  1  0.50000000  0.50000000  0.00000000  1
  C  C25  1  0.50000000  0.50000000  0.50000000  1
  C  C26  1  0.98240700  0.01759300  0.75000000  1
  C  C27  1  0.01759300  0.98240700  0.25000000  1
  C  C28  1  0.87767900  0.12232100  0.75000000  1
  C  C29  1  0.12232100  0.87767900  0.25000000  1
  C  C30  1  0.14680100  0.85319900  0.75000000  1
  C  C31  1  0.85319900  0.14680100  0.25000000  1
