# generated using pymatgen
data_Cu7NiC6
_symmetry_space_group_name_H-M   'P 1'
_cell_length_a   15.69417874
_cell_length_b   15.69417874
_cell_length_c   15.69417905
_cell_angle_alpha   21.08517912
_cell_angle_beta   21.08517912
_cell_angle_gamma   21.08518139
_symmetry_Int_Tables_number   1
_chemical_formula_structural   Cu7NiC6
_chemical_formula_sum   'Cu14 Ni2 C12'
_cell_volume   438.16073160
_cell_formula_units_Z   2
loop_
 _symmetry_equiv_pos_site_id
 _symmetry_equiv_pos_as_xyz
  1  'x, y, z'
loop_
 _atom_site_type_symbol
 _atom_site_label
 _atom_site_symmetry_multiplicity
 _atom_site_fract_x
 _atom_site_fract_y
 _atom_site_fract_z
 _atom_site_occupancy
  C  C0  1  0.56990600  0.56990600  0.56990600  1
  C  C1  1  0.43009400  0.43009400  0.43009400  1
  C  C2  1  0.28908100  0.28908100  0.28908100  1
  C  C3  1  0.71091900  0.71091900  0.71091900  1
  C  C4  1  0.21976300  0.21976300  0.21976300  1
  C  C5  1  0.89744900  0.89744900  0.89744900  1
  C  C6  1  0.78023700  0.78023700  0.78023700  1
  C  C7  1  0.50000000  0.50000000  0.50000000  1
  C  C8  1  0.10255100  0.10255100  0.10255100  1
  C  C9  1  0.00000000  0.00000000  0.50000000  1
  C  C10  1  0.00000000  0.50000000  0.00000000  1
  C  C11  1  0.50000000  0.00000000  0.00000000  1
  Ni  Ni12  1  0.63983400  0.63983400  0.63983400  1
  Ni  Ni13  1  0.36016600  0.36016600  0.36016600  1
  Cu  Cu14  1  0.55046400  0.09094000  0.09094000  1
  Cu  Cu15  1  0.34998000  0.34998000  0.86665500  1
  Cu  Cu16  1  0.13334500  0.65002000  0.65002000  1
  Cu  Cu17  1  0.90906000  0.90906000  0.44953600  1
  Cu  Cu18  1  0.09094000  0.09094000  0.55046400  1
  Cu  Cu19  1  0.09094000  0.55046400  0.09094000  1
  Cu  Cu20  1  0.34998000  0.86665500  0.34998000  1
  Cu  Cu21  1  0.85464300  0.85464300  0.85464300  1
  Cu  Cu22  1  0.65002000  0.65002000  0.13334500  1
  Cu  Cu23  1  0.44953600  0.90906000  0.90906000  1
  Cu  Cu24  1  0.86665500  0.34998000  0.34998000  1
  Cu  Cu25  1  0.65002000  0.13334500  0.65002000  1
  Cu  Cu26  1  0.90906000  0.44953600  0.90906000  1
  Cu  Cu27  1  0.14535700  0.14535700  0.14535700  1
