# generated using pymatgen
data_Cu2NiC15
_symmetry_space_group_name_H-M   'P 1'
_cell_length_a   5.70691400
_cell_length_b   8.79118400
_cell_length_c   14.75440559
_cell_angle_alpha   53.60769939
_cell_angle_beta   90.00000000
_cell_angle_gamma   90.00000000
_symmetry_Int_Tables_number   1
_chemical_formula_structural   Cu2NiC15
_chemical_formula_sum   'Cu4 Ni2 C30'
_cell_volume   595.87068121
_cell_formula_units_Z   2
loop_
 _symmetry_equiv_pos_site_id
 _symmetry_equiv_pos_as_xyz
  1  'x, y, z'
loop_
 _atom_site_type_symbol
 _atom_site_label
 _atom_site_symmetry_multiplicity
 _atom_site_fract_x
 _atom_site_fract_y
 _atom_site_fract_z
 _atom_site_occupancy
  Ni  Ni0  1  0.57321800  0.00000000  0.75000000  1
  Ni  Ni1  1  0.42678200  0.00000000  0.25000000  1
  Cu  Cu2  1  0.99673700  0.68743400  0.55068100  1
  Cu  Cu3  1  0.00326300  0.31256600  0.44931900  1
  Cu  Cu4  1  0.00326300  0.68743400  0.05068100  1
  Cu  Cu5  1  0.99673700  0.31256600  0.94931900  1
  C  C6  1  0.12051800  0.76335900  0.82405600  1
  C  C7  1  0.05867600  0.16289200  0.76985500  1
  C  C8  1  0.50375500  0.50000000  0.75000000  1
  C  C9  1  0.67529400  0.57127500  0.94873500  1
  C  C10  1  0.70412400  0.50000000  0.25000000  1
  C  C11  1  0.94132400  0.83710800  0.23014500  1
  C  C12  1  0.71086900  0.50000000  0.75000000  1
  C  C13  1  0.87948200  0.23664100  0.17594400  1
  C  C14  1  0.50299200  0.86596100  0.49887100  1
  C  C15  1  0.00420900  0.08805100  0.36435500  1
  C  C16  1  0.32470600  0.57127500  0.44873500  1
  C  C17  1  0.67529400  0.42872500  0.55126500  1
  C  C18  1  0.49700800  0.86596100  0.99887100  1
  C  C19  1  0.32470600  0.42872500  0.05126500  1
  C  C20  1  0.28913100  0.50000000  0.25000000  1
  C  C21  1  0.05867600  0.83710800  0.73014500  1
  C  C22  1  0.94132400  0.16289200  0.26985500  1
  C  C23  1  0.50000000  0.00000000  0.50000000  1
  C  C24  1  0.12051800  0.23664100  0.67594400  1
  C  C25  1  0.87948200  0.76335900  0.32405600  1
  C  C26  1  0.29587600  0.50000000  0.75000000  1
  C  C27  1  0.49624500  0.50000000  0.25000000  1
  C  C28  1  0.00420900  0.91194900  0.13564500  1
  C  C29  1  0.49700800  0.13403900  0.50112900  1
  C  C30  1  0.99579100  0.08805100  0.86435500  1
  C  C31  1  0.50000000  0.50000000  0.00000000  1
  C  C32  1  0.99579100  0.91194900  0.63564500  1
  C  C33  1  0.50000000  0.50000000  0.50000000  1
  C  C34  1  0.50299200  0.13403900  0.00112900  1
  C  C35  1  0.50000000  0.00000000  0.00000000  1
