# generated using pymatgen
data_CuNiC13
_symmetry_space_group_name_H-M   'P 1'
_cell_length_a   7.71581700
_cell_length_b   7.75168268
_cell_length_c   7.85417846
_cell_angle_alpha   89.21541262
_cell_angle_beta   89.79073682
_cell_angle_gamma   79.33374783
_symmetry_Int_Tables_number   1
_chemical_formula_structural   CuNiC13
_chemical_formula_sum   'Cu2 Ni2 C26'
_cell_volume   461.60270139
_cell_formula_units_Z   2
loop_
 _symmetry_equiv_pos_site_id
 _symmetry_equiv_pos_as_xyz
  1  'x, y, z'
loop_
 _atom_site_type_symbol
 _atom_site_label
 _atom_site_symmetry_multiplicity
 _atom_site_fract_x
 _atom_site_fract_y
 _atom_site_fract_z
 _atom_site_occupancy
  C  C0  1  0.09874000  0.78864500  0.18258900  1
  C  C1  1  0.38280900  0.72164400  0.68951100  1
  C  C2  1  0.61719100  0.27835600  0.31048900  1
  C  C3  1  0.90126000  0.21135500  0.81741100  1
  Ni  Ni4  1  0.09462600  0.25561100  0.30596700  1
  Ni  Ni5  1  0.90537400  0.74438900  0.69403300  1
  C  C6  1  0.00000000  0.50000000  0.50000000  1
  C  C7  1  0.25676200  0.11796900  0.51730400  1
  C  C8  1  0.22173100  0.37960700  0.09197500  1
  C  C9  1  0.50000000  0.00000000  0.00000000  1
  C  C10  1  0.77826900  0.62039300  0.90802500  1
  C  C11  1  0.74323800  0.88203100  0.48269600  1
  Cu  Cu12  1  0.39673100  0.25098600  0.80504500  1
  Cu  Cu13  1  0.60326900  0.74901400  0.19495500  1
  C  C14  1  0.01208600  0.64466200  0.54689900  1
  C  C15  1  0.00956200  0.82520300  0.82111900  1
  C  C16  1  0.23836800  0.10339100  0.39075200  1
  C  C17  1  0.20675500  0.38816100  0.22080000  1
  C  C18  1  0.28731300  0.10640600  0.71959500  1
  C  C19  1  0.25302800  0.41215700  0.89581400  1
  C  C20  1  0.53019200  0.14481700  0.96399500  1
  C  C21  1  0.52518700  0.33223300  0.66806200  1
  C  C22  1  0.47481300  0.66776700  0.33193800  1
  C  C23  1  0.46980800  0.85518300  0.03600500  1
  C  C24  1  0.74697200  0.58784300  0.10418600  1
  C  C25  1  0.71268700  0.89359400  0.28040500  1
  C  C26  1  0.79324500  0.61183900  0.77920000  1
  C  C27  1  0.76163200  0.89660900  0.60924800  1
  C  C28  1  0.99043800  0.17479700  0.17888100  1
  C  C29  1  0.98791400  0.35533800  0.45310100  1
