# generated using pymatgen
data_Cu7(NiC)2
_symmetry_space_group_name_H-M   'P 1'
_cell_length_a   12.76249000
_cell_length_b   9.14203400
_cell_length_c   10.28160400
_cell_angle_alpha   88.74458214
_cell_angle_beta   90.00000000
_cell_angle_gamma   90.00000000
_symmetry_Int_Tables_number   1
_chemical_formula_structural   Cu7(NiC)2
_chemical_formula_sum   'Cu28 Ni8 C8'
_cell_volume   1199.31940065
_cell_formula_units_Z   4
loop_
 _symmetry_equiv_pos_site_id
 _symmetry_equiv_pos_as_xyz
  1  'x, y, z'
loop_
 _atom_site_type_symbol
 _atom_site_label
 _atom_site_symmetry_multiplicity
 _atom_site_fract_x
 _atom_site_fract_y
 _atom_site_fract_z
 _atom_site_occupancy
  C  C0  1  0.30247000  0.13399600  0.89816800  1
  C  C1  1  0.80247000  0.36600400  0.10183200  1
  C  C2  1  0.19753000  0.63399600  0.89816800  1
  C  C3  1  0.69753000  0.86600400  0.10183200  1
  C  C4  1  0.85902100  0.60566000  0.63478600  1
  C  C5  1  0.35902100  0.89434000  0.36521400  1
  C  C6  1  0.14097900  0.39434000  0.36521400  1
  C  C7  1  0.64097900  0.10566000  0.63478600  1
  Ni  Ni8  1  0.39399800  0.52440100  0.23982000  1
  Ni  Ni9  1  0.46674400  0.80035000  0.67648600  1
  Ni  Ni10  1  0.53325600  0.19965000  0.32351400  1
  Ni  Ni11  1  0.89399800  0.97559900  0.76018000  1
  Ni  Ni12  1  0.03325600  0.30035000  0.67648600  1
  Ni  Ni13  1  0.10600200  0.02440100  0.23982000  1
  Ni  Ni14  1  0.60600200  0.47559900  0.76018000  1
  Ni  Ni15  1  0.96674400  0.69965000  0.32351400  1
  Cu  Cu16  1  0.17175900  0.07741000  0.41498200  1
  Cu  Cu17  1  0.94314300  0.32480200  0.51377600  1
  Cu  Cu18  1  0.05685700  0.67519800  0.48622400  1
  Cu  Cu19  1  0.68619500  0.14758000  0.35999500  1
  Cu  Cu20  1  0.04701500  0.07451200  0.73632200  1
  Cu  Cu21  1  0.93679500  0.78616600  0.85220100  1
  Cu  Cu22  1  0.81380500  0.64758000  0.35999500  1
  Cu  Cu23  1  0.18619500  0.35242000  0.64000500  1
  Cu  Cu24  1  0.54701500  0.42548800  0.26367800  1
  Cu  Cu25  1  0.44314300  0.17519800  0.48622400  1
  Cu  Cu26  1  0.70903900  0.61135200  0.84529800  1
  Cu  Cu27  1  0.45298500  0.57451200  0.73632200  1
  Cu  Cu28  1  0.43679500  0.71383400  0.14779900  1
  Cu  Cu29  1  0.29096100  0.38864800  0.15470200  1
  Cu  Cu30  1  0.31380500  0.85242000  0.64000500  1
  Cu  Cu31  1  0.97070200  0.42577200  0.81804400  1
  Cu  Cu32  1  0.02929800  0.57422800  0.18195600  1
  Cu  Cu33  1  0.79096100  0.11135200  0.84529800  1
  Cu  Cu34  1  0.55685700  0.82480200  0.51377600  1
  Cu  Cu35  1  0.56320500  0.28616600  0.85220100  1
  Cu  Cu36  1  0.47070200  0.07422800  0.18195600  1
  Cu  Cu37  1  0.32824100  0.57741000  0.41498200  1
  Cu  Cu38  1  0.95298500  0.92548800  0.26367800  1
  Cu  Cu39  1  0.06320500  0.21383400  0.14779900  1
  Cu  Cu40  1  0.52929800  0.92577200  0.81804400  1
  Cu  Cu41  1  0.82824100  0.92259000  0.58501800  1
  Cu  Cu42  1  0.67175900  0.42259000  0.58501800  1
  Cu  Cu43  1  0.20903900  0.88864800  0.15470200  1
