# generated using pymatgen
data_CuNiC2
_symmetry_space_group_name_H-M   'P 1'
_cell_length_a   7.13219094
_cell_length_b   7.13219094
_cell_length_c   34.84837779
_cell_angle_alpha   89.73580214
_cell_angle_beta   89.73580214
_cell_angle_gamma   59.96218520
_symmetry_Int_Tables_number   1
_chemical_formula_structural   CuNiC2
_chemical_formula_sum   'Cu24 Ni24 C48'
_cell_volume   1534.57229770
_cell_formula_units_Z   24
loop_
 _symmetry_equiv_pos_site_id
 _symmetry_equiv_pos_as_xyz
  1  'x, y, z'
loop_
 _atom_site_type_symbol
 _atom_site_label
 _atom_site_symmetry_multiplicity
 _atom_site_fract_x
 _atom_site_fract_y
 _atom_site_fract_z
 _atom_site_occupancy
  C  C0  1  0.34423600  0.34423600  0.95780800  1
  C  C1  1  0.49544200  0.49544200  0.87769000  1
  C  C2  1  0.34989700  0.79210900  0.95431500  1
  C  C3  1  0.79210900  0.34989700  0.95431500  1
  C  C4  1  0.53064100  0.98261900  0.87376500  1
  C  C5  1  0.68123400  0.68123400  0.78846000  1
  C  C6  1  0.83363800  0.83363800  0.71306300  1
  C  C7  1  0.68128300  0.13916700  0.78820300  1
  C  C8  1  0.98261900  0.53064100  0.87376500  1
  C  C9  1  0.82317600  0.82317600  0.95107700  1
  C  C10  1  0.98083400  0.98083400  0.87521600  1
  C  C11  1  0.13916700  0.68128300  0.78820300  1
  C  C12  1  0.86349900  0.31899200  0.70979100  1
  C  C13  1  0.01499700  0.01499700  0.62355700  1
  C  C14  1  0.16700800  0.16700800  0.54770600  1
  C  C15  1  0.01459100  0.47030800  0.62337200  1
  C  C16  1  0.31899200  0.86349900  0.70979100  1
  C  C17  1  0.16606100  0.16606100  0.78580900  1
  C  C18  1  0.31834600  0.31834600  0.70980700  1
  C  C19  1  0.47030800  0.01459100  0.62337200  1
  C  C20  1  0.19649300  0.65221400  0.54404800  1
  C  C21  1  0.34843100  0.34843100  0.45707500  1
  C  C22  1  0.50035600  0.50035600  0.38097300  1
  C  C23  1  0.34797100  0.80319800  0.45691800  1
  C  C24  1  0.65221400  0.19649300  0.54404800  1
  C  C25  1  0.49961500  0.49961500  0.61973900  1
  C  C26  1  0.65170700  0.65170700  0.54387800  1
  C  C27  1  0.80319800  0.34797100  0.45691800  1
  C  C28  1  0.52978700  0.98543700  0.37739600  1
  C  C29  1  0.68174300  0.68174300  0.29032800  1
  C  C30  1  0.83402300  0.83402300  0.21443100  1
  C  C31  1  0.68112300  0.13659400  0.29028800  1
  C  C32  1  0.83301500  0.83301500  0.45315600  1
  C  C33  1  0.98543700  0.52978700  0.37739600  1
  C  C34  1  0.98508800  0.98508800  0.37720800  1
  C  C35  1  0.13659400  0.68112300  0.29028800  1
  C  C36  1  0.86273300  0.31777500  0.21085000  1
  C  C37  1  0.01501600  0.01501600  0.12320800  1
  C  C38  1  0.17312300  0.17312300  0.04750100  1
  C  C39  1  0.01361600  0.47096400  0.12429400  1
  C  C40  1  0.31777500  0.86273300  0.21085000  1
  C  C41  1  0.16647100  0.16647100  0.28642300  1
  C  C42  1  0.31829700  0.31829700  0.21047800  1
  C  C43  1  0.47096400  0.01361600  0.12429400  1
  C  C44  1  0.20022600  0.64525400  0.04622300  1
  C  C45  1  0.64525400  0.20022600  0.04622300  1
  C  C46  1  0.50303700  0.50303700  0.12075100  1
  C  C47  1  0.65413100  0.65413100  0.04268700  1
  Ni  Ni48  1  0.16334800  0.66144900  0.91658200  1
  Ni  Ni49  1  0.66144900  0.16334800  0.91658200  1
  Ni  Ni50  1  0.66304500  0.66304500  0.91505600  1
  Ni  Ni51  1  0.49851400  0.00099200  0.74924900  1
  Ni  Ni52  1  0.00099200  0.49851400  0.74924900  1
  Ni  Ni53  1  0.83413100  0.83413100  0.83149400  1
  Ni  Ni54  1  0.00084200  0.00084200  0.74898500  1
  Ni  Ni55  1  0.83267200  0.33365800  0.58335400  1
  Ni  Ni56  1  0.33365800  0.83267200  0.58335400  1
  Ni  Ni57  1  0.16679600  0.16679600  0.66591400  1
  Ni  Ni58  1  0.16648700  0.66676800  0.41668000  1
  Ni  Ni59  1  0.33365500  0.33365500  0.58333300  1
  Ni  Ni60  1  0.66676800  0.16648700  0.41668000  1
  Ni  Ni61  1  0.49995100  0.49995100  0.49994900  1
  Ni  Ni62  1  0.50029500  0.99963200  0.24992600  1
  Ni  Ni63  1  0.66670800  0.66670800  0.41670600  1
  Ni  Ni64  1  0.99963200  0.50029500  0.24992600  1
  Ni  Ni65  1  0.83324700  0.83324700  0.33327700  1
  Ni  Ni66  1  0.83731300  0.33254600  0.08289100  1
  Ni  Ni67  1  0.99980300  0.99980300  0.25015900  1
  Ni  Ni68  1  0.33254600  0.83731300  0.08289100  1
  Ni  Ni69  1  0.16583800  0.16583800  0.16699800  1
  Ni  Ni70  1  0.33534100  0.33534100  0.08487500  1
  Ni  Ni71  1  0.49864200  0.49864200  0.00024200  1
  Cu  Cu72  1  0.14608800  0.14608800  0.97728100  1
  Cu  Cu73  1  0.98061600  0.57273100  0.00578600  1
  Cu  Cu74  1  0.49997600  0.49997600  0.74290300  1
  Cu  Cu75  1  0.35049400  0.80007100  0.82866800  1
  Cu  Cu76  1  0.57273100  0.98061600  0.00578600  1
  Cu  Cu77  1  0.80007100  0.35049400  0.82866800  1
  Cu  Cu78  1  0.83339200  0.83339200  0.58158600  1
  Cu  Cu79  1  0.66928200  0.16132000  0.66559400  1
  Cu  Cu80  1  0.16132000  0.66928200  0.66559400  1
  Cu  Cu81  1  0.34791500  0.34791500  0.82896900  1
  Cu  Cu82  1  0.00073600  0.49823800  0.49918900  1
  Cu  Cu83  1  0.16675800  0.16675800  0.41505400  1
  Cu  Cu84  1  0.16420500  0.16420500  0.88377000  1
  Cu  Cu85  1  0.49823800  0.00073600  0.49918900  1
  Cu  Cu86  1  0.66955600  0.66955600  0.66559900  1
  Cu  Cu87  1  0.49999000  0.49999000  0.24863800  1
  Cu  Cu88  1  0.33394100  0.83236200  0.33248300  1
  Cu  Cu89  1  0.00071200  0.00071200  0.49919600  1
  Cu  Cu90  1  0.83236200  0.33394100  0.33248300  1
  Cu  Cu91  1  0.83623800  0.83623800  0.08888300  1
  Cu  Cu92  1  0.17135100  0.66411800  0.16623100  1
  Cu  Cu93  1  0.33423700  0.33423700  0.33241800  1
  Cu  Cu94  1  0.66515400  0.66515400  0.16516300  1
  Cu  Cu95  1  0.66411800  0.17135100  0.16623100  1
