# generated using pymatgen
data_Cu2Ni7C12
_symmetry_space_group_name_H-M   'P 1'
_cell_length_a   6.17622560
_cell_length_b   6.17622560
_cell_length_c   13.67970790
_cell_angle_alpha   78.04667658
_cell_angle_beta   78.04667658
_cell_angle_gamma   89.99590674
_symmetry_Int_Tables_number   1
_chemical_formula_structural   Cu2Ni7C12
_chemical_formula_sum   'Cu4 Ni14 C24'
_cell_volume   498.93829646
_cell_formula_units_Z   2
loop_
 _symmetry_equiv_pos_site_id
 _symmetry_equiv_pos_as_xyz
  1  'x, y, z'
loop_
 _atom_site_type_symbol
 _atom_site_label
 _atom_site_symmetry_multiplicity
 _atom_site_fract_x
 _atom_site_fract_y
 _atom_site_fract_z
 _atom_site_occupancy
  Ni  Ni0  1  0.69870800  0.98652400  0.57604000  1
  Ni  Ni1  1  0.01347600  0.30129200  0.92396000  1
  Ni  Ni2  1  0.33352600  0.81771000  0.84025000  1
  Ni  Ni3  1  0.98652400  0.69870800  0.07604000  1
  Ni  Ni4  1  0.36008100  0.63991900  0.25000000  1
  Ni  Ni5  1  0.81771000  0.33352600  0.34025000  1
  Ni  Ni6  1  0.66647400  0.18229000  0.15975000  1
  Ni  Ni7  1  0.30129200  0.01347600  0.42396000  1
  Ni  Ni8  1  0.18229000  0.66647400  0.65975000  1
  Ni  Ni9  1  0.50000000  0.50000000  0.50000000  1
  Ni  Ni10  1  0.00000000  0.50000000  0.50000000  1
  Ni  Ni11  1  0.63991900  0.36008100  0.75000000  1
  Ni  Ni12  1  0.50000000  0.00000000  0.00000000  1
  Ni  Ni13  1  0.50000000  0.50000000  0.00000000  1
  Cu  Cu14  1  0.82468900  0.83040100  0.33526900  1
  Cu  Cu15  1  0.17531100  0.16959900  0.66473100  1
  Cu  Cu16  1  0.83040100  0.82468900  0.83526900  1
  Cu  Cu17  1  0.16959900  0.17531100  0.16473100  1
  C  C18  1  0.28640400  0.74907400  0.99437000  1
  C  C19  1  0.92550600  0.39105900  0.17315600  1
  C  C20  1  0.23958000  0.24270400  0.01221800  1
  C  C21  1  0.60894100  0.07449400  0.32684400  1
  C  C22  1  0.92505500  0.92890200  0.17609700  1
  C  C23  1  0.75729600  0.76042000  0.48778200  1
  C  C24  1  0.25092600  0.71359600  0.50563000  1
  C  C25  1  0.39679200  0.39732100  0.67074800  1
  C  C26  1  0.60320800  0.60267900  0.32925200  1
  C  C27  1  0.94876100  0.40018800  0.66431400  1
  C  C28  1  0.24270400  0.23958000  0.51221800  1
  C  C29  1  0.74907400  0.28640400  0.49437000  1
  C  C30  1  0.07494500  0.07109800  0.82390300  1
  C  C31  1  0.59981200  0.05123900  0.83568600  1
  C  C32  1  0.76042000  0.75729600  0.98778200  1
  C  C33  1  0.39105900  0.92550600  0.67315600  1
  C  C34  1  0.92890200  0.92505500  0.67609700  1
  C  C35  1  0.07449400  0.60894100  0.82684400  1
  C  C36  1  0.60267900  0.60320800  0.82925200  1
  C  C37  1  0.39732100  0.39679200  0.17074800  1
  C  C38  1  0.07109800  0.07494500  0.32390300  1
  C  C39  1  0.71359600  0.25092600  0.00563000  1
  C  C40  1  0.40018800  0.94876100  0.16431400  1
  C  C41  1  0.05123900  0.59981200  0.33568600  1
