# generated using pymatgen
data_Cu2NiC5
_symmetry_space_group_name_H-M   'P 1'
_cell_length_a   11.44441900
_cell_length_b   11.44441900
_cell_length_c   6.11573100
_cell_angle_alpha   90.00000000
_cell_angle_beta   90.00000000
_cell_angle_gamma   90.00000000
_symmetry_Int_Tables_number   1
_chemical_formula_structural   Cu2NiC5
_chemical_formula_sum   'Cu8 Ni4 C20'
_cell_volume   801.00619353
_cell_formula_units_Z   4
loop_
 _symmetry_equiv_pos_site_id
 _symmetry_equiv_pos_as_xyz
  1  'x, y, z'
loop_
 _atom_site_type_symbol
 _atom_site_label
 _atom_site_symmetry_multiplicity
 _atom_site_fract_x
 _atom_site_fract_y
 _atom_site_fract_z
 _atom_site_occupancy
  C  C0  1  0.57956800  0.21164400  0.17035800  1
  C  C1  1  0.28835600  0.07956800  0.17035800  1
  C  C2  1  0.57956800  0.78835600  0.67035800  1
  C  C3  1  0.42043200  0.78835600  0.17035800  1
  C  C4  1  0.92043200  0.28835600  0.82964200  1
  C  C5  1  0.21164400  0.42043200  0.82964200  1
  C  C6  1  0.07956800  0.71164400  0.82964200  1
  C  C7  1  0.21164400  0.57956800  0.32964200  1
  C  C8  1  0.00000000  0.00000000  0.50000000  1
  C  C9  1  0.71164400  0.07956800  0.67035800  1
  C  C10  1  0.50000000  0.50000000  0.50000000  1
  C  C11  1  0.71164400  0.92043200  0.17035800  1
  C  C12  1  0.28835600  0.92043200  0.67035800  1
  C  C13  1  0.07956800  0.28835600  0.32964200  1
  C  C14  1  0.78835600  0.42043200  0.32964200  1
  C  C15  1  0.78835600  0.57956800  0.82964200  1
  C  C16  1  0.42043200  0.21164400  0.67035800  1
  C  C17  1  0.50000000  0.50000000  0.00000000  1
  C  C18  1  0.92043200  0.71164400  0.32964200  1
  C  C19  1  0.00000000  0.00000000  0.00000000  1
  Ni  Ni20  1  0.50000000  0.00000000  0.92954700  1
  Ni  Ni21  1  0.00000000  0.50000000  0.57045300  1
  Ni  Ni22  1  0.50000000  0.00000000  0.42954700  1
  Ni  Ni23  1  0.00000000  0.50000000  0.07045300  1
  Cu  Cu24  1  0.16311200  0.83688800  0.25000000  1
  Cu  Cu25  1  0.16311200  0.16311200  0.75000000  1
  Cu  Cu26  1  0.33688800  0.66311200  0.75000000  1
  Cu  Cu27  1  0.33688800  0.33688800  0.25000000  1
  Cu  Cu28  1  0.66311200  0.33688800  0.75000000  1
  Cu  Cu29  1  0.83688800  0.83688800  0.75000000  1
  Cu  Cu30  1  0.83688800  0.16311200  0.25000000  1
  Cu  Cu31  1  0.66311200  0.66311200  0.25000000  1
