# generated using pymatgen
data_Cu3Ni11C12
_symmetry_space_group_name_H-M   'P 1'
_cell_length_a   6.73105644
_cell_length_b   6.73105644
_cell_length_c   10.24425800
_cell_angle_alpha   90.00000000
_cell_angle_beta   90.00000000
_cell_angle_gamma   120.00000434
_symmetry_Int_Tables_number   1
_chemical_formula_structural   Cu3Ni11C12
_chemical_formula_sum   'Cu3 Ni11 C12'
_cell_volume   401.95513830
_cell_formula_units_Z   1
loop_
 _symmetry_equiv_pos_site_id
 _symmetry_equiv_pos_as_xyz
  1  'x, y, z'
loop_
 _atom_site_type_symbol
 _atom_site_label
 _atom_site_symmetry_multiplicity
 _atom_site_fract_x
 _atom_site_fract_y
 _atom_site_fract_z
 _atom_site_occupancy
  C  C0  1  0.33333300  0.66666700  0.22393000  1
  C  C1  1  0.66666700  0.33333300  0.60950300  1
  C  C2  1  0.33333300  0.66666700  0.63271500  1
  C  C3  1  0.66666700  0.33333300  0.04027900  1
  C  C4  1  0.17513800  0.82486200  0.95775400  1
  C  C5  1  0.17513800  0.35027500  0.95775400  1
  C  C6  1  0.64972500  0.82486200  0.95775400  1
  C  C7  1  0.00000000  0.00000000  0.21083200  1
  C  C8  1  0.00000000  0.00000000  0.56760900  1
  C  C9  1  0.32453200  0.16226600  0.37502300  1
  C  C10  1  0.83773400  0.67546800  0.37502300  1
  C  C11  1  0.83773400  0.16226600  0.37502300  1
  Ni  Ni12  1  0.52492000  0.47508000  0.38390300  1
  Ni  Ni13  1  0.52492000  0.04983900  0.38390300  1
  Ni  Ni14  1  0.52242200  0.26121100  0.83915500  1
  Ni  Ni15  1  0.47607700  0.52392300  0.01826300  1
  Ni  Ni16  1  0.95016100  0.47508000  0.38390300  1
  Ni  Ni17  1  0.73878900  0.47757800  0.83915500  1
  Ni  Ni18  1  0.00000000  0.00000000  0.87289200  1
  Ni  Ni19  1  0.47607700  0.95215500  0.01826300  1
  Ni  Ni20  1  0.04784500  0.52392300  0.01826300  1
  Ni  Ni21  1  0.73878900  0.26121100  0.83915500  1
  Ni  Ni22  1  0.00000000  0.00000000  0.73012000  1
  Cu  Cu23  1  0.06533900  0.53267000  0.51054300  1
  Cu  Cu24  1  0.46733000  0.93466100  0.51054300  1
  Cu  Cu25  1  0.46733000  0.53267000  0.51054300  1
