# generated using pymatgen
data_Cu4Ni4C9
_symmetry_space_group_name_H-M   'P 1'
_cell_length_a   9.68271900
_cell_length_b   9.68271900
_cell_length_c   7.63899800
_cell_angle_alpha   90.00000000
_cell_angle_beta   90.00000000
_cell_angle_gamma   90.00000000
_symmetry_Int_Tables_number   1
_chemical_formula_structural   Cu4Ni4C9
_chemical_formula_sum   'Cu8 Ni8 C18'
_cell_volume   716.19461830
_cell_formula_units_Z   2
loop_
 _symmetry_equiv_pos_site_id
 _symmetry_equiv_pos_as_xyz
  1  'x, y, z'
loop_
 _atom_site_type_symbol
 _atom_site_label
 _atom_site_symmetry_multiplicity
 _atom_site_fract_x
 _atom_site_fract_y
 _atom_site_fract_z
 _atom_site_occupancy
  C  C0  1  0.00000000  0.00000000  0.50000000  1
  C  C1  1  0.50000000  0.50000000  0.00000000  1
  C  C2  1  0.76928700  0.15263400  0.41372200  1
  C  C3  1  0.73071300  0.65263400  0.08627800  1
  C  C4  1  0.23071300  0.84736600  0.41372200  1
  C  C5  1  0.26928700  0.34736600  0.08627800  1
  C  C6  1  0.84736600  0.76928700  0.58627800  1
  C  C7  1  0.34736600  0.73071300  0.91372200  1
  C  C8  1  0.15263400  0.23071300  0.58627800  1
  C  C9  1  0.65263400  0.26928700  0.91372200  1
  C  C10  1  0.80874600  0.03517900  0.23706100  1
  C  C11  1  0.69125400  0.53517900  0.26293900  1
  C  C12  1  0.19125400  0.96482100  0.23706100  1
  C  C13  1  0.30874600  0.46482100  0.26293900  1
  C  C14  1  0.96482100  0.80874600  0.76293900  1
  C  C15  1  0.46482100  0.69125400  0.73706100  1
  C  C16  1  0.03517900  0.19125400  0.76293900  1
  C  C17  1  0.53517900  0.30874600  0.73706100  1
  Ni  Ni18  1  0.85139200  0.10627600  0.33484000  1
  Ni  Ni19  1  0.64860800  0.60627600  0.16516000  1
  Ni  Ni20  1  0.14860800  0.89372400  0.33484000  1
  Ni  Ni21  1  0.35139200  0.39372400  0.16516000  1
  Ni  Ni22  1  0.89372400  0.85139200  0.66516000  1
  Ni  Ni23  1  0.39372400  0.64860800  0.83484000  1
  Ni  Ni24  1  0.10627600  0.14860800  0.66516000  1
  Ni  Ni25  1  0.60627600  0.35139200  0.83484000  1
  Cu  Cu26  1  0.94129500  0.27469000  0.18852800  1
  Cu  Cu27  1  0.55870500  0.77469000  0.31147200  1
  Cu  Cu28  1  0.05870500  0.72531000  0.18852800  1
  Cu  Cu29  1  0.44129500  0.22531000  0.31147200  1
  Cu  Cu30  1  0.72531000  0.94129500  0.81147200  1
  Cu  Cu31  1  0.22531000  0.55870500  0.68852800  1
  Cu  Cu32  1  0.27469000  0.05870500  0.81147200  1
  Cu  Cu33  1  0.77469000  0.44129500  0.68852800  1
