# generated using pymatgen
data_Cu(NiC2)5
_symmetry_space_group_name_H-M   'P 1'
_cell_length_a   7.74143030
_cell_length_b   10.62090600
_cell_length_c   10.08079115
_cell_angle_alpha   90.00000000
_cell_angle_beta   103.34910399
_cell_angle_gamma   90.00000000
_symmetry_Int_Tables_number   1
_chemical_formula_structural   Cu(NiC2)5
_chemical_formula_sum   'Cu4 Ni20 C40'
_cell_volume   806.45828794
_cell_formula_units_Z   4
loop_
 _symmetry_equiv_pos_site_id
 _symmetry_equiv_pos_as_xyz
  1  'x, y, z'
loop_
 _atom_site_type_symbol
 _atom_site_label
 _atom_site_symmetry_multiplicity
 _atom_site_fract_x
 _atom_site_fract_y
 _atom_site_fract_z
 _atom_site_occupancy
  C  C0  1  0.38296600  0.87364600  0.12646400  1
  C  C1  1  0.61703400  0.37364600  0.37353600  1
  C  C2  1  0.38296600  0.62635400  0.62646400  1
  C  C3  1  0.61703400  0.12635400  0.87353600  1
  C  C4  1  0.50220000  0.81053500  0.85000900  1
  C  C5  1  0.49780000  0.18946500  0.14999100  1
  C  C6  1  0.50220000  0.68946500  0.35000900  1
  C  C7  1  0.49780000  0.31053500  0.64999100  1
  Ni  Ni8  1  0.95360500  0.31343400  0.34336400  1
  Ni  Ni9  1  0.53699600  0.09080200  0.35622400  1
  Ni  Ni10  1  0.04639500  0.81343400  0.15663600  1
  Ni  Ni11  1  0.32725100  0.11337500  0.63834600  1
  Ni  Ni12  1  0.81417700  0.07037300  0.11967400  1
  Ni  Ni13  1  0.32725100  0.38662500  0.13834600  1
  Ni  Ni14  1  0.16137400  0.48129300  0.90503500  1
  Ni  Ni15  1  0.46300400  0.90919800  0.64377600  1
  Ni  Ni16  1  0.18582300  0.57037300  0.38032600  1
  Ni  Ni17  1  0.16137400  0.01870700  0.40503500  1
  Ni  Ni18  1  0.46300400  0.59080200  0.14377600  1
  Ni  Ni19  1  0.83862600  0.51870700  0.09496500  1
  Ni  Ni20  1  0.18582300  0.92962700  0.88032600  1
  Ni  Ni21  1  0.67274900  0.88662500  0.36165400  1
  Ni  Ni22  1  0.95360500  0.18656600  0.84336400  1
  Ni  Ni23  1  0.53699600  0.40919800  0.85622400  1
  Ni  Ni24  1  0.67274900  0.61337500  0.86165400  1
  Ni  Ni25  1  0.81417700  0.42962700  0.61967400  1
  Ni  Ni26  1  0.04639500  0.68656600  0.65663600  1
  Ni  Ni27  1  0.83862600  0.98129300  0.59496500  1
  Cu  Cu28  1  0.00377500  0.02895600  0.94016800  1
  Cu  Cu29  1  0.99622500  0.97104400  0.05983200  1
  Cu  Cu30  1  0.00377500  0.47104400  0.44016800  1
  Cu  Cu31  1  0.99622500  0.52895600  0.55983200  1
  C  C32  1  0.78773900  0.65472600  0.90848700  1
  C  C33  1  0.90173600  0.13549700  0.90551600  1
  C  C34  1  0.64668400  0.32630100  0.56584800  1
  C  C35  1  0.28470500  0.21903600  0.07302700  1
  C  C36  1  0.43011200  0.04203200  0.12911900  1
  C  C37  1  0.43011200  0.45796800  0.62911900  1
  C  C38  1  0.46108700  0.84128500  0.31599600  1
  C  C39  1  0.71529500  0.71903600  0.42697300  1
  C  C40  1  0.28470500  0.28096400  0.57302700  1
  C  C41  1  0.71529500  0.78096400  0.92697300  1
  C  C42  1  0.53891300  0.34128500  0.18400400  1
  C  C43  1  0.08946300  0.99318000  0.84660200  1
  C  C44  1  0.64668400  0.17369900  0.06584800  1
  C  C45  1  0.57285100  0.16895600  0.31919900  1
  C  C46  1  0.57285100  0.33104400  0.81919900  1
  C  C47  1  0.42714900  0.66895600  0.18080100  1
  C  C48  1  0.42714900  0.83104400  0.68080100  1
  C  C49  1  0.08946300  0.50682000  0.34660200  1
  C  C50  1  0.21226100  0.34527400  0.09151300  1
  C  C51  1  0.09826400  0.86450300  0.09448400  1
  C  C52  1  0.91053700  0.49318000  0.65339800  1
  C  C53  1  0.53891300  0.15871500  0.68400400  1
  C  C54  1  0.35331600  0.67369900  0.43415200  1
  C  C55  1  0.90173600  0.36450300  0.40551600  1
  C  C56  1  0.46108700  0.65871500  0.81599600  1
  C  C57  1  0.09826400  0.63549700  0.59448400  1
  C  C58  1  0.21226100  0.15472600  0.59151300  1
  C  C59  1  0.35331600  0.82630100  0.93415200  1
  C  C60  1  0.56988800  0.54203200  0.37088100  1
  C  C61  1  0.91053700  0.00682000  0.15339800  1
  C  C62  1  0.56988800  0.95796800  0.87088100  1
  C  C63  1  0.78773900  0.84527400  0.40848700  1
