# generated using pymatgen
data_Cu3(NiC)4
_symmetry_space_group_name_H-M   'P 1'
_cell_length_a   6.35240139
_cell_length_b   6.35240139
_cell_length_c   8.97673800
_cell_angle_alpha   90.00000000
_cell_angle_beta   90.00000000
_cell_angle_gamma   97.23223101
_symmetry_Int_Tables_number   1
_chemical_formula_structural   Cu3(NiC)4
_chemical_formula_sum   'Cu6 Ni8 C8'
_cell_volume   359.35638546
_cell_formula_units_Z   2
loop_
 _symmetry_equiv_pos_site_id
 _symmetry_equiv_pos_as_xyz
  1  'x, y, z'
loop_
 _atom_site_type_symbol
 _atom_site_label
 _atom_site_symmetry_multiplicity
 _atom_site_fract_x
 _atom_site_fract_y
 _atom_site_fract_z
 _atom_site_occupancy
  C  C0  1  0.70246900  0.70246900  0.75000000  1
  C  C1  1  0.29753100  0.29753100  0.25000000  1
  C  C2  1  0.20196300  0.79803700  0.50000000  1
  C  C3  1  0.79803700  0.20196300  0.00000000  1
  C  C4  1  0.20196300  0.79803700  0.00000000  1
  C  C5  1  0.79803700  0.20196300  0.50000000  1
  C  C6  1  0.74066100  0.74066100  0.25000000  1
  C  C7  1  0.25933900  0.25933900  0.75000000  1
  Ni  Ni8  1  0.46989900  0.05186700  0.75000000  1
  Ni  Ni9  1  0.53010100  0.94813300  0.25000000  1
  Ni  Ni10  1  0.94813300  0.53010100  0.25000000  1
  Ni  Ni11  1  0.05186700  0.46989900  0.75000000  1
  Ni  Ni12  1  0.56473100  0.27769000  0.75000000  1
  Ni  Ni13  1  0.43526900  0.72231000  0.25000000  1
  Ni  Ni14  1  0.72231000  0.43526900  0.25000000  1
  Ni  Ni15  1  0.27769000  0.56473100  0.75000000  1
  Cu  Cu16  1  0.01973900  0.01973900  0.75000000  1
  Cu  Cu17  1  0.98026100  0.98026100  0.25000000  1
  Cu  Cu18  1  0.23786300  0.23786300  0.53193700  1
  Cu  Cu19  1  0.76213700  0.76213700  0.03193700  1
  Cu  Cu20  1  0.23786300  0.23786300  0.96806300  1
  Cu  Cu21  1  0.76213700  0.76213700  0.46806300  1
