# generated using pymatgen
data_Cu13Ni2C13
_symmetry_space_group_name_H-M   'P 1'
_cell_length_a   7.16639900
_cell_length_b   8.50486943
_cell_length_c   9.70641561
_cell_angle_alpha   107.02988372
_cell_angle_beta   99.04810213
_cell_angle_gamma   102.54666701
_symmetry_Int_Tables_number   1
_chemical_formula_structural   Cu13Ni2C13
_chemical_formula_sum   'Cu26 Ni4 C26'
_cell_volume   536.46441489
_cell_formula_units_Z   2
loop_
 _symmetry_equiv_pos_site_id
 _symmetry_equiv_pos_as_xyz
  1  'x, y, z'
loop_
 _atom_site_type_symbol
 _atom_site_label
 _atom_site_symmetry_multiplicity
 _atom_site_fract_x
 _atom_site_fract_y
 _atom_site_fract_z
 _atom_site_occupancy
  C  C0  1  0.23789600  0.80303000  0.71085200  1
  C  C1  1  0.76210400  0.19697000  0.28914800  1
  Ni  Ni2  1  0.21811400  0.45234500  0.77370700  1
  Ni  Ni3  1  0.78188600  0.54765500  0.22629300  1
  Ni  Ni4  1  0.60568400  0.67381100  0.79771000  1
  Ni  Ni5  1  0.39431600  0.32618900  0.20229000  1
  Cu  Cu6  1  0.22365200  0.41411700  0.99421100  1
  Cu  Cu7  1  0.77634700  0.58588300  0.00578900  1
  Cu  Cu8  1  0.50192500  0.09391800  0.73283700  1
  Cu  Cu9  1  0.49807500  0.90608200  0.26716300  1
  Cu  Cu10  1  0.28087600  0.12568600  0.70338800  1
  Cu  Cu11  1  0.71912400  0.87431400  0.29661200  1
  Cu  Cu12  1  0.95265800  0.79063500  0.49615900  1
  Cu  Cu13  1  0.04734200  0.20936500  0.50384100  1
  Cu  Cu14  1  0.85796600  0.75182500  0.62899500  1
  Cu  Cu15  1  0.14203400  0.24817500  0.37100500  1
  Cu  Cu16  1  0.29654400  0.77416600  0.43871200  1
  Cu  Cu17  1  0.70345600  0.22583400  0.56128800  1
  Cu  Cu18  1  0.44680600  0.69008900  0.52678800  1
  Cu  Cu19  1  0.55319400  0.30991100  0.47321200  1
  Cu  Cu20  1  0.21659000  0.58182100  0.44788500  1
  Cu  Cu21  1  0.78341000  0.41817900  0.55211500  1
  Cu  Cu22  1  0.23925300  0.88209500  0.99612400  1
  Cu  Cu23  1  0.76074700  0.11790500  0.00387600  1
  Cu  Cu24  1  0.01246700  0.83797800  0.90266500  1
  Cu  Cu25  1  0.98753300  0.16202200  0.09733500  1
  Cu  Cu26  1  0.17241000  0.02921200  0.93755100  1
  Cu  Cu27  1  0.82759000  0.97078800  0.06244900  1
  Cu  Cu28  1  0.88802800  0.19633000  0.76546200  1
  Cu  Cu29  1  0.11197200  0.80367000  0.23453800  1
  Cu  Cu30  1  0.77996100  0.29521600  0.87574300  1
  Cu  Cu31  1  0.22003900  0.70478400  0.12425700  1
  C  C32  1  0.30631400  0.70229300  0.50682900  1
  C  C33  1  0.69368600  0.29770700  0.49317100  1
  C  C34  1  0.15550400  0.89972600  0.90910200  1
  C  C35  1  0.84449600  0.10027400  0.09089800  1
  C  C36  1  0.12515100  0.56263400  0.70057500  1
  C  C37  1  0.87484900  0.43736600  0.29942500  1
  C  C38  1  0.12603500  0.26105000  0.69397300  1
  C  C39  1  0.87396500  0.73895000  0.30602700  1
  C  C40  1  0.20813500  0.50671200  0.94089100  1
  C  C41  1  0.79186500  0.49328800  0.05910900  1
  C  C42  1  0.44787300  0.48730900  0.77014500  1
  C  C43  1  0.55212700  0.51269100  0.22985500  1
  C  C44  1  0.48959900  0.80772000  0.83016200  1
  C  C45  1  0.51040100  0.19228000  0.16983800  1
  C  C46  1  0.67419700  0.65323300  0.65508000  1
  C  C47  1  0.32580300  0.34676700  0.34492000  1
  C  C48  1  0.76663800  0.70626800  0.93454200  1
  C  C49  1  0.23336200  0.29373200  0.06545800  1
  C  C50  1  0.35784300  0.04189000  0.70779100  1
  C  C51  1  0.64215700  0.95811000  0.29220900  1
  C  C52  1  0.98069700  0.81793900  0.60581500  1
  C  C53  1  0.01930300  0.18206100  0.39418500  1
  C  C54  1  0.76035500  0.18887000  0.79371300  1
  C  C55  1  0.23964500  0.81113000  0.20628700  1
