# generated using pymatgen
data_Cu3(Ni5C)2
_symmetry_space_group_name_H-M   'P 1'
_cell_length_a   8.91000500
_cell_length_b   8.91000500
_cell_length_c   6.38537100
_cell_angle_alpha   90.00000000
_cell_angle_beta   90.00000000
_cell_angle_gamma   90.00000000
_symmetry_Int_Tables_number   1
_chemical_formula_structural   Cu3(Ni5C)2
_chemical_formula_sum   'Cu6 Ni20 C4'
_cell_volume   506.92304042
_cell_formula_units_Z   2
loop_
 _symmetry_equiv_pos_site_id
 _symmetry_equiv_pos_as_xyz
  1  'x, y, z'
loop_
 _atom_site_type_symbol
 _atom_site_label
 _atom_site_symmetry_multiplicity
 _atom_site_fract_x
 _atom_site_fract_y
 _atom_site_fract_z
 _atom_site_occupancy
  C  C0  1  0.18314100  0.31685900  0.00000000  1
  C  C1  1  0.68314100  0.18314100  0.00000000  1
  C  C2  1  0.81685900  0.68314100  0.00000000  1
  C  C3  1  0.31685900  0.81685900  0.00000000  1
  Ni  Ni4  1  0.50000000  0.00000000  0.28220300  1
  Ni  Ni5  1  0.50000000  0.00000000  0.71779700  1
  Ni  Ni6  1  0.29309600  0.56125700  0.70767900  1
  Ni  Ni7  1  0.00000000  0.50000000  0.28220300  1
  Ni  Ni8  1  0.00000000  0.50000000  0.71779700  1
  Ni  Ni9  1  0.06125700  0.79309600  0.70767900  1
  Ni  Ni10  1  0.20690400  0.06125700  0.29232100  1
  Ni  Ni11  1  0.06125700  0.79309600  0.29232100  1
  Ni  Ni12  1  0.70690400  0.43874300  0.70767900  1
  Ni  Ni13  1  0.20690400  0.06125700  0.70767900  1
  Ni  Ni14  1  0.93874300  0.20690400  0.70767900  1
  Ni  Ni15  1  0.70690400  0.43874300  0.29232100  1
  Ni  Ni16  1  0.56125700  0.70690400  0.29232100  1
  Ni  Ni17  1  0.93874300  0.20690400  0.29232100  1
  Ni  Ni18  1  0.56125700  0.70690400  0.70767900  1
  Ni  Ni19  1  0.79309600  0.93874300  0.29232100  1
  Ni  Ni20  1  0.43874300  0.29309600  0.70767900  1
  Ni  Ni21  1  0.79309600  0.93874300  0.70767900  1
  Ni  Ni22  1  0.43874300  0.29309600  0.29232100  1
  Ni  Ni23  1  0.29309600  0.56125700  0.29232100  1
  Cu  Cu24  1  0.17851100  0.32148900  0.50000000  1
  Cu  Cu25  1  0.32148900  0.82148900  0.50000000  1
  Cu  Cu26  1  0.82148900  0.67851100  0.50000000  1
  Cu  Cu27  1  0.00000000  0.00000000  0.00000000  1
  Cu  Cu28  1  0.67851100  0.17851100  0.50000000  1
  Cu  Cu29  1  0.50000000  0.50000000  0.00000000  1
