# generated using pymatgen
data_Cu4Ni4C63
_symmetry_space_group_name_H-M   'P 1'
_cell_length_a   9.06052100
_cell_length_b   10.39570626
_cell_length_c   12.15110906
_cell_angle_alpha   90.32780226
_cell_angle_beta   90.34375008
_cell_angle_gamma   90.87933133
_symmetry_Int_Tables_number   1
_chemical_formula_structural   Cu4Ni4C63
_chemical_formula_sum   'Cu4 Ni4 C63'
_cell_volume   1144.34449561
_cell_formula_units_Z   1
loop_
 _symmetry_equiv_pos_site_id
 _symmetry_equiv_pos_as_xyz
  1  'x, y, z'
loop_
 _atom_site_type_symbol
 _atom_site_label
 _atom_site_symmetry_multiplicity
 _atom_site_fract_x
 _atom_site_fract_y
 _atom_site_fract_z
 _atom_site_occupancy
  C  C0  1  0.13397300  0.16153700  0.24666400  1
  C  C1  1  0.82919600  0.83855300  0.74519400  1
  C  C2  1  0.80486900  0.66637600  0.24734200  1
  Ni  Ni3  1  0.21537100  0.01009200  0.90233500  1
  Ni  Ni4  1  0.22449800  0.99105100  0.55597800  1
  Ni  Ni5  1  0.21985100  0.51683300  0.43848000  1
  Ni  Ni6  1  0.76986200  0.50222600  0.90368600  1
  Cu  Cu7  1  0.24411000  0.50478000  0.10433900  1
  Cu  Cu8  1  0.77406000  0.47900600  0.58286300  1
  Cu  Cu9  1  0.77310700  0.01573800  0.40103000  1
  Cu  Cu10  1  0.75798400  0.99694400  0.08966100  1
  C  C11  1  0.00231900  0.26087500  0.00965500  1
  C  C12  1  0.02282800  0.24662000  0.50269700  1
  C  C13  1  0.54508000  0.65309100  0.99052300  1
  C  C14  1  0.53748500  0.85630200  0.98563800  1
  C  C15  1  0.55522500  0.66496600  0.45606900  1
  C  C16  1  0.54625500  0.86995400  0.51208600  1
  C  C17  1  0.44012200  0.35646400  0.59091400  1
  C  C18  1  0.47266000  0.12705500  0.40711800  1
  C  C19  1  0.45036800  0.35409100  0.00368100  1
  C  C20  1  0.43913400  0.15039200  0.00173000  1
  C  C21  1  0.99675400  0.74628200  0.00787300  1
  C  C22  1  0.97731100  0.74980300  0.49344000  1
  C  C23  1  0.09257800  0.85463000  0.95072200  1
  C  C24  1  0.07216500  0.84375800  0.56845700  1
  C  C25  1  0.08998000  0.64393500  0.06745500  1
  C  C26  1  0.06986200  0.66279500  0.41381800  1
  C  C27  1  0.09156400  0.17756700  0.92671300  1
  C  C28  1  0.12585100  0.16184300  0.57717200  1
  C  C29  1  0.11523300  0.33908300  0.42538500  1
  C  C30  1  0.10226000  0.34446600  0.08869900  1
  C  C31  1  0.22900700  0.96851800  0.73706000  1
  C  C32  1  0.22972300  0.51403600  0.24959200  1
  C  C33  1  0.30138700  0.08544000  0.05697200  1
  C  C34  1  0.21044600  0.96756400  0.40682600  1
  C  C35  1  0.19223800  0.53093300  0.58665400  1
  C  C36  1  0.31768300  0.42204300  0.94971100  1
  C  C37  1  0.19209400  0.92525700  0.30517700  1
  C  C38  1  0.16797000  0.54396000  0.69112500  1
  C  C39  1  0.38449800  0.87737500  0.93345500  1
  C  C40  1  0.40301300  0.87277000  0.58017900  1
  C  C41  1  0.39506100  0.63421700  0.05019300  1
  C  C42  1  0.38660000  0.64835700  0.42609500  1
  C  C43  1  0.40699200  0.11634800  0.87673000  1
  C  C44  1  0.41132500  0.11613400  0.52843400  1
  C  C45  1  0.40735400  0.39734400  0.46879500  1
  C  C46  1  0.43377100  0.39101700  0.12781400  1
  C  C47  1  0.53587100  0.94171200  0.39521200  1
  C  C48  1  0.57230300  0.60472800  0.87044500  1
  C  C49  1  0.59166400  0.59948100  0.56862800  1
  C  C50  1  0.56155400  0.88232500  0.11043300  1
  C  C51  1  0.60641200  0.34079200  0.60840400  1
  C  C52  1  0.64026700  0.16814200  0.42066100  1
  C  C53  1  0.60289000  0.37271800  0.94952800  1
  C  C54  1  0.58691400  0.12984100  0.05584800  1
  C  C55  1  0.81986000  0.41930700  0.33177400  1
  C  C56  1  0.08161100  0.01373600  0.77280200  1
  C  C57  1  0.67815800  0.59747000  0.05427700  1
  C  C58  1  0.76024800  0.47993300  0.41418400  1
  C  C59  1  0.68421100  0.92985600  0.56691500  1
  C  C60  1  0.66965500  0.91994200  0.92564600  1
  C  C61  1  0.78970700  0.48798700  0.75748400  1
  C  C62  1  0.81992800  0.02373700  0.25200200  1
  C  C63  1  0.90841200  0.66590500  0.91700500  1
  C  C64  1  0.87742700  0.83191800  0.41860100  1
  C  C65  1  0.89279600  0.66211100  0.57365300  1
  C  C66  1  0.89725500  0.81891400  0.08746300  1
  C  C67  1  0.92788600  0.32765900  0.57846700  1
  C  C68  1  0.94681100  0.14914200  0.42507800  1
  C  C69  1  0.90913300  0.36533800  0.94722000  1
  C  C70  1  0.90752900  0.16805700  0.07604200  1
