# generated using pymatgen
data_Cu6Ni44C31
_symmetry_space_group_name_H-M   'P 1'
_cell_length_a   10.49028476
_cell_length_b   14.42127496
_cell_length_c   22.81370047
_cell_angle_alpha   90.00000000
_cell_angle_beta   90.00000000
_cell_angle_gamma   90.00000000
_symmetry_Int_Tables_number   1
_chemical_formula_structural   Cu6Ni44C31
_chemical_formula_sum   'Cu12 Ni88 C62'
_cell_volume   3451.33145732
_cell_formula_units_Z   2
loop_
 _symmetry_equiv_pos_site_id
 _symmetry_equiv_pos_as_xyz
  1  'x, y, z'
loop_
 _atom_site_type_symbol
 _atom_site_label
 _atom_site_symmetry_multiplicity
 _atom_site_fract_x
 _atom_site_fract_y
 _atom_site_fract_z
 _atom_site_occupancy
  C  C0  1  0.04926030  0.95931150  0.83950472  1
  C  C1  1  0.04926030  0.54068850  0.83950472  1
  C  C2  1  0.36377720  0.46231425  0.33586884  1
  C  C3  1  0.36437812  0.75000000  0.33959106  1
  C  C4  1  0.61274599  0.25000000  0.03415339  1
  C  C5  1  0.36377720  0.46231425  0.16413116  1
  C  C6  1  0.95268393  0.75000000  0.15884523  1
  C  C7  1  0.95073970  0.45931150  0.16049528  1
  C  C8  1  0.33291004  0.05520247  0.53091235  1
  C  C9  1  0.92603970  0.75000000  0.96691650  1
  C  C10  1  0.33291004  0.05520247  0.96908765  1
  C  C11  1  0.92603970  0.75000000  0.53308350  1
  C  C12  1  0.95073970  0.04068850  0.33950472  1
  C  C13  1  0.04926030  0.54068850  0.66049528  1
  C  C14  1  0.04731607  0.25000000  0.65884523  1
  C  C15  1  0.33291004  0.44479753  0.96908765  1
  C  C16  1  0.63622280  0.53768575  0.83586884  1
  C  C17  1  0.63562188  0.25000000  0.66040894  1
  C  C18  1  0.07396030  0.25000000  0.46691650  1
  C  C19  1  0.36437812  0.75000000  0.16040894  1
  C  C20  1  0.95073970  0.04068850  0.16049528  1
  C  C21  1  0.38725401  0.75000000  0.53415339  1
  C  C22  1  0.63622280  0.96231425  0.83586884  1
  C  C23  1  0.61274599  0.25000000  0.46584661  1
  C  C24  1  0.66708996  0.94479753  0.46908765  1
  C  C25  1  0.66708996  0.55520247  0.03091235  1
  C  C26  1  0.95073970  0.45931150  0.33950472  1
  C  C27  1  0.63622280  0.96231425  0.66413116  1
  C  C28  1  0.38725401  0.75000000  0.96584661  1
  C  C29  1  0.63562188  0.25000000  0.83959106  1
  C  C30  1  0.63622280  0.53768575  0.66413116  1
  C  C31  1  0.95268393  0.75000000  0.34115477  1
  C  C32  1  0.04926030  0.95931150  0.66049528  1
  C  C33  1  0.36377720  0.03768575  0.33586884  1
  C  C34  1  0.07396030  0.25000000  0.03308350  1
  C  C35  1  0.33291004  0.44479753  0.53091235  1
  C  C36  1  0.04731607  0.25000000  0.84115477  1
  C  C37  1  0.66708996  0.55520247  0.46908765  1
  C  C38  1  0.36377720  0.03768575  0.16413116  1
  C  C39  1  0.66708996  0.94479753  0.03091235  1
  C  C40  1  0.84111285  0.75000000  0.75000000  1
  C  C41  1  0.33912855  0.59826046  0.75000000  1
  C  C42  1  0.15888715  0.25000000  0.25000000  1
  C  C43  1  0.15548224  0.61860602  0.06218918  1
  C  C44  1  0.66465660  0.63288199  0.25000000  1
  C  C45  1  0.33534340  0.13288199  0.75000000  1
  C  C46  1  0.54303778  0.75000000  0.75000000  1
  C  C47  1  0.15548224  0.88139398  0.06218918  1
  C  C48  1  0.33534340  0.36711801  0.75000000  1
  C  C49  1  0.66465660  0.86711801  0.25000000  1
  C  C50  1  0.45696222  0.25000000  0.25000000  1
  C  C51  1  0.84451776  0.38139398  0.93781082  1
  C  C52  1  0.33912855  0.90173954  0.75000000  1
  C  C53  1  0.15548224  0.88139398  0.43781082  1
  C  C54  1  0.14158540  0.75000000  0.75000000  1
  C  C55  1  0.84451776  0.11860602  0.56218918  1
  C  C56  1  0.85841460  0.25000000  0.25000000  1
  C  C57  1  0.84451776  0.11860602  0.93781082  1
  C  C58  1  0.66087145  0.09826046  0.25000000  1
  C  C59  1  0.66087145  0.40173954  0.25000000  1
  C  C60  1  0.15548224  0.61860602  0.43781082  1
  C  C61  1  0.84451776  0.38139398  0.56218918  1
  Ni  Ni62  1  0.92175273  0.88705986  0.07007981  1
  Ni  Ni63  1  0.83950008  0.38060762  0.04361234  1
  Ni  Ni64  1  0.16049992  0.61939238  0.95638766  1
  Ni  Ni65  1  0.66133370  0.25000000  0.18185300  1
  Ni  Ni66  1  0.49830618  0.08835710  0.06613220  1
  Ni  Ni67  1  0.84177888  0.11656420  0.82981192  1
  Ni  Ni68  1  0.16122543  0.06014727  0.42525056  1
  Ni  Ni69  1  0.49830618  0.41164290  0.06613220  1
  Ni  Ni70  1  0.38902360  0.88021560  0.06876190  1
  Ni  Ni71  1  0.83877457  0.93985273  0.57474944  1
  Ni  Ni72  1  0.33887711  0.25000000  0.67317391  1
  Ni  Ni73  1  0.07824727  0.38705986  0.92992019  1
  Ni  Ni74  1  0.83950008  0.11939238  0.04361234  1
  Ni  Ni75  1  0.84177888  0.38343580  0.82981192  1
  Ni  Ni76  1  0.33416189  0.00834713  0.67059049  1
  Ni  Ni77  1  0.67024095  0.75000000  0.01172630  1
  Ni  Ni78  1  0.16122543  0.43985273  0.07474944  1
  Ni  Ni79  1  0.31973187  0.25000000  0.33144975  1
  Ni  Ni80  1  0.33416189  0.49165287  0.67059049  1
  Ni  Ni81  1  0.33416189  0.49165287  0.82940951  1
  Ni  Ni82  1  0.10585904  0.38650518  0.75000000  1
  Ni  Ni83  1  0.10585904  0.11349482  0.75000000  1
  Ni  Ni84  1  0.38902360  0.61978440  0.06876190  1
  Ni  Ni85  1  0.15822112  0.61656420  0.17018808  1
  Ni  Ni86  1  0.66583811  0.50834713  0.17059049  1
  Ni  Ni87  1  0.83950008  0.38060762  0.45638766  1
  Ni  Ni88  1  0.66583811  0.99165287  0.32940951  1
  Ni  Ni89  1  0.84177888  0.38343580  0.67018808  1
  Ni  Ni90  1  0.66112289  0.75000000  0.17317391  1
  Ni  Ni91  1  0.61097640  0.11978440  0.93123810  1
  Ni  Ni92  1  0.50169382  0.91164290  0.56613220  1
  Ni  Ni93  1  0.50169382  0.58835710  0.56613220  1
  Ni  Ni94  1  0.66583811  0.99165287  0.17059049  1
  Ni  Ni95  1  0.92175273  0.88705986  0.42992019  1
  Ni  Ni96  1  0.07824727  0.38705986  0.57007981  1
  Ni  Ni97  1  0.33887711  0.25000000  0.82682609  1
  Ni  Ni98  1  0.83877457  0.93985273  0.92525056  1
  Ni  Ni99  1  0.67024095  0.75000000  0.48827370  1
  Ni  Ni100  1  0.84177888  0.11656420  0.67018808  1
  Ni  Ni101  1  0.00160464  0.25000000  0.33408069  1
  Ni  Ni102  1  0.16049992  0.61939238  0.54361234  1
  Ni  Ni103  1  0.66133370  0.25000000  0.31814700  1
  Ni  Ni104  1  0.15822112  0.88343580  0.17018808  1
  Ni  Ni105  1  0.61097640  0.38021560  0.93123810  1
  Ni  Ni106  1  0.83877457  0.56014727  0.57474944  1
  Ni  Ni107  1  0.31973187  0.25000000  0.16855025  1
  Ni  Ni108  1  0.32975905  0.25000000  0.98827370  1
  Ni  Ni109  1  0.56797559  0.11474167  0.75000000  1
  Ni  Ni110  1  0.43202441  0.88525833  0.25000000  1
  Ni  Ni111  1  0.50169382  0.58835710  0.93386780  1
  Ni  Ni112  1  0.16049992  0.88060762  0.95638766  1
  Ni  Ni113  1  0.00160464  0.25000000  0.16591931  1
  Ni  Ni114  1  0.16122543  0.06014727  0.07474944  1
  Ni  Ni115  1  0.49830618  0.41164290  0.43386780  1
  Ni  Ni116  1  0.99839536  0.75000000  0.66591931  1
  Ni  Ni117  1  0.38902360  0.61978440  0.43123810  1
  Ni  Ni118  1  0.66583811  0.50834713  0.32940951  1
  Ni  Ni119  1  0.07824727  0.11294014  0.92992019  1
  Ni  Ni120  1  0.33866630  0.75000000  0.68185300  1
  Ni  Ni121  1  0.49830618  0.08835710  0.43386780  1
  Ni  Ni122  1  0.16122543  0.43985273  0.42525056  1
  Ni  Ni123  1  0.84654504  0.58061727  0.75000000  1
  Ni  Ni124  1  0.92175273  0.61294014  0.07007981  1
  Ni  Ni125  1  0.68026813  0.75000000  0.83144975  1
  Ni  Ni126  1  0.15345496  0.08061727  0.25000000  1
  Ni  Ni127  1  0.15822112  0.88343580  0.32981192  1
  Ni  Ni128  1  0.89414096  0.61349482  0.25000000  1
  Ni  Ni129  1  0.68026813  0.75000000  0.66855025  1
  Ni  Ni130  1  0.50169382  0.91164290  0.93386780  1
  Ni  Ni131  1  0.33416189  0.00834713  0.82940951  1
  Ni  Ni132  1  0.33866630  0.75000000  0.81814700  1
  Ni  Ni133  1  0.07824727  0.11294014  0.57007981  1
  Ni  Ni134  1  0.15822112  0.61656420  0.32981192  1
  Ni  Ni135  1  0.99839536  0.75000000  0.83408069  1
  Ni  Ni136  1  0.66112289  0.75000000  0.32682609  1
  Ni  Ni137  1  0.92175273  0.61294014  0.42992019  1
  Ni  Ni138  1  0.16049992  0.88060762  0.54361234  1
  Ni  Ni139  1  0.83950008  0.11939238  0.45638766  1
  Ni  Ni140  1  0.56797559  0.38525833  0.75000000  1
  Ni  Ni141  1  0.43202441  0.61474167  0.25000000  1
  Ni  Ni142  1  0.89414096  0.88650518  0.25000000  1
  Ni  Ni143  1  0.15345496  0.41938273  0.25000000  1
  Ni  Ni144  1  0.38902360  0.88021560  0.43123810  1
  Ni  Ni145  1  0.32975905  0.25000000  0.51172630  1
  Ni  Ni146  1  0.61097640  0.11978440  0.56876190  1
  Ni  Ni147  1  0.83877457  0.56014727  0.92525056  1
  Ni  Ni148  1  0.84654504  0.91938273  0.75000000  1
  Ni  Ni149  1  0.61097640  0.38021560  0.56876190  1
  Cu  Cu150  1  0.14332949  0.75000000  0.43579121  1
  Cu  Cu151  1  0.84778604  0.11360326  0.25000000  1
  Cu  Cu152  1  0.52530414  0.88726605  0.75000000  1
  Cu  Cu153  1  0.52530414  0.61273395  0.75000000  1
  Cu  Cu154  1  0.85667051  0.25000000  0.93579121  1
  Cu  Cu155  1  0.84778604  0.38639674  0.25000000  1
  Cu  Cu156  1  0.14332949  0.75000000  0.06420879  1
  Cu  Cu157  1  0.15221396  0.61360326  0.75000000  1
  Cu  Cu158  1  0.47469586  0.38726605  0.25000000  1
  Cu  Cu159  1  0.85667051  0.25000000  0.56420879  1
  Cu  Cu160  1  0.47469586  0.11273395  0.25000000  1
  Cu  Cu161  1  0.15221396  0.88639674  0.75000000  1
