# generated using pymatgen
data_CuNiC6
_symmetry_space_group_name_H-M   'P 1'
_cell_length_a   5.18418400
_cell_length_b   8.60245200
_cell_length_c   16.95780000
_cell_angle_alpha   90.00000000
_cell_angle_beta   90.00000000
_cell_angle_gamma   90.00000000
_symmetry_Int_Tables_number   1
_chemical_formula_structural   CuNiC6
_chemical_formula_sum   'Cu8 Ni8 C48'
_cell_volume   756.26181784
_cell_formula_units_Z   8
loop_
 _symmetry_equiv_pos_site_id
 _symmetry_equiv_pos_as_xyz
  1  'x, y, z'
loop_
 _atom_site_type_symbol
 _atom_site_label
 _atom_site_symmetry_multiplicity
 _atom_site_fract_x
 _atom_site_fract_y
 _atom_site_fract_z
 _atom_site_occupancy
  C  C0  1  0.44953300  0.27522600  0.40290400  1
  C  C1  1  0.55046700  0.77522600  0.59709600  1
  C  C2  1  0.44953300  0.77522600  0.09709600  1
  C  C3  1  0.55046700  0.27522600  0.90290400  1
  C  C4  1  0.95863500  0.47164200  0.34770300  1
  C  C5  1  0.04136500  0.97164200  0.65229700  1
  C  C6  1  0.95863500  0.97164200  0.15229700  1
  C  C7  1  0.04136500  0.47164200  0.84770300  1
  C  C8  1  0.20079000  0.93611100  0.38398500  1
  C  C9  1  0.79921000  0.43611100  0.61601500  1
  C  C10  1  0.20079000  0.43611100  0.11601500  1
  C  C11  1  0.79921000  0.93611100  0.88398500  1
  C  C12  1  0.48581200  0.72365300  0.29784900  1
  C  C13  1  0.51418800  0.22365300  0.70215100  1
  C  C14  1  0.48581200  0.22365300  0.20215100  1
  C  C15  1  0.51418800  0.72365300  0.79784900  1
  C  C16  1  0.86077800  0.06510500  0.51447000  1
  C  C17  1  0.13922200  0.56510500  0.48553000  1
  C  C18  1  0.86077800  0.56510500  0.98553000  1
  C  C19  1  0.13922200  0.06510500  0.01447000  1
  C  C20  1  0.88701900  0.89328300  0.38536600  1
  C  C21  1  0.11298100  0.39328300  0.61463400  1
  C  C22  1  0.88701900  0.39328300  0.11463400  1
  C  C23  1  0.11298100  0.89328300  0.88536600  1
  Ni  Ni24  1  0.48515100  0.63758000  0.41543100  1
  Ni  Ni25  1  0.51484900  0.13758000  0.58456900  1
  Ni  Ni26  1  0.48515100  0.13758000  0.08456900  1
  Ni  Ni27  1  0.51484900  0.63758000  0.91543100  1
  Ni  Ni28  1  0.95014800  0.12138000  0.33006200  1
  Ni  Ni29  1  0.04985200  0.62138000  0.66993800  1
  Ni  Ni30  1  0.95014800  0.62138000  0.16993800  1
  Ni  Ni31  1  0.04985200  0.12138000  0.83006200  1
  Cu  Cu32  1  0.49768700  0.76649000  0.35439500  1
  Cu  Cu33  1  0.50231300  0.26649000  0.64560500  1
  Cu  Cu34  1  0.49768700  0.26649000  0.14560500  1
  Cu  Cu35  1  0.50231300  0.76649000  0.85439500  1
  Cu  Cu36  1  0.01821100  0.98150800  0.39460100  1
  Cu  Cu37  1  0.98178900  0.48150800  0.60539900  1
  Cu  Cu38  1  0.01821100  0.48150800  0.10539900  1
  Cu  Cu39  1  0.98178900  0.98150800  0.89460100  1
  C  C40  1  0.17597200  0.58657000  0.42927300  1
  C  C41  1  0.82402800  0.08657000  0.57072700  1
  C  C42  1  0.17597200  0.08657000  0.07072700  1
  C  C43  1  0.82402800  0.58657000  0.92927300  1
  C  C44  1  0.56447500  0.69240100  0.49278900  1
  C  C45  1  0.43552500  0.19240100  0.50721100  1
  C  C46  1  0.56447500  0.19240100  0.00721100  1
  C  C47  1  0.43552500  0.69240100  0.99278900  1
  C  C48  1  0.60326700  0.48643300  0.39238800  1
  C  C49  1  0.39673300  0.98643300  0.60761200  1
  C  C50  1  0.60326700  0.98643300  0.10761200  1
  C  C51  1  0.39673300  0.48643300  0.89238800  1
  C  C52  1  0.67418000  0.15018300  0.33957800  1
  C  C53  1  0.32582000  0.65018300  0.66042200  1
  C  C54  1  0.67418000  0.65018300  0.16042200  1
  C  C55  1  0.32582000  0.15018300  0.83957800  1
  C  C56  1  0.10596700  0.25715500  0.35536300  1
  C  C57  1  0.89403300  0.75715500  0.64463700  1
  C  C58  1  0.10596700  0.75715500  0.14463700  1
  C  C59  1  0.89403300  0.25715500  0.85536300  1
  C  C60  1  0.01982600  0.07237900  0.25020100  1
  C  C61  1  0.98017400  0.57237900  0.74979900  1
  C  C62  1  0.01982600  0.57237900  0.24979900  1
  C  C63  1  0.98017400  0.07237900  0.75020100  1
