# generated using pymatgen
data_Cu2Ni2C15
_symmetry_space_group_name_H-M   'P 1'
_cell_length_a   11.25226200
_cell_length_b   11.32360900
_cell_length_c   14.22147200
_cell_angle_alpha   90.00000000
_cell_angle_beta   90.00000000
_cell_angle_gamma   90.00000000
_symmetry_Int_Tables_number   1
_chemical_formula_structural   Cu2Ni2C15
_chemical_formula_sum   'Cu16 Ni16 C120'
_cell_volume   1812.04613757
_cell_formula_units_Z   8
loop_
 _symmetry_equiv_pos_site_id
 _symmetry_equiv_pos_as_xyz
  1  'x, y, z'
loop_
 _atom_site_type_symbol
 _atom_site_label
 _atom_site_symmetry_multiplicity
 _atom_site_fract_x
 _atom_site_fract_y
 _atom_site_fract_z
 _atom_site_occupancy
  C  C0  1  0.27614900  0.75000000  0.00000000  1
  C  C1  1  0.72385100  0.25000000  0.00000000  1
  C  C2  1  0.77614900  0.25000000  0.50000000  1
  C  C3  1  0.22385100  0.75000000  0.50000000  1
  C  C4  1  0.75000000  0.23539600  0.75000000  1
  C  C5  1  0.75000000  0.26460400  0.25000000  1
  C  C6  1  0.25000000  0.73539600  0.75000000  1
  C  C7  1  0.25000000  0.76460400  0.25000000  1
  C  C8  1  0.79299900  0.44563400  0.63693700  1
  C  C9  1  0.94944200  0.87695400  0.70181700  1
  C  C10  1  0.34225300  0.90848900  0.62391000  1
  C  C11  1  0.79299900  0.05436600  0.36306300  1
  C  C12  1  0.92591400  0.74062100  0.11245400  1
  C  C13  1  0.42591400  0.25937900  0.61245400  1
  C  C14  1  0.66301700  0.64712300  0.66933200  1
  C  C15  1  0.70700100  0.44563400  0.86306300  1
  C  C16  1  0.66301700  0.85287700  0.33066800  1
  C  C17  1  0.03605200  0.39603700  0.57610800  1
  C  C18  1  0.29299900  0.55436600  0.13693700  1
  C  C19  1  0.37108500  0.13453800  0.54559300  1
  C  C20  1  0.55055800  0.87695400  0.79818300  1
  C  C21  1  0.20700100  0.94563400  0.63693700  1
  C  C22  1  0.20700100  0.55436600  0.36306300  1
  C  C23  1  0.82742900  0.93711600  0.63421100  1
  C  C24  1  0.84225300  0.09151100  0.12391000  1
  C  C25  1  0.83698300  0.64712300  0.83066800  1
  C  C26  1  0.67257100  0.56288400  0.13421100  1
  C  C27  1  0.15774700  0.90848900  0.87609000  1
  C  C28  1  0.92591400  0.75937900  0.88754600  1
  C  C29  1  0.65774700  0.09151100  0.37609000  1
  C  C30  1  0.70700100  0.05436600  0.13693700  1
  C  C31  1  0.42591400  0.24062100  0.38754600  1
  C  C32  1  0.46394800  0.39603700  0.92389200  1
  C  C33  1  0.16301700  0.14712300  0.83066800  1
  C  C34  1  0.46394800  0.10396300  0.07610800  1
  C  C35  1  0.12891500  0.13453800  0.95440700  1
  C  C36  1  0.37108500  0.36546200  0.45440700  1
  C  C37  1  0.15774700  0.59151100  0.12391000  1
  C  C38  1  0.84225300  0.40848900  0.87609000  1
  C  C39  1  0.17257100  0.06288400  0.36578900  1
  C  C40  1  0.16301700  0.35287700  0.16933200  1
  C  C41  1  0.83698300  0.85287700  0.16933200  1
  C  C42  1  0.96394800  0.60396300  0.42389200  1
  C  C43  1  0.53605200  0.60396300  0.07610800  1
  C  C44  1  0.33698300  0.35287700  0.33066800  1
  C  C45  1  0.34225300  0.59151100  0.37609000  1
  C  C46  1  0.44944200  0.37695400  0.79818300  1
  C  C47  1  0.29299900  0.94563400  0.86306300  1
  C  C48  1  0.55055800  0.62304600  0.20181700  1
  C  C49  1  0.05055800  0.37695400  0.70181700  1
  C  C50  1  0.96394800  0.89603700  0.57610800  1
  C  C51  1  0.57408600  0.75937900  0.61245400  1
  C  C52  1  0.03605200  0.10396300  0.42389200  1
  C  C53  1  0.87108500  0.63453800  0.95440700  1
  C  C54  1  0.32742900  0.06288400  0.13421100  1
  C  C55  1  0.05055800  0.12304600  0.29818300  1
  C  C56  1  0.53605200  0.89603700  0.92389200  1
  C  C57  1  0.07408600  0.24062100  0.11245400  1
  C  C58  1  0.44944200  0.12304600  0.20181700  1
  C  C59  1  0.82742900  0.56288400  0.36578900  1
  C  C60  1  0.57408600  0.74062100  0.38754600  1
  C  C61  1  0.12891500  0.36546200  0.04559300  1
  C  C62  1  0.33698300  0.14712300  0.66933200  1
  C  C63  1  0.32742900  0.43711600  0.86578900  1
  C  C64  1  0.62891500  0.63453800  0.54559300  1
  C  C65  1  0.94944200  0.62304600  0.29818300  1
  C  C66  1  0.07408600  0.25937900  0.88754600  1
  C  C67  1  0.67257100  0.93711600  0.86578900  1
  C  C68  1  0.65774700  0.40848900  0.62391000  1
  C  C69  1  0.87108500  0.86546200  0.04559300  1
  C  C70  1  0.62891500  0.86546200  0.45440700  1
  C  C71  1  0.17257100  0.43711600  0.63421100  1
  Ni  Ni72  1  0.09721800  0.16528600  0.88562800  1
  Ni  Ni73  1  0.92431500  0.93085700  0.64100000  1
  Ni  Ni74  1  0.57568500  0.93085700  0.85900000  1
  Ni  Ni75  1  0.42431500  0.43085700  0.85900000  1
  Ni  Ni76  1  0.90278200  0.66528600  0.88562800  1
  Ni  Ni77  1  0.90278200  0.83471400  0.11437200  1
  Ni  Ni78  1  0.59721800  0.66528600  0.61437200  1
  Ni  Ni79  1  0.59721800  0.83471400  0.38562800  1
  Ni  Ni80  1  0.40278200  0.16528600  0.61437200  1
  Ni  Ni81  1  0.57568500  0.56914300  0.14100000  1
  Ni  Ni82  1  0.92431500  0.56914300  0.35900000  1
  Ni  Ni83  1  0.07568500  0.43085700  0.64100000  1
  Ni  Ni84  1  0.42431500  0.06914300  0.14100000  1
  Ni  Ni85  1  0.09721800  0.33471400  0.11437200  1
  Ni  Ni86  1  0.07568500  0.06914300  0.35900000  1
  Ni  Ni87  1  0.40278200  0.33471400  0.38562800  1
  Cu  Cu88  1  0.46602000  0.58390400  0.64143200  1
  Cu  Cu89  1  0.98083200  0.42362700  0.34101400  1
  Cu  Cu90  1  0.53398000  0.41609600  0.35856800  1
  Cu  Cu91  1  0.96602000  0.08390400  0.85856800  1
  Cu  Cu92  1  0.53398000  0.08390400  0.64143200  1
  Cu  Cu93  1  0.03398000  0.58390400  0.85856800  1
  Cu  Cu94  1  0.96602000  0.41609600  0.14143200  1
  Cu  Cu95  1  0.51916800  0.42362700  0.15898600  1
  Cu  Cu96  1  0.51916800  0.07637300  0.84101400  1
  Cu  Cu97  1  0.48083200  0.92362700  0.15898600  1
  Cu  Cu98  1  0.46602000  0.91609600  0.35856800  1
  Cu  Cu99  1  0.48083200  0.57637300  0.84101400  1
  Cu  Cu100  1  0.01916800  0.57637300  0.65898600  1
  Cu  Cu101  1  0.98083200  0.07637300  0.65898600  1
  Cu  Cu102  1  0.01916800  0.92362700  0.34101400  1
  Cu  Cu103  1  0.03398000  0.91609600  0.14143200  1
  C  C104  1  0.07742000  0.62693100  0.75510800  1
  C  C105  1  0.92258000  0.37306900  0.24489200  1
  C  C106  1  0.57742000  0.12693100  0.74489200  1
  C  C107  1  0.42258000  0.87306900  0.25510800  1
  C  C108  1  0.57742000  0.37306900  0.25510800  1
  C  C109  1  0.42258000  0.62693100  0.74489200  1
  C  C110  1  0.92258000  0.12693100  0.75510800  1
  C  C111  1  0.07742000  0.87306900  0.24489200  1
  C  C112  1  0.26010300  0.87828000  0.62344500  1
  C  C113  1  0.06395500  0.84954500  0.41712800  1
  C  C114  1  0.23989700  0.62172000  0.12344500  1
  C  C115  1  0.43604500  0.84954500  0.08287200  1
  C  C116  1  0.26010300  0.62172000  0.37655500  1
  C  C117  1  0.88948000  0.56803600  0.66606600  1
  C  C118  1  0.76010300  0.37828000  0.87655500  1
  C  C119  1  0.62666300  0.12034300  0.57628000  1
  C  C120  1  0.87333700  0.37965700  0.07628000  1
  C  C121  1  0.50255900  0.54198400  0.36058800  1
  C  C122  1  0.11052000  0.43196400  0.33393400  1
  C  C123  1  0.49744100  0.04198400  0.36058800  1
  C  C124  1  0.37333700  0.87965700  0.42372000  1
  C  C125  1  0.56395500  0.15045500  0.91712800  1
  C  C126  1  0.11052000  0.06803600  0.66606600  1
  C  C127  1  0.61052000  0.93196400  0.16606600  1
  C  C128  1  0.93604500  0.15045500  0.58287200  1
  C  C129  1  0.88948000  0.93196400  0.33393400  1
  C  C130  1  0.12666300  0.87965700  0.07628000  1
  C  C131  1  0.87333700  0.12034300  0.92372000  1
  C  C132  1  0.73989700  0.12172000  0.37655500  1
  C  C133  1  0.50255900  0.95801600  0.63941200  1
  C  C134  1  0.43604500  0.65045500  0.91712800  1
  C  C135  1  0.00255900  0.45801600  0.86058800  1
  C  C136  1  0.99744100  0.95801600  0.86058800  1
  C  C137  1  0.76010300  0.12172000  0.12344500  1
  C  C138  1  0.38948000  0.43196400  0.16606600  1
  C  C139  1  0.23989700  0.87828000  0.87655500  1
  C  C140  1  0.49744100  0.45801600  0.63941200  1
  C  C141  1  0.37333700  0.62034300  0.57628000  1
  C  C142  1  0.06395500  0.65045500  0.58287200  1
  C  C143  1  0.38948000  0.06803600  0.83393400  1
  C  C144  1  0.93604500  0.34954500  0.41712800  1
  C  C145  1  0.99744100  0.54198400  0.13941200  1
  C  C146  1  0.73989700  0.37828000  0.62344500  1
  C  C147  1  0.62666300  0.37965700  0.42372000  1
  C  C148  1  0.61052000  0.56803600  0.83393400  1
  C  C149  1  0.56395500  0.34954500  0.08287200  1
  C  C150  1  0.00255900  0.04198400  0.13941200  1
  C  C151  1  0.12666300  0.62034300  0.92372000  1
