# generated using pymatgen
data_Cu(NiC7)3
_symmetry_space_group_name_H-M   'P 1'
_cell_length_a   10.09680100
_cell_length_b   11.60588273
_cell_length_c   11.84127470
_cell_angle_alpha   85.90514528
_cell_angle_beta   86.34096033
_cell_angle_gamma   86.82678321
_symmetry_Int_Tables_number   1
_chemical_formula_structural   Cu(NiC7)3
_chemical_formula_sum   'Cu2 Ni6 C42'
_cell_volume   1379.42436737
_cell_formula_units_Z   2
loop_
 _symmetry_equiv_pos_site_id
 _symmetry_equiv_pos_as_xyz
  1  'x, y, z'
loop_
 _atom_site_type_symbol
 _atom_site_label
 _atom_site_symmetry_multiplicity
 _atom_site_fract_x
 _atom_site_fract_y
 _atom_site_fract_z
 _atom_site_occupancy
  C  C0  1  0.05784300  0.98999200  0.01366000  1
  C  C1  1  0.68235500  0.88433600  0.61889200  1
  C  C2  1  0.41192300  0.92887400  0.53805700  1
  C  C3  1  0.78361600  0.95974500  0.07768900  1
  C  C4  1  0.42477000  0.33711800  0.56605200  1
  C  C5  1  0.68522500  0.58365100  0.46906600  1
  C  C6  1  0.72652200  0.82205900  0.35753100  1
  C  C7  1  0.09586500  0.27800400  0.32409200  1
  C  C8  1  0.64765900  0.60497700  0.41829900  1
  C  C9  1  0.65795200  0.83527300  0.38519000  1
  C  C10  1  0.33282200  0.10289700  0.28075900  1
  C  C11  1  0.37591600  0.50872100  0.39832200  1
  C  C12  1  0.77410200  0.10964000  0.02174700  1
  C  C13  1  0.89154400  0.32931300  0.35051700  1
  C  C14  1  0.41424000  0.34918000  0.06842100  1
  C  C15  1  0.90399000  0.34457700  0.28806100  1
  C  C16  1  0.88984700  0.50065400  0.10032200  1
  C  C17  1  0.69028400  0.21322700  0.23214300  1
  C  C18  1  0.08451900  0.90089400  0.13391200  1
  C  C19  1  0.08164500  0.66912900  0.06853700  1
  C  C20  1  0.63348800  0.32136600  0.15225000  1
  C  C21  1  0.24037300  0.72851600  0.08952700  1
  C  C22  1  0.23371300  0.61993000  0.98782300  1
  C  C23  1  0.94654700  0.25311400  0.97241100  1
  Ni  Ni24  1  0.03287800  0.64356600  0.77175700  1
  Ni  Ni25  1  0.62224100  0.71996700  0.68956800  1
  Ni  Ni26  1  0.99376900  0.32562800  0.91945800  1
  Ni  Ni27  1  0.06615200  0.46082500  0.51279400  1
  Ni  Ni28  1  0.17943800  0.69102000  0.03002900  1
  Ni  Ni29  1  0.51901300  0.36237000  0.59910200  1
  Cu  Cu30  1  0.60658000  0.26579100  0.22068100  1
  Cu  Cu31  1  0.18552400  0.28605000  0.27615400  1
  C  C32  1  0.15241600  0.80088500  0.91533200  1
  C  C33  1  0.47581200  0.39863700  0.98057700  1
  C  C34  1  0.88166600  0.63275000  0.82810900  1
  C  C35  1  0.06433900  0.27571900  0.79879600  1
  C  C36  1  0.67962100  0.97700800  0.79783900  1
  C  C37  1  0.29479400  0.99262500  0.70454000  1
  C  C38  1  0.54689500  0.27401200  0.71528100  1
  C  C39  1  0.48647700  0.64483000  0.68614400  1
  C  C40  1  0.90631900  0.44159800  0.57084600  1
  C  C41  1  0.45317800  0.11685200  0.45190400  1
  C  C42  1  0.06840800  0.58867000  0.43137500  1
  C  C43  1  0.60093900  0.35600100  0.33437100  1
  C  C44  1  0.46782600  0.74059700  0.22780700  1
  C  C45  1  0.87433300  0.05557300  0.23640400  1
  C  C46  1  0.28411400  0.02133400  0.22869200  1
  C  C47  1  0.89010900  0.75402900  0.19416300  1
  C  C48  1  0.13529200  0.34392200  0.15102500  1
  C  C49  1  0.50220700  0.60795500  0.12797000  1
