# generated using pymatgen
data_Cu27Ni9C5
_symmetry_space_group_name_H-M   'P 1'
_cell_length_a   13.73332700
_cell_length_b   13.73332700
_cell_length_c   13.73332700
_cell_angle_alpha   90.00000000
_cell_angle_beta   90.00000000
_cell_angle_gamma   90.00000000
_symmetry_Int_Tables_number   1
_chemical_formula_structural   Cu27Ni9C5
_chemical_formula_sum   'Cu108 Ni36 C20'
_cell_volume   2590.16412022
_cell_formula_units_Z   4
loop_
 _symmetry_equiv_pos_site_id
 _symmetry_equiv_pos_as_xyz
  1  'x, y, z'
loop_
 _atom_site_type_symbol
 _atom_site_label
 _atom_site_symmetry_multiplicity
 _atom_site_fract_x
 _atom_site_fract_y
 _atom_site_fract_z
 _atom_site_occupancy
  C  C0  1  0.31322400  0.43677600  0.87500000  1
  C  C1  1  0.43677600  0.87500000  0.31322400  1
  C  C2  1  0.93677600  0.62500000  0.68677600  1
  C  C3  1  0.37500000  0.18677600  0.56322400  1
  C  C4  1  0.68677600  0.93677600  0.62500000  1
  C  C5  1  0.56322400  0.37500000  0.18677600  1
  C  C6  1  0.12500000  0.81322400  0.06322400  1
  C  C7  1  0.06322400  0.12500000  0.81322400  1
  C  C8  1  0.87500000  0.31322400  0.43677600  1
  C  C9  1  0.62500000  0.68677600  0.93677600  1
  C  C10  1  0.81322400  0.06322400  0.12500000  1
  C  C11  1  0.18677600  0.56322400  0.37500000  1
  C  C12  1  0.79820200  0.70179800  0.29820200  1
  C  C13  1  0.45179800  0.04820200  0.95179800  1
  C  C14  1  0.29820200  0.79820200  0.70179800  1
  C  C15  1  0.20179800  0.20179800  0.20179800  1
  C  C16  1  0.95179800  0.45179800  0.04820200  1
  C  C17  1  0.54820200  0.54820200  0.54820200  1
  C  C18  1  0.70179800  0.29820200  0.79820200  1
  C  C19  1  0.04820200  0.95179800  0.45179800  1
  Ni  Ni20  1  0.76225400  0.62500000  0.51225400  1
  Ni  Ni21  1  0.89887800  0.08891600  0.36032200  1
  Ni  Ni22  1  0.66108400  0.85112200  0.38967800  1
  Ni  Ni23  1  0.60112200  0.91108400  0.86032200  1
  Ni  Ni24  1  0.14887800  0.88967800  0.83891600  1
  Ni  Ni25  1  0.10112200  0.58891600  0.13967800  1
  Ni  Ni26  1  0.86032200  0.60112200  0.91108400  1
  Ni  Ni27  1  0.62500000  0.51225400  0.76225400  1
  Ni  Ni28  1  0.12500000  0.98774600  0.23774600  1
  Ni  Ni29  1  0.58891600  0.13967800  0.10112200  1
  Ni  Ni30  1  0.38967800  0.66108400  0.85112200  1
  Ni  Ni31  1  0.87500000  0.48774600  0.26225400  1
  Ni  Ni32  1  0.41108400  0.63967800  0.39887800  1
  Ni  Ni33  1  0.88967800  0.83891600  0.14887800  1
  Ni  Ni34  1  0.61032200  0.16108400  0.64887800  1
  Ni  Ni35  1  0.48774600  0.26225400  0.87500000  1
  Ni  Ni36  1  0.85112200  0.38967800  0.66108400  1
  Ni  Ni37  1  0.37500000  0.01225400  0.73774600  1
  Ni  Ni38  1  0.33891600  0.35112200  0.11032200  1
  Ni  Ni39  1  0.23774600  0.12500000  0.98774600  1
  Ni  Ni40  1  0.36032200  0.89887800  0.08891600  1
  Ni  Ni41  1  0.51225400  0.76225400  0.62500000  1
  Ni  Ni42  1  0.91108400  0.86032200  0.60112200  1
  Ni  Ni43  1  0.13967800  0.10112200  0.58891600  1
  Ni  Ni44  1  0.73774600  0.37500000  0.01225400  1
  Ni  Ni45  1  0.64887800  0.61032200  0.16108400  1
  Ni  Ni46  1  0.16108400  0.64887800  0.61032200  1
  Ni  Ni47  1  0.63967800  0.39887800  0.41108400  1
  Ni  Ni48  1  0.39887800  0.41108400  0.63967800  1
  Ni  Ni49  1  0.83891600  0.14887800  0.88967800  1
  Ni  Ni50  1  0.11032200  0.33891600  0.35112200  1
  Ni  Ni51  1  0.98774600  0.23774600  0.12500000  1
  Ni  Ni52  1  0.01225400  0.73774600  0.37500000  1
  Ni  Ni53  1  0.35112200  0.11032200  0.33891600  1
  Ni  Ni54  1  0.08891600  0.36032200  0.89887800  1
  Ni  Ni55  1  0.26225400  0.87500000  0.48774600  1
  Cu  Cu56  1  0.00879100  0.15508200  0.15730000  1
  Cu  Cu57  1  0.40508200  0.24120900  0.90730000  1
  Cu  Cu58  1  0.15730000  0.00879100  0.15508200  1
  Cu  Cu59  1  0.84491800  0.65730000  0.49120900  1
  Cu  Cu60  1  0.24482300  0.66645700  0.57382000  1
  Cu  Cu61  1  0.41645700  0.49482300  0.67618000  1
  Cu  Cu62  1  0.90730000  0.40508200  0.24120900  1
  Cu  Cu63  1  0.49120900  0.84491800  0.65730000  1
  Cu  Cu64  1  0.36119000  0.30721600  0.18963800  1
  Cu  Cu65  1  0.87500000  0.55433100  0.19566900  1
  Cu  Cu66  1  0.25517700  0.33354300  0.07382000  1
  Cu  Cu67  1  0.31036200  0.63881000  0.80721600  1
  Cu  Cu68  1  0.74120900  0.59270000  0.59491800  1
  Cu  Cu69  1  0.40730000  0.09491800  0.75879100  1
  Cu  Cu70  1  0.42980300  0.60319100  0.90839400  1
  Cu  Cu71  1  0.06036200  0.05721600  0.61119000  1
  Cu  Cu72  1  0.07382000  0.25517700  0.33354300  1
  Cu  Cu73  1  0.75517700  0.16645700  0.92618000  1
  Cu  Cu74  1  0.34160600  0.35319100  0.67980300  1
  Cu  Cu75  1  0.90839400  0.42980300  0.60319100  1
  Cu  Cu76  1  0.38881000  0.56036200  0.44278400  1
  Cu  Cu77  1  0.34491800  0.84270000  0.50879100  1
  Cu  Cu78  1  0.37500000  0.94566900  0.80433100  1
  Cu  Cu79  1  0.74482300  0.83354300  0.42618000  1
  Cu  Cu80  1  0.09491800  0.75879100  0.40730000  1
  Cu  Cu81  1  0.43963800  0.94278400  0.11119000  1
  Cu  Cu82  1  0.18963800  0.36119000  0.30721600  1
  Cu  Cu83  1  0.12500000  0.05433100  0.30433100  1
  Cu  Cu84  1  0.57382000  0.24482300  0.66645700  1
  Cu  Cu85  1  0.00517700  0.32382000  0.91645700  1
  Cu  Cu86  1  0.35319100  0.67980300  0.34160600  1
  Cu  Cu87  1  0.92618000  0.75517700  0.16645700  1
  Cu  Cu88  1  0.89680900  0.09160600  0.92980300  1
  Cu  Cu89  1  0.61119000  0.06036200  0.05721600  1
  Cu  Cu90  1  0.09160600  0.92980300  0.89680900  1
  Cu  Cu91  1  0.50879100  0.34491800  0.84270000  1
  Cu  Cu92  1  0.59160600  0.57019700  0.10319100  1
  Cu  Cu93  1  0.99120900  0.65508200  0.34270000  1
  Cu  Cu94  1  0.82019700  0.65839400  0.85319100  1
  Cu  Cu95  1  0.64680900  0.17980300  0.15839400  1
  Cu  Cu96  1  0.55433100  0.19566900  0.87500000  1
  Cu  Cu97  1  0.82382000  0.58354300  0.99482300  1
  Cu  Cu98  1  0.88881000  0.93963800  0.55721600  1
  Cu  Cu99  1  0.84160600  0.14680900  0.32019700  1
  Cu  Cu100  1  0.59270000  0.59491800  0.74120900  1
  Cu  Cu101  1  0.69566900  0.62500000  0.44566900  1
  Cu  Cu102  1  0.42618000  0.74482300  0.83354300  1
  Cu  Cu103  1  0.40839400  0.07019700  0.39680900  1
  Cu  Cu104  1  0.10319100  0.59160600  0.57019700  1
  Cu  Cu105  1  0.67618000  0.41645700  0.49482300  1
  Cu  Cu106  1  0.19566900  0.87500000  0.55433100  1
  Cu  Cu107  1  0.30433100  0.12500000  0.05433100  1
  Cu  Cu108  1  0.32019700  0.84160600  0.14680900  1
  Cu  Cu109  1  0.56036200  0.44278400  0.38881000  1
  Cu  Cu110  1  0.50517700  0.17618000  0.08354300  1
  Cu  Cu111  1  0.59491800  0.74120900  0.59270000  1
  Cu  Cu112  1  0.30721600  0.18963800  0.36119000  1
  Cu  Cu113  1  0.92980300  0.89680900  0.09160600  1
  Cu  Cu114  1  0.05721600  0.61119000  0.06036200  1
  Cu  Cu115  1  0.25879100  0.09270000  0.90508200  1
  Cu  Cu116  1  0.66645700  0.57382000  0.24482300  1
  Cu  Cu117  1  0.80721600  0.31036200  0.63881000  1
  Cu  Cu118  1  0.94566900  0.80433100  0.37500000  1
  Cu  Cu119  1  0.05433100  0.30433100  0.12500000  1
  Cu  Cu120  1  0.19278400  0.81036200  0.86119000  1
  Cu  Cu121  1  0.91645700  0.00517700  0.32382000  1
  Cu  Cu122  1  0.34270000  0.99120900  0.65508200  1
  Cu  Cu123  1  0.90508200  0.25879100  0.09270000  1
  Cu  Cu124  1  0.11119000  0.43963800  0.94278400  1
  Cu  Cu125  1  0.13881000  0.69278400  0.68963800  1
  Cu  Cu126  1  0.14680900  0.32019700  0.84160600  1
  Cu  Cu127  1  0.99482300  0.82382000  0.58354300  1
  Cu  Cu128  1  0.75879100  0.40730000  0.09491800  1
  Cu  Cu129  1  0.16645700  0.92618000  0.75517700  1
  Cu  Cu130  1  0.17980300  0.15839400  0.64680900  1
  Cu  Cu131  1  0.63881000  0.80721600  0.31036200  1
  Cu  Cu132  1  0.84270000  0.50879100  0.34491800  1
  Cu  Cu133  1  0.33354300  0.07382000  0.25517700  1
  Cu  Cu134  1  0.08354300  0.50517700  0.17618000  1
  Cu  Cu135  1  0.15839400  0.64680900  0.17980300  1
  Cu  Cu136  1  0.69278400  0.68963800  0.13881000  1
  Cu  Cu137  1  0.07019700  0.39680900  0.40839400  1
  Cu  Cu138  1  0.44566900  0.69566900  0.62500000  1
  Cu  Cu139  1  0.58354300  0.99482300  0.82382000  1
  Cu  Cu140  1  0.94278400  0.11119000  0.43963800  1
  Cu  Cu141  1  0.39680900  0.40839400  0.07019700  1
  Cu  Cu142  1  0.55721600  0.88881000  0.93963800  1
  Cu  Cu143  1  0.93963800  0.55721600  0.88881000  1
  Cu  Cu144  1  0.60319100  0.90839400  0.42980300  1
  Cu  Cu145  1  0.83354300  0.42618000  0.74482300  1
  Cu  Cu146  1  0.15508200  0.15730000  0.00879100  1
  Cu  Cu147  1  0.81036200  0.86119000  0.19278400  1
  Cu  Cu148  1  0.32382000  0.91645700  0.00517700  1
  Cu  Cu149  1  0.68963800  0.13881000  0.69278400  1
  Cu  Cu150  1  0.44278400  0.38881000  0.56036200  1
  Cu  Cu151  1  0.17618000  0.08354300  0.50517700  1
  Cu  Cu152  1  0.62500000  0.44566900  0.69566900  1
  Cu  Cu153  1  0.49482300  0.67618000  0.41645700  1
  Cu  Cu154  1  0.80433100  0.37500000  0.94566900  1
  Cu  Cu155  1  0.86119000  0.19278400  0.81036200  1
  Cu  Cu156  1  0.24120900  0.90730000  0.40508200  1
  Cu  Cu157  1  0.65508200  0.34270000  0.99120900  1
  Cu  Cu158  1  0.65730000  0.49120900  0.84491800  1
  Cu  Cu159  1  0.65839400  0.85319100  0.82019700  1
  Cu  Cu160  1  0.67980300  0.34160600  0.35319100  1
  Cu  Cu161  1  0.85319100  0.82019700  0.65839400  1
  Cu  Cu162  1  0.09270000  0.90508200  0.25879100  1
  Cu  Cu163  1  0.57019700  0.10319100  0.59160600  1
