# generated using pymatgen
data_Cu5Ni4C11
_symmetry_space_group_name_H-M   'P 1'
_cell_length_a   5.15398900
_cell_length_b   10.73243700
_cell_length_c   13.81910809
_cell_angle_alpha   83.97752936
_cell_angle_beta   90.00000000
_cell_angle_gamma   90.00000000
_symmetry_Int_Tables_number   1
_chemical_formula_structural   Cu5Ni4C11
_chemical_formula_sum   'Cu20 Ni16 C44'
_cell_volume   760.18319077
_cell_formula_units_Z   4
loop_
 _symmetry_equiv_pos_site_id
 _symmetry_equiv_pos_as_xyz
  1  'x, y, z'
loop_
 _atom_site_type_symbol
 _atom_site_label
 _atom_site_symmetry_multiplicity
 _atom_site_fract_x
 _atom_site_fract_y
 _atom_site_fract_z
 _atom_site_occupancy
  C  C0  1  0.20370200  0.64211400  0.99931800  1
  C  C1  1  0.70370200  0.85788600  0.00068200  1
  C  C2  1  0.79629800  0.35788600  0.00068200  1
  C  C3  1  0.29629800  0.14211400  0.99931800  1
  C  C4  1  0.22502300  0.88150000  0.12580200  1
  C  C5  1  0.72502300  0.61850000  0.87419800  1
  C  C6  1  0.77497700  0.11850000  0.87419800  1
  C  C7  1  0.27497700  0.38150000  0.12580200  1
  C  C8  1  0.99749000  0.93053900  0.44624500  1
  C  C9  1  0.49749000  0.56946100  0.55375500  1
  C  C10  1  0.00251000  0.06946100  0.55375500  1
  C  C11  1  0.50251000  0.43053900  0.44624500  1
  C  C12  1  0.15550300  0.88618800  0.34001900  1
  C  C13  1  0.65550300  0.61381200  0.65998100  1
  C  C14  1  0.84449700  0.11381200  0.65998100  1
  C  C15  1  0.34449700  0.38618800  0.34001900  1
  C  C16  1  0.45329700  0.98454300  0.26923000  1
  C  C17  1  0.95329700  0.51545700  0.73077000  1
  C  C18  1  0.54670300  0.01545700  0.73077000  1
  C  C19  1  0.04670300  0.48454300  0.26923000  1
  C  C20  1  0.90145900  0.26829800  0.34861900  1
  C  C21  1  0.40145900  0.23170200  0.65138100  1
  C  C22  1  0.09854100  0.73170200  0.65138100  1
  C  C23  1  0.59854100  0.76829800  0.34861900  1
  C  C24  1  0.63724900  0.21170900  0.42547600  1
  C  C25  1  0.13724900  0.28829100  0.57452400  1
  C  C26  1  0.36275100  0.78829100  0.57452400  1
  C  C27  1  0.86275100  0.71170900  0.42547600  1
  C  C28  1  0.98073700  0.18073600  0.20998200  1
  C  C29  1  0.48073700  0.31926400  0.79001800  1
  C  C30  1  0.01926300  0.81926400  0.79001800  1
  C  C31  1  0.51926300  0.68073600  0.20998200  1
  C  C32  1  0.77151800  0.06291800  0.17225700  1
  C  C33  1  0.27151800  0.43708200  0.82774300  1
  C  C34  1  0.22848200  0.93708200  0.82774300  1
  C  C35  1  0.72848200  0.56291800  0.17225700  1
  C  C36  1  0.31144700  0.03749700  0.39849800  1
  C  C37  1  0.81144700  0.46250300  0.60150200  1
  C  C38  1  0.68855300  0.96250300  0.60150200  1
  C  C39  1  0.18855300  0.53749700  0.39849800  1
  C  C40  1  0.68518200  0.12900400  0.30207200  1
  C  C41  1  0.18518200  0.37099600  0.69792800  1
  C  C42  1  0.31481800  0.87099600  0.69792800  1
  C  C43  1  0.81481800  0.62900400  0.30207200  1
  Ni  Ni44  1  0.14653500  0.94084200  0.39711600  1
  Ni  Ni45  1  0.64653500  0.55915800  0.60288400  1
  Ni  Ni46  1  0.85346500  0.05915800  0.60288400  1
  Ni  Ni47  1  0.35346500  0.44084200  0.39711600  1
  Ni  Ni48  1  0.48679800  0.04580400  0.32055000  1
  Ni  Ni49  1  0.98679800  0.45419600  0.67945000  1
  Ni  Ni50  1  0.51320200  0.95419600  0.67945000  1
  Ni  Ni51  1  0.01320200  0.54580400  0.32055000  1
  Ni  Ni52  1  0.74766300  0.21021500  0.36474200  1
  Ni  Ni53  1  0.24766300  0.28978500  0.63525800  1
  Ni  Ni54  1  0.25233700  0.78978500  0.63525800  1
  Ni  Ni55  1  0.75233700  0.71021500  0.36474200  1
  Ni  Ni56  1  0.82138400  0.12353500  0.22112500  1
  Ni  Ni57  1  0.32138400  0.37646500  0.77887500  1
  Ni  Ni58  1  0.17861600  0.87646500  0.77887500  1
  Ni  Ni59  1  0.67861600  0.62353500  0.22112500  1
  Cu  Cu60  1  0.42995300  0.60832300  0.89268800  1
  Cu  Cu61  1  0.92995300  0.89167700  0.10731200  1
  Cu  Cu62  1  0.57004700  0.39167700  0.10731200  1
  Cu  Cu63  1  0.07004700  0.10832300  0.89268800  1
  Cu  Cu64  1  0.35069100  0.79692100  0.04951400  1
  Cu  Cu65  1  0.85069100  0.70307900  0.95048600  1
  Cu  Cu66  1  0.64930900  0.20307900  0.95048600  1
  Cu  Cu67  1  0.14930900  0.29692100  0.04951400  1
  Cu  Cu68  1  0.14221400  0.51243500  0.10668300  1
  Cu  Cu69  1  0.64221400  0.98756500  0.89331700  1
  Cu  Cu70  1  0.85778600  0.48756500  0.89331700  1
  Cu  Cu71  1  0.35778600  0.01243500  0.10668300  1
  Cu  Cu72  1  0.29079500  0.82476300  0.22957500  1
  Cu  Cu73  1  0.79079500  0.67523700  0.77042500  1
  Cu  Cu74  1  0.70920500  0.17523700  0.77042500  1
  Cu  Cu75  1  0.20920500  0.32476300  0.22957500  1
  Cu  Cu76  1  0.31231000  0.11298500  0.46195100  1
  Cu  Cu77  1  0.81231000  0.38701500  0.53804900  1
  Cu  Cu78  1  0.68769000  0.88701500  0.53804900  1
  Cu  Cu79  1  0.18769000  0.61298500  0.46195100  1
