# generated using pymatgen
data_CuNi8C17
_symmetry_space_group_name_H-M   'P 1'
_cell_length_a   17.43031663
_cell_length_b   17.43031663
_cell_length_c   17.43031663
_cell_angle_alpha   109.47122063
_cell_angle_beta   109.47122063
_cell_angle_gamma   109.47122063
_symmetry_Int_Tables_number   1
_chemical_formula_structural   CuNi8C17
_chemical_formula_sum   'Cu6 Ni48 C102'
_cell_volume   4076.56093603
_cell_formula_units_Z   6
loop_
 _symmetry_equiv_pos_site_id
 _symmetry_equiv_pos_as_xyz
  1  'x, y, z'
loop_
 _atom_site_type_symbol
 _atom_site_label
 _atom_site_symmetry_multiplicity
 _atom_site_fract_x
 _atom_site_fract_y
 _atom_site_fract_z
 _atom_site_occupancy
  C  C0  1  0.70193100  0.06892300  0.50538400  1
  C  C1  1  0.06892300  0.50538400  0.70193100  1
  C  C2  1  0.99461600  0.06353800  0.19654700  1
  C  C3  1  0.69654700  0.56353800  0.49461600  1
  C  C4  1  0.29806900  0.86699100  0.80345300  1
  C  C5  1  0.63300900  0.93107700  0.93646200  1
  C  C6  1  0.06353800  0.19654700  0.99461600  1
  C  C7  1  0.25000000  0.12500000  0.87500000  1
  C  C8  1  0.12500000  0.87500000  0.25000000  1
  C  C9  1  0.79806900  0.30345300  0.36699100  1
  C  C10  1  0.43107700  0.13300900  0.43646200  1
  C  C11  1  0.43646200  0.43107700  0.13300900  1
  C  C12  1  0.19654700  0.99461600  0.06353800  1
  C  C13  1  0.20193100  0.00538400  0.56892300  1
  C  C14  1  0.93646200  0.63300900  0.93107700  1
  C  C15  1  0.37500000  0.62500000  0.75000000  1
  C  C16  1  0.87500000  0.25000000  0.12500000  1
  C  C17  1  0.86699100  0.80345300  0.29806900  1
  C  C18  1  0.50538400  0.70193100  0.06892300  1
  C  C19  1  0.62500000  0.75000000  0.37500000  1
  C  C20  1  0.00538400  0.56892300  0.20193100  1
  C  C21  1  0.75000000  0.37500000  0.62500000  1
  C  C22  1  0.93107700  0.93646200  0.63300900  1
  C  C23  1  0.13300900  0.43646200  0.43107700  1
  C  C24  1  0.56892300  0.20193100  0.00538400  1
  C  C25  1  0.80345300  0.29806900  0.86699100  1
  C  C26  1  0.36699100  0.79806900  0.30345300  1
  C  C27  1  0.49461600  0.69654700  0.56353800  1
  C  C28  1  0.56353800  0.49461600  0.69654700  1
  C  C29  1  0.30345300  0.36699100  0.79806900  1
  C  C30  1  0.29985200  0.29429700  0.42724400  1
  C  C31  1  0.12739200  0.70014800  0.49444500  1
  C  C32  1  0.00555500  0.70570300  0.63294700  1
  C  C33  1  0.79429700  0.79985200  0.92724400  1
  C  C34  1  0.36705300  0.87260800  0.07275600  1
  C  C35  1  0.13294700  0.20570300  0.50555500  1
  C  C36  1  0.37260800  0.86705300  0.57275600  1
  C  C37  1  0.62739200  0.99444500  0.20014800  1
  C  C38  1  0.07275600  0.36705300  0.87260800  1
  C  C39  1  0.63294700  0.00555500  0.70570300  1
  C  C40  1  0.70014800  0.49444500  0.12739200  1
  C  C41  1  0.79985200  0.92724400  0.79429700  1
  C  C42  1  0.42724400  0.29985200  0.29429700  1
  C  C43  1  0.20014800  0.62739200  0.99444500  1
  C  C44  1  0.87260800  0.07275600  0.36705300  1
  C  C45  1  0.86705300  0.57275600  0.37260800  1
  C  C46  1  0.92724400  0.79429700  0.79985200  1
  C  C47  1  0.50555500  0.13294700  0.20570300  1
  C  C48  1  0.20570300  0.50555500  0.13294700  1
  C  C49  1  0.70570300  0.63294700  0.00555500  1
  C  C50  1  0.99444500  0.20014800  0.62739200  1
  C  C51  1  0.49444500  0.12739200  0.70014800  1
  C  C52  1  0.29429700  0.42724400  0.29985200  1
  C  C53  1  0.57275600  0.37260800  0.86705300  1
  Ni  Ni54  1  0.93458800  0.84750100  0.01245900  1
  Ni  Ni55  1  0.06541200  0.41291300  0.07787200  1
  Ni  Ni56  1  0.33433100  0.91817300  0.17647200  1
  Ni  Ni57  1  0.83433100  0.67647200  0.41817300  1
  Ni  Ni58  1  0.51245900  0.34750100  0.43458800  1
  Ni  Ni59  1  0.08182700  0.75830000  0.41615800  1
  Ni  Ni60  1  0.41817300  0.83433100  0.67647200  1
  Ni  Ni61  1  0.08708700  0.15249900  0.66495800  1
  Ni  Ni62  1  0.65785900  0.74170000  0.82352800  1
  Ni  Ni63  1  0.01245900  0.93458800  0.84750100  1
  Ni  Ni64  1  0.65249900  0.58708700  0.16495800  1
  Ni  Ni65  1  0.57787200  0.91291300  0.56541200  1
  Ni  Ni66  1  0.07787200  0.06541200  0.41291300  1
  Ni  Ni67  1  0.17647200  0.33433100  0.91817300  1
  Ni  Ni68  1  0.43458800  0.51245900  0.34750100  1
  Ni  Ni69  1  0.08384200  0.84214100  0.66566900  1
  Ni  Ni70  1  0.66495800  0.08708700  0.15249900  1
  Ni  Ni71  1  0.75830000  0.41615800  0.08182700  1
  Ni  Ni72  1  0.25830000  0.58182700  0.91615800  1
  Ni  Ni73  1  0.56541200  0.57787200  0.91291300  1
  Ni  Ni74  1  0.84750100  0.01245900  0.93458800  1
  Ni  Ni75  1  0.84214100  0.66566900  0.08384200  1
  Ni  Ni76  1  0.16566900  0.34214100  0.58384200  1
  Ni  Ni77  1  0.42212800  0.83504200  0.98754100  1
  Ni  Ni78  1  0.67647200  0.41817300  0.83433100  1
  Ni  Ni79  1  0.15249900  0.66495800  0.08708700  1
  Ni  Ni80  1  0.74170000  0.82352800  0.65785900  1
  Ni  Ni81  1  0.34214100  0.58384200  0.16566900  1
  Ni  Ni82  1  0.24170000  0.15785900  0.32352800  1
  Ni  Ni83  1  0.92212800  0.48754100  0.33504200  1
  Ni  Ni84  1  0.58708700  0.16495800  0.65249900  1
  Ni  Ni85  1  0.83504200  0.98754100  0.42212800  1
  Ni  Ni86  1  0.33504200  0.92212800  0.48754100  1
  Ni  Ni87  1  0.58384200  0.16566900  0.34214100  1
  Ni  Ni88  1  0.41291300  0.07787200  0.06541200  1
  Ni  Ni89  1  0.34750100  0.43458800  0.51245900  1
  Ni  Ni90  1  0.91291300  0.56541200  0.57787200  1
  Ni  Ni91  1  0.41615800  0.08182700  0.75830000  1
  Ni  Ni92  1  0.16495800  0.65249900  0.58708700  1
  Ni  Ni93  1  0.15785900  0.32352800  0.24170000  1
  Ni  Ni94  1  0.91817300  0.17647200  0.33433100  1
  Ni  Ni95  1  0.48754100  0.33504200  0.92212800  1
  Ni  Ni96  1  0.82352800  0.65785900  0.74170000  1
  Ni  Ni97  1  0.32352800  0.24170000  0.15785900  1
  Ni  Ni98  1  0.66566900  0.08384200  0.84214100  1
  Ni  Ni99  1  0.58182700  0.91615800  0.25830000  1
  Ni  Ni100  1  0.91615800  0.25830000  0.58182700  1
  Ni  Ni101  1  0.98754100  0.42212800  0.83504200  1
  Cu  Cu102  1  0.12500000  0.75000000  0.87500000  1
  Cu  Cu103  1  0.75000000  0.87500000  0.12500000  1
  Cu  Cu104  1  0.25000000  0.62500000  0.37500000  1
  Cu  Cu105  1  0.87500000  0.12500000  0.75000000  1
  Cu  Cu106  1  0.62500000  0.37500000  0.25000000  1
  Cu  Cu107  1  0.37500000  0.25000000  0.62500000  1
  C  C108  1  0.23702200  0.31760900  0.94525000  1
  C  C109  1  0.44525000  0.81760900  0.73702200  1
  C  C110  1  0.35844700  0.04568300  0.98629700  1
  C  C111  1  0.81276400  0.94061300  0.45431700  1
  C  C112  1  0.12784900  0.68723600  0.14155300  1
  C  C113  1  0.45431700  0.81276400  0.94061300  1
  C  C114  1  0.76297800  0.58058700  0.70822800  1
  C  C115  1  0.58058700  0.70822800  0.76297800  1
  C  C116  1  0.44061300  0.31276400  0.95431700  1
  C  C117  1  0.01370300  0.87215100  0.05938700  1
  C  C118  1  0.68723600  0.14155300  0.12784900  1
  C  C119  1  0.14155300  0.12784900  0.68723600  1
  C  C120  1  0.51370300  0.55938700  0.37215100  1
  C  C121  1  0.20822800  0.08058700  0.26297800  1
  C  C122  1  0.41941300  0.62764100  0.18239100  1
  C  C123  1  0.04568300  0.98629700  0.35844700  1
  C  C124  1  0.29177200  0.55475000  0.87235900  1
  C  C125  1  0.64155300  0.18723600  0.62784900  1
  C  C126  1  0.05938700  0.01370300  0.87215100  1
  C  C127  1  0.55475000  0.87235900  0.29177200  1
  C  C128  1  0.62784900  0.64155300  0.18723600  1
  C  C129  1  0.18723600  0.62784900  0.64155300  1
  C  C130  1  0.37215100  0.51370300  0.55938700  1
  C  C131  1  0.95431700  0.44061300  0.31276400  1
  C  C132  1  0.37235900  0.05475000  0.79177200  1
  C  C133  1  0.54568300  0.85844700  0.48629700  1
  C  C134  1  0.48629700  0.54568300  0.85844700  1
  C  C135  1  0.12764100  0.91941300  0.68239100  1
  C  C136  1  0.85844700  0.48629700  0.54568300  1
  C  C137  1  0.73702200  0.44525000  0.81760900  1
  C  C138  1  0.98629700  0.35844700  0.04568300  1
  C  C139  1  0.87235900  0.29177200  0.55475000  1
  C  C140  1  0.31276400  0.95431700  0.44061300  1
  C  C141  1  0.08058700  0.26297800  0.20822800  1
  C  C142  1  0.91941300  0.68239100  0.12764100  1
  C  C143  1  0.62764100  0.18239100  0.41941300  1
  C  C144  1  0.05475000  0.79177200  0.37235900  1
  C  C145  1  0.18239100  0.41941300  0.62764100  1
  C  C146  1  0.68239100  0.12764100  0.91941300  1
  C  C147  1  0.70822800  0.76297800  0.58058700  1
  C  C148  1  0.87215100  0.05938700  0.01370300  1
  C  C149  1  0.31760900  0.94525000  0.23702200  1
  C  C150  1  0.79177200  0.37235900  0.05475000  1
  C  C151  1  0.81760900  0.73702200  0.44525000  1
  C  C152  1  0.55938700  0.37215100  0.51370300  1
  C  C153  1  0.26297800  0.20822800  0.08058700  1
  C  C154  1  0.94061300  0.45431700  0.81276400  1
  C  C155  1  0.94525000  0.23702200  0.31760900  1
