# generated using pymatgen
data_Cu(NiC2)2
_symmetry_space_group_name_H-M   'P 1'
_cell_length_a   7.95522800
_cell_length_b   8.38743900
_cell_length_c   20.60643700
_cell_angle_alpha   90.00000000
_cell_angle_beta   90.00000000
_cell_angle_gamma   90.00000000
_symmetry_Int_Tables_number   1
_chemical_formula_structural   Cu(NiC2)2
_chemical_formula_sum   'Cu8 Ni16 C32'
_cell_volume   1374.94368769
_cell_formula_units_Z   8
loop_
 _symmetry_equiv_pos_site_id
 _symmetry_equiv_pos_as_xyz
  1  'x, y, z'
loop_
 _atom_site_type_symbol
 _atom_site_label
 _atom_site_symmetry_multiplicity
 _atom_site_fract_x
 _atom_site_fract_y
 _atom_site_fract_z
 _atom_site_occupancy
  Ni  Ni0  1  0.42015900  0.58346400  0.09653500  1
  Ni  Ni1  1  0.92015900  0.41653600  0.40346500  1
  Ni  Ni2  1  0.92015900  0.91653600  0.09653500  1
  Ni  Ni3  1  0.07984100  0.58346400  0.59653500  1
  Ni  Ni4  1  0.69152300  0.99992100  0.70289700  1
  Ni  Ni5  1  0.30847700  0.50007900  0.20289700  1
  Ni  Ni6  1  0.80847700  0.99992100  0.20289700  1
  Ni  Ni7  1  0.42015900  0.08346400  0.40346500  1
  Ni  Ni8  1  0.07984100  0.08346400  0.90346500  1
  Ni  Ni9  1  0.19152300  0.50007900  0.70289700  1
  Ni  Ni10  1  0.57984100  0.91653600  0.59653500  1
  Ni  Ni11  1  0.69152300  0.49992100  0.79710300  1
  Ni  Ni12  1  0.30847700  0.00007900  0.29710300  1
  Ni  Ni13  1  0.19152300  0.00007900  0.79710300  1
  Ni  Ni14  1  0.80847700  0.49992100  0.29710300  1
  Ni  Ni15  1  0.57984100  0.41653600  0.90346500  1
  Cu  Cu16  1  0.56341200  0.75893200  0.87948400  1
  Cu  Cu17  1  0.06341200  0.24106800  0.62051600  1
  Cu  Cu18  1  0.43658800  0.74106800  0.37948400  1
  Cu  Cu19  1  0.06341200  0.74106800  0.87948400  1
  Cu  Cu20  1  0.93658800  0.25893200  0.12051600  1
  Cu  Cu21  1  0.56341200  0.25893200  0.62051600  1
  Cu  Cu22  1  0.93658800  0.75893200  0.37948400  1
  Cu  Cu23  1  0.43658800  0.24106800  0.12051600  1
  C  C24  1  0.51159300  0.11622800  0.57487200  1
  C  C25  1  0.01159200  0.88377200  0.92512800  1
  C  C26  1  0.48840700  0.88377200  0.42512800  1
  C  C27  1  0.15111600  0.29295500  0.68459300  1
  C  C28  1  0.15111600  0.79295500  0.81540700  1
  C  C29  1  0.34888400  0.29295500  0.18459300  1
  C  C30  1  0.84888400  0.20704500  0.18459300  1
  C  C31  1  0.65111600  0.70704500  0.81540700  1
  C  C32  1  0.98840700  0.11622800  0.07487200  1
  C  C33  1  0.34888400  0.79295500  0.31540700  1
  C  C34  1  0.01159200  0.38377200  0.57487200  1
  C  C35  1  0.98840700  0.61622800  0.42512800  1
  C  C36  1  0.48840700  0.38377200  0.07487200  1
  C  C37  1  0.65111600  0.20704500  0.68459300  1
  C  C38  1  0.84888400  0.70704500  0.31540700  1
  C  C39  1  0.51159300  0.61622800  0.92512800  1
  C  C40  1  0.26031600  0.36738300  0.83923400  1
  C  C41  1  0.32523000  0.57318600  0.53576000  1
  C  C42  1  0.82523000  0.92681400  0.53576000  1
  C  C43  1  0.26031600  0.86738300  0.66076600  1
  C  C44  1  0.73968400  0.63261700  0.16076600  1
  C  C45  1  0.82523000  0.42681400  0.96424000  1
  C  C46  1  0.67477000  0.42681400  0.46424000  1
  C  C47  1  0.67477000  0.92681400  0.03576000  1
  C  C48  1  0.76031600  0.13261700  0.83923400  1
  C  C49  1  0.73968400  0.13261700  0.33923400  1
  C  C50  1  0.17477000  0.57318600  0.03576000  1
  C  C51  1  0.23968400  0.86738300  0.16076600  1
  C  C52  1  0.17477000  0.07318600  0.46424000  1
  C  C53  1  0.23968400  0.36738300  0.33923400  1
  C  C54  1  0.32523000  0.07318600  0.96424000  1
  C  C55  1  0.76031600  0.63261700  0.66076600  1
