# generated using pymatgen
data_Cu7(Ni4C13)2
_symmetry_space_group_name_H-M   'P 1'
_cell_length_a   12.80998492
_cell_length_b   12.80998492
_cell_length_c   14.62561772
_cell_angle_alpha   31.04608267
_cell_angle_beta   31.04608267
_cell_angle_gamma   34.57584985
_symmetry_Int_Tables_number   1
_chemical_formula_structural   Cu7(Ni4C13)2
_chemical_formula_sum   'Cu7 Ni8 C26'
_cell_volume   601.24243761
_cell_formula_units_Z   1
loop_
 _symmetry_equiv_pos_site_id
 _symmetry_equiv_pos_as_xyz
  1  'x, y, z'
loop_
 _atom_site_type_symbol
 _atom_site_label
 _atom_site_symmetry_multiplicity
 _atom_site_fract_x
 _atom_site_fract_y
 _atom_site_fract_z
 _atom_site_occupancy
  Ni  Ni0  1  0.00000000  0.00000000  0.00000000  1
  Ni  Ni1  1  0.00000000  0.50000000  0.50000000  1
  Ni  Ni2  1  0.99461400  0.99461400  0.76405600  1
  Ni  Ni3  1  0.50000000  0.00000000  0.50000000  1
  Ni  Ni4  1  0.00000000  0.50000000  0.00000000  1
  Ni  Ni5  1  0.50000000  0.00000000  0.00000000  1
  Ni  Ni6  1  0.00000000  0.00000000  0.50000000  1
  Ni  Ni7  1  0.00538600  0.00538600  0.23594400  1
  Cu  Cu8  1  0.48113800  0.48113800  0.77469300  1
  Cu  Cu9  1  0.50000000  0.50000000  0.50000000  1
  Cu  Cu10  1  0.00487000  0.50255100  0.25999400  1
  Cu  Cu11  1  0.51886200  0.51886200  0.22530700  1
  Cu  Cu12  1  0.50255100  0.00487000  0.25999400  1
  Cu  Cu13  1  0.99513000  0.49744900  0.74000600  1
  Cu  Cu14  1  0.49744900  0.99513000  0.74000600  1
  C  C15  1  0.13102800  0.13102800  0.67332800  1
  C  C16  1  0.15965500  0.15965500  0.39874700  1
  C  C17  1  0.59120800  0.14476300  0.19457500  1
  C  C18  1  0.12806100  0.12806100  0.18252300  1
  C  C19  1  0.58477100  0.15808000  0.96725300  1
  C  C20  1  0.14476300  0.59120800  0.19457500  1
  C  C21  1  0.15808000  0.58477100  0.96725300  1
  C  C22  1  0.15806500  0.15806500  0.88565800  1
  C  C23  1  0.40102400  0.40102400  0.77390200  1
  C  C24  1  0.81037600  0.43132200  0.56489200  1
  C  C25  1  0.58827300  0.16544200  0.66099300  1
  C  C26  1  0.83455800  0.41172700  0.33900700  1
  C  C27  1  0.56867800  0.18962400  0.43510800  1
  C  C28  1  0.16544200  0.58827300  0.66099300  1
  C  C29  1  0.43132200  0.81037600  0.56489200  1
  C  C30  1  0.18962400  0.56867800  0.43510800  1
  C  C31  1  0.84193500  0.84193500  0.11434200  1
  C  C32  1  0.59897600  0.59897600  0.22609800  1
  C  C33  1  0.41172700  0.83455800  0.33900700  1
  C  C34  1  0.84192000  0.41522900  0.03274700  1
  C  C35  1  0.85523700  0.40879200  0.80542500  1
  C  C36  1  0.41522900  0.84192000  0.03274700  1
  C  C37  1  0.87193900  0.87193900  0.81747700  1
  C  C38  1  0.40879200  0.85523700  0.80542500  1
  C  C39  1  0.84034500  0.84034500  0.60125300  1
  C  C40  1  0.86897200  0.86897200  0.32667200  1
