# generated using pymatgen
data_Cu3Ni2C15
_symmetry_space_group_name_H-M   'P 1'
_cell_length_a   8.87513384
_cell_length_b   8.87513384
_cell_length_c   9.25401976
_cell_angle_alpha   63.64111874
_cell_angle_beta   63.64111874
_cell_angle_gamma   63.32593937
_symmetry_Int_Tables_number   1
_chemical_formula_structural   Cu3Ni2C15
_chemical_formula_sum   'Cu6 Ni4 C30'
_cell_volume   555.70615230
_cell_formula_units_Z   2
loop_
 _symmetry_equiv_pos_site_id
 _symmetry_equiv_pos_as_xyz
  1  'x, y, z'
loop_
 _atom_site_type_symbol
 _atom_site_label
 _atom_site_symmetry_multiplicity
 _atom_site_fract_x
 _atom_site_fract_y
 _atom_site_fract_z
 _atom_site_occupancy
  C  C0  1  0.10817900  0.89182100  0.25000000  1
  C  C1  1  0.53915700  0.82195200  0.21028900  1
  C  C2  1  0.82195200  0.53915700  0.71028900  1
  C  C3  1  0.46084300  0.17804800  0.78971100  1
  C  C4  1  0.17804800  0.46084300  0.28971100  1
  C  C5  1  0.89182100  0.10817900  0.75000000  1
  Ni  Ni6  1  0.84747400  0.33751100  0.35691800  1
  Ni  Ni7  1  0.15252600  0.66248900  0.64308200  1
  Ni  Ni8  1  0.33751100  0.84747400  0.85691800  1
  Ni  Ni9  1  0.66248900  0.15252600  0.14308200  1
  Cu  Cu10  1  0.75325600  0.95674600  0.57555400  1
  Cu  Cu11  1  0.24674400  0.04325400  0.42444600  1
  Cu  Cu12  1  0.58251400  0.41748600  0.75000000  1
  Cu  Cu13  1  0.95674600  0.75325600  0.07555400  1
  Cu  Cu14  1  0.04325400  0.24674400  0.92444600  1
  Cu  Cu15  1  0.41748600  0.58251400  0.25000000  1
  C  C16  1  0.92683400  0.17889400  0.89798200  1
  C  C17  1  0.23232300  0.59501900  0.39235500  1
  C  C18  1  0.40498100  0.76767700  0.10764500  1
  C  C19  1  0.76767700  0.40498100  0.60764500  1
  C  C20  1  0.02709700  0.76021900  0.88820800  1
  C  C21  1  0.82110600  0.07316600  0.60201800  1
  C  C22  1  0.76021900  0.02709700  0.38820800  1
  C  C23  1  0.23978100  0.97290300  0.61179200  1
  C  C24  1  0.24093700  0.12775500  0.88200300  1
  C  C25  1  0.97290300  0.23978100  0.11179200  1
  C  C26  1  0.44546100  0.43518200  0.18577400  1
  C  C27  1  0.17889400  0.92683400  0.39798200  1
  C  C28  1  0.56175100  0.97273500  0.70057600  1
  C  C29  1  0.43824900  0.02726500  0.29942400  1
  C  C30  1  0.02726500  0.43824900  0.79942400  1
  C  C31  1  0.55453900  0.56481800  0.81422600  1
  C  C32  1  0.12775500  0.24093700  0.38200300  1
  C  C33  1  0.97273500  0.56175100  0.20057600  1
  C  C34  1  0.87224500  0.75906300  0.61799700  1
  C  C35  1  0.59501900  0.23232300  0.89235500  1
  C  C36  1  0.56481800  0.55453900  0.31422600  1
  C  C37  1  0.43518200  0.44546100  0.68577400  1
  C  C38  1  0.75906300  0.87224500  0.11799700  1
  C  C39  1  0.07316600  0.82110600  0.10201800  1
