# generated using pymatgen
data_Cu4Ni13C2
_symmetry_space_group_name_H-M   'P 1'
_cell_length_a   14.90987947
_cell_length_b   14.90987947
_cell_length_c   13.91858800
_cell_angle_alpha   90.00000000
_cell_angle_beta   90.00000000
_cell_angle_gamma   162.47097394
_symmetry_Int_Tables_number   1
_chemical_formula_structural   Cu4Ni13C2
_chemical_formula_sum   'Cu8 Ni26 C4'
_cell_volume   931.92814460
_cell_formula_units_Z   2
loop_
 _symmetry_equiv_pos_site_id
 _symmetry_equiv_pos_as_xyz
  1  'x, y, z'
loop_
 _atom_site_type_symbol
 _atom_site_label
 _atom_site_symmetry_multiplicity
 _atom_site_fract_x
 _atom_site_fract_y
 _atom_site_fract_z
 _atom_site_occupancy
  C  C0  1  0.74821100  0.25178900  0.57183900  1
  C  C1  1  0.54010800  0.45989200  0.89395600  1
  C  C2  1  0.25178900  0.74821100  0.07183900  1
  C  C3  1  0.45989200  0.54010800  0.39395600  1
  Ni  Ni4  1  0.65549900  0.34450100  0.07222200  1
  Ni  Ni5  1  0.50253400  0.49746600  0.64077900  1
  Ni  Ni6  1  0.21533400  0.78466600  0.37732600  1
  Ni  Ni7  1  0.84912300  0.15087700  0.05724200  1
  Ni  Ni8  1  0.13698200  0.86301800  0.90750700  1
  Ni  Ni9  1  0.86047100  0.13952900  0.72803100  1
  Ni  Ni10  1  0.64719300  0.35280700  0.72979700  1
  Ni  Ni11  1  0.96321200  0.03678800  0.78693900  1
  Ni  Ni12  1  0.34450100  0.65549900  0.57222200  1
  Ni  Ni13  1  0.22517900  0.77482100  0.78827700  1
  Ni  Ni14  1  0.78466600  0.21533400  0.87732600  1
  Ni  Ni15  1  0.77482100  0.22517900  0.28827700  1
  Ni  Ni16  1  0.38529500  0.61470500  0.89494400  1
  Ni  Ni17  1  0.93202200  0.06797800  0.57117400  1
  Ni  Ni18  1  0.06797800  0.93202200  0.07117400  1
  Ni  Ni19  1  0.04501600  0.95498400  0.49734300  1
  Ni  Ni20  1  0.49746600  0.50253400  0.14077900  1
  Ni  Ni21  1  0.15087700  0.84912300  0.55724200  1
  Ni  Ni22  1  0.61470500  0.38529500  0.39494400  1
  Ni  Ni23  1  0.13952900  0.86047100  0.22803100  1
  Ni  Ni24  1  0.35280700  0.64719300  0.22979700  1
  Ni  Ni25  1  0.92840100  0.07159900  0.21491500  1
  Ni  Ni26  1  0.03678800  0.96321200  0.28693900  1
  Ni  Ni27  1  0.86301800  0.13698200  0.40750700  1
  Ni  Ni28  1  0.95498400  0.04501600  0.99734300  1
  Ni  Ni29  1  0.07159900  0.92840100  0.71491500  1
  Cu  Cu30  1  0.69133800  0.30866200  0.89393800  1
  Cu  Cu31  1  0.41808100  0.58191900  0.70240900  1
  Cu  Cu32  1  0.68490600  0.31509400  0.26441000  1
  Cu  Cu33  1  0.58849400  0.41150600  0.58235900  1
  Cu  Cu34  1  0.30866200  0.69133800  0.39393800  1
  Cu  Cu35  1  0.58191900  0.41808100  0.20240900  1
  Cu  Cu36  1  0.31509400  0.68490600  0.76441000  1
  Cu  Cu37  1  0.41150600  0.58849400  0.08235900  1
