# generated using pymatgen
data_CuNiC5
_symmetry_space_group_name_H-M   'P 1'
_cell_length_a   7.76769011
_cell_length_b   7.76769011
_cell_length_c   9.95878400
_cell_angle_alpha   90.00000000
_cell_angle_beta   90.00000000
_cell_angle_gamma   120.00000097
_symmetry_Int_Tables_number   1
_chemical_formula_structural   CuNiC5
_chemical_formula_sum   'Cu6 Ni6 C30'
_cell_volume   520.38015139
_cell_formula_units_Z   6
loop_
 _symmetry_equiv_pos_site_id
 _symmetry_equiv_pos_as_xyz
  1  'x, y, z'
loop_
 _atom_site_type_symbol
 _atom_site_label
 _atom_site_symmetry_multiplicity
 _atom_site_fract_x
 _atom_site_fract_y
 _atom_site_fract_z
 _atom_site_occupancy
  Ni  Ni0  1  0.97399300  0.44824200  0.49024100  1
  Ni  Ni1  1  0.55175800  0.52575200  0.49024100  1
  Ni  Ni2  1  0.47424800  0.02600700  0.49024100  1
  Ni  Ni3  1  0.44824200  0.97399300  0.99024100  1
  Ni  Ni4  1  0.52575200  0.55175800  0.99024100  1
  Ni  Ni5  1  0.02600700  0.47424800  0.99024100  1
  Cu  Cu6  1  0.03376500  0.78753600  0.75990500  1
  Cu  Cu7  1  0.21246400  0.24622900  0.75990500  1
  Cu  Cu8  1  0.75377100  0.96623500  0.75990500  1
  Cu  Cu9  1  0.78753600  0.03376500  0.25990500  1
  Cu  Cu10  1  0.24622900  0.21246400  0.25990500  1
  Cu  Cu11  1  0.96623500  0.75377100  0.25990500  1
  C  C12  1  0.00000000  0.00000000  0.99929700  1
  C  C13  1  0.00000000  0.00000000  0.49929700  1
  C  C14  1  0.66666700  0.33333300  0.19758100  1
  C  C15  1  0.33333300  0.66666700  0.69758100  1
  C  C16  1  0.33333300  0.66666700  0.26419400  1
  C  C17  1  0.66666700  0.33333300  0.76419400  1
  C  C18  1  0.48133600  0.32278000  0.81513100  1
  C  C19  1  0.67722000  0.15855600  0.81513100  1
  C  C20  1  0.84144400  0.51866400  0.81513100  1
  C  C21  1  0.32278000  0.48133600  0.31513100  1
  C  C22  1  0.15855600  0.67722000  0.31513100  1
  C  C23  1  0.51866400  0.84144400  0.31513100  1
  C  C24  1  0.00000000  0.00000000  0.15200600  1
  C  C25  1  0.00000000  0.00000000  0.65200600  1
  C  C26  1  0.66666700  0.33333300  0.34671000  1
  C  C27  1  0.33333300  0.66666700  0.84671000  1
  C  C28  1  0.33333300  0.66666700  0.11469900  1
  C  C29  1  0.66666700  0.33333300  0.61469900  1
  C  C30  1  0.79131900  0.88825200  0.94965200  1
  C  C31  1  0.11174800  0.90306700  0.94965200  1
  C  C32  1  0.09693300  0.20868100  0.94965200  1
  C  C33  1  0.88825200  0.79131900  0.44965200  1
  C  C34  1  0.90306700  0.11174800  0.44965200  1
  C  C35  1  0.20868100  0.09693300  0.44965200  1
  C  C36  1  0.76841300  0.54190900  0.14557500  1
  C  C37  1  0.45809100  0.22650400  0.14557500  1
  C  C38  1  0.77349600  0.23158700  0.14557500  1
  C  C39  1  0.54190900  0.76841300  0.64557500  1
  C  C40  1  0.22650400  0.45809100  0.64557500  1
  C  C41  1  0.23158700  0.77349600  0.64557500  1
