# generated using pymatgen
data_CuNiC16
_symmetry_space_group_name_H-M   'P 1'
_cell_length_a   13.42166600
_cell_length_b   7.36023100
_cell_length_c   12.53471168
_cell_angle_alpha   54.33528883
_cell_angle_beta   90.00000000
_cell_angle_gamma   90.00000000
_symmetry_Int_Tables_number   1
_chemical_formula_structural   CuNiC16
_chemical_formula_sum   'Cu4 Ni4 C64'
_cell_volume   1006.01626943
_cell_formula_units_Z   4
loop_
 _symmetry_equiv_pos_site_id
 _symmetry_equiv_pos_as_xyz
  1  'x, y, z'
loop_
 _atom_site_type_symbol
 _atom_site_label
 _atom_site_symmetry_multiplicity
 _atom_site_fract_x
 _atom_site_fract_y
 _atom_site_fract_z
 _atom_site_occupancy
  Ni  Ni0  1  0.27896500  0.93498500  0.56471400  1
  Ni  Ni1  1  0.77896500  0.06501500  0.93528600  1
  Ni  Ni2  1  0.72103500  0.06501500  0.43528600  1
  Ni  Ni3  1  0.22103500  0.93498500  0.06471400  1
  Cu  Cu4  1  0.22045100  0.53542400  0.97775300  1
  Cu  Cu5  1  0.72045100  0.46457600  0.52224700  1
  Cu  Cu6  1  0.77954900  0.46457600  0.02224700  1
  Cu  Cu7  1  0.27954900  0.53542400  0.47775300  1
  C  C8  1  0.40985400  0.57110000  0.20024200  1
  C  C9  1  0.90985400  0.42890000  0.29975800  1
  C  C10  1  0.59014600  0.42890000  0.79975800  1
  C  C11  1  0.09014600  0.57110000  0.70024200  1
  C  C12  1  0.37405800  0.33653100  0.80504500  1
  C  C13  1  0.87405800  0.66346900  0.69495500  1
  C  C14  1  0.62594200  0.66346900  0.19495500  1
  C  C15  1  0.12594200  0.33653100  0.30504500  1
  C  C16  1  0.38629200  0.11608400  0.26622000  1
  C  C17  1  0.88629200  0.88391600  0.23378000  1
  C  C18  1  0.61370800  0.88391600  0.73378000  1
  C  C19  1  0.11370800  0.11608400  0.76622000  1
  C  C20  1  0.40016600  0.00636100  0.74170300  1
  C  C21  1  0.90016700  0.99363900  0.75829700  1
  C  C22  1  0.59983400  0.99363900  0.25829700  1
  C  C23  1  0.09983400  0.00636100  0.24170300  1
  C  C24  1  0.38888100  0.63357100  0.29271400  1
  C  C25  1  0.88888100  0.36642900  0.20728600  1
  C  C26  1  0.61111900  0.36642900  0.70728600  1
  C  C27  1  0.11111900  0.63357100  0.79271400  1
  C  C28  1  0.35467600  0.91367000  0.39814000  1
  C  C29  1  0.85467600  0.08633000  0.10186000  1
  C  C30  1  0.64532400  0.08633000  0.60186000  1
  C  C31  1  0.14532400  0.91367000  0.89814000  1
  C  C32  1  0.39052700  0.18725200  0.59678000  1
  C  C33  1  0.89052700  0.81274800  0.90322000  1
  C  C34  1  0.60947300  0.81274800  0.40322000  1
  C  C35  1  0.10947300  0.18725200  0.09678000  1
  C  C36  1  0.37914800  0.09493800  0.83020800  1
  C  C37  1  0.87914800  0.90506200  0.66979200  1
  C  C38  1  0.62085200  0.90506200  0.16979200  1
  C  C39  1  0.12085200  0.09493800  0.33020800  1
  C  C40  1  0.13437800  0.51862700  0.16079800  1
  C  C41  1  0.33692800  0.80094300  0.79439600  1
  C  C42  1  0.63437800  0.48137300  0.33920200  1
  C  C43  1  0.36562200  0.51862700  0.66079800  1
  C  C44  1  0.47979200  0.34891100  0.86203400  1
  C  C45  1  0.97979200  0.65108900  0.63796600  1
  C  C46  1  0.52020800  0.65108900  0.13796600  1
  C  C47  1  0.02020800  0.34891100  0.36203400  1
  C  C48  1  0.98637600  0.92919900  0.28410700  1
  C  C49  1  0.48637600  0.07080100  0.21589300  1
  C  C50  1  0.01362400  0.07080100  0.71589300  1
  C  C51  1  0.51362400  0.92919900  0.78410700  1
  C  C52  1  0.16001600  0.65701700  0.58658800  1
  C  C53  1  0.66001600  0.34298300  0.91341200  1
  C  C54  1  0.83998400  0.34298300  0.41341200  1
  C  C55  1  0.33998400  0.65701700  0.08658800  1
  C  C56  1  0.18598400  0.21335300  0.65461300  1
  C  C57  1  0.68598400  0.78664700  0.84538700  1
  C  C58  1  0.81401600  0.78664700  0.34538700  1
  C  C59  1  0.31401600  0.21335300  0.15461300  1
  C  C60  1  0.20478600  0.31198600  0.39787400  1
  C  C61  1  0.70478600  0.68801400  0.10212600  1
  C  C62  1  0.79521400  0.68801400  0.60212600  1
  C  C63  1  0.29521400  0.31198600  0.89787400  1
  C  C64  1  0.07965700  0.30175200  0.78869700  1
  C  C65  1  0.57965700  0.69824800  0.71130300  1
  C  C66  1  0.92034300  0.69824800  0.21130300  1
  C  C67  1  0.42034300  0.30175200  0.28869700  1
  C  C68  1  0.16307200  0.80094300  0.29439600  1
  C  C69  1  0.66307200  0.19905700  0.20560400  1
  C  C70  1  0.83692800  0.19905700  0.70560400  1
  C  C71  1  0.86562200  0.48137300  0.83920200  1
