# generated using pymatgen
data_CuNiC40
_symmetry_space_group_name_H-M   'P 1'
_cell_length_a   11.73601723
_cell_length_b   11.73601723
_cell_length_c   11.73601698
_cell_angle_alpha   62.50463704
_cell_angle_beta   62.50463704
_cell_angle_gamma   62.50463825
_symmetry_Int_Tables_number   1
_chemical_formula_structural   CuNiC40
_chemical_formula_sum   'Cu2 Ni2 C80'
_cell_volume   1206.79877196
_cell_formula_units_Z   2
loop_
 _symmetry_equiv_pos_site_id
 _symmetry_equiv_pos_as_xyz
  1  'x, y, z'
loop_
 _atom_site_type_symbol
 _atom_site_label
 _atom_site_symmetry_multiplicity
 _atom_site_fract_x
 _atom_site_fract_y
 _atom_site_fract_z
 _atom_site_occupancy
  Ni  Ni0  1  0.41451100  0.41451100  0.41451100  1
  Ni  Ni1  1  0.58548900  0.58548900  0.58548900  1
  Cu  Cu2  1  0.20656100  0.20656100  0.20656100  1
  Cu  Cu3  1  0.79343900  0.79343900  0.79343900  1
  C  C4  1  0.14948300  0.75093900  0.19690000  1
  C  C5  1  0.19690000  0.14948300  0.75093900  1
  C  C6  1  0.72670400  0.98079700  0.03850400  1
  C  C7  1  0.85051700  0.24906100  0.80310000  1
  C  C8  1  0.80310000  0.85051700  0.24906100  1
  C  C9  1  0.24906100  0.80310000  0.85051700  1
  C  C10  1  0.98079700  0.03850400  0.72670400  1
  C  C11  1  0.75093900  0.19690000  0.14948300  1
  C  C12  1  0.27329600  0.01920300  0.96149600  1
  C  C13  1  0.96149600  0.27329600  0.01920300  1
  C  C14  1  0.01920300  0.96149600  0.27329600  1
  C  C15  1  0.03850400  0.72670400  0.98079700  1
  C  C16  1  0.29799300  0.51234500  0.05321100  1
  C  C17  1  0.74176800  0.67716500  0.16102500  1
  C  C18  1  0.70200700  0.48765500  0.94678900  1
  C  C19  1  0.25823200  0.32283500  0.83897500  1
  C  C20  1  0.67716500  0.16102500  0.74176800  1
  C  C21  1  0.05321100  0.29799300  0.51234500  1
  C  C22  1  0.32283500  0.83897500  0.25823200  1
  C  C23  1  0.48765500  0.94678900  0.70200700  1
  C  C24  1  0.16102500  0.74176800  0.67716500  1
  C  C25  1  0.94678900  0.70200700  0.48765500  1
  C  C26  1  0.83897500  0.25823200  0.32283500  1
  C  C27  1  0.51234500  0.05321100  0.29799300  1
  C  C28  1  0.06888700  0.37757200  0.37185800  1
  C  C29  1  0.81854800  0.07811800  0.67199500  1
  C  C30  1  0.37265700  0.92760500  0.11757800  1
  C  C31  1  0.88242200  0.62734300  0.07239500  1
  C  C32  1  0.00312200  0.23995500  0.84701800  1
  C  C33  1  0.66471100  0.58892200  0.21004600  1
  C  C34  1  0.23995500  0.84701800  0.00312200  1
  C  C35  1  0.74770900  0.69221900  0.28094800  1
  C  C36  1  0.39672500  0.08209100  0.63498400  1
  C  C37  1  0.15957400  0.53352800  0.05252900  1
  C  C38  1  0.21004600  0.66471100  0.58892200  1
  C  C39  1  0.44748700  0.83424300  0.72008400  1
  C  C40  1  0.94747100  0.84042600  0.46647200  1
  C  C41  1  0.71905200  0.25229100  0.30778100  1
  C  C42  1  0.37757200  0.37185800  0.06888700  1
  C  C43  1  0.69221900  0.28094800  0.74770900  1
  C  C44  1  0.30778100  0.71905200  0.25229100  1
  C  C45  1  0.05252900  0.15957400  0.53352800  1
  C  C46  1  0.92188200  0.32800500  0.18145200  1
  C  C47  1  0.63498400  0.39672500  0.08209100  1
  C  C48  1  0.11757800  0.37265700  0.92760500  1
  C  C49  1  0.76004500  0.15298200  0.99687800  1
  C  C50  1  0.07239500  0.88242200  0.62734300  1
  C  C51  1  0.37185800  0.06888700  0.37757200  1
  C  C52  1  0.72008400  0.44748700  0.83424300  1
  C  C53  1  0.27991600  0.55251300  0.16575700  1
  C  C54  1  0.18145200  0.92188200  0.32800500  1
  C  C55  1  0.90611100  0.90611100  0.90611100  1
  C  C56  1  0.62814200  0.93111300  0.62242800  1
  C  C57  1  0.15298200  0.99687800  0.76004500  1
  C  C58  1  0.09388900  0.09388900  0.09388900  1
  C  C59  1  0.78995400  0.33528900  0.41107800  1
  C  C60  1  0.07811800  0.67199500  0.81854800  1
  C  C61  1  0.60327500  0.91790900  0.36501600  1
  C  C62  1  0.91790900  0.36501600  0.60327500  1
  C  C63  1  0.62734300  0.07239500  0.88242200  1
  C  C64  1  0.28094800  0.74770900  0.69221900  1
  C  C65  1  0.46647200  0.94747100  0.84042600  1
  C  C66  1  0.62242800  0.62814200  0.93111300  1
  C  C67  1  0.33528900  0.41107800  0.78995400  1
  C  C68  1  0.25229100  0.30778100  0.71905200  1
  C  C69  1  0.08209100  0.63498400  0.39672500  1
  C  C70  1  0.58892200  0.21004600  0.66471100  1
  C  C71  1  0.32800500  0.18145200  0.92188200  1
  C  C72  1  0.84042600  0.46647200  0.94747100  1
  C  C73  1  0.99687800  0.76004500  0.15298200  1
  C  C74  1  0.92760500  0.11757800  0.37265700  1
  C  C75  1  0.41107800  0.78995400  0.33528900  1
  C  C76  1  0.36501600  0.60327500  0.91790900  1
  C  C77  1  0.83424300  0.72008400  0.44748700  1
  C  C78  1  0.53352800  0.05252900  0.15957400  1
  C  C79  1  0.93111300  0.62242800  0.62814200  1
  C  C80  1  0.55251300  0.16575700  0.27991600  1
  C  C81  1  0.16575700  0.27991600  0.55251300  1
  C  C82  1  0.84701800  0.00312200  0.23995500  1
  C  C83  1  0.67199500  0.81854800  0.07811800  1
