# generated using pymatgen
data_Cu2NiC5
_symmetry_space_group_name_H-M   'P 1'
_cell_length_a   9.68486600
_cell_length_b   4.59229100
_cell_length_c   12.75871602
_cell_angle_alpha   69.05891777
_cell_angle_beta   90.00000000
_cell_angle_gamma   90.00000000
_symmetry_Int_Tables_number   1
_chemical_formula_structural   Cu2NiC5
_chemical_formula_sum   'Cu8 Ni4 C20'
_cell_volume   529.97195880
_cell_formula_units_Z   4
loop_
 _symmetry_equiv_pos_site_id
 _symmetry_equiv_pos_as_xyz
  1  'x, y, z'
loop_
 _atom_site_type_symbol
 _atom_site_label
 _atom_site_symmetry_multiplicity
 _atom_site_fract_x
 _atom_site_fract_y
 _atom_site_fract_z
 _atom_site_occupancy
  Ni  Ni0  1  0.45833400  0.45047900  0.84714100  1
  Ni  Ni1  1  0.04166600  0.45047900  0.34714100  1
  Ni  Ni2  1  0.54166600  0.54952100  0.15285900  1
  Ni  Ni3  1  0.95833400  0.54952100  0.65285900  1
  Cu  Cu4  1  0.74970000  0.90854100  0.88652000  1
  Cu  Cu5  1  0.64494500  0.14468600  0.58106100  1
  Cu  Cu6  1  0.85505500  0.14468600  0.08106100  1
  Cu  Cu7  1  0.14494500  0.85531400  0.91893900  1
  Cu  Cu8  1  0.35505500  0.85531400  0.41893900  1
  Cu  Cu9  1  0.24970000  0.09145900  0.61348000  1
  Cu  Cu10  1  0.25030000  0.09145900  0.11348000  1
  Cu  Cu11  1  0.75030000  0.90854100  0.38652000  1
  C  C12  1  0.34355500  0.18259600  0.47576300  1
  C  C13  1  0.41070800  0.23164700  0.05746000  1
  C  C14  1  0.84355500  0.81740400  0.02423700  1
  C  C15  1  0.91070800  0.76835300  0.44254000  1
  C  C16  1  0.08929200  0.23164700  0.55746000  1
  C  C17  1  0.15644500  0.18259600  0.97576300  1
  C  C18  1  0.58929200  0.76835300  0.94254000  1
  C  C19  1  0.95800200  0.96503200  0.19284600  1
  C  C20  1  0.80703100  0.11600400  0.63606900  1
  C  C21  1  0.23080600  0.70087600  0.65430200  1
  C  C22  1  0.30703100  0.88399600  0.86393100  1
  C  C23  1  0.04199800  0.03496800  0.80715400  1
  C  C24  1  0.26919400  0.70087600  0.15430200  1
  C  C25  1  0.54199800  0.96503200  0.69284600  1
  C  C26  1  0.19296900  0.88399600  0.36393100  1
  C  C27  1  0.76919400  0.29912400  0.34569800  1
  C  C28  1  0.73080600  0.29912400  0.84569800  1
  C  C29  1  0.69296900  0.11600400  0.13606900  1
  C  C30  1  0.65644500  0.81740400  0.52423700  1
  C  C31  1  0.45800200  0.03496800  0.30715400  1
