# generated using pymatgen
data_Cu(NiC6)4
_symmetry_space_group_name_H-M   'P 1'
_cell_length_a   14.17746172
_cell_length_b   14.17746172
_cell_length_c   14.17746113
_cell_angle_alpha   23.12808594
_cell_angle_beta   23.12808594
_cell_angle_gamma   23.12808292
_symmetry_Int_Tables_number   1
_chemical_formula_structural   Cu(NiC6)4
_chemical_formula_sum   'Cu1 Ni4 C24'
_cell_volume   385.91961152
_cell_formula_units_Z   1
loop_
 _symmetry_equiv_pos_site_id
 _symmetry_equiv_pos_as_xyz
  1  'x, y, z'
loop_
 _atom_site_type_symbol
 _atom_site_label
 _atom_site_symmetry_multiplicity
 _atom_site_fract_x
 _atom_site_fract_y
 _atom_site_fract_z
 _atom_site_occupancy
  C  C0  1  0.13810300  0.13810300  0.13810300  1
  C  C1  1  0.31223000  0.31223000  0.31223000  1
  C  C2  1  0.58398600  0.58398600  0.58398600  1
  C  C3  1  0.40964400  0.40964400  0.40964400  1
  C  C4  1  0.68485100  0.68485100  0.68485100  1
  C  C5  1  0.86077900  0.86077900  0.86077900  1
  Ni  Ni6  1  0.05233600  0.05233600  0.05233600  1
  Ni  Ni7  1  0.22187000  0.22187000  0.22187000  1
  Ni  Ni8  1  0.49802800  0.49802800  0.49802800  1
  Ni  Ni9  1  0.77531200  0.77531200  0.77531200  1
  Cu  Cu10  1  0.94891700  0.94891700  0.94891700  1
  C  C11  1  0.07821200  0.07821200  0.58574500  1
  C  C12  1  0.58574500  0.07821200  0.07821200  1
  C  C13  1  0.07821200  0.58574500  0.07821200  1
  C  C14  1  0.20192200  0.20192200  0.69394200  1
  C  C15  1  0.69394200  0.20192200  0.20192200  1
  C  C16  1  0.20192200  0.69394200  0.20192200  1
  C  C17  1  0.64223200  0.13700300  0.64223200  1
  C  C18  1  0.64223200  0.64223200  0.13700300  1
  C  C19  1  0.13700300  0.64223200  0.64223200  1
  C  C20  1  0.86174600  0.36000600  0.36000600  1
  C  C21  1  0.36000600  0.36000600  0.86174600  1
  C  C22  1  0.36000600  0.86174600  0.36000600  1
  C  C23  1  0.80418100  0.30868300  0.80418100  1
  C  C24  1  0.80418100  0.80418100  0.30868300  1
  C  C25  1  0.30868300  0.80418100  0.80418100  1
  C  C26  1  0.91480800  0.42410000  0.91480800  1
  C  C27  1  0.42410000  0.91480800  0.91480800  1
  C  C28  1  0.91480800  0.91480800  0.42410000  1
