# generated using pymatgen
data_Cu(Ni2C)2
_symmetry_space_group_name_H-M   'P 1'
_cell_length_a   8.45073080
_cell_length_b   8.45073080
_cell_length_c   8.45073080
_cell_angle_alpha   109.55082906
_cell_angle_beta   109.55082906
_cell_angle_gamma   109.31212083
_symmetry_Int_Tables_number   1
_chemical_formula_structural   Cu(Ni2C)2
_chemical_formula_sum   'Cu2 Ni8 C4'
_cell_volume   464.57774404
_cell_formula_units_Z   2
loop_
 _symmetry_equiv_pos_site_id
 _symmetry_equiv_pos_as_xyz
  1  'x, y, z'
loop_
 _atom_site_type_symbol
 _atom_site_label
 _atom_site_symmetry_multiplicity
 _atom_site_fract_x
 _atom_site_fract_y
 _atom_site_fract_z
 _atom_site_occupancy
  C  C0  1  0.37500000  0.99620600  0.12120600  1
  C  C1  1  0.87500000  0.25379400  0.87879400  1
  C  C2  1  0.74620600  0.62500000  0.62120600  1
  C  C3  1  0.00379400  0.12500000  0.37879400  1
  Ni  Ni4  1  0.11803300  0.52199300  0.74797100  1
  Ni  Ni5  1  0.12006200  0.02402200  0.75202900  1
  Ni  Ni6  1  0.63196700  0.87993800  0.90396000  1
  Ni  Ni7  1  0.27199300  0.36803300  0.24797100  1
  Ni  Ni8  1  0.47800700  0.22597800  0.59604000  1
  Ni  Ni9  1  0.77402200  0.37006200  0.25202900  1
  Ni  Ni10  1  0.62993800  0.88196700  0.40396000  1
  Ni  Ni11  1  0.97597800  0.72800700  0.09604000  1
  Cu  Cu12  1  0.25000000  0.75000000  0.50000000  1
  Cu  Cu13  1  0.50000000  0.50000000  0.00000000  1
