# generated using pymatgen
data_Cu2(Ni7C2)3
_symmetry_space_group_name_H-M   'P 1'
_cell_length_a   7.52635266
_cell_length_b   7.52635266
_cell_length_c   7.52635266
_cell_angle_alpha   60.00000000
_cell_angle_beta   60.00000000
_cell_angle_gamma   60.00000000
_symmetry_Int_Tables_number   1
_chemical_formula_structural   Cu2(Ni7C2)3
_chemical_formula_sum   'Cu2 Ni21 C6'
_cell_volume   301.46624639
_cell_formula_units_Z   1
loop_
 _symmetry_equiv_pos_site_id
 _symmetry_equiv_pos_as_xyz
  1  'x, y, z'
loop_
 _atom_site_type_symbol
 _atom_site_label
 _atom_site_symmetry_multiplicity
 _atom_site_fract_x
 _atom_site_fract_y
 _atom_site_fract_z
 _atom_site_occupancy
  Ni  Ni0  1  0.00000000  0.00000000  0.00000000  1
  Ni  Ni1  1  0.61596200  0.61596200  0.15211300  1
  Ni  Ni2  1  0.61596200  0.15211300  0.61596200  1
  Ni  Ni3  1  0.15211300  0.61596200  0.61596200  1
  Ni  Ni4  1  0.61596200  0.61596200  0.61596200  1
  Ni  Ni5  1  0.38403800  0.38403800  0.84788700  1
  Ni  Ni6  1  0.38403800  0.84788700  0.38403800  1
  Ni  Ni7  1  0.84788700  0.38403800  0.38403800  1
  Ni  Ni8  1  0.38403800  0.38403800  0.38403800  1
  Ni  Ni9  1  0.00000000  0.00000000  0.33761900  1
  Ni  Ni10  1  0.66238100  0.00000000  0.33761900  1
  Ni  Ni11  1  0.00000000  0.66238100  0.33761900  1
  Ni  Ni12  1  0.66238100  0.33761900  0.00000000  1
  Ni  Ni13  1  0.00000000  0.33761900  0.00000000  1
  Ni  Ni14  1  0.00000000  0.33761900  0.66238100  1
  Ni  Ni15  1  0.33761900  0.66238100  0.00000000  1
  Ni  Ni16  1  0.33761900  0.00000000  0.66238100  1
  Ni  Ni17  1  0.33761900  0.00000000  0.00000000  1
  Ni  Ni18  1  0.00000000  0.00000000  0.66238100  1
  Ni  Ni19  1  0.00000000  0.66238100  0.00000000  1
  Ni  Ni20  1  0.66238100  0.00000000  0.00000000  1
  Cu  Cu21  1  0.75000000  0.75000000  0.75000000  1
  Cu  Cu22  1  0.25000000  0.25000000  0.25000000  1
  C  C23  1  0.72396800  0.72396800  0.27603200  1
  C  C24  1  0.27603200  0.72396800  0.27603200  1
  C  C25  1  0.72396800  0.27603200  0.27603200  1
  C  C26  1  0.27603200  0.27603200  0.72396800  1
  C  C27  1  0.72396800  0.27603200  0.72396800  1
  C  C28  1  0.27603200  0.72396800  0.72396800  1
