# generated using pymatgen
data_Cu4Ni2C3
_symmetry_space_group_name_H-M   'P 1'
_cell_length_a   6.90181100
_cell_length_b   7.70586600
_cell_length_c   9.08559200
_cell_angle_alpha   90.00000000
_cell_angle_beta   90.00000000
_cell_angle_gamma   90.00000000
_symmetry_Int_Tables_number   1
_chemical_formula_structural   Cu4Ni2C3
_chemical_formula_sum   'Cu16 Ni8 C12'
_cell_volume   483.21203830
_cell_formula_units_Z   4
loop_
 _symmetry_equiv_pos_site_id
 _symmetry_equiv_pos_as_xyz
  1  'x, y, z'
loop_
 _atom_site_type_symbol
 _atom_site_label
 _atom_site_symmetry_multiplicity
 _atom_site_fract_x
 _atom_site_fract_y
 _atom_site_fract_z
 _atom_site_occupancy
  C  C0  1  0.42195700  0.21166700  0.83600100  1
  C  C1  1  0.92195700  0.28833300  0.16399900  1
  C  C2  1  0.07804300  0.78833300  0.33600100  1
  C  C3  1  0.57804300  0.71166700  0.66399900  1
  C  C4  1  0.49640300  0.06223300  0.30099000  1
  C  C5  1  0.99640300  0.43776700  0.69901000  1
  C  C6  1  0.00359700  0.93776700  0.80099000  1
  C  C7  1  0.50359700  0.56223300  0.19901000  1
  C  C8  1  0.76880600  0.70740900  0.00931600  1
  C  C9  1  0.26880600  0.79259100  0.99068400  1
  C  C10  1  0.73119400  0.29259100  0.50931600  1
  C  C11  1  0.23119400  0.20740900  0.49068400  1
  Ni  Ni12  1  0.42625900  0.12593600  0.20509000  1
  Ni  Ni13  1  0.92625900  0.37406400  0.79491000  1
  Ni  Ni14  1  0.07374100  0.87406400  0.70509000  1
  Ni  Ni15  1  0.57374100  0.62593600  0.29491000  1
  Ni  Ni16  1  0.75175300  0.85115900  0.01185600  1
  Ni  Ni17  1  0.25175300  0.64884100  0.98814400  1
  Ni  Ni18  1  0.74824700  0.14884100  0.51185600  1
  Ni  Ni19  1  0.24824700  0.35115900  0.48814400  1
  Cu  Cu20  1  0.25550400  0.07577500  0.17224100  1
  Cu  Cu21  1  0.75550400  0.42422500  0.82775900  1
  Cu  Cu22  1  0.24449600  0.92422500  0.67224100  1
  Cu  Cu23  1  0.74449600  0.57577500  0.32775900  1
  Cu  Cu24  1  0.52166000  0.23995600  0.13548100  1
  Cu  Cu25  1  0.02166000  0.26004400  0.86451900  1
  Cu  Cu26  1  0.97834000  0.76004400  0.63548100  1
  Cu  Cu27  1  0.47834000  0.73995600  0.36451900  1
  Cu  Cu28  1  0.63510600  0.91590800  0.91816100  1
  Cu  Cu29  1  0.13510600  0.58409200  0.08183900  1
  Cu  Cu30  1  0.86489400  0.08409200  0.41816100  1
  Cu  Cu31  1  0.36489400  0.41590800  0.58183900  1
  Cu  Cu32  1  0.85114600  0.93270400  0.10603900  1
  Cu  Cu33  1  0.35114600  0.56729600  0.89396100  1
  Cu  Cu34  1  0.64885400  0.06729600  0.60603900  1
  Cu  Cu35  1  0.14885400  0.43270400  0.39396100  1
