# generated using pymatgen
data_CuNi4C13
_symmetry_space_group_name_H-M   'P 1'
_cell_length_a   9.05739407
_cell_length_b   9.05739407
_cell_length_c   3.58311286
_cell_angle_alpha   84.95874547
_cell_angle_beta   84.95874547
_cell_angle_gamma   126.51919614
_symmetry_Int_Tables_number   1
_chemical_formula_structural   CuNi4C13
_chemical_formula_sum   'Cu1 Ni4 C13'
_cell_volume   231.68284913
_cell_formula_units_Z   1
loop_
 _symmetry_equiv_pos_site_id
 _symmetry_equiv_pos_as_xyz
  1  'x, y, z'
loop_
 _atom_site_type_symbol
 _atom_site_label
 _atom_site_symmetry_multiplicity
 _atom_site_fract_x
 _atom_site_fract_y
 _atom_site_fract_z
 _atom_site_occupancy
  Ni  Ni0  1  0.44550000  0.08175700  0.34248900  1
  Ni  Ni1  1  0.08175700  0.44550000  0.34248900  1
  Ni  Ni2  1  0.52871300  0.75441200  0.67259700  1
  Ni  Ni3  1  0.75441200  0.52871300  0.67259700  1
  Cu  Cu4  1  0.00112900  0.00112900  0.99789700  1
  C  C5  1  0.14388400  0.75406600  0.91966900  1
  C  C6  1  0.75406600  0.14388400  0.91966900  1
  C  C7  1  0.37527900  0.37527900  0.29881000  1
  C  C8  1  0.20108100  0.20108100  0.39301600  1
  C  C9  1  0.23688300  0.69751400  0.72841400  1
  C  C10  1  0.82813000  0.82813000  0.57823700  1
  C  C11  1  0.53543000  0.38650000  0.25201000  1
  C  C12  1  0.38650000  0.53543000  0.25201000  1
  C  C13  1  0.61942500  0.96424600  0.11690900  1
  C  C14  1  0.96424600  0.61942500  0.11690900  1
  C  C15  1  0.94336300  0.22958600  0.91833200  1
  C  C16  1  0.22958600  0.94336300  0.91833200  1
  C  C17  1  0.69751400  0.23688300  0.72841400  1
