# generated using pymatgen
data_Cu2Ni3C14
_symmetry_space_group_name_H-M   'P 1'
_cell_length_a   10.12767500
_cell_length_b   10.12767500
_cell_length_c   10.12767500
_cell_angle_alpha   90.00000000
_cell_angle_beta   90.00000000
_cell_angle_gamma   90.00000000
_symmetry_Int_Tables_number   1
_chemical_formula_structural   Cu2Ni3C14
_chemical_formula_sum   'Cu8 Ni12 C56'
_cell_volume   1038.79360839
_cell_formula_units_Z   4
loop_
 _symmetry_equiv_pos_site_id
 _symmetry_equiv_pos_as_xyz
  1  'x, y, z'
loop_
 _atom_site_type_symbol
 _atom_site_label
 _atom_site_symmetry_multiplicity
 _atom_site_fract_x
 _atom_site_fract_y
 _atom_site_fract_z
 _atom_site_occupancy
  C  C0  1  0.06290700  0.06290700  0.06290700  1
  C  C1  1  0.43709300  0.93709300  0.56290700  1
  C  C2  1  0.56290700  0.43709300  0.93709300  1
  C  C3  1  0.93709300  0.56290700  0.43709300  1
  C  C4  1  0.29849900  0.29849900  0.29849900  1
  C  C5  1  0.20150100  0.70150100  0.79849900  1
  C  C6  1  0.79849900  0.20150100  0.70150100  1
  C  C7  1  0.70150100  0.79849900  0.20150100  1
  Ni  Ni8  1  0.62665600  0.46292500  0.27120500  1
  Ni  Ni9  1  0.87334400  0.53707500  0.77120500  1
  Ni  Ni10  1  0.37334400  0.96292500  0.22879500  1
  Ni  Ni11  1  0.12665600  0.03707500  0.72879500  1
  Ni  Ni12  1  0.96292500  0.22879500  0.37334400  1
  Ni  Ni13  1  0.72879500  0.12665600  0.03707500  1
  Ni  Ni14  1  0.22879500  0.37334400  0.96292500  1
  Ni  Ni15  1  0.53707500  0.77120500  0.87334400  1
  Ni  Ni16  1  0.77120500  0.87334400  0.53707500  1
  Ni  Ni17  1  0.03707500  0.72879500  0.12665600  1
  Ni  Ni18  1  0.46292500  0.27120500  0.62665600  1
  Ni  Ni19  1  0.27120500  0.62665600  0.46292500  1
  Cu  Cu20  1  0.58439900  0.58439900  0.58439900  1
  Cu  Cu21  1  0.91560100  0.41560100  0.08439900  1
  Cu  Cu22  1  0.08439900  0.91560100  0.41560100  1
  Cu  Cu23  1  0.41560100  0.08439900  0.91560100  1
  Cu  Cu24  1  0.84911000  0.84911000  0.84911000  1
  Cu  Cu25  1  0.65089000  0.15089000  0.34911000  1
  Cu  Cu26  1  0.34911000  0.65089000  0.15089000  1
  Cu  Cu27  1  0.15089000  0.34911000  0.65089000  1
  C  C28  1  0.41650700  0.65673100  0.50019700  1
  C  C29  1  0.42563200  0.81777100  0.23780500  1
  C  C30  1  0.07436800  0.18222900  0.73780500  1
  C  C31  1  0.81777100  0.23780500  0.42563200  1
  C  C32  1  0.97588700  0.44290100  0.70274500  1
  C  C33  1  0.52411300  0.55709900  0.20274500  1
  C  C34  1  0.20274500  0.52411300  0.55709900  1
  C  C35  1  0.55709900  0.20274500  0.52411300  1
  C  C36  1  0.94290100  0.79725500  0.02411300  1
  C  C37  1  0.70274500  0.97588700  0.44290100  1
  C  C38  1  0.44290100  0.70274500  0.97588700  1
  C  C39  1  0.29725500  0.47588700  0.05709900  1
  C  C40  1  0.79725500  0.02411300  0.94290100  1
  C  C41  1  0.05709900  0.29725500  0.47588700  1
  C  C42  1  0.02411300  0.94290100  0.79725500  1
  C  C43  1  0.47588700  0.05709900  0.29725500  1
  C  C44  1  0.65673100  0.50019700  0.41650700  1
  C  C45  1  0.92563200  0.68222900  0.76219500  1
  C  C46  1  0.50019700  0.41650700  0.65673100  1
  C  C47  1  0.99980300  0.58349300  0.15673100  1
  C  C48  1  0.91650700  0.84326900  0.49980300  1
  C  C49  1  0.49980300  0.91650700  0.84326900  1
  C  C50  1  0.08349300  0.34326900  0.00019700  1
  C  C51  1  0.58349300  0.15673100  0.99980300  1
  C  C52  1  0.00019700  0.08349300  0.34326900  1
  C  C53  1  0.15673100  0.99980300  0.58349300  1
  C  C54  1  0.34326900  0.00019700  0.08349300  1
  C  C55  1  0.84326900  0.49980300  0.91650700  1
  C  C56  1  0.75630100  0.48405500  0.19049400  1
  C  C57  1  0.19049400  0.75630100  0.48405500  1
  C  C58  1  0.48405500  0.19049400  0.75630100  1
  C  C59  1  0.01594500  0.80950600  0.25630100  1
  C  C60  1  0.69049400  0.74369900  0.51594500  1
  C  C61  1  0.51594500  0.69049400  0.74369900  1
  C  C62  1  0.30950600  0.24369900  0.98405500  1
  C  C63  1  0.80950600  0.25630100  0.01594500  1
  C  C64  1  0.98405500  0.30950600  0.24369900  1
  C  C65  1  0.25630100  0.01594500  0.80950600  1
  C  C66  1  0.24369900  0.98405500  0.30950600  1
  C  C67  1  0.74369900  0.51594500  0.69049400  1
  C  C68  1  0.57436800  0.31777100  0.26219500  1
  C  C69  1  0.26219500  0.57436800  0.31777100  1
  C  C70  1  0.31777100  0.26219500  0.57436800  1
  C  C71  1  0.18222900  0.73780500  0.07436800  1
  C  C72  1  0.76219500  0.92563200  0.68222900  1
  C  C73  1  0.73780500  0.07436800  0.18222900  1
  C  C74  1  0.23780500  0.42563200  0.81777100  1
  C  C75  1  0.68222900  0.76219500  0.92563200  1
