# generated using pymatgen
data_CuNi19C26
_symmetry_space_group_name_H-M   'P 1'
_cell_length_a   11.70857800
_cell_length_b   10.20005700
_cell_length_c   12.96111151
_cell_angle_alpha   89.44525130
_cell_angle_beta   90.00000000
_cell_angle_gamma   90.00000000
_symmetry_Int_Tables_number   1
_chemical_formula_structural   CuNi19C26
_chemical_formula_sum   'Cu2 Ni38 C52'
_cell_volume   1547.84918413
_cell_formula_units_Z   2
loop_
 _symmetry_equiv_pos_site_id
 _symmetry_equiv_pos_as_xyz
  1  'x, y, z'
loop_
 _atom_site_type_symbol
 _atom_site_label
 _atom_site_symmetry_multiplicity
 _atom_site_fract_x
 _atom_site_fract_y
 _atom_site_fract_z
 _atom_site_occupancy
  C  C0  1  0.28374100  0.86912000  0.64056700  1
  C  C1  1  0.61871300  0.09738000  0.18762800  1
  C  C2  1  0.47765900  0.58799800  0.87378500  1
  C  C3  1  0.84393100  0.18548300  0.14798800  1
  C  C4  1  0.31475300  0.60531800  0.71601200  1
  C  C5  1  0.11871300  0.90262000  0.81237200  1
  C  C6  1  0.34393100  0.81451700  0.85201200  1
  C  C7  1  0.00894300  0.23961800  0.29596800  1
  C  C8  1  0.81475300  0.39468200  0.28398800  1
  C  C9  1  0.08820500  0.68977000  0.66784400  1
  C  C10  1  0.58820500  0.31023000  0.33215600  1
  C  C11  1  0.97765900  0.41200200  0.12621500  1
  C  C12  1  0.50894300  0.76038200  0.70403200  1
  C  C13  1  0.78374100  0.13088000  0.35943300  1
  Ni  Ni14  1  0.80529600  0.57347700  0.24166300  1
  Ni  Ni15  1  0.61435400  0.36303600  0.47002300  1
  Ni  Ni16  1  0.95133100  0.78184400  0.63536100  1
  Ni  Ni17  1  0.35334400  0.53374200  0.58722200  1
  Ni  Ni18  1  0.06078000  0.28270000  0.43140900  1
  Ni  Ni19  1  0.46327600  0.12237500  0.14906200  1
  Ni  Ni20  1  0.15888500  0.97397100  0.94112500  1
  Ni  Ni21  1  0.11435400  0.63696400  0.52997700  1
  Ni  Ni22  1  0.86530500  0.96765900  0.35771500  1
  Ni  Ni23  1  0.65888500  0.02602900  0.05887500  1
  Ni  Ni24  1  0.59123000  0.92248400  0.71047900  1
  Ni  Ni25  1  0.91153000  0.01887800  0.13070500  1
  Ni  Ni26  1  0.08388900  0.07211500  0.75933600  1
  Ni  Ni27  1  0.05617800  0.56977900  0.16256800  1
  Ni  Ni28  1  0.85334400  0.46625800  0.41277800  1
  Ni  Ni29  1  0.56078000  0.71730000  0.56859100  1
  Ni  Ni30  1  0.58361400  0.64934400  0.97368800  1
  Ni  Ni31  1  0.86158400  0.20284800  0.00297500  1
  Ni  Ni32  1  0.50343300  0.46249100  0.29428400  1
  Ni  Ni33  1  0.41153000  0.98112200  0.86929500  1
  Ni  Ni34  1  0.96327600  0.87762500  0.85093800  1
  Ni  Ni35  1  0.09123000  0.07751600  0.28952100  1
  Ni  Ni36  1  0.00343300  0.53750900  0.70571600  1
  Ni  Ni37  1  0.36158400  0.79715200  0.99702500  1
  Ni  Ni38  1  0.33219900  0.81961700  0.50530000  1
  Ni  Ni39  1  0.64723700  0.67670200  0.74586200  1
  Ni  Ni40  1  0.55617800  0.43022100  0.83743200  1
  Ni  Ni41  1  0.89886300  0.50093400  0.02052500  1
  Ni  Ni42  1  0.30529600  0.42652300  0.75833700  1
  Ni  Ni43  1  0.65551000  0.04790200  0.42511100  1
  Ni  Ni44  1  0.83219900  0.18038300  0.49470000  1
  Ni  Ni45  1  0.45133100  0.21815600  0.36463900  1
  Ni  Ni46  1  0.08361400  0.35065600  0.02631200  1
  Ni  Ni47  1  0.36530500  0.03234100  0.64228500  1
  Ni  Ni48  1  0.15551000  0.95209800  0.57488900  1
  Ni  Ni49  1  0.14723700  0.32329800  0.25413800  1
  Ni  Ni50  1  0.39886300  0.49906600  0.97947500  1
  Ni  Ni51  1  0.58388900  0.92788500  0.24066400  1
  Cu  Cu52  1  0.17477600  0.67108600  0.84328400  1
  Cu  Cu53  1  0.67477600  0.32891400  0.15671600  1
  C  C54  1  0.40922800  0.13411400  0.63467600  1
  C  C55  1  0.86724100  0.83421700  0.60989200  1
  C  C56  1  0.85069600  0.55427100  0.95367600  1
  C  C57  1  0.66951400  0.98107800  0.97713800  1
  C  C58  1  0.37230100  0.48318800  0.50840500  1
  C  C59  1  0.45545900  0.55544000  0.26584900  1
  C  C60  1  0.59713300  0.68899400  0.48850800  1
  C  C61  1  0.36864800  0.13410100  0.12386300  1
  C  C62  1  0.23963300  0.36466800  0.24483400  1
  C  C63  1  0.62790700  0.39409400  0.55520100  1
  C  C64  1  0.73963300  0.63533200  0.75516600  1
  C  C65  1  0.35512200  0.79831000  0.42000300  1
  C  C66  1  0.90922800  0.86588600  0.36532400  1
  C  C67  1  0.12790700  0.60590600  0.44479900  1
  C  C68  1  0.58616800  0.99347800  0.47385800  1
  C  C69  1  0.14440200  0.98200300  0.28271500  1
  C  C70  1  0.85512200  0.20169000  0.57999700  1
  C  C71  1  0.86903300  0.20195800  0.91302000  1
  C  C72  1  0.36724100  0.16578300  0.39010800  1
  C  C73  1  0.10356500  0.66551000  0.18437500  1
  C  C74  1  0.94863500  0.91433100  0.11698400  1
  C  C75  1  0.36903300  0.79804200  0.08698000  1
  C  C76  1  0.95545900  0.44456000  0.73415100  1
  C  C77  1  0.35069600  0.44572900  0.04632400  1
  C  C78  1  0.87230100  0.51681200  0.49159500  1
  C  C79  1  0.64485100  0.68911000  0.03664200  1
  C  C80  1  0.14485100  0.31089000  0.96335800  1
  C  C81  1  0.08616800  0.00652200  0.52614200  1
  C  C82  1  0.86864800  0.86589900  0.87613700  1
  C  C83  1  0.16951400  0.01892200  0.02286200  1
  C  C84  1  0.56212600  0.82383300  0.27172500  1
  C  C85  1  0.79788000  0.68490100  0.22122700  1
  C  C86  1  0.44863500  0.08566900  0.88301600  1
  C  C87  1  0.60356500  0.33449000  0.81562500  1
  C  C88  1  0.09713300  0.31100600  0.51149200  1
  C  C89  1  0.06212600  0.17616700  0.72827500  1
  C  C90  1  0.64440200  0.01799700  0.71728500  1
  C  C91  1  0.29788000  0.31509900  0.77877300  1
