# generated using pymatgen
data_Cu3NiC2
_symmetry_space_group_name_H-M   'P 1'
_cell_length_a   3.44682300
_cell_length_b   9.23145400
_cell_length_c   15.89507100
_cell_angle_alpha   90.00000000
_cell_angle_beta   90.00000000
_cell_angle_gamma   90.00000000
_symmetry_Int_Tables_number   1
_chemical_formula_structural   Cu3NiC2
_chemical_formula_sum   'Cu18 Ni6 C12'
_cell_volume   505.76825196
_cell_formula_units_Z   6
loop_
 _symmetry_equiv_pos_site_id
 _symmetry_equiv_pos_as_xyz
  1  'x, y, z'
loop_
 _atom_site_type_symbol
 _atom_site_label
 _atom_site_symmetry_multiplicity
 _atom_site_fract_x
 _atom_site_fract_y
 _atom_site_fract_z
 _atom_site_occupancy
  C  C0  1  0.00000000  0.17307100  0.92234000  1
  C  C1  1  0.50000000  0.32464500  0.07106300  1
  C  C2  1  0.50000000  0.34865400  0.74783300  1
  C  C3  1  0.00000000  0.67307100  0.07766000  1
  C  C4  1  0.00000000  0.66904000  0.41962300  1
  C  C5  1  0.00000000  0.65709600  0.74897900  1
  C  C6  1  0.50000000  0.82464500  0.92893700  1
  C  C7  1  0.50000000  0.81976600  0.57875100  1
  C  C8  1  0.50000000  0.84865400  0.25216700  1
  C  C9  1  0.00000000  0.16904000  0.58037700  1
  C  C10  1  0.00000000  0.15709600  0.25102100  1
  C  C11  1  0.50000000  0.31976600  0.42124900  1
  Ni  Ni12  1  0.00000000  0.00083700  0.08368600  1
  Ni  Ni13  1  0.50000000  0.00054900  0.75077500  1
  Ni  Ni14  1  0.00000000  0.49848700  0.58240600  1
  Ni  Ni15  1  0.50000000  0.50054900  0.24922500  1
  Ni  Ni16  1  0.00000000  0.50083700  0.91631400  1
  Ni  Ni17  1  0.00000000  0.99848700  0.41759400  1
  Cu  Cu18  1  0.50000000  0.61125700  0.19837300  1
  Cu  Cu19  1  0.00000000  0.88912000  0.13315100  1
  Cu  Cu20  1  0.00000000  0.98151300  0.00205500  1
  Cu  Cu21  1  0.50000000  0.11125700  0.80162700  1
  Cu  Cu22  1  0.00000000  0.13048700  0.11426400  1
  Cu  Cu23  1  0.50000000  0.36885700  0.21663800  1
  Cu  Cu24  1  0.00000000  0.38912000  0.86684900  1
  Cu  Cu25  1  0.00000000  0.38913200  0.63395900  1
  Cu  Cu26  1  0.00000000  0.48151300  0.99794500  1
  Cu  Cu27  1  0.00000000  0.47666200  0.50212100  1
  Cu  Cu28  1  0.50000000  0.51720300  0.32983600  1
  Cu  Cu29  1  0.00000000  0.63065400  0.61199700  1
  Cu  Cu30  1  0.00000000  0.63048700  0.88573600  1
  Cu  Cu31  1  0.50000000  0.86885700  0.78336200  1
  Cu  Cu32  1  0.00000000  0.88913200  0.36604100  1
  Cu  Cu33  1  0.00000000  0.97666200  0.49787900  1
  Cu  Cu34  1  0.50000000  0.01720300  0.67016400  1
  Cu  Cu35  1  0.00000000  0.13065400  0.38800300  1
