# generated using pymatgen
data_Cu6NiC7
_symmetry_space_group_name_H-M   'P 1'
_cell_length_a   3.47383800
_cell_length_b   9.95883900
_cell_length_c   15.35106400
_cell_angle_alpha   90.00000000
_cell_angle_beta   90.00000000
_cell_angle_gamma   90.00000000
_symmetry_Int_Tables_number   1
_chemical_formula_structural   Cu6NiC7
_chemical_formula_sum   'Cu24 Ni4 C28'
_cell_volume   531.07609748
_cell_formula_units_Z   4
loop_
 _symmetry_equiv_pos_site_id
 _symmetry_equiv_pos_as_xyz
  1  'x, y, z'
loop_
 _atom_site_type_symbol
 _atom_site_label
 _atom_site_symmetry_multiplicity
 _atom_site_fract_x
 _atom_site_fract_y
 _atom_site_fract_z
 _atom_site_occupancy
  C  C0  1  0.35908300  0.58681200  0.74791700  1
  C  C1  1  0.85908300  0.91318800  0.25208300  1
  C  C2  1  0.64091700  0.08681200  0.75208300  1
  C  C3  1  0.14091700  0.41318800  0.24791700  1
  C  C4  1  0.95541800  0.47996700  0.66784700  1
  C  C5  1  0.24902000  0.53665600  0.59660100  1
  C  C6  1  0.74902000  0.96334400  0.40339900  1
  C  C7  1  0.45541800  0.02003300  0.33215300  1
  C  C8  1  0.75098000  0.03665600  0.90339900  1
  C  C9  1  0.04458200  0.97996700  0.83215300  1
  C  C10  1  0.25098000  0.46334400  0.09660100  1
  C  C11  1  0.54458200  0.52003300  0.16784700  1
  C  C12  1  0.97945100  0.55710900  0.97963900  1
  C  C13  1  0.15120800  0.41124900  0.96079200  1
  C  C14  1  0.47945100  0.94289100  0.02036100  1
  C  C15  1  0.65120800  0.08875100  0.03920800  1
  C  C16  1  0.02054900  0.05710900  0.52036100  1
  C  C17  1  0.84879200  0.91124900  0.53920800  1
  C  C18  1  0.52054900  0.44289100  0.47963900  1
  C  C19  1  0.34879200  0.58875100  0.46079200  1
  C  C20  1  0.57236400  0.29202500  0.88314900  1
  C  C21  1  0.19831600  0.20333600  0.88187400  1
  C  C22  1  0.69831600  0.29666400  0.11812600  1
  C  C23  1  0.07236400  0.20797500  0.11685100  1
  C  C24  1  0.42763600  0.79202500  0.61685100  1
  C  C25  1  0.80168400  0.70333600  0.61812600  1
  C  C26  1  0.92763600  0.70797500  0.38314900  1
  C  C27  1  0.30168400  0.79666400  0.38187400  1
  Ni  Ni28  1  0.31269100  0.72718300  0.83553400  1
  Ni  Ni29  1  0.81269100  0.77281700  0.16446600  1
  Ni  Ni30  1  0.68730900  0.22718300  0.66446600  1
  Ni  Ni31  1  0.18730900  0.27281700  0.33553400  1
  Cu  Cu32  1  0.42821900  0.59921200  0.81308900  1
  Cu  Cu33  1  0.92821900  0.90078800  0.18691100  1
  Cu  Cu34  1  0.57178100  0.09921200  0.68691100  1
  Cu  Cu35  1  0.07178100  0.40078800  0.31308900  1
  Cu  Cu36  1  0.27546100  0.81017400  0.77619000  1
  Cu  Cu37  1  0.77546100  0.68982600  0.22381000  1
  Cu  Cu38  1  0.72453900  0.31017400  0.72381000  1
  Cu  Cu39  1  0.22453900  0.18982600  0.27619000  1
  Cu  Cu40  1  0.25692900  0.74569700  0.91318800  1
  Cu  Cu41  1  0.75692900  0.75430300  0.08681200  1
  Cu  Cu42  1  0.74307100  0.24569700  0.58681200  1
  Cu  Cu43  1  0.24307100  0.25430300  0.41318800  1
  Cu  Cu44  1  0.12940400  0.55560500  0.65661500  1
  Cu  Cu45  1  0.62940400  0.94439500  0.34338500  1
  Cu  Cu46  1  0.87059600  0.05560500  0.84338500  1
  Cu  Cu47  1  0.37059600  0.44439500  0.15661500  1
  Cu  Cu48  1  0.04099700  0.47144100  0.00668600  1
  Cu  Cu49  1  0.54099700  0.02855900  0.99331400  1
  Cu  Cu50  1  0.95900300  0.97144100  0.49331400  1
  Cu  Cu51  1  0.45900300  0.52855900  0.50668600  1
  Cu  Cu52  1  0.29524200  0.29524100  0.89147900  1
  Cu  Cu53  1  0.79524200  0.20475900  0.10852100  1
  Cu  Cu54  1  0.70475800  0.79524100  0.60852100  1
  Cu  Cu55  1  0.20475800  0.70475900  0.39147900  1
