# generated using pymatgen
data_Cu17(Ni3C7)2
_symmetry_space_group_name_H-M   'P 1'
_cell_length_a   10.86942706
_cell_length_b   10.86942706
_cell_length_c   15.31092701
_cell_angle_alpha   81.71951235
_cell_angle_beta   81.71951235
_cell_angle_gamma   71.69771613
_symmetry_Int_Tables_number   1
_chemical_formula_structural   Cu17(Ni3C7)2
_chemical_formula_sum   'Cu68 Ni24 C56'
_cell_volume   1690.06813511
_cell_formula_units_Z   4
loop_
 _symmetry_equiv_pos_site_id
 _symmetry_equiv_pos_as_xyz
  1  'x, y, z'
loop_
 _atom_site_type_symbol
 _atom_site_label
 _atom_site_symmetry_multiplicity
 _atom_site_fract_x
 _atom_site_fract_y
 _atom_site_fract_z
 _atom_site_occupancy
  C  C0  1  0.50261700  0.49738300  0.25000000  1
  C  C1  1  0.49738300  0.50261700  0.75000000  1
  C  C2  1  0.22950700  0.77049300  0.25000000  1
  C  C3  1  0.77049300  0.22950700  0.75000000  1
  C  C4  1  0.84214900  0.07195400  0.99985400  1
  C  C5  1  0.92804600  0.15785100  0.50014600  1
  C  C6  1  0.15785100  0.92804600  0.00014600  1
  C  C7  1  0.07195400  0.84214900  0.49985400  1
  C  C8  1  0.50898900  0.25384800  0.01418100  1
  C  C9  1  0.74615200  0.49101100  0.48581900  1
  C  C10  1  0.49101100  0.74615200  0.98581900  1
  C  C11  1  0.25384800  0.50898900  0.51418100  1
  C  C12  1  0.67373300  0.94179700  0.23172600  1
  C  C13  1  0.05820300  0.32626700  0.26827400  1
  C  C14  1  0.32626700  0.05820300  0.76827400  1
  C  C15  1  0.94179700  0.67373300  0.73172600  1
  C  C16  1  0.27292900  0.64598700  0.05499200  1
  C  C17  1  0.35401300  0.72707100  0.44500800  1
  C  C18  1  0.72707100  0.35401300  0.94500800  1
  C  C19  1  0.64598700  0.27292900  0.55499200  1
  C  C20  1  0.28191000  0.65116200  0.94978600  1
  C  C21  1  0.34883800  0.71809000  0.55021400  1
  C  C22  1  0.71809000  0.34883800  0.05021400  1
  C  C23  1  0.65116200  0.28191000  0.44978600  1
  C  C24  1  0.00933100  0.81172500  0.90753700  1
  C  C25  1  0.18827500  0.99066900  0.59246300  1
  C  C26  1  0.99066900  0.18827500  0.09246300  1
  C  C27  1  0.81172500  0.00933100  0.40753700  1
  C  C28  1  0.96847100  0.77559500  0.00630100  1
  C  C29  1  0.22440500  0.03152900  0.49369900  1
  C  C30  1  0.03152900  0.22440500  0.99369900  1
  C  C31  1  0.77559500  0.96847100  0.50630100  1
  C  C32  1  0.65735800  0.01475600  0.91748100  1
  C  C33  1  0.98524400  0.34264200  0.58251900  1
  C  C34  1  0.34264200  0.98524400  0.08251900  1
  C  C35  1  0.01475600  0.65735800  0.41748100  1
  C  C36  1  0.61896300  0.95531700  0.01322300  1
  C  C37  1  0.04468300  0.38103700  0.48677700  1
  C  C38  1  0.38103700  0.04468300  0.98677700  1
  C  C39  1  0.95531700  0.61896300  0.51322300  1
  C  C40  1  0.78113900  0.67897900  0.00322500  1
  C  C41  1  0.32102100  0.21886100  0.49677500  1
  C  C42  1  0.21886100  0.32102100  0.99677500  1
  C  C43  1  0.67897900  0.78113900  0.50322500  1
  C  C44  1  0.74462100  0.73422700  0.90650200  1
  C  C45  1  0.26577300  0.25537900  0.59349800  1
  C  C46  1  0.25537900  0.26577300  0.09349800  1
  C  C47  1  0.73422700  0.74462100  0.40650200  1
  C  C48  1  0.98172900  0.57715400  0.10955000  1
  C  C49  1  0.42284600  0.01827100  0.39045000  1
  C  C50  1  0.01827100  0.42284600  0.89045000  1
  C  C51  1  0.57715400  0.98172900  0.60955000  1
  C  C52  1  0.85850000  0.69721800  0.12754000  1
  C  C53  1  0.30278200  0.14150000  0.37246000  1
  C  C54  1  0.14150000  0.30278200  0.87246000  1
  C  C55  1  0.69721800  0.85850000  0.62754000  1
  Ni  Ni56  1  0.54683200  0.77364000  0.18810100  1
  Ni  Ni57  1  0.22636000  0.45316800  0.31189900  1
  Ni  Ni58  1  0.45316800  0.22636000  0.81189900  1
  Ni  Ni59  1  0.77364000  0.54683200  0.68810100  1
  Ni  Ni60  1  0.49163300  0.80350300  0.28518200  1
  Ni  Ni61  1  0.19649700  0.50836700  0.21481800  1
  Ni  Ni62  1  0.50836700  0.19649700  0.71481800  1
  Ni  Ni63  1  0.80350300  0.49163300  0.78518200  1
  Ni  Ni64  1  0.60918100  0.18539100  0.29706500  1
  Ni  Ni65  1  0.81460900  0.39081900  0.20293500  1
  Ni  Ni66  1  0.39081900  0.81460900  0.70293500  1
  Ni  Ni67  1  0.18539100  0.60918100  0.79706500  1
  Ni  Ni68  1  0.53963000  0.20799700  0.21111000  1
  Ni  Ni69  1  0.79200300  0.46037000  0.28889000  1
  Ni  Ni70  1  0.46037000  0.79200300  0.78889000  1
  Ni  Ni71  1  0.20799700  0.53963000  0.71111000  1
  Ni  Ni72  1  0.92655500  0.79261600  0.26927000  1
  Ni  Ni73  1  0.20738400  0.07344500  0.23073000  1
  Ni  Ni74  1  0.07344500  0.20738400  0.73073000  1
  Ni  Ni75  1  0.79261600  0.92655500  0.76927000  1
  Ni  Ni76  1  0.94546000  0.88519000  0.18406800  1
  Ni  Ni77  1  0.11481000  0.05454000  0.31593200  1
  Ni  Ni78  1  0.05454000  0.11481000  0.81593200  1
  Ni  Ni79  1  0.88519000  0.94546000  0.68406800  1
  Cu  Cu80  1  0.63702300  0.82625300  0.15369400  1
  Cu  Cu81  1  0.17374700  0.36297700  0.34630600  1
  Cu  Cu82  1  0.36297700  0.17374700  0.84630600  1
  Cu  Cu83  1  0.82625300  0.63702300  0.65369400  1
  Cu  Cu84  1  0.52902400  0.89206900  0.31275800  1
  Cu  Cu85  1  0.10793100  0.47097600  0.18724200  1
  Cu  Cu86  1  0.47097600  0.10793100  0.68724200  1
  Cu  Cu87  1  0.89206900  0.52902400  0.81275800  1
  Cu  Cu88  1  0.50152300  0.70669200  0.14987400  1
  Cu  Cu89  1  0.29330800  0.49847700  0.35012600  1
  Cu  Cu90  1  0.49847700  0.29330800  0.85012600  1
  Cu  Cu91  1  0.70669200  0.50152300  0.64987400  1
  Cu  Cu92  1  0.41611000  0.74619000  0.32807300  1
  Cu  Cu93  1  0.25381000  0.58389000  0.17192700  1
  Cu  Cu94  1  0.58389000  0.25381000  0.67192700  1
  Cu  Cu95  1  0.74619000  0.41611000  0.82807300  1
  Cu  Cu96  1  0.68315900  0.06679300  0.31413100  1
  Cu  Cu97  1  0.93320700  0.31684100  0.18586900  1
  Cu  Cu98  1  0.31684100  0.93320700  0.68586900  1
  Cu  Cu99  1  0.06679300  0.68315900  0.81413100  1
  Cu  Cu100  1  0.55779500  0.10362600  0.17289700  1
  Cu  Cu101  1  0.89637400  0.44220500  0.32710300  1
  Cu  Cu102  1  0.44220500  0.89637400  0.82710300  1
  Cu  Cu103  1  0.10362600  0.55779500  0.67289700  1
  Cu  Cu104  1  0.59321900  0.27706000  0.34144000  1
  Cu  Cu105  1  0.72294000  0.40678100  0.15856000  1
  Cu  Cu106  1  0.40678100  0.72294000  0.65856000  1
  Cu  Cu107  1  0.27706000  0.59321900  0.84144000  1
  Cu  Cu108  1  0.47557400  0.31843300  0.18208400  1
  Cu  Cu109  1  0.68156700  0.52442600  0.31791600  1
  Cu  Cu110  1  0.52442600  0.68156700  0.81791600  1
  Cu  Cu111  1  0.31843300  0.47557400  0.68208400  1
  Cu  Cu112  1  0.80701700  0.79496100  0.29372200  1
  Cu  Cu113  1  0.20503900  0.19298300  0.20627800  1
  Cu  Cu114  1  0.19298300  0.20503900  0.70627800  1
  Cu  Cu115  1  0.79496100  0.80701700  0.79372200  1
  Cu  Cu116  1  0.83750100  0.95850100  0.15397700  1
  Cu  Cu117  1  0.04149900  0.16249900  0.34602300  1
  Cu  Cu118  1  0.16249900  0.04149900  0.84602300  1
  Cu  Cu119  1  0.95850100  0.83750100  0.65397700  1
  Cu  Cu120  1  0.02250200  0.72281400  0.30662500  1
  Cu  Cu121  1  0.27718600  0.97749800  0.19337500  1
  Cu  Cu122  1  0.97749800  0.27718600  0.69337500  1
  Cu  Cu123  1  0.72281400  0.02250200  0.80662500  1
  Cu  Cu124  1  0.05693700  0.88224100  0.15027700  1
  Cu  Cu125  1  0.11775900  0.94306300  0.34972300  1
  Cu  Cu126  1  0.94306300  0.11775900  0.84972300  1
  Cu  Cu127  1  0.88224100  0.05693700  0.65027700  1
  Cu  Cu128  1  0.29538500  0.69458800  0.99846900  1
  Cu  Cu129  1  0.30541200  0.70461500  0.50153100  1
  Cu  Cu130  1  0.70461500  0.30541200  0.00153100  1
  Cu  Cu131  1  0.69458800  0.29538500  0.49846900  1
  Cu  Cu132  1  0.98154400  0.84954700  0.96419600  1
  Cu  Cu133  1  0.15045300  0.01845600  0.53580400  1
  Cu  Cu134  1  0.01845600  0.15045300  0.03580400  1
  Cu  Cu135  1  0.84954700  0.98154400  0.46419600  1
  Cu  Cu136  1  0.63227800  0.03470500  0.97992600  1
  Cu  Cu137  1  0.96529500  0.36772200  0.52007400  1
  Cu  Cu138  1  0.36772200  0.96529500  0.02007400  1
  Cu  Cu139  1  0.03470500  0.63227800  0.47992600  1
  Cu  Cu140  1  0.70840100  0.71072300  0.96656300  1
  Cu  Cu141  1  0.28927700  0.29159900  0.53343700  1
  Cu  Cu142  1  0.29159900  0.28927700  0.03343700  1
  Cu  Cu143  1  0.71072300  0.70840100  0.46656300  1
  Cu  Cu144  1  0.91512500  0.64935100  0.08036500  1
  Cu  Cu145  1  0.35064900  0.08487500  0.41963500  1
  Cu  Cu146  1  0.08487500  0.35064900  0.91963500  1
  Cu  Cu147  1  0.64935100  0.91512500  0.58036500  1
