# generated using pymatgen
data_Cu(Ni4C3)3
_symmetry_space_group_name_H-M   'P 1'
_cell_length_a   12.05450300
_cell_length_b   5.17842700
_cell_length_c   12.94239190
_cell_angle_alpha   69.01632774
_cell_angle_beta   90.00000000
_cell_angle_gamma   90.00000000
_symmetry_Int_Tables_number   1
_chemical_formula_structural   Cu(Ni4C3)3
_chemical_formula_sum   'Cu2 Ni24 C18'
_cell_volume   754.32923423
_cell_formula_units_Z   2
loop_
 _symmetry_equiv_pos_site_id
 _symmetry_equiv_pos_as_xyz
  1  'x, y, z'
loop_
 _atom_site_type_symbol
 _atom_site_label
 _atom_site_symmetry_multiplicity
 _atom_site_fract_x
 _atom_site_fract_y
 _atom_site_fract_z
 _atom_site_occupancy
  C  C0  1  0.66968600  0.40823100  0.64981300  1
  C  C1  1  0.50000000  0.00000000  0.50000000  1
  C  C2  1  0.16968600  0.59176900  0.85018700  1
  C  C3  1  0.00000000  0.00000000  0.00000000  1
  C  C4  1  0.83031400  0.40823100  0.14981300  1
  C  C5  1  0.33031400  0.59176900  0.35018700  1
  C  C6  1  0.14607500  0.27691600  0.17016700  1
  C  C7  1  0.64607500  0.72308400  0.32983300  1
  C  C8  1  0.35392500  0.27691600  0.67016700  1
  C  C9  1  0.85392500  0.72308400  0.82983300  1
  C  C10  1  0.01280500  0.32815700  0.64457300  1
  C  C11  1  0.51280500  0.67184300  0.85542700  1
  C  C12  1  0.98719500  0.67184300  0.35542700  1
  C  C13  1  0.48719500  0.32815700  0.14457300  1
  C  C14  1  0.14280300  0.93457000  0.52312000  1
  C  C15  1  0.64280300  0.06543000  0.97688000  1
  C  C16  1  0.85719700  0.06543000  0.47688000  1
  C  C17  1  0.35719700  0.93457000  0.02312000  1
  Ni  Ni18  1  0.37263600  0.84990700  0.88430800  1
  Ni  Ni19  1  0.62736400  0.15009300  0.11569200  1
  Ni  Ni20  1  0.02153900  0.68322700  0.21770300  1
  Ni  Ni21  1  0.52153900  0.31677300  0.28229700  1
  Ni  Ni22  1  0.97846100  0.31677300  0.78229700  1
  Ni  Ni23  1  0.47846100  0.68322700  0.71770300  1
  Ni  Ni24  1  0.21854800  0.07856200  0.00091700  1
  Ni  Ni25  1  0.71854800  0.92143800  0.49908300  1
  Ni  Ni26  1  0.78145200  0.92143800  0.99908300  1
  Ni  Ni27  1  0.28145200  0.07856200  0.50091700  1
  Ni  Ni28  1  0.10289700  0.00346900  0.66909000  1
  Ni  Ni29  1  0.60289700  0.99653100  0.83091000  1
  Ni  Ni30  1  0.87263600  0.15009300  0.61569200  1
  Ni  Ni31  1  0.39710300  0.00346900  0.16909000  1
  Ni  Ni32  1  0.16100300  0.55097100  0.61977600  1
  Ni  Ni33  1  0.66100300  0.44902900  0.88022400  1
  Ni  Ni34  1  0.83899700  0.44902900  0.38022400  1
  Ni  Ni35  1  0.33899700  0.55097100  0.11977600  1
  Ni  Ni36  1  0.45874200  0.28313400  0.96131200  1
  Ni  Ni37  1  0.95874200  0.71686600  0.53868800  1
  Ni  Ni38  1  0.54125800  0.71686600  0.03868800  1
  Ni  Ni39  1  0.04125800  0.28313400  0.46131200  1
  Ni  Ni40  1  0.89710300  0.99653100  0.33091000  1
  Ni  Ni41  1  0.12736400  0.84990700  0.38430800  1
  Cu  Cu42  1  0.50000000  0.50000000  0.50000000  1
  Cu  Cu43  1  0.00000000  0.50000000  0.00000000  1
