# generated using pymatgen
data_Cu2Ni2C17
_symmetry_space_group_name_H-M   'P 1'
_cell_length_a   7.66807700
_cell_length_b   7.66807700
_cell_length_c   8.11293800
_cell_angle_alpha   90.00000000
_cell_angle_beta   90.00000000
_cell_angle_gamma   90.00000000
_symmetry_Int_Tables_number   1
_chemical_formula_structural   Cu2Ni2C17
_chemical_formula_sum   'Cu4 Ni4 C34'
_cell_volume   477.03592621
_cell_formula_units_Z   2
loop_
 _symmetry_equiv_pos_site_id
 _symmetry_equiv_pos_as_xyz
  1  'x, y, z'
loop_
 _atom_site_type_symbol
 _atom_site_label
 _atom_site_symmetry_multiplicity
 _atom_site_fract_x
 _atom_site_fract_y
 _atom_site_fract_z
 _atom_site_occupancy
  C  C0  1  0.50000000  0.50000000  0.00000000  1
  C  C1  1  0.00000000  0.00000000  0.50000000  1
  C  C2  1  0.42570200  0.57429800  0.31262200  1
  C  C3  1  0.57429800  0.42570200  0.31262200  1
  C  C4  1  0.07429800  0.07429800  0.81262200  1
  C  C5  1  0.92570200  0.92570200  0.81262200  1
  C  C6  1  0.57429800  0.42570200  0.68737800  1
  C  C7  1  0.42570200  0.57429800  0.68737800  1
  C  C8  1  0.92570200  0.92570200  0.18737800  1
  C  C9  1  0.07429800  0.07429800  0.18737800  1
  C  C10  1  0.08672700  0.56827000  0.32355700  1
  C  C11  1  0.91327300  0.43173000  0.32355700  1
  C  C12  1  0.41327300  0.06827000  0.82355700  1
  C  C13  1  0.58672700  0.93173000  0.82355700  1
  C  C14  1  0.91327300  0.43173000  0.67644300  1
  C  C15  1  0.08672700  0.56827000  0.67644300  1
  C  C16  1  0.58672700  0.93173000  0.17644300  1
  C  C17  1  0.41327300  0.06827000  0.17644300  1
  C  C18  1  0.56827000  0.08672700  0.32355700  1
  C  C19  1  0.43173000  0.91327300  0.32355700  1
  C  C20  1  0.06827000  0.41327300  0.82355700  1
  C  C21  1  0.93173000  0.58672700  0.82355700  1
  C  C22  1  0.43173000  0.91327300  0.67644300  1
  C  C23  1  0.56827000  0.08672700  0.67644300  1
  C  C24  1  0.93173000  0.58672700  0.17644300  1
  C  C25  1  0.06827000  0.41327300  0.17644300  1
  Ni  Ni26  1  0.00000000  0.50000000  0.25000000  1
  Ni  Ni27  1  0.50000000  0.00000000  0.75000000  1
  Ni  Ni28  1  0.00000000  0.50000000  0.75000000  1
  Ni  Ni29  1  0.50000000  0.00000000  0.25000000  1
  C  C30  1  0.29134600  0.70865400  0.00000000  1
  C  C31  1  0.70865400  0.29134600  0.00000000  1
  C  C32  1  0.20865400  0.20865400  0.50000000  1
  C  C33  1  0.79134600  0.79134600  0.50000000  1
  C  C34  1  0.28351000  0.71649000  0.50000000  1
  C  C35  1  0.71649000  0.28351000  0.50000000  1
  C  C36  1  0.21649000  0.21649000  0.00000000  1
  C  C37  1  0.78351000  0.78351000  0.00000000  1
  Cu  Cu38  1  0.50000000  0.50000000  0.24140000  1
  Cu  Cu39  1  0.00000000  0.00000000  0.74140000  1
  Cu  Cu40  1  0.50000000  0.50000000  0.75860000  1
  Cu  Cu41  1  0.00000000  0.00000000  0.25860000  1
