# generated using pymatgen
data_Cu2Ni2C
_symmetry_space_group_name_H-M   'P 1'
_cell_length_a   12.44377700
_cell_length_b   10.16054100
_cell_length_c   13.31951396
_cell_angle_alpha   72.01511604
_cell_angle_beta   90.00000000
_cell_angle_gamma   90.00000000
_symmetry_Int_Tables_number   1
_chemical_formula_structural   Cu2Ni2C
_chemical_formula_sum   'Cu32 Ni32 C16'
_cell_volume   1601.77299423
_cell_formula_units_Z   16
loop_
 _symmetry_equiv_pos_site_id
 _symmetry_equiv_pos_as_xyz
  1  'x, y, z'
loop_
 _atom_site_type_symbol
 _atom_site_label
 _atom_site_symmetry_multiplicity
 _atom_site_fract_x
 _atom_site_fract_y
 _atom_site_fract_z
 _atom_site_occupancy
  C  C0  1  0.13069100  0.16824700  0.28946100  1
  C  C1  1  0.86930900  0.83175300  0.71053900  1
  C  C2  1  0.37083000  0.60643900  0.68388900  1
  C  C3  1  0.62917000  0.39356100  0.31611100  1
  C  C4  1  0.36930900  0.16824700  0.78946100  1
  C  C5  1  0.12917000  0.60643900  0.18388900  1
  C  C6  1  0.63069100  0.83175300  0.21053900  1
  C  C7  1  0.87083000  0.39356100  0.81611100  1
  Ni  Ni8  1  0.95871600  0.97214200  0.73720900  1
  Ni  Ni9  1  0.46572500  0.17998200  0.90708000  1
  Ni  Ni10  1  0.03427500  0.17998200  0.40708000  1
  Ni  Ni11  1  0.46362300  0.59705100  0.80953100  1
  Ni  Ni12  1  0.96362300  0.40294900  0.69046900  1
  Ni  Ni13  1  0.71842700  0.96930600  0.11331300  1
  Ni  Ni14  1  0.72725300  0.83026600  0.33177500  1
  Ni  Ni15  1  0.28539600  0.74850100  0.71058300  1
  Ni  Ni16  1  0.72506500  0.39380400  0.43729900  1
  Ni  Ni17  1  0.53427500  0.82001800  0.09292000  1
  Ni  Ni18  1  0.96083700  0.25398400  0.90772800  1
  Ni  Ni19  1  0.54128400  0.97214200  0.23720900  1
  Ni  Ni20  1  0.04128400  0.02785800  0.26279100  1
  Ni  Ni21  1  0.27493500  0.60619600  0.56270100  1
  Ni  Ni22  1  0.22506500  0.60619600  0.06270100  1
  Ni  Ni23  1  0.28157300  0.03069400  0.88668700  1
  Ni  Ni24  1  0.21842700  0.03069400  0.38668700  1
  Ni  Ni25  1  0.45871600  0.02785800  0.76279100  1
  Ni  Ni26  1  0.53916300  0.25398400  0.40772800  1
  Ni  Ni27  1  0.96572500  0.82001800  0.59292000  1
  Ni  Ni28  1  0.03916300  0.74601600  0.09227200  1
  Ni  Ni29  1  0.77493500  0.39380400  0.93729900  1
  Ni  Ni30  1  0.27274700  0.16973400  0.66822500  1
  Ni  Ni31  1  0.03637700  0.59705100  0.30953100  1
  Ni  Ni32  1  0.78539600  0.25149900  0.78941700  1
  Ni  Ni33  1  0.46083700  0.74601600  0.59227200  1
  Ni  Ni34  1  0.22725300  0.16973400  0.16822500  1
  Ni  Ni35  1  0.77274700  0.83026600  0.83177500  1
  Ni  Ni36  1  0.78157300  0.96930600  0.61331300  1
  Ni  Ni37  1  0.71460400  0.25149900  0.28941700  1
  Ni  Ni38  1  0.53637700  0.40294900  0.19046900  1
  Ni  Ni39  1  0.21460400  0.74850100  0.21058300  1
  C  C40  1  0.24518700  0.38735300  0.82098000  1
  C  C41  1  0.99195500  0.61585100  0.84942900  1
  C  C42  1  0.75481300  0.61264700  0.17902000  1
  C  C43  1  0.50804500  0.61585100  0.34942900  1
  C  C44  1  0.49195500  0.38414900  0.65057100  1
  C  C45  1  0.00804500  0.38414900  0.15057100  1
  C  C46  1  0.74518700  0.61264700  0.67902000  1
  C  C47  1  0.25481300  0.38735300  0.32098000  1
  Cu  Cu48  1  0.78176000  0.39116600  0.50636800  1
  Cu  Cu49  1  0.51270700  0.94192900  0.74814500  1
  Cu  Cu50  1  0.73491400  0.16315500  0.77379500  1
  Cu  Cu51  1  0.21751700  0.16857600  0.59897500  1
  Cu  Cu52  1  0.48729300  0.05807100  0.25185500  1
  Cu  Cu53  1  0.52256000  0.18550200  0.97445000  1
  Cu  Cu54  1  0.98729300  0.94192900  0.24814500  1
  Cu  Cu55  1  0.73006000  0.05388100  0.55394700  1
  Cu  Cu56  1  0.76508600  0.16315500  0.27379500  1
  Cu  Cu57  1  0.01376000  0.16825300  0.96414700  1
  Cu  Cu58  1  0.21824000  0.60883400  0.49363200  1
  Cu  Cu59  1  0.97744000  0.18550200  0.47445000  1
  Cu  Cu60  1  0.28176000  0.60883400  0.99363200  1
  Cu  Cu61  1  0.26994000  0.94611900  0.44605300  1
  Cu  Cu62  1  0.26508600  0.83684500  0.22620500  1
  Cu  Cu63  1  0.01539800  0.40607000  0.61790000  1
  Cu  Cu64  1  0.71751700  0.83142400  0.90102500  1
  Cu  Cu65  1  0.48460200  0.40607000  0.11790000  1
  Cu  Cu66  1  0.47744000  0.81449800  0.02555000  1
  Cu  Cu67  1  0.48624000  0.16825300  0.46414700  1
  Cu  Cu68  1  0.76994000  0.05388100  0.05394700  1
  Cu  Cu69  1  0.51376000  0.83174700  0.53585300  1
  Cu  Cu70  1  0.98460200  0.59393000  0.38210000  1
  Cu  Cu71  1  0.23491400  0.83684500  0.72620500  1
  Cu  Cu72  1  0.02256000  0.81449800  0.52555000  1
  Cu  Cu73  1  0.98624000  0.83174700  0.03585300  1
  Cu  Cu74  1  0.51539800  0.59393000  0.88210000  1
  Cu  Cu75  1  0.01270700  0.05807100  0.75185500  1
  Cu  Cu76  1  0.23006000  0.94611900  0.94605300  1
  Cu  Cu77  1  0.28248300  0.16857600  0.09897500  1
  Cu  Cu78  1  0.78248300  0.83142400  0.40102500  1
  Cu  Cu79  1  0.71824000  0.39116600  0.00636800  1
