# generated using pymatgen
data_Cu12Ni3C
_symmetry_space_group_name_H-M   'P 1'
_cell_length_a   9.62345568
_cell_length_b   9.62345568
_cell_length_c   5.98430800
_cell_angle_alpha   90.00000000
_cell_angle_beta   90.00000000
_cell_angle_gamma   119.99999781
_symmetry_Int_Tables_number   1
_chemical_formula_structural   Cu12Ni3C
_chemical_formula_sum   'Cu24 Ni6 C2'
_cell_volume   479.96180747
_cell_formula_units_Z   2
loop_
 _symmetry_equiv_pos_site_id
 _symmetry_equiv_pos_as_xyz
  1  'x, y, z'
loop_
 _atom_site_type_symbol
 _atom_site_label
 _atom_site_symmetry_multiplicity
 _atom_site_fract_x
 _atom_site_fract_y
 _atom_site_fract_z
 _atom_site_occupancy
  C  C0  1  0.66666700  0.33333300  0.75000000  1
  C  C1  1  0.33333300  0.66666700  0.25000000  1
  Ni  Ni2  1  0.09420000  0.38651500  0.75000000  1
  Ni  Ni3  1  0.29231500  0.90580000  0.75000000  1
  Ni  Ni4  1  0.38651500  0.29231500  0.25000000  1
  Ni  Ni5  1  0.90580000  0.61348500  0.25000000  1
  Ni  Ni6  1  0.61348500  0.70768500  0.75000000  1
  Ni  Ni7  1  0.70768500  0.09420000  0.25000000  1
  Cu  Cu8  1  0.80596400  0.02189900  0.25000000  1
  Cu  Cu9  1  0.46382900  0.02378000  0.75000000  1
  Cu  Cu10  1  0.21593500  0.19403600  0.25000000  1
  Cu  Cu11  1  0.97622000  0.44004900  0.75000000  1
  Cu  Cu12  1  0.80292400  0.54685700  0.44869100  1
  Cu  Cu13  1  0.19707600  0.45314300  0.55130900  1
  Cu  Cu14  1  0.02189900  0.21593500  0.75000000  1
  Cu  Cu15  1  0.45314300  0.25606700  0.44869100  1
  Cu  Cu16  1  0.25606700  0.80292400  0.55130900  1
  Cu  Cu17  1  0.53617100  0.97622000  0.25000000  1
  Cu  Cu18  1  0.19403600  0.97810100  0.75000000  1
  Cu  Cu19  1  0.74393300  0.19707600  0.05130900  1
  Cu  Cu20  1  0.55995100  0.53617100  0.75000000  1
  Cu  Cu21  1  0.54685700  0.74393300  0.55130900  1
  Cu  Cu22  1  0.78406500  0.80596400  0.75000000  1
  Cu  Cu23  1  0.44004900  0.46382900  0.25000000  1
  Cu  Cu24  1  0.02378000  0.55995100  0.25000000  1
  Cu  Cu25  1  0.19707600  0.45314300  0.94869100  1
  Cu  Cu26  1  0.97810100  0.78406500  0.25000000  1
  Cu  Cu27  1  0.54685700  0.74393300  0.94869100  1
  Cu  Cu28  1  0.25606700  0.80292400  0.94869100  1
  Cu  Cu29  1  0.45314300  0.25606700  0.05130900  1
  Cu  Cu30  1  0.74393300  0.19707600  0.44869100  1
  Cu  Cu31  1  0.80292400  0.54685700  0.05130900  1
