# generated using pymatgen
data_CuNi3C35
_symmetry_space_group_name_H-M   'P 1'
_cell_length_a   5.26610100
_cell_length_b   5.53573144
_cell_length_c   34.71059395
_cell_angle_alpha   92.43400749
_cell_angle_beta   90.00297946
_cell_angle_gamma   118.36488486
_symmetry_Int_Tables_number   1
_chemical_formula_structural   CuNi3C35
_chemical_formula_sum   'Cu2 Ni6 C70'
_cell_volume   889.34909438
_cell_formula_units_Z   2
loop_
 _symmetry_equiv_pos_site_id
 _symmetry_equiv_pos_as_xyz
  1  'x, y, z'
loop_
 _atom_site_type_symbol
 _atom_site_label
 _atom_site_symmetry_multiplicity
 _atom_site_fract_x
 _atom_site_fract_y
 _atom_site_fract_z
 _atom_site_occupancy
  C  C0  1  0.38956400  0.78081600  0.03429700  1
  C  C1  1  0.76415900  0.52806800  0.15998200  1
  C  C2  1  0.06154100  0.12301800  0.09419400  1
  C  C3  1  0.13944400  0.27937100  0.28565400  1
  C  C4  1  0.43785600  0.87614000  0.22154200  1
  C  C5  1  0.51450700  0.02951000  0.41075000  1
  C  C6  1  0.81360800  0.62664200  0.34682600  1
  C  C7  1  0.88950000  0.77950800  0.53580800  1
  C  C8  1  0.18858200  0.37657400  0.47187600  1
  C  C9  1  0.26449700  0.52895200  0.66152100  1
  C  C10  1  0.56298000  0.12617400  0.59698200  1
  C  C11  1  0.64446300  0.28139900  0.78591200  1
  C  C12  1  0.93510300  0.87463400  0.72286800  1
  C  C13  1  0.01546100  0.03590000  0.90941200  1
  Ni  Ni14  1  0.37870700  0.75525000  0.12491500  1
  Ni  Ni15  1  0.75295400  0.50527300  0.25029200  1
  Ni  Ni16  1  0.12828500  0.25554900  0.37551600  1
  Ni  Ni17  1  0.50334100  0.00564500  0.50056400  1
  Ni  Ni18  1  0.87801600  0.75593000  0.62574400  1
  Ni  Ni19  1  0.25230200  0.50915000  0.75189400  1
  Cu  Cu20  1  0.62726400  0.25903200  0.87480600  1
  Cu  Cu21  1  0.00501800  0.00405500  0.99763600  1
  C  C22  1  0.68571100  0.37725600  0.06088600  1
  C  C23  1  0.06225100  0.12515100  0.18707900  1
  C  C24  1  0.43738300  0.87564600  0.31255200  1
  C  C25  1  0.81241500  0.62579100  0.43768200  1
  C  C26  1  0.18737800  0.37591000  0.56272700  1
  C  C27  1  0.56215800  0.12652600  0.68803200  1
  C  C28  1  0.94803700  0.88102200  0.81386900  1
  C  C29  1  0.32002500  0.63183900  0.93701700  1
  C  C30  1  0.41241400  0.06423200  0.08937100  1
  C  C31  1  0.40093100  0.18950300  0.01818200  1
  C  C32  1  0.86020500  0.14308200  0.04434000  1
  C  C33  1  0.47873100  0.57355600  0.07527500  1
  C  C34  1  0.93816500  0.50800200  0.10587600  1
  C  C35  1  0.77694200  0.81059000  0.21429400  1
  C  C36  1  0.95521000  0.67617600  0.03092100  1
  C  C37  1  0.81638500  0.95627100  0.14066200  1
  C  C38  1  0.23919400  0.89203800  0.17310000  1
  C  C39  1  0.85477700  0.32363000  0.20079600  1
  C  C40  1  0.30981200  0.26044600  0.23262200  1
  C  C41  1  0.15164100  0.56054800  0.33956800  1
  C  C42  1  0.33360200  0.41384200  0.15597000  1
  C  C43  1  0.18959400  0.70744900  0.26636800  1
  C  C44  1  0.61528100  0.64363200  0.29859700  1
  C  C45  1  0.23050700  0.07453400  0.32616500  1
  C  C46  1  0.68466400  0.01131700  0.35800100  1
  C  C47  1  0.52653900  0.31055200  0.46459000  1
  C  C48  1  0.70825700  0.16340100  0.28123100  1
  C  C49  1  0.56491000  0.45780800  0.39145700  1
  C  C50  1  0.99048600  0.39388200  0.42373600  1
  C  C51  1  0.60555500  0.82462800  0.45121100  1
  C  C52  1  0.05963500  0.76144800  0.48305400  1
  C  C53  1  0.90124800  0.06031100  0.58968400  1
  C  C54  1  0.08341200  0.91328200  0.40628500  1
  C  C55  1  0.93996200  0.20805300  0.51654600  1
  C  C56  1  0.36543500  0.14414200  0.54880800  1
  C  C57  1  0.98053100  0.57495800  0.57639400  1
  C  C58  1  0.43461500  0.51188000  0.60824100  1
  C  C59  1  0.27646400  0.81030300  0.71499200  1
  C  C60  1  0.45811900  0.66314400  0.53134900  1
  C  C61  1  0.31474600  0.95996500  0.64191300  1
  C  C62  1  0.74104400  0.89557300  0.67416200  1
  C  C63  1  0.35906400  0.32816600  0.70235800  1
  C  C64  1  0.81007600  0.26140900  0.73375400  1
  C  C65  1  0.68253300  0.55572900  0.84292600  1
  C  C66  1  0.83294400  0.41386100  0.65674800  1
  C  C67  1  0.68593600  0.71736200  0.76959100  1
  C  C68  1  0.11040800  0.64974900  0.79761700  1
  C  C69  1  0.74198100  0.08353800  0.82974300  1
  C  C70  1  0.19812100  0.02557300  0.85958800  1
  C  C71  1  0.06509300  0.30864400  0.96709800  1
  C  C72  1  0.21379100  0.16751200  0.78261800  1
  C  C73  1  0.02334700  0.44439000  0.89665700  1
  C  C74  1  0.48127100  0.39846000  0.91851600  1
  C  C75  1  0.11010400  0.83051700  0.95269200  1
  C  C76  1  0.57175800  0.77488200  0.98241700  1
  C  C77  1  0.58404700  0.92629900  0.90708500  1
