# generated using pymatgen
data_CuNiC12
_symmetry_space_group_name_H-M   'P 1'
_cell_length_a   7.49930400
_cell_length_b   10.94783300
_cell_length_c   13.94430200
_cell_angle_alpha   90.00000000
_cell_angle_beta   90.00000000
_cell_angle_gamma   90.00000000
_symmetry_Int_Tables_number   1
_chemical_formula_structural   CuNiC12
_chemical_formula_sum   'Cu4 Ni4 C48'
_cell_volume   1144.84292070
_cell_formula_units_Z   4
loop_
 _symmetry_equiv_pos_site_id
 _symmetry_equiv_pos_as_xyz
  1  'x, y, z'
loop_
 _atom_site_type_symbol
 _atom_site_label
 _atom_site_symmetry_multiplicity
 _atom_site_fract_x
 _atom_site_fract_y
 _atom_site_fract_z
 _atom_site_occupancy
  Ni  Ni0  1  0.25000000  0.35736000  0.32223800  1
  Ni  Ni1  1  0.75000000  0.64264000  0.67776200  1
  Ni  Ni2  1  0.75000000  0.85736000  0.17776200  1
  Ni  Ni3  1  0.25000000  0.14264000  0.82223800  1
  Cu  Cu4  1  0.75000000  0.19224900  0.55768400  1
  Cu  Cu5  1  0.25000000  0.69224900  0.94231600  1
  Cu  Cu6  1  0.75000000  0.30775100  0.05768400  1
  Cu  Cu7  1  0.25000000  0.80775100  0.44231600  1
  C  C8  1  0.56667900  0.33615700  0.15347000  1
  C  C9  1  0.43368700  0.75189200  0.02889000  1
  C  C10  1  0.56667900  0.16384300  0.65347000  1
  C  C11  1  0.43332100  0.83615700  0.34653000  1
  C  C12  1  0.06667900  0.66384300  0.84653000  1
  C  C13  1  0.93332100  0.16384300  0.65347000  1
  C  C14  1  0.56631300  0.24810800  0.97111000  1
  C  C15  1  0.43368700  0.74810800  0.52889000  1
  C  C16  1  0.06631300  0.74810800  0.52889000  1
  C  C17  1  0.06631300  0.75189200  0.02889000  1
  C  C18  1  0.93368700  0.25189200  0.47111000  1
  C  C19  1  0.75000000  0.35662900  0.60690700  1
  C  C20  1  0.93332100  0.33615700  0.15347000  1
  C  C21  1  0.25000000  0.64337100  0.39309300  1
  C  C22  1  0.75000000  0.14337100  0.10690700  1
  C  C23  1  0.06667900  0.83615700  0.34653000  1
  C  C24  1  0.43332100  0.66384300  0.84653000  1
  C  C25  1  0.25000000  0.85662900  0.89309300  1
  C  C26  1  0.93368700  0.24810800  0.97111000  1
  C  C27  1  0.56631300  0.25189200  0.47111000  1
  C  C28  1  0.04631300  0.21620100  0.91902000  1
  C  C29  1  0.04631300  0.28379900  0.41902000  1
  C  C30  1  0.25000000  0.54355800  0.36393100  1
  C  C31  1  0.54616500  0.64703800  0.79034800  1
  C  C32  1  0.54631300  0.71620100  0.58098000  1
  C  C33  1  0.25000000  0.95644200  0.86393100  1
  C  C34  1  0.54616500  0.85296200  0.29034800  1
  C  C35  1  0.45383500  0.14703800  0.70965200  1
  C  C36  1  0.45383500  0.35296200  0.20965200  1
  C  C37  1  0.45368700  0.28379900  0.41902000  1
  C  C38  1  0.95383500  0.85296200  0.29034800  1
  C  C39  1  0.45368700  0.21620100  0.91902000  1
  C  C40  1  0.04616500  0.35296200  0.20965200  1
  C  C41  1  0.75000000  0.04916000  0.51537200  1
  C  C42  1  0.75000000  0.45644200  0.63606900  1
  C  C43  1  0.25000000  0.54916000  0.98462800  1
  C  C44  1  0.95368700  0.78379900  0.08098000  1
  C  C45  1  0.75000000  0.45084000  0.01537200  1
  C  C46  1  0.95383500  0.64703800  0.79034800  1
  C  C47  1  0.95368700  0.71620100  0.58098000  1
  C  C48  1  0.75000000  0.04355800  0.13606900  1
  C  C49  1  0.04616500  0.14703800  0.70965200  1
  C  C50  1  0.25000000  0.95084000  0.48462800  1
  C  C51  1  0.54631300  0.78379900  0.08098000  1
  C  C52  1  0.75000000  0.54954100  0.98709700  1
  C  C53  1  0.25000000  0.04954100  0.51290300  1
  C  C54  1  0.75000000  0.95045900  0.48709700  1
  C  C55  1  0.25000000  0.45045900  0.01290300  1
