# generated using pymatgen
data_CuNiC
_symmetry_space_group_name_H-M   'P 1'
_cell_length_a   4.03437433
_cell_length_b   4.03437433
_cell_length_c   18.13704400
_cell_angle_alpha   90.00000000
_cell_angle_beta   90.00000000
_cell_angle_gamma   90.27047847
_symmetry_Int_Tables_number   1
_chemical_formula_structural   CuNiC
_chemical_formula_sum   'Cu4 Ni4 C4'
_cell_volume   295.19843522
_cell_formula_units_Z   4
loop_
 _symmetry_equiv_pos_site_id
 _symmetry_equiv_pos_as_xyz
  1  'x, y, z'
loop_
 _atom_site_type_symbol
 _atom_site_label
 _atom_site_symmetry_multiplicity
 _atom_site_fract_x
 _atom_site_fract_y
 _atom_site_fract_z
 _atom_site_occupancy
  C  C0  1  0.24399200  0.24399200  0.13957600  1
  C  C1  1  0.25600800  0.25600800  0.63957600  1
  C  C2  1  0.75600800  0.75600800  0.86042400  1
  C  C3  1  0.74399200  0.74399200  0.36042400  1
  Ni  Ni4  1  0.78049500  0.21950500  0.50000000  1
  Ni  Ni5  1  0.71950500  0.28049500  0.00000000  1
  Ni  Ni6  1  0.21950500  0.78049500  0.50000000  1
  Ni  Ni7  1  0.28049500  0.71950500  0.00000000  1
  Cu  Cu8  1  0.24606400  0.24606400  0.31267100  1
  Cu  Cu9  1  0.25393600  0.25393600  0.81267100  1
  Cu  Cu10  1  0.75393600  0.75393600  0.68732900  1
  Cu  Cu11  1  0.74606400  0.74606400  0.18732900  1
