# generated using pymatgen
data_Cu(NiC3)3
_symmetry_space_group_name_H-M   'P 1'
_cell_length_a   7.03275443
_cell_length_b   7.03275443
_cell_length_c   7.03275465
_cell_angle_alpha   63.59791621
_cell_angle_beta   63.59791621
_cell_angle_gamma   63.59791594
_symmetry_Int_Tables_number   1
_chemical_formula_structural   Cu(NiC3)3
_chemical_formula_sum   'Cu2 Ni6 C18'
_cell_volume   265.51178757
_cell_formula_units_Z   2
loop_
 _symmetry_equiv_pos_site_id
 _symmetry_equiv_pos_as_xyz
  1  'x, y, z'
loop_
 _atom_site_type_symbol
 _atom_site_label
 _atom_site_symmetry_multiplicity
 _atom_site_fract_x
 _atom_site_fract_y
 _atom_site_fract_z
 _atom_site_occupancy
  C  C0  1  0.00000000  0.00000000  0.00000000  1
  C  C1  1  0.00000000  0.00000000  0.50000000  1
  C  C2  1  0.50000000  0.00000000  0.00000000  1
  C  C3  1  0.00000000  0.50000000  0.00000000  1
  Ni  Ni4  1  0.71710300  0.30588800  0.30588800  1
  Ni  Ni5  1  0.28289700  0.69411200  0.69411200  1
  Ni  Ni6  1  0.69411200  0.28289700  0.69411200  1
  Ni  Ni7  1  0.30588800  0.30588800  0.71710300  1
  Ni  Ni8  1  0.69411200  0.69411200  0.28289700  1
  Ni  Ni9  1  0.30588800  0.71710300  0.30588800  1
  Cu  Cu10  1  0.68715200  0.68715200  0.68715200  1
  Cu  Cu11  1  0.31284800  0.31284800  0.31284800  1
  C  C12  1  0.25706300  0.88154300  0.25706300  1
  C  C13  1  0.17326500  0.17326500  0.50266800  1
  C  C14  1  0.88154300  0.25706300  0.25706300  1
  C  C15  1  0.82673500  0.49733200  0.82673500  1
  C  C16  1  0.74293700  0.11845700  0.74293700  1
  C  C17  1  0.11845700  0.74293700  0.74293700  1
  C  C18  1  0.40113400  0.40113400  0.40113400  1
  C  C19  1  0.49733200  0.82673500  0.82673500  1
  C  C20  1  0.74293700  0.74293700  0.11845700  1
  C  C21  1  0.25706300  0.25706300  0.88154300  1
  C  C22  1  0.59886600  0.59886600  0.59886600  1
  C  C23  1  0.82673500  0.82673500  0.49733200  1
  C  C24  1  0.50266800  0.17326500  0.17326500  1
  C  C25  1  0.17326500  0.50266800  0.17326500  1
