# generated using pymatgen
data_Cu4NiC20
_symmetry_space_group_name_H-M   'P 1'
_cell_length_a   14.75295000
_cell_length_b   5.11432700
_cell_length_c   20.06213917
_cell_angle_alpha   86.43688806
_cell_angle_beta   90.00000000
_cell_angle_gamma   90.00000000
_symmetry_Int_Tables_number   1
_chemical_formula_structural   Cu4NiC20
_chemical_formula_sum   'Cu16 Ni4 C80'
_cell_volume   1510.79060434
_cell_formula_units_Z   4
loop_
 _symmetry_equiv_pos_site_id
 _symmetry_equiv_pos_as_xyz
  1  'x, y, z'
loop_
 _atom_site_type_symbol
 _atom_site_label
 _atom_site_symmetry_multiplicity
 _atom_site_fract_x
 _atom_site_fract_y
 _atom_site_fract_z
 _atom_site_occupancy
  C  C0  1  0.02794900  0.80781500  0.09923500  1
  C  C1  1  0.52794900  0.19218500  0.40076500  1
  C  C2  1  0.47205100  0.80781500  0.59923500  1
  C  C3  1  0.97205100  0.19218500  0.90076500  1
  C  C4  1  0.29428200  0.22639600  0.32749800  1
  C  C5  1  0.05999600  0.29138800  0.61259600  1
  C  C6  1  0.79428200  0.77360400  0.17250200  1
  C  C7  1  0.32459800  0.80683000  0.07194100  1
  C  C8  1  0.94000400  0.70861200  0.38740400  1
  C  C9  1  0.20571800  0.22639600  0.82749800  1
  C  C10  1  0.82459800  0.19317000  0.42805900  1
  C  C11  1  0.17540200  0.80683000  0.57194100  1
  C  C12  1  0.44000400  0.29138800  0.11259600  1
  C  C13  1  0.70571800  0.77360400  0.67250200  1
  C  C14  1  0.67540200  0.19317000  0.92805900  1
  C  C15  1  0.55999600  0.70861200  0.88740400  1
  Ni  Ni16  1  0.13814300  0.72504900  0.29106700  1
  Ni  Ni17  1  0.36185700  0.72504900  0.79106700  1
  Ni  Ni18  1  0.63814300  0.27495100  0.20893300  1
  Ni  Ni19  1  0.86185700  0.27495100  0.70893300  1
  Cu  Cu20  1  0.22996500  0.27870100  0.17048700  1
  Cu  Cu21  1  0.90009800  0.24952400  0.27120100  1
  Cu  Cu22  1  0.58438800  0.80670800  0.07035600  1
  Cu  Cu23  1  0.32206300  0.67653500  0.43965600  1
  Cu  Cu24  1  0.40009800  0.75047600  0.22879900  1
  Cu  Cu25  1  0.59990200  0.24952400  0.77120100  1
  Cu  Cu26  1  0.72996500  0.72129900  0.32951300  1
  Cu  Cu27  1  0.82206300  0.32346500  0.06034400  1
  Cu  Cu28  1  0.67793700  0.32346500  0.56034400  1
  Cu  Cu29  1  0.91561200  0.80670800  0.57035600  1
  Cu  Cu30  1  0.08438800  0.19329200  0.42964400  1
  Cu  Cu31  1  0.09990200  0.75047600  0.72879900  1
  Cu  Cu32  1  0.41561200  0.19329200  0.92964400  1
  Cu  Cu33  1  0.17793700  0.67653500  0.93965600  1
  Cu  Cu34  1  0.77003500  0.72129900  0.82951300  1
  Cu  Cu35  1  0.27003500  0.27870100  0.67048700  1
  C  C36  1  0.81098600  0.92495400  0.88974500  1
  C  C37  1  0.35705000  0.50691200  0.68173500  1
  C  C38  1  0.18901400  0.07504600  0.11025500  1
  C  C39  1  0.83543900  0.61840500  0.61834800  1
  C  C40  1  0.62829300  0.01648200  0.84849700  1
  C  C41  1  0.87170700  0.01648200  0.34849700  1
  C  C42  1  0.01562900  0.60760000  0.56213900  1
  C  C43  1  0.75311000  0.37559300  0.48956200  1
  C  C44  1  0.98437100  0.39240000  0.43786100  1
  C  C45  1  0.12829300  0.98351800  0.65150300  1
  C  C46  1  0.23825700  0.06867200  0.24946800  1
  C  C47  1  0.00647400  0.55353000  0.71036200  1
  C  C48  1  0.81216700  0.46469400  0.23293000  1
  C  C49  1  0.76174300  0.93132800  0.75053200  1
  C  C50  1  0.16456100  0.38159500  0.38165200  1
  C  C51  1  0.57587200  0.19171600  0.53209200  1
  C  C52  1  0.92412800  0.19171600  0.03209200  1
  C  C53  1  0.55321800  0.09811900  0.11370900  1
  C  C54  1  0.26847400  0.90475000  0.37954300  1
  C  C55  1  0.76847400  0.09525000  0.12045700  1
  C  C56  1  0.73825700  0.93132800  0.25053200  1
  C  C57  1  0.31098600  0.07504600  0.61025500  1
  C  C58  1  0.67110600  0.51190800  0.86655600  1
  C  C59  1  0.49352600  0.55353000  0.21036200  1
  C  C60  1  0.64428300  0.62509600  0.59833800  1
  C  C61  1  0.82889400  0.51190800  0.36655600  1
  C  C62  1  0.44678200  0.90188100  0.88629100  1
  C  C63  1  0.37170700  0.98351800  0.15150300  1
  C  C64  1  0.85705000  0.49308800  0.81826500  1
  C  C65  1  0.17110600  0.48809200  0.63344400  1
  C  C66  1  0.07587200  0.80828400  0.96790800  1
  C  C67  1  0.42412800  0.80828400  0.46790800  1
  C  C68  1  0.18783300  0.53530600  0.76707000  1
  C  C69  1  0.85571700  0.62509600  0.09833800  1
  C  C70  1  0.05321800  0.90188100  0.38629100  1
  C  C71  1  0.32889400  0.48809200  0.13344400  1
  C  C72  1  0.25311000  0.62440700  0.01043800  1
  C  C73  1  0.94678200  0.09811900  0.61370900  1
  C  C74  1  0.35571700  0.37490400  0.40166200  1
  C  C75  1  0.73152600  0.09525000  0.62045700  1
  C  C76  1  0.06150000  0.95698600  0.78939200  1
  C  C77  1  0.24689000  0.62440700  0.51043800  1
  C  C78  1  0.74689000  0.37559300  0.98956200  1
  C  C79  1  0.93850000  0.04301400  0.21060800  1
  C  C80  1  0.31216700  0.53530600  0.26707000  1
  C  C81  1  0.14428300  0.37490400  0.90166200  1
  C  C82  1  0.33543900  0.38159500  0.88165200  1
  C  C83  1  0.14295000  0.50691200  0.18173500  1
  C  C84  1  0.66456100  0.61840500  0.11834800  1
  C  C85  1  0.99352600  0.44647000  0.28963800  1
  C  C86  1  0.68901400  0.92495400  0.38974500  1
  C  C87  1  0.68783300  0.46469400  0.73293000  1
  C  C88  1  0.56150000  0.04301400  0.71060800  1
  C  C89  1  0.23152600  0.90475000  0.87954300  1
  C  C90  1  0.51562900  0.39240000  0.93786100  1
  C  C91  1  0.12662400  0.09617500  0.51271200  1
  C  C92  1  0.64295000  0.49308800  0.31826500  1
  C  C93  1  0.43850000  0.95698600  0.28939200  1
  C  C94  1  0.50647400  0.44647000  0.78963800  1
  C  C95  1  0.87337600  0.90382500  0.48728800  1
  C  C96  1  0.26174300  0.06867200  0.74946800  1
  C  C97  1  0.48437100  0.60760000  0.06213900  1
  C  C98  1  0.62662400  0.90382500  0.98728800  1
  C  C99  1  0.37337600  0.09617500  0.01271200  1
