# generated using pymatgen
data_Cu2NiC6
_symmetry_space_group_name_H-M   'P 1'
_cell_length_a   9.51350100
_cell_length_b   10.26073801
_cell_length_c   11.50778987
_cell_angle_alpha   83.09250091
_cell_angle_beta   69.93849970
_cell_angle_gamma   75.64042574
_symmetry_Int_Tables_number   1
_chemical_formula_structural   Cu2NiC6
_chemical_formula_sum   'Cu8 Ni4 C24'
_cell_volume   1021.45017075
_cell_formula_units_Z   4
loop_
 _symmetry_equiv_pos_site_id
 _symmetry_equiv_pos_as_xyz
  1  'x, y, z'
loop_
 _atom_site_type_symbol
 _atom_site_label
 _atom_site_symmetry_multiplicity
 _atom_site_fract_x
 _atom_site_fract_y
 _atom_site_fract_z
 _atom_site_occupancy
  Ni  Ni0  1  0.37119400  0.83864300  0.05592800  1
  Ni  Ni1  1  0.51757300  0.70329700  0.42595200  1
  Ni  Ni2  1  0.62880600  0.16135700  0.94407200  1
  Ni  Ni3  1  0.48242700  0.29670300  0.57404800  1
  Cu  Cu4  1  0.05029400  0.75813700  0.81127300  1
  Cu  Cu5  1  0.05616600  0.20565800  0.40702600  1
  Cu  Cu6  1  0.85634300  0.53156900  0.69019400  1
  Cu  Cu7  1  0.06385400  0.49568000  0.15568800  1
  Cu  Cu8  1  0.93614600  0.50432000  0.84431300  1
  Cu  Cu9  1  0.14365700  0.46843100  0.30980600  1
  Cu  Cu10  1  0.94970600  0.24186300  0.18872700  1
  Cu  Cu11  1  0.94383400  0.79434200  0.59297400  1
  C  C12  1  0.11783500  0.33652700  0.38798500  1
  C  C13  1  0.98635500  0.17788100  0.30918300  1
  C  C14  1  0.99399300  0.37924200  0.13810600  1
  C  C15  1  0.88216500  0.66347300  0.61201500  1
  C  C16  1  0.01364500  0.82211900  0.69081700  1
  C  C17  1  0.00600700  0.62075800  0.86189400  1
  C  C18  1  0.56473900  0.65351400  0.17581700  1
  C  C19  1  0.33185900  0.90479400  0.40279500  1
  C  C20  1  0.71464800  0.46348000  0.46247000  1
  C  C21  1  0.38812300  0.64718200  0.95288800  1
  C  C22  1  0.28535200  0.53652000  0.53753000  1
  C  C23  1  0.87182000  0.20441200  0.78312500  1
  C  C24  1  0.62006300  0.87295700  0.87982100  1
  C  C25  1  0.43526100  0.34648600  0.82418300  1
  C  C26  1  0.26626200  0.19605200  0.65390900  1
  C  C27  1  0.37993700  0.12704300  0.12017900  1
  C  C28  1  0.12818000  0.79558800  0.21687500  1
  C  C29  1  0.73373800  0.80394800  0.34609100  1
  C  C30  1  0.61187700  0.35281800  0.04711200  1
  C  C31  1  0.22126400  0.98271200  0.94083600  1
  C  C32  1  0.52728300  0.24206200  0.36523000  1
  C  C33  1  0.47271700  0.75793800  0.63477000  1
  C  C34  1  0.66814100  0.09520600  0.59720500  1
  C  C35  1  0.77873600  0.01728800  0.05916400  1
