# generated using pymatgen
data_Cu5Ni2C9
_symmetry_space_group_name_H-M   'P 1'
_cell_length_a   6.53771410
_cell_length_b   6.53771410
_cell_length_c   9.69581206
_cell_angle_alpha   81.62260321
_cell_angle_beta   81.62260321
_cell_angle_gamma   73.95658240
_symmetry_Int_Tables_number   1
_chemical_formula_structural   Cu5Ni2C9
_chemical_formula_sum   'Cu10 Ni4 C18'
_cell_volume   391.59565992
_cell_formula_units_Z   2
loop_
 _symmetry_equiv_pos_site_id
 _symmetry_equiv_pos_as_xyz
  1  'x, y, z'
loop_
 _atom_site_type_symbol
 _atom_site_label
 _atom_site_symmetry_multiplicity
 _atom_site_fract_x
 _atom_site_fract_y
 _atom_site_fract_z
 _atom_site_occupancy
  C  C0  1  0.00000000  0.00000000  0.50000000  1
  C  C1  1  0.00000000  0.00000000  0.00000000  1
  Ni  Ni2  1  0.73888700  0.62637600  0.80569200  1
  Ni  Ni3  1  0.37362400  0.26111300  0.69430800  1
  Ni  Ni4  1  0.26111300  0.37362400  0.19430800  1
  Ni  Ni5  1  0.62637600  0.73888700  0.30569200  1
  Cu  Cu6  1  0.62179700  0.70601600  0.02111700  1
  Cu  Cu7  1  0.29398400  0.37820300  0.47888300  1
  Cu  Cu8  1  0.37820300  0.29398400  0.97888300  1
  Cu  Cu9  1  0.70601600  0.62179700  0.52111700  1
  Cu  Cu10  1  0.08717000  0.54656700  0.82492300  1
  Cu  Cu11  1  0.45343300  0.91283000  0.67507700  1
  Cu  Cu12  1  0.91283000  0.45343300  0.17507700  1
  Cu  Cu13  1  0.54656700  0.08717000  0.32492300  1
  Cu  Cu14  1  0.69598400  0.30401600  0.75000000  1
  Cu  Cu15  1  0.30401600  0.69598400  0.25000000  1
  C  C16  1  0.72846400  0.65272100  0.16648100  1
  C  C17  1  0.34727900  0.27153600  0.33351900  1
  C  C18  1  0.27153600  0.34727900  0.83351900  1
  C  C19  1  0.65272100  0.72846400  0.66648100  1
  C  C20  1  0.73841200  0.57123300  0.42403000  1
  C  C21  1  0.42876700  0.26158800  0.07597000  1
  C  C22  1  0.26158800  0.42876700  0.57597000  1
  C  C23  1  0.57123300  0.73841200  0.92403000  1
  C  C24  1  0.95632900  0.67967300  0.82150800  1
  C  C25  1  0.32032700  0.04367100  0.67849200  1
  C  C26  1  0.04367100  0.32032700  0.17849200  1
  C  C27  1  0.67967300  0.95632900  0.32150800  1
  C  C28  1  0.77967500  0.38082800  0.82460100  1
  C  C29  1  0.61917200  0.22032500  0.67539900  1
  C  C30  1  0.22032500  0.61917200  0.17539900  1
  C  C31  1  0.38082800  0.77967500  0.32460100  1
