# generated using pymatgen
data_CuNi3C7
_symmetry_space_group_name_H-M   'P 1'
_cell_length_a   10.12032802
_cell_length_b   10.12032802
_cell_length_c   6.67055161
_cell_angle_alpha   85.46459529
_cell_angle_beta   85.46459529
_cell_angle_gamma   121.89796456
_symmetry_Int_Tables_number   1
_chemical_formula_structural   CuNi3C7
_chemical_formula_sum   'Cu2 Ni6 C14'
_cell_volume   572.29198791
_cell_formula_units_Z   2
loop_
 _symmetry_equiv_pos_site_id
 _symmetry_equiv_pos_as_xyz
  1  'x, y, z'
loop_
 _atom_site_type_symbol
 _atom_site_label
 _atom_site_symmetry_multiplicity
 _atom_site_fract_x
 _atom_site_fract_y
 _atom_site_fract_z
 _atom_site_occupancy
  Ni  Ni0  1  0.56171700  0.82979900  0.25157600  1
  Ni  Ni1  1  0.28896900  0.71103100  0.75000000  1
  Ni  Ni2  1  0.17020100  0.43828300  0.24842400  1
  Ni  Ni3  1  0.43828300  0.17020100  0.74842400  1
  Ni  Ni4  1  0.71103100  0.28896900  0.25000000  1
  Ni  Ni5  1  0.82979900  0.56171700  0.75157600  1
  Cu  Cu6  1  0.52445400  0.47554600  0.25000000  1
  Cu  Cu7  1  0.47554600  0.52445400  0.75000000  1
  C  C8  1  0.00000000  0.00000000  0.50000000  1
  C  C9  1  0.00000000  0.00000000  0.00000000  1
  C  C10  1  0.62949900  0.40667600  0.50891000  1
  C  C11  1  0.82655100  0.85146100  0.28941400  1
  C  C12  1  0.01152600  0.56022700  0.06925800  1
  C  C13  1  0.37050100  0.59332400  0.49109000  1
  C  C14  1  0.17344900  0.14853900  0.71058600  1
  C  C15  1  0.98847400  0.43977300  0.93074200  1
  C  C16  1  0.85146100  0.82655100  0.78941400  1
  C  C17  1  0.56022700  0.01152600  0.56925800  1
  C  C18  1  0.40667600  0.62949900  0.00891000  1
  C  C19  1  0.14853900  0.17344900  0.21058600  1
  C  C20  1  0.43977300  0.98847400  0.43074200  1
  C  C21  1  0.59332400  0.37050100  0.99109000  1
