# generated using pymatgen
data_Cu4Ni2C9
_symmetry_space_group_name_H-M   'P 1'
_cell_length_a   5.51850500
_cell_length_b   7.59920479
_cell_length_c   8.88844228
_cell_angle_alpha   113.31270811
_cell_angle_beta   105.11609602
_cell_angle_gamma   95.85149452
_symmetry_Int_Tables_number   1
_chemical_formula_structural   Cu4Ni2C9
_chemical_formula_sum   'Cu8 Ni4 C18'
_cell_volume   321.50276994
_cell_formula_units_Z   2
loop_
 _symmetry_equiv_pos_site_id
 _symmetry_equiv_pos_as_xyz
  1  'x, y, z'
loop_
 _atom_site_type_symbol
 _atom_site_label
 _atom_site_symmetry_multiplicity
 _atom_site_fract_x
 _atom_site_fract_y
 _atom_site_fract_z
 _atom_site_occupancy
  Ni  Ni0  1  0.29840300  0.36214900  0.00668600  1
  Ni  Ni1  1  0.97156200  0.52167800  0.33618100  1
  Ni  Ni2  1  0.61381700  0.17845600  0.66151400  1
  Ni  Ni3  1  0.30043600  0.86686700  0.00408400  1
  Cu  Cu4  1  0.71657100  0.14109600  0.00082700  1
  Cu  Cu5  1  0.36426300  0.81948700  0.33531500  1
  Cu  Cu6  1  0.95123800  0.01698700  0.32973200  1
  Cu  Cu7  1  0.04259700  0.47606300  0.66804600  1
  Cu  Cu8  1  0.61882100  0.68354500  0.66097700  1
  Cu  Cu9  1  0.38402900  0.31565200  0.33755000  1
  Cu  Cu10  1  0.02779600  0.97747700  0.66438600  1
  Cu  Cu11  1  0.71350300  0.64487500  0.99914100  1
  C  C12  1  0.39047800  0.63163200  0.09078000  1
  C  C13  1  0.08371600  0.33147100  0.12722600  1
  C  C14  1  0.95695400  0.69425800  0.22823100  1
  C  C15  1  0.05730500  0.32758000  0.43382800  1
  C  C16  1  0.67883900  0.92934600  0.08991000  1
  C  C17  1  0.73670700  0.99530400  0.47784100  1
  C  C18  1  0.61920300  0.36464600  0.20020300  1
  C  C19  1  0.64377000  0.37784000  0.58432000  1
  C  C20  1  0.72854700  0.97599800  0.75852600  1
  C  C21  1  0.26230800  0.00486700  0.21716400  1
  C  C22  1  0.36273600  0.62839300  0.44324700  1
  C  C23  1  0.39536000  0.64865000  0.79410000  1
  C  C24  1  0.27852000  0.03132900  0.55183900  1
  C  C25  1  0.27816800  0.04222600  0.90159400  1
  C  C26  1  0.92611800  0.67972300  0.55483000  1
  C  C27  1  0.05058700  0.29089700  0.78148800  1
  C  C28  1  0.95151500  0.69218700  0.87419500  1
  C  C29  1  0.59613400  0.34932000  0.88623900  1
