# generated using pymatgen
data_Cu4NiC12
_symmetry_space_group_name_H-M   'P 1'
_cell_length_a   15.32111800
_cell_length_b   8.32480600
_cell_length_c   12.03623474
_cell_angle_alpha   81.44420568
_cell_angle_beta   90.00000000
_cell_angle_gamma   90.00000000
_symmetry_Int_Tables_number   1
_chemical_formula_structural   Cu4NiC12
_chemical_formula_sum   'Cu16 Ni4 C48'
_cell_volume   1518.08143840
_cell_formula_units_Z   4
loop_
 _symmetry_equiv_pos_site_id
 _symmetry_equiv_pos_as_xyz
  1  'x, y, z'
loop_
 _atom_site_type_symbol
 _atom_site_label
 _atom_site_symmetry_multiplicity
 _atom_site_fract_x
 _atom_site_fract_y
 _atom_site_fract_z
 _atom_site_occupancy
  C  C0  1  0.60172900  0.70994200  0.38483300  1
  C  C1  1  0.89827100  0.20994200  0.88483300  1
  C  C2  1  0.39827100  0.29005800  0.61516700  1
  C  C3  1  0.10172900  0.79005800  0.11516700  1
  C  C4  1  0.81098100  0.01197900  0.21983000  1
  C  C5  1  0.68901900  0.51197900  0.71983000  1
  C  C6  1  0.18901900  0.98802100  0.78017000  1
  C  C7  1  0.31098100  0.48802100  0.28017000  1
  C  C8  1  0.19951200  0.36806900  0.40277800  1
  C  C9  1  0.30048800  0.86806900  0.90277800  1
  C  C10  1  0.80048800  0.63193100  0.59722200  1
  C  C11  1  0.69951200  0.13193100  0.09722200  1
  C  C12  1  0.20364000  0.45868200  0.39599400  1
  C  C13  1  0.29636000  0.95868200  0.89599400  1
  C  C14  1  0.79636000  0.54131800  0.60400600  1
  C  C15  1  0.70364000  0.04131800  0.10400600  1
  C  C16  1  0.46546300  0.17091200  0.29325200  1
  C  C17  1  0.03453700  0.67091200  0.79325200  1
  C  C18  1  0.53453700  0.82908800  0.70674800  1
  C  C19  1  0.96546300  0.32908800  0.20674800  1
  C  C20  1  0.24616600  0.93318400  0.28420700  1
  C  C21  1  0.25383400  0.43318400  0.78420700  1
  C  C22  1  0.75383400  0.06681600  0.71579300  1
  C  C23  1  0.74616600  0.56681600  0.21579300  1
  C  C24  1  0.00092100  0.54235900  0.48389000  1
  C  C25  1  0.49907900  0.04235900  0.98389000  1
  C  C26  1  0.99907900  0.45764100  0.51611000  1
  C  C27  1  0.50092100  0.95764100  0.01611000  1
  C  C28  1  0.38647600  0.44813900  0.20103200  1
  C  C29  1  0.11352400  0.94813900  0.70103200  1
  C  C30  1  0.61352400  0.55186100  0.79896800  1
  C  C31  1  0.88647600  0.05186100  0.29896800  1
  Ni  Ni32  1  0.46893400  0.62046100  0.19705200  1
  Ni  Ni33  1  0.03106600  0.12046100  0.69705200  1
  Ni  Ni34  1  0.53106600  0.37953900  0.80294800  1
  Ni  Ni35  1  0.96893400  0.87953900  0.30294800  1
  Cu  Cu36  1  0.43743000  0.34228600  0.39202100  1
  Cu  Cu37  1  0.06257000  0.84228600  0.89202100  1
  Cu  Cu38  1  0.56257000  0.65771400  0.60797900  1
  Cu  Cu39  1  0.93743000  0.15771400  0.10797900  1
  Cu  Cu40  1  0.26511800  0.83094300  0.21719600  1
  Cu  Cu41  1  0.23488200  0.33094300  0.71719600  1
  Cu  Cu42  1  0.73488200  0.16905700  0.78280400  1
  Cu  Cu43  1  0.76511800  0.66905700  0.28280400  1
  Cu  Cu44  1  0.29683000  0.53242200  0.05084600  1
  Cu  Cu45  1  0.20317000  0.03242200  0.55084600  1
  Cu  Cu46  1  0.70317000  0.46757800  0.94915400  1
  Cu  Cu47  1  0.79683000  0.96757800  0.44915400  1
  Cu  Cu48  1  0.45924800  0.14537600  0.18709200  1
  Cu  Cu49  1  0.04075200  0.64537600  0.68709200  1
  Cu  Cu50  1  0.54075200  0.85462400  0.81290800  1
  Cu  Cu51  1  0.95924800  0.35462400  0.31290800  1
  C  C52  1  0.64958300  0.36687900  0.41516800  1
  C  C53  1  0.85041700  0.86687900  0.91516800  1
  C  C54  1  0.35041700  0.63312100  0.58483200  1
  C  C55  1  0.14958300  0.13312100  0.08483200  1
  C  C56  1  0.51317900  0.62838300  0.10884100  1
  C  C57  1  0.98682100  0.12838300  0.60884100  1
  C  C58  1  0.48682100  0.37161700  0.89115900  1
  C  C59  1  0.01317900  0.87161700  0.39115900  1
  C  C60  1  0.62569200  0.23500900  0.46832700  1
  C  C61  1  0.87430800  0.73500900  0.96832700  1
  C  C62  1  0.37430800  0.76499100  0.53167300  1
  C  C63  1  0.12569200  0.26499100  0.03167300  1
  C  C64  1  0.01506100  0.20641600  0.77273000  1
  C  C65  1  0.48493900  0.70641600  0.27273000  1
  C  C66  1  0.98493900  0.79358400  0.22727000  1
  C  C67  1  0.51506100  0.29358400  0.72727000  1
