# generated using pymatgen
data_Cu6Ni5C3
_symmetry_space_group_name_H-M   'P 1'
_cell_length_a   8.01466500
_cell_length_b   9.27638200
_cell_length_c   13.32580500
_cell_angle_alpha   90.00000000
_cell_angle_beta   90.00000000
_cell_angle_gamma   90.00000000
_symmetry_Int_Tables_number   1
_chemical_formula_structural   Cu6Ni5C3
_chemical_formula_sum   'Cu24 Ni20 C12'
_cell_volume   990.73487885
_cell_formula_units_Z   4
loop_
 _symmetry_equiv_pos_site_id
 _symmetry_equiv_pos_as_xyz
  1  'x, y, z'
loop_
 _atom_site_type_symbol
 _atom_site_label
 _atom_site_symmetry_multiplicity
 _atom_site_fract_x
 _atom_site_fract_y
 _atom_site_fract_z
 _atom_site_occupancy
  C  C0  1  0.75000000  0.85807800  0.21848100  1
  C  C1  1  0.75000000  0.64192200  0.71848100  1
  C  C2  1  0.25000000  0.35807800  0.28151900  1
  C  C3  1  0.25000000  0.14192200  0.78151900  1
  C  C4  1  0.75000000  0.35802800  0.00774300  1
  C  C5  1  0.25000000  0.64197200  0.99225700  1
  C  C6  1  0.75000000  0.14197200  0.50774300  1
  C  C7  1  0.25000000  0.85802800  0.49225700  1
  Ni  Ni8  1  0.92059800  0.82518900  0.11965500  1
  Ni  Ni9  1  0.41794900  0.42196200  0.18892800  1
  Ni  Ni10  1  0.57940200  0.67481100  0.61965500  1
  Ni  Ni11  1  0.58205100  0.92196200  0.31107200  1
  Ni  Ni12  1  0.41794900  0.07803800  0.68892800  1
  Ni  Ni13  1  0.07940200  0.32518900  0.38034500  1
  Ni  Ni14  1  0.42059800  0.32518900  0.38034500  1
  Ni  Ni15  1  0.42059800  0.17481100  0.88034500  1
  Ni  Ni16  1  0.08205100  0.07803800  0.68892800  1
  Ni  Ni17  1  0.75000000  0.05379700  0.16770900  1
  Ni  Ni18  1  0.08205100  0.42196200  0.18892800  1
  Ni  Ni19  1  0.25000000  0.55379700  0.33229100  1
  Ni  Ni20  1  0.92059800  0.67481100  0.61965500  1
  Ni  Ni21  1  0.07940200  0.17481100  0.88034500  1
  Ni  Ni22  1  0.91794900  0.92196200  0.31107200  1
  Ni  Ni23  1  0.91794900  0.57803800  0.81107200  1
  Ni  Ni24  1  0.58205100  0.57803800  0.81107200  1
  Ni  Ni25  1  0.57940200  0.82518900  0.11965500  1
  Ni  Ni26  1  0.25000000  0.94620300  0.83229100  1
  Ni  Ni27  1  0.75000000  0.44620300  0.66770900  1
  Cu  Cu28  1  0.98274000  0.04154300  0.62926300  1
  Cu  Cu29  1  0.47359100  0.80421400  0.06073600  1
  Cu  Cu30  1  0.75000000  0.17076900  0.13527300  1
  Cu  Cu31  1  0.52640900  0.30421400  0.43926400  1
  Cu  Cu32  1  0.02640900  0.69578600  0.56073600  1
  Cu  Cu33  1  0.52640900  0.19578600  0.93926400  1
  Cu  Cu34  1  0.48274000  0.54154300  0.87073700  1
  Cu  Cu35  1  0.51726000  0.04154300  0.62926300  1
  Cu  Cu36  1  0.25000000  0.82923100  0.86472700  1
  Cu  Cu37  1  0.97359100  0.19578600  0.93926400  1
  Cu  Cu38  1  0.98274000  0.45845700  0.12926300  1
  Cu  Cu39  1  0.25000000  0.30797300  0.73337000  1
  Cu  Cu40  1  0.75000000  0.80797300  0.76663000  1
  Cu  Cu41  1  0.25000000  0.19202700  0.23337000  1
  Cu  Cu42  1  0.25000000  0.67076900  0.36472700  1
  Cu  Cu43  1  0.47359100  0.69578600  0.56073600  1
  Cu  Cu44  1  0.75000000  0.32923100  0.63527300  1
  Cu  Cu45  1  0.51726000  0.45845700  0.12926300  1
  Cu  Cu46  1  0.01726000  0.95845700  0.37073700  1
  Cu  Cu47  1  0.48274000  0.95845700  0.37073700  1
  Cu  Cu48  1  0.75000000  0.69202700  0.26663000  1
  Cu  Cu49  1  0.01726000  0.54154300  0.87073700  1
  Cu  Cu50  1  0.97359100  0.30421400  0.43926400  1
  Cu  Cu51  1  0.02640900  0.80421400  0.06073600  1
  C  C52  1  0.25000000  0.41750900  0.69351900  1
  C  C53  1  0.75000000  0.91750900  0.80648100  1
  C  C54  1  0.75000000  0.58249100  0.30648100  1
  C  C55  1  0.25000000  0.08249100  0.19351900  1
