# generated using pymatgen
data_Cu18NiC10
_symmetry_space_group_name_H-M   'P 1'
_cell_length_a   10.41163200
_cell_length_b   10.55862764
_cell_length_c   10.65754653
_cell_angle_alpha   118.50040687
_cell_angle_beta   100.01584499
_cell_angle_gamma   103.94940285
_symmetry_Int_Tables_number   1
_chemical_formula_structural   Cu18NiC10
_chemical_formula_sum   'Cu18 Ni1 C10'
_cell_volume   940.17075959
_cell_formula_units_Z   1
loop_
 _symmetry_equiv_pos_site_id
 _symmetry_equiv_pos_as_xyz
  1  'x, y, z'
loop_
 _atom_site_type_symbol
 _atom_site_label
 _atom_site_symmetry_multiplicity
 _atom_site_fract_x
 _atom_site_fract_y
 _atom_site_fract_z
 _atom_site_occupancy
  C  C0  1  0.18613300  0.16018300  0.56395000  1
  C  C1  1  0.84746100  0.18873300  0.77291300  1
  C  C2  1  0.15253900  0.81126700  0.22708700  1
  C  C3  1  0.81386700  0.83981700  0.43605000  1
  C  C4  1  0.35308800  0.67050900  0.77423700  1
  C  C5  1  0.36397400  0.49338300  0.13040400  1
  C  C6  1  0.64267600  0.69007700  0.04447900  1
  C  C7  1  0.64691200  0.32949100  0.22576300  1
  C  C8  1  0.35732400  0.30992300  0.95552100  1
  C  C9  1  0.63602600  0.50661700  0.86959600  1
  Ni  Ni10  1  0.50000000  0.50000000  0.00000000  1
  Cu  Cu11  1  0.82213900  0.31195800  0.11059800  1
  Cu  Cu12  1  0.51414100  0.29505200  0.41062700  1
  Cu  Cu13  1  0.17688300  0.07557500  0.89922900  1
  Cu  Cu14  1  0.17786100  0.68804200  0.88940200  1
  Cu  Cu15  1  0.83043500  0.52255400  0.31284000  1
  Cu  Cu16  1  0.50339100  0.08451700  0.21021300  1
  Cu  Cu17  1  0.79916200  0.51302100  0.71018400  1
  Cu  Cu18  1  0.16956500  0.47744600  0.68716000  1
  Cu  Cu19  1  0.50750200  0.71346600  0.19831400  1
  Cu  Cu20  1  0.81898100  0.72613400  0.90251800  1
  Cu  Cu21  1  0.20083800  0.48697900  0.28981600  1
  Cu  Cu22  1  0.16608300  0.88257300  0.49584400  1
  Cu  Cu23  1  0.49660900  0.91548300  0.78978700  1
  Cu  Cu24  1  0.82311700  0.92442500  0.10077100  1
  Cu  Cu25  1  0.48585900  0.70494800  0.58937300  1
  Cu  Cu26  1  0.18101900  0.27386600  0.09748200  1
  Cu  Cu27  1  0.83391700  0.11742700  0.50415600  1
  Cu  Cu28  1  0.49249800  0.28653400  0.80168600  1
