# generated using pymatgen
data_Cu3(NiC12)2
_symmetry_space_group_name_H-M   'P 1'
_cell_length_a   14.26996363
_cell_length_b   14.26996363
_cell_length_c   14.26996402
_cell_angle_alpha   23.56844542
_cell_angle_beta   23.56844542
_cell_angle_gamma   23.56844794
_symmetry_Int_Tables_number   1
_chemical_formula_structural   Cu3(NiC12)2
_chemical_formula_sum   'Cu3 Ni2 C24'
_cell_volume   407.99875436
_cell_formula_units_Z   1
loop_
 _symmetry_equiv_pos_site_id
 _symmetry_equiv_pos_as_xyz
  1  'x, y, z'
loop_
 _atom_site_type_symbol
 _atom_site_label
 _atom_site_symmetry_multiplicity
 _atom_site_fract_x
 _atom_site_fract_y
 _atom_site_fract_z
 _atom_site_occupancy
  C  C0  1  0.91634100  0.91634100  0.91634100  1
  C  C1  1  0.19002700  0.19002700  0.19002700  1
  C  C2  1  0.08543700  0.08543700  0.08543700  1
  C  C3  1  0.82035400  0.82035400  0.82035400  1
  C  C4  1  0.63959100  0.63959100  0.63959100  1
  C  C5  1  0.36620200  0.36620200  0.36620200  1
  Ni  Ni6  1  0.72440900  0.72440900  0.72440900  1
  Ni  Ni7  1  0.27659400  0.27659400  0.27659400  1
  Cu  Cu8  1  0.99964000  0.99964000  0.99964000  1
  Cu  Cu9  1  0.55310800  0.55310800  0.55310800  1
  Cu  Cu10  1  0.44740000  0.44740000  0.44740000  1
  C  C11  1  0.85468200  0.85468200  0.36345600  1
  C  C12  1  0.85468200  0.36345600  0.85468200  1
  C  C13  1  0.36345600  0.85468200  0.85468200  1
  C  C14  1  0.88758000  0.42950000  0.42950000  1
  C  C15  1  0.42950000  0.42950000  0.88758000  1
  C  C16  1  0.42950000  0.88758000  0.42950000  1
  C  C17  1  0.69246400  0.19926100  0.69246400  1
  C  C18  1  0.69246400  0.69246400  0.19926100  1
  C  C19  1  0.19926100  0.69246400  0.69246400  1
  C  C20  1  0.79516100  0.30787300  0.30787300  1
  C  C21  1  0.30787300  0.30787300  0.79516100  1
  C  C22  1  0.30787300  0.79516100  0.30787300  1
  C  C23  1  0.56545300  0.11478400  0.56545300  1
  C  C24  1  0.56545300  0.56545300  0.11478400  1
  C  C25  1  0.11478400  0.56545300  0.56545300  1
  C  C26  1  0.64196000  0.13937600  0.13937600  1
  C  C27  1  0.13937600  0.64196000  0.13937600  1
  C  C28  1  0.13937600  0.13937600  0.64196000  1
