# generated using pymatgen
data_Cu18Ni8C15
_symmetry_space_group_name_H-M   'P 1'
_cell_length_a   16.98914413
_cell_length_b   16.98914413
_cell_length_c   16.98914413
_cell_angle_alpha   123.36857325
_cell_angle_beta   123.36857325
_cell_angle_gamma   84.25821024
_symmetry_Int_Tables_number   1
_chemical_formula_structural   Cu18Ni8C15
_chemical_formula_sum   'Cu72 Ni32 C60'
_cell_volume   3272.84461018
_cell_formula_units_Z   4
loop_
 _symmetry_equiv_pos_site_id
 _symmetry_equiv_pos_as_xyz
  1  'x, y, z'
loop_
 _atom_site_type_symbol
 _atom_site_label
 _atom_site_symmetry_multiplicity
 _atom_site_fract_x
 _atom_site_fract_y
 _atom_site_fract_z
 _atom_site_occupancy
  C  C0  1  0.37992300  0.62939100  0.00931400  1
  C  C1  1  0.87631200  0.37631200  0.25262500  1
  C  C2  1  0.12939100  0.87992300  0.00931400  1
  C  C3  1  0.62939100  0.62007700  0.24946800  1
  C  C4  1  0.37631200  0.12368800  0.50000000  1
  C  C5  1  0.62007700  0.37060900  0.99068600  1
  C  C6  1  0.62368800  0.87631200  0.50000000  1
  C  C7  1  0.37060900  0.37992300  0.75053200  1
  C  C8  1  0.12368800  0.62368800  0.74737500  1
  C  C9  1  0.87060900  0.12007700  0.99068600  1
  C  C10  1  0.12007700  0.12939100  0.24946800  1
  C  C11  1  0.87992300  0.87060900  0.75053200  1
  C  C12  1  0.25000000  0.75000000  0.50000000  1
  C  C13  1  0.75000000  0.25000000  0.50000000  1
  C  C14  1  0.75000000  0.49305600  0.74305600  1
  C  C15  1  0.50694400  0.25000000  0.25694400  1
  C  C16  1  0.25000000  0.99305600  0.74305600  1
  C  C17  1  0.49751200  0.99751200  0.74250800  1
  C  C18  1  0.00694400  0.75000000  0.25694400  1
  C  C19  1  0.25000000  0.50694400  0.25694400  1
  C  C20  1  0.99751200  0.25500500  0.50000000  1
  C  C21  1  0.99305600  0.25000000  0.74305600  1
  C  C22  1  0.50000000  0.50000000  0.50000000  1
  C  C23  1  0.24499500  0.50248800  0.50000000  1
  C  C24  1  0.00000000  0.50000000  0.00000000  1
  C  C25  1  0.74499500  0.24499500  0.74250800  1
  C  C26  1  0.75500500  0.49751200  0.50000000  1
  C  C27  1  0.75000000  0.00694400  0.25694400  1
  C  C28  1  0.75000000  0.75000000  0.00000000  1
  C  C29  1  0.00248800  0.74499500  0.50000000  1
  C  C30  1  0.49305600  0.75000000  0.74305600  1
  C  C31  1  0.25500500  0.75500500  0.25749200  1
  C  C32  1  0.50248800  0.00248800  0.25749200  1
  C  C33  1  0.50000000  0.00000000  0.00000000  1
  C  C34  1  0.00000000  0.00000000  0.50000000  1
  C  C35  1  0.25000000  0.25000000  0.00000000  1
  C  C36  1  0.43613000  0.72094000  0.50000000  1
  C  C37  1  0.03848600  0.01032800  0.72883800  1
  C  C38  1  0.22094000  0.93613000  0.50000000  1
  C  C39  1  0.53848600  0.80964800  0.02815800  1
  C  C40  1  0.30964800  0.03848600  0.02815800  1
  C  C41  1  0.77906000  0.06387000  0.50000000  1
  C  C42  1  0.21851000  0.48967200  0.02815800  1
  C  C43  1  0.98967200  0.71851000  0.02815800  1
  C  C44  1  0.01032800  0.28149000  0.97184200  1
  C  C45  1  0.06387000  0.56387000  0.28481000  1
  C  C46  1  0.71851000  0.69035200  0.72883800  1
  C  C47  1  0.80964800  0.78149000  0.27116200  1
  C  C48  1  0.72094000  0.22094000  0.28481000  1
  C  C49  1  0.93613000  0.43613000  0.71519000  1
  C  C50  1  0.46151400  0.19035200  0.97184200  1
  C  C51  1  0.69035200  0.96151400  0.97184200  1
  C  C52  1  0.56387000  0.27906000  0.50000000  1
  C  C53  1  0.27906000  0.77906000  0.71519000  1
  C  C54  1  0.51032800  0.53848600  0.72883800  1
  C  C55  1  0.19035200  0.21851000  0.72883800  1
  C  C56  1  0.48967200  0.46151400  0.27116200  1
  C  C57  1  0.96151400  0.98967200  0.27116200  1
  C  C58  1  0.28149000  0.30964800  0.27116200  1
  C  C59  1  0.78149000  0.51032800  0.97184200  1
  Ni  Ni60  1  0.58210500  0.31008500  0.74194200  1
  Ni  Ni61  1  0.18450100  0.68450100  0.02178100  1
  Ni  Ni62  1  0.07716000  0.07716000  0.00000000  1
  Ni  Ni63  1  0.15983700  0.41789500  0.72797900  1
  Ni  Ni64  1  0.57716000  0.57716000  0.00000000  1
  Ni  Ni65  1  0.93185800  0.18991500  0.27202100  1
  Ni  Ni66  1  0.07584300  0.57584300  0.50000000  1
  Ni  Ni67  1  0.42284000  0.42284000  0.00000000  1
  Ni  Ni68  1  0.68450100  0.66272000  0.50000000  1
  Ni  Ni69  1  0.92415700  0.42415700  0.50000000  1
  Ni  Ni70  1  0.57584300  0.07584300  0.50000000  1
  Ni  Ni71  1  0.06814200  0.81008500  0.72797900  1
  Ni  Ni72  1  0.92284000  0.92284000  0.00000000  1
  Ni  Ni73  1  0.66272000  0.16272000  0.97821900  1
  Ni  Ni74  1  0.91789500  0.65983700  0.72797900  1
  Ni  Ni75  1  0.08210500  0.34016300  0.27202100  1
  Ni  Ni76  1  0.42415700  0.92415700  0.50000000  1
  Ni  Ni77  1  0.81008500  0.08210500  0.74194200  1
  Ni  Ni78  1  0.16272000  0.18450100  0.50000000  1
  Ni  Ni79  1  0.18991500  0.91789500  0.25805800  1
  Ni  Ni80  1  0.65983700  0.93185800  0.74194200  1
  Ni  Ni81  1  0.81549900  0.31549900  0.97821900  1
  Ni  Ni82  1  0.83728000  0.81549900  0.50000000  1
  Ni  Ni83  1  0.33728000  0.83728000  0.02178100  1
  Ni  Ni84  1  0.41789500  0.68991500  0.25805800  1
  Ni  Ni85  1  0.84016300  0.58210500  0.27202100  1
  Ni  Ni86  1  0.68991500  0.43185800  0.27202100  1
  Ni  Ni87  1  0.34016300  0.06814200  0.25805800  1
  Ni  Ni88  1  0.31549900  0.33728000  0.50000000  1
  Ni  Ni89  1  0.43185800  0.15983700  0.74194200  1
  Ni  Ni90  1  0.31008500  0.56814200  0.72797900  1
  Ni  Ni91  1  0.56814200  0.84016300  0.25805800  1
  Cu  Cu92  1  0.40506100  0.31851000  0.32839500  1
  Cu  Cu93  1  0.18260100  0.56405300  0.37627200  1
  Cu  Cu94  1  0.57666600  0.49011600  0.67160500  1
  Cu  Cu95  1  0.92333400  0.59493900  0.91344900  1
  Cu  Cu96  1  0.80606600  0.42850700  0.86982800  1
  Cu  Cu97  1  0.81739900  0.43594700  0.62372800  1
  Cu  Cu98  1  0.19367100  0.81739900  0.38145300  1
  Cu  Cu99  1  0.73722100  0.57463300  0.91352200  1
  Cu  Cu100  1  0.59439300  0.37405100  0.50000000  1
  Cu  Cu101  1  0.80632900  0.18260100  0.61854700  1
  Cu  Cu102  1  0.76277900  0.67630100  0.83741200  1
  Cu  Cu103  1  0.55867900  0.93623800  0.13017200  1
  Cu  Cu104  1  0.16111100  0.07463300  0.83741200  1
  Cu  Cu105  1  0.69367100  0.31221800  0.37627200  1
  Cu  Cu106  1  0.30606600  0.43623800  0.37755900  1
  Cu  Cu107  1  0.92536700  0.76277900  0.08647800  1
  Cu  Cu108  1  0.07666600  0.40506100  0.08655100  1
  Cu  Cu109  1  0.50988400  0.18149000  0.08655100  1
  Cu  Cu110  1  0.82369900  0.73722100  0.16258800  1
  Cu  Cu111  1  0.68149000  0.00988400  0.08655100  1
  Cu  Cu112  1  0.00988400  0.92333400  0.32839500  1
  Cu  Cu113  1  0.37405100  0.87405100  0.77965800  1
  Cu  Cu114  1  0.49011600  0.81851000  0.91344900  1
  Cu  Cu115  1  0.42333400  0.50988400  0.32839500  1
  Cu  Cu116  1  0.66111200  0.82369900  0.08647800  1
  Cu  Cu117  1  0.94132100  0.07149300  0.37755900  1
  Cu  Cu118  1  0.56405300  0.18778200  0.38145300  1
  Cu  Cu119  1  0.09439300  0.59439300  0.22034200  1
  Cu  Cu120  1  0.31851000  0.99011600  0.91344900  1
  Cu  Cu121  1  0.43623800  0.05867900  0.13017200  1
  Cu  Cu122  1  0.09493900  0.42333400  0.91344900  1
  Cu  Cu123  1  0.57463300  0.66111200  0.83741200  1
  Cu  Cu124  1  0.33888800  0.17630100  0.91352200  1
  Cu  Cu125  1  0.56376200  0.94132100  0.86982800  1
  Cu  Cu126  1  0.93594700  0.31739900  0.62372800  1
  Cu  Cu127  1  0.83888800  0.92536700  0.16258800  1
  Cu  Cu128  1  0.19393400  0.57149300  0.13017200  1
  Cu  Cu129  1  0.40560700  0.62594900  0.50000000  1
  Cu  Cu130  1  0.07463300  0.23722100  0.91352200  1
  Cu  Cu131  1  0.42850700  0.55867900  0.62244100  1
  Cu  Cu132  1  0.57149300  0.44132100  0.37755900  1
  Cu  Cu133  1  0.06405300  0.68260100  0.37627200  1
  Cu  Cu134  1  0.62594900  0.12594900  0.22034200  1
  Cu  Cu135  1  0.81851000  0.90506100  0.32839500  1
  Cu  Cu136  1  0.44132100  0.06376200  0.86982800  1
  Cu  Cu137  1  0.68260100  0.30632900  0.61854700  1
  Cu  Cu138  1  0.99011600  0.07666600  0.67160500  1
  Cu  Cu139  1  0.06376200  0.19393400  0.62244100  1
  Cu  Cu140  1  0.69393400  0.56376200  0.62244100  1
  Cu  Cu141  1  0.87405100  0.09439300  0.50000000  1
  Cu  Cu142  1  0.18149000  0.09493900  0.67160500  1
  Cu  Cu143  1  0.31221800  0.93594600  0.61854700  1
  Cu  Cu144  1  0.18778200  0.80632900  0.62372800  1
  Cu  Cu145  1  0.26277900  0.42536700  0.08647800  1
  Cu  Cu146  1  0.23722100  0.32369900  0.16258800  1
  Cu  Cu147  1  0.32369900  0.16111200  0.08647800  1
  Cu  Cu148  1  0.67630100  0.83888800  0.91352200  1
  Cu  Cu149  1  0.30632900  0.68778200  0.62372800  1
  Cu  Cu150  1  0.31739900  0.69367100  0.38145300  1
  Cu  Cu151  1  0.81221800  0.19367100  0.37627200  1
  Cu  Cu152  1  0.92850700  0.30606600  0.86982800  1
  Cu  Cu153  1  0.68778200  0.06405300  0.38145300  1
  Cu  Cu154  1  0.12594900  0.90560700  0.50000000  1
  Cu  Cu155  1  0.90560700  0.40560700  0.77965800  1
  Cu  Cu156  1  0.93623800  0.80606600  0.37755900  1
  Cu  Cu157  1  0.05867900  0.92850700  0.62244100  1
  Cu  Cu158  1  0.17630100  0.26277900  0.83741200  1
  Cu  Cu159  1  0.90506100  0.57666600  0.08655100  1
  Cu  Cu160  1  0.43594700  0.81221800  0.61854700  1
  Cu  Cu161  1  0.07149300  0.69393400  0.13017200  1
  Cu  Cu162  1  0.42536700  0.33888800  0.16258800  1
  Cu  Cu163  1  0.59493900  0.68149000  0.67160500  1
