# generated using pymatgen
data_Cu2NiC4
_symmetry_space_group_name_H-M   'P 1'
_cell_length_a   9.03509400
_cell_length_b   10.46548800
_cell_length_c   14.49226345
_cell_angle_alpha   69.44072217
_cell_angle_beta   90.00000000
_cell_angle_gamma   90.00000000
_symmetry_Int_Tables_number   1
_chemical_formula_structural   Cu2NiC4
_chemical_formula_sum   'Cu8 Ni4 C16'
_cell_volume   1283.06230858
_cell_formula_units_Z   4
loop_
 _symmetry_equiv_pos_site_id
 _symmetry_equiv_pos_as_xyz
  1  'x, y, z'
loop_
 _atom_site_type_symbol
 _atom_site_label
 _atom_site_symmetry_multiplicity
 _atom_site_fract_x
 _atom_site_fract_y
 _atom_site_fract_z
 _atom_site_occupancy
  Ni  Ni0  1  0.37769100  0.85261900  0.46511000  1
  Ni  Ni1  1  0.87769100  0.14738100  0.03489000  1
  Ni  Ni2  1  0.12230900  0.85261900  0.96511000  1
  Ni  Ni3  1  0.62230900  0.14738100  0.53489000  1
  Cu  Cu4  1  0.82747600  0.45321100  0.61540700  1
  Cu  Cu5  1  0.67252400  0.45321100  0.11540700  1
  Cu  Cu6  1  0.57047000  0.31837500  0.81602500  1
  Cu  Cu7  1  0.07047000  0.68162500  0.68397500  1
  Cu  Cu8  1  0.17252400  0.54678900  0.38459300  1
  Cu  Cu9  1  0.32747600  0.54678900  0.88459300  1
  Cu  Cu10  1  0.42953000  0.68162500  0.18397500  1
  Cu  Cu11  1  0.92953000  0.31837500  0.31602500  1
  C  C12  1  0.03111600  0.34642900  0.45774200  1
  C  C13  1  0.46888400  0.34642900  0.95774200  1
  C  C14  1  0.18482500  0.74711400  0.80826800  1
  C  C15  1  0.31517500  0.74711400  0.30826800  1
  C  C16  1  0.96888400  0.65357100  0.54225800  1
  C  C17  1  0.68482500  0.25288600  0.69173200  1
  C  C18  1  0.81517500  0.25288600  0.19173200  1
  C  C19  1  0.53111600  0.65357100  0.04225800  1
  C  C20  1  0.05445700  0.62124400  0.11135100  1
  C  C21  1  0.34452700  0.05586700  0.57712300  1
  C  C22  1  0.44554300  0.62124400  0.61135100  1
  C  C23  1  0.84452700  0.94413300  0.92287700  1
  C  C24  1  0.15547300  0.05586700  0.07712300  1
  C  C25  1  0.65547300  0.94413300  0.42287700  1
  C  C26  1  0.94554300  0.37875600  0.88864900  1
  C  C27  1  0.55445700  0.37875600  0.38864900  1
