# generated using pymatgen
data_Cu6NiC5
_symmetry_space_group_name_H-M   'P 1'
_cell_length_a   19.29823600
_cell_length_b   5.03167500
_cell_length_c   5.80042462
_cell_angle_alpha   57.73277983
_cell_angle_beta   90.00000000
_cell_angle_gamma   90.00000000
_symmetry_Int_Tables_number   1
_chemical_formula_structural   Cu6NiC5
_chemical_formula_sum   'Cu24 Ni4 C20'
_cell_volume   476.25353936
_cell_formula_units_Z   4
loop_
 _symmetry_equiv_pos_site_id
 _symmetry_equiv_pos_as_xyz
  1  'x, y, z'
loop_
 _atom_site_type_symbol
 _atom_site_label
 _atom_site_symmetry_multiplicity
 _atom_site_fract_x
 _atom_site_fract_y
 _atom_site_fract_z
 _atom_site_occupancy
  C  C0  1  0.74515800  0.34396800  0.83823700  1
  C  C1  1  0.25484200  0.34396800  0.33823700  1
  C  C2  1  0.75517400  0.64982300  0.15983300  1
  C  C3  1  0.24482600  0.64982300  0.65983300  1
  C  C4  1  0.68543200  0.86654300  0.62616000  1
  C  C5  1  0.31456800  0.86654300  0.12616000  1
  C  C6  1  0.81417100  0.13764300  0.36962900  1
  C  C7  1  0.18582900  0.13764300  0.86962900  1
  C  C8  1  0.54340600  0.90922800  0.67546600  1
  C  C9  1  0.45659400  0.90922800  0.17546600  1
  C  C10  1  0.98493100  0.08872300  0.15823800  1
  C  C11  1  0.01506900  0.08872300  0.65823800  1
  C  C12  1  0.61394500  0.58103100  0.39521600  1
  C  C13  1  0.38605500  0.58103100  0.89521600  1
  C  C14  1  0.88327400  0.41445500  0.60928000  1
  C  C15  1  0.11672600  0.41445500  0.10928000  1
  C  C16  1  0.56934400  0.40132600  0.01358900  1
  C  C17  1  0.43065600  0.40132600  0.51358900  1
  C  C18  1  0.93182600  0.59043100  0.99168400  1
  C  C19  1  0.06817400  0.59043100  0.49168400  1
  Ni  Ni20  1  0.63200800  0.11712700  0.84457700  1
  Ni  Ni21  1  0.36799200  0.11712700  0.34457700  1
  Ni  Ni22  1  0.86818500  0.87894600  0.15778300  1
  Ni  Ni23  1  0.13181500  0.87894600  0.65778300  1
  Cu  Cu24  1  0.69648600  0.43472000  0.80035900  1
  Cu  Cu25  1  0.30351400  0.43472000  0.30035900  1
  Cu  Cu26  1  0.80390400  0.56071400  0.20049100  1
  Cu  Cu27  1  0.19609600  0.56071400  0.70049100  1
  Cu  Cu28  1  0.67447800  0.78722600  0.13849900  1
  Cu  Cu29  1  0.32552200  0.78722600  0.63849900  1
  Cu  Cu30  1  0.82440500  0.20300200  0.86346700  1
  Cu  Cu31  1  0.17559500  0.20300200  0.36346700  1
  Cu  Cu32  1  0.68174600  0.09139700  0.56848100  1
  Cu  Cu33  1  0.31825400  0.09139700  0.06848100  1
  Cu  Cu34  1  0.81804800  0.91240200  0.42748800  1
  Cu  Cu35  1  0.18195200  0.91240200  0.92748800  1
  Cu  Cu36  1  0.56203000  0.82271800  0.85948900  1
  Cu  Cu37  1  0.43797000  0.82271800  0.35948900  1
  Cu  Cu38  1  0.93806200  0.17650100  0.13429600  1
  Cu  Cu39  1  0.06193800  0.17650100  0.63429600  1
  Cu  Cu40  1  0.58032700  0.45766000  0.55149400  1
  Cu  Cu41  1  0.41967300  0.45766000  0.05149400  1
  Cu  Cu42  1  0.91801000  0.53668000  0.45549800  1
  Cu  Cu43  1  0.08199000  0.53668000  0.95549800  1
  Cu  Cu44  1  0.57368200  0.17209400  0.08546900  1
  Cu  Cu45  1  0.42631800  0.17209400  0.58546900  1
  Cu  Cu46  1  0.92858600  0.81909700  0.92260800  1
  Cu  Cu47  1  0.07141400  0.81909700  0.42260800  1
