# generated using pymatgen
data_Cu7NiC4
_symmetry_space_group_name_H-M   'P 1'
_cell_length_a   10.61917944
_cell_length_b   10.61917944
_cell_length_c   6.08215000
_cell_angle_alpha   90.00000000
_cell_angle_beta   90.00000000
_cell_angle_gamma   119.99999651
_symmetry_Int_Tables_number   1
_chemical_formula_structural   Cu7NiC4
_chemical_formula_sum   'Cu14 Ni2 C8'
_cell_volume   593.97708746
_cell_formula_units_Z   2
loop_
 _symmetry_equiv_pos_site_id
 _symmetry_equiv_pos_as_xyz
  1  'x, y, z'
loop_
 _atom_site_type_symbol
 _atom_site_label
 _atom_site_symmetry_multiplicity
 _atom_site_fract_x
 _atom_site_fract_y
 _atom_site_fract_z
 _atom_site_occupancy
  C  C0  1  0.77122400  0.12708100  0.24869400  1
  C  C1  1  0.35585600  0.22877600  0.24869400  1
  C  C2  1  0.87291900  0.64414400  0.24869400  1
  C  C3  1  0.12708100  0.35585600  0.74869400  1
  C  C4  1  0.22877600  0.87291900  0.74869400  1
  C  C5  1  0.64414400  0.77122400  0.74869400  1
  C  C6  1  0.00000000  0.00000000  0.72043400  1
  C  C7  1  0.00000000  0.00000000  0.22043400  1
  Ni  Ni8  1  0.66666700  0.33333300  0.83564800  1
  Ni  Ni9  1  0.33333300  0.66666700  0.33564800  1
  Cu  Cu10  1  0.66666700  0.33333300  0.46229400  1
  Cu  Cu11  1  0.83453800  0.09071500  0.73441100  1
  Cu  Cu12  1  0.90928500  0.74382300  0.73441100  1
  Cu  Cu13  1  0.58413900  0.47874700  0.98290400  1
  Cu  Cu14  1  0.47874700  0.89460800  0.48290400  1
  Cu  Cu15  1  0.52125300  0.10539200  0.98290400  1
  Cu  Cu16  1  0.33333300  0.66666700  0.96229400  1
  Cu  Cu17  1  0.74382300  0.83453800  0.23441100  1
  Cu  Cu18  1  0.25617700  0.16546200  0.73441100  1
  Cu  Cu19  1  0.10539200  0.58413900  0.48290400  1
  Cu  Cu20  1  0.16546200  0.90928500  0.23441100  1
  Cu  Cu21  1  0.41586100  0.52125300  0.48290400  1
  Cu  Cu22  1  0.89460800  0.41586100  0.98290400  1
  Cu  Cu23  1  0.09071500  0.25617700  0.23441100  1
