# generated using pymatgen
data_Cu3(NiC6)2
_symmetry_space_group_name_H-M   'P 1'
_cell_length_a   8.95997700
_cell_length_b   10.42880700
_cell_length_c   10.61837800
_cell_angle_alpha   90.00000000
_cell_angle_beta   90.00000000
_cell_angle_gamma   90.00000000
_symmetry_Int_Tables_number   1
_chemical_formula_structural   Cu3(NiC6)2
_chemical_formula_sum   'Cu12 Ni8 C48'
_cell_volume   992.20110579
_cell_formula_units_Z   4
loop_
 _symmetry_equiv_pos_site_id
 _symmetry_equiv_pos_as_xyz
  1  'x, y, z'
loop_
 _atom_site_type_symbol
 _atom_site_label
 _atom_site_symmetry_multiplicity
 _atom_site_fract_x
 _atom_site_fract_y
 _atom_site_fract_z
 _atom_site_occupancy
  Ni  Ni0  1  0.93785200  0.15084900  0.85884400  1
  Ni  Ni1  1  0.06214800  0.84915100  0.85884400  1
  Ni  Ni2  1  0.43785200  0.34915100  0.14115600  1
  Ni  Ni3  1  0.56214800  0.65084900  0.14115600  1
  Ni  Ni4  1  0.09005400  0.30257400  0.29712600  1
  Ni  Ni5  1  0.90994600  0.69742600  0.29712600  1
  Ni  Ni6  1  0.59005400  0.19742600  0.70287400  1
  Ni  Ni7  1  0.40994600  0.80257400  0.70287400  1
  Cu  Cu8  1  0.77993800  0.70767800  0.75703500  1
  Cu  Cu9  1  0.22006200  0.29232200  0.75703500  1
  Cu  Cu10  1  0.19681100  0.56505300  0.51708700  1
  Cu  Cu11  1  0.80318900  0.43494700  0.51708700  1
  Cu  Cu12  1  0.69681100  0.93494700  0.48291300  1
  Cu  Cu13  1  0.30318900  0.06505300  0.48291300  1
  Cu  Cu14  1  0.27993800  0.79232200  0.24296500  1
  Cu  Cu15  1  0.72006200  0.20767800  0.24296500  1
  Cu  Cu16  1  0.18927200  0.08599400  0.06634400  1
  Cu  Cu17  1  0.81072800  0.91400600  0.06634400  1
  Cu  Cu18  1  0.68927200  0.41400600  0.93365600  1
  Cu  Cu19  1  0.31072800  0.58599400  0.93365600  1
  C  C20  1  0.85568200  0.32771900  0.90207100  1
  C  C21  1  0.14431800  0.67228100  0.90207100  1
  C  C22  1  0.03622700  0.25540800  0.70584800  1
  C  C23  1  0.96377300  0.74459200  0.70584800  1
  C  C24  1  0.42847600  0.63899600  0.80773400  1
  C  C25  1  0.57152400  0.36100400  0.80773400  1
  C  C26  1  0.24378900  0.41919700  0.21795600  1
  C  C27  1  0.75621100  0.58080300  0.21795600  1
  C  C28  1  0.00000000  0.00000000  0.97606100  1
  C  C29  1  0.67174900  0.33073800  0.09838200  1
  C  C30  1  0.32825100  0.66926200  0.09838200  1
  C  C31  1  0.75285900  0.08015400  0.10138900  1
  C  C32  1  0.24714100  0.91984600  0.10138900  1
  C  C33  1  0.74714100  0.58015400  0.89861100  1
  C  C34  1  0.25285900  0.41984600  0.89861100  1
  C  C35  1  0.82825100  0.83073800  0.90161800  1
  C  C36  1  0.17174900  0.16926200  0.90161800  1
  C  C37  1  0.50000000  0.50000000  0.02393900  1
  C  C38  1  0.25621100  0.91919700  0.78204400  1
  C  C39  1  0.74378900  0.08080300  0.78204400  1
  C  C40  1  0.92847600  0.86100400  0.19226600  1
  C  C41  1  0.07152400  0.13899600  0.19226600  1
  C  C42  1  0.46377300  0.75540800  0.29415200  1
  C  C43  1  0.53622700  0.24459200  0.29415200  1
  C  C44  1  0.35568200  0.17228100  0.09792900  1
  C  C45  1  0.64431800  0.82771900  0.09792900  1
  C  C46  1  0.89124700  0.60323600  0.14393900  1
  C  C47  1  0.10875300  0.39676400  0.14393900  1
  C  C48  1  0.30038300  0.95806000  0.34869900  1
  C  C49  1  0.69961700  0.04194000  0.34869900  1
  C  C50  1  0.63236300  0.79318700  0.66372700  1
  C  C51  1  0.36763700  0.20681300  0.66372700  1
  C  C52  1  0.00000000  0.50000000  0.44909100  1
  C  C53  1  0.27413800  0.71246400  0.58060300  1
  C  C54  1  0.72586200  0.28753600  0.58060300  1
  C  C55  1  0.33550100  0.49811200  0.42864400  1
  C  C56  1  0.66449900  0.50188800  0.42864400  1
  C  C57  1  0.16449900  0.99811200  0.57135600  1
  C  C58  1  0.83550100  0.00188800  0.57135600  1
  C  C59  1  0.77413800  0.78753600  0.41939700  1
  C  C60  1  0.22586200  0.21246400  0.41939700  1
  C  C61  1  0.50000000  0.00000000  0.55090900  1
  C  C62  1  0.86763700  0.29318700  0.33627300  1
  C  C63  1  0.13236300  0.70681300  0.33627300  1
  C  C64  1  0.80038300  0.54194000  0.65130100  1
  C  C65  1  0.19961700  0.45806000  0.65130100  1
  C  C66  1  0.39124700  0.89676400  0.85606100  1
  C  C67  1  0.60875300  0.10323600  0.85606100  1
