# generated using pymatgen
data_CuNi4C5
_symmetry_space_group_name_H-M   'P 1'
_cell_length_a   5.72283200
_cell_length_b   5.87714200
_cell_length_c   6.52669400
_cell_angle_alpha   90.00000000
_cell_angle_beta   90.00000000
_cell_angle_gamma   90.00000000
_symmetry_Int_Tables_number   1
_chemical_formula_structural   CuNi4C5
_chemical_formula_sum   'Cu2 Ni8 C10'
_cell_volume   219.51814922
_cell_formula_units_Z   2
loop_
 _symmetry_equiv_pos_site_id
 _symmetry_equiv_pos_as_xyz
  1  'x, y, z'
loop_
 _atom_site_type_symbol
 _atom_site_label
 _atom_site_symmetry_multiplicity
 _atom_site_fract_x
 _atom_site_fract_y
 _atom_site_fract_z
 _atom_site_occupancy
  C  C0  1  0.50000000  0.00000000  0.00000000  1
  C  C1  1  0.50000000  0.00000000  0.50000000  1
  C  C2  1  0.67580500  0.50000000  0.75000000  1
  C  C3  1  0.32419500  0.50000000  0.25000000  1
  C  C4  1  0.90985000  0.13580800  0.75000000  1
  C  C5  1  0.09015000  0.13580800  0.25000000  1
  C  C6  1  0.09015000  0.86419200  0.25000000  1
  C  C7  1  0.90985000  0.86419200  0.75000000  1
  C  C8  1  0.48527800  0.50000000  0.75000000  1
  C  C9  1  0.51472200  0.50000000  0.25000000  1
  Ni  Ni10  1  0.13138700  0.38788600  0.75000000  1
  Ni  Ni11  1  0.86861300  0.38788600  0.25000000  1
  Ni  Ni12  1  0.86861300  0.61211400  0.25000000  1
  Ni  Ni13  1  0.13138700  0.61211400  0.75000000  1
  Ni  Ni14  1  0.35447500  0.31125800  0.75000000  1
  Ni  Ni15  1  0.64552500  0.31125800  0.25000000  1
  Ni  Ni16  1  0.64552500  0.68874200  0.25000000  1
  Ni  Ni17  1  0.35447500  0.68874200  0.75000000  1
  Cu  Cu18  1  0.80655700  0.00000000  0.75000000  1
  Cu  Cu19  1  0.19344300  0.00000000  0.25000000  1
