# generated using pymatgen
data_Cu10NiC2
_symmetry_space_group_name_H-M   'P 1'
_cell_length_a   7.67501100
_cell_length_b   12.69074900
_cell_length_c   24.75675326
_cell_angle_alpha   84.20514988
_cell_angle_beta   90.00000000
_cell_angle_gamma   90.00000000
_symmetry_Int_Tables_number   1
_chemical_formula_structural   Cu10NiC2
_chemical_formula_sum   'Cu80 Ni8 C16'
_cell_volume   2399.02582200
_cell_formula_units_Z   8
loop_
 _symmetry_equiv_pos_site_id
 _symmetry_equiv_pos_as_xyz
  1  'x, y, z'
loop_
 _atom_site_type_symbol
 _atom_site_label
 _atom_site_symmetry_multiplicity
 _atom_site_fract_x
 _atom_site_fract_y
 _atom_site_fract_z
 _atom_site_occupancy
  C  C0  1  0.55728500  0.52228600  0.13580100  1
  C  C1  1  0.43507400  0.02325200  0.13296500  1
  C  C2  1  0.05728500  0.47771400  0.36419900  1
  C  C3  1  0.55704800  0.68402500  0.86613800  1
  C  C4  1  0.44295200  0.31597500  0.13386200  1
  C  C5  1  0.05704800  0.31597500  0.63386200  1
  C  C6  1  0.44969700  0.18421000  0.86358600  1
  C  C7  1  0.44271500  0.47771400  0.86419900  1
  C  C8  1  0.55030300  0.81579000  0.13641400  1
  C  C9  1  0.56492600  0.97674800  0.86703500  1
  C  C10  1  0.93507400  0.97674800  0.36703500  1
  C  C11  1  0.06492600  0.02325200  0.63296500  1
  C  C12  1  0.94969700  0.81579000  0.63641400  1
  C  C13  1  0.94271500  0.52228600  0.63580100  1
  C  C14  1  0.94295200  0.68402500  0.36613800  1
  C  C15  1  0.05030300  0.18421000  0.36358600  1
  Ni  Ni16  1  0.86481300  0.81588900  0.91666100  1
  Ni  Ni17  1  0.13518700  0.18411100  0.08333900  1
  Ni  Ni18  1  0.87366500  0.68021900  0.09891700  1
  Ni  Ni19  1  0.63518700  0.81588900  0.41666100  1
  Ni  Ni20  1  0.12633500  0.31978100  0.90108300  1
  Ni  Ni21  1  0.36481300  0.18411100  0.58333900  1
  Ni  Ni22  1  0.62633500  0.68021900  0.59891700  1
  Ni  Ni23  1  0.37366500  0.31978100  0.40108300  1
  Cu  Cu24  1  0.84750800  0.11614700  0.30134600  1
  Cu  Cu25  1  0.86203100  0.16304500  0.65760600  1
  Cu  Cu26  1  0.38675800  0.19548200  0.35723800  1
  Cu  Cu27  1  0.59640200  0.96090900  0.37699900  1
  Cu  Cu28  1  0.94068000  0.32142200  0.96761100  1
  Cu  Cu29  1  0.13834100  0.59479000  0.42941700  1
  Cu  Cu30  1  0.05932000  0.67857800  0.03238900  1
  Cu  Cu31  1  0.38646400  0.90664300  0.06512200  1
  Cu  Cu32  1  0.63353000  0.95662000  0.07107300  1
  Cu  Cu33  1  0.61353600  0.09335700  0.93487800  1
  Cu  Cu34  1  0.84634600  0.33556200  0.34880600  1
  Cu  Cu35  1  0.55932000  0.32142200  0.46761100  1
  Cu  Cu36  1  0.38550500  0.61732300  0.79526000  1
  Cu  Cu37  1  0.90399500  0.92854900  0.70572400  1
  Cu  Cu38  1  0.60924500  0.54327400  0.93426000  1
  Cu  Cu39  1  0.88646400  0.09335700  0.43487800  1
  Cu  Cu40  1  0.36501400  0.42802200  0.20057800  1
  Cu  Cu41  1  0.40359800  0.03909100  0.62300100  1
  Cu  Cu42  1  0.63834100  0.40521000  0.07058300  1
  Cu  Cu43  1  0.05117800  0.34366700  0.29774700  1
  Cu  Cu44  1  0.34750800  0.88385300  0.19865400  1
  Cu  Cu45  1  0.13353000  0.04338000  0.42892700  1
  Cu  Cu46  1  0.04143700  0.82276100  0.98497500  1
  Cu  Cu47  1  0.13796900  0.83695500  0.34239400  1
  Cu  Cu48  1  0.54143700  0.17723900  0.51502500  1
  Cu  Cu49  1  0.36165900  0.59479000  0.92941700  1
  Cu  Cu50  1  0.65365400  0.33556200  0.84880600  1
  Cu  Cu51  1  0.36203100  0.83695500  0.84239400  1
  Cu  Cu52  1  0.10924500  0.45672600  0.56574000  1
  Cu  Cu53  1  0.89075500  0.54327400  0.43426000  1
  Cu  Cu54  1  0.63498600  0.57197800  0.79942200  1
  Cu  Cu55  1  0.39075500  0.45672600  0.06574000  1
  Cu  Cu56  1  0.13498600  0.42802200  0.70057800  1
  Cu  Cu57  1  0.37539800  0.31669900  0.93104200  1
  Cu  Cu58  1  0.41174500  0.15723500  0.19879900  1
  Cu  Cu59  1  0.89548500  0.81590100  0.43626200  1
  Cu  Cu60  1  0.55117800  0.65633300  0.20225300  1
  Cu  Cu61  1  0.39536500  0.46367600  0.35885700  1
  Cu  Cu62  1  0.09640200  0.03909100  0.12300100  1
  Cu  Cu63  1  0.63796900  0.16304500  0.15760600  1
  Cu  Cu64  1  0.60451500  0.81590100  0.93626200  1
  Cu  Cu65  1  0.40399500  0.07145100  0.79427600  1
  Cu  Cu66  1  0.90359800  0.96090900  0.87699900  1
  Cu  Cu67  1  0.10451500  0.18409900  0.56373800  1
  Cu  Cu68  1  0.39548500  0.18409900  0.06373800  1
  Cu  Cu69  1  0.15365400  0.66443800  0.65119400  1
  Cu  Cu70  1  0.89449100  0.68984100  0.87503400  1
  Cu  Cu71  1  0.86165900  0.40521000  0.57058300  1
  Cu  Cu72  1  0.87539800  0.68330100  0.56895800  1
  Cu  Cu73  1  0.86647000  0.95662000  0.57107300  1
  Cu  Cu74  1  0.61449500  0.38267700  0.20474000  1
  Cu  Cu75  1  0.44882200  0.34366700  0.79774700  1
  Cu  Cu76  1  0.86501400  0.57197800  0.29942200  1
  Cu  Cu77  1  0.95856300  0.17723900  0.01502500  1
  Cu  Cu78  1  0.61324200  0.80451800  0.64276200  1
  Cu  Cu79  1  0.88550500  0.38267700  0.70474000  1
  Cu  Cu80  1  0.12460200  0.31669900  0.43104200  1
  Cu  Cu81  1  0.11324200  0.19548200  0.85723800  1
  Cu  Cu82  1  0.44068000  0.67857800  0.53238900  1
  Cu  Cu83  1  0.10463500  0.46367600  0.85885700  1
  Cu  Cu84  1  0.39449100  0.31015900  0.62496600  1
  Cu  Cu85  1  0.45856300  0.82276100  0.48497500  1
  Cu  Cu86  1  0.89536500  0.53632400  0.14114300  1
  Cu  Cu87  1  0.15249200  0.88385300  0.69865400  1
  Cu  Cu88  1  0.65249200  0.11614700  0.80134600  1
  Cu  Cu89  1  0.88675800  0.80451800  0.14276200  1
  Cu  Cu90  1  0.58825500  0.84276500  0.80120100  1
  Cu  Cu91  1  0.34634600  0.66443800  0.15119400  1
  Cu  Cu92  1  0.10550900  0.31015900  0.12496600  1
  Cu  Cu93  1  0.59600500  0.92854900  0.20572400  1
  Cu  Cu94  1  0.60463500  0.53632400  0.64114300  1
  Cu  Cu95  1  0.11353600  0.90664300  0.56512200  1
  Cu  Cu96  1  0.08825500  0.15723500  0.69879900  1
  Cu  Cu97  1  0.36647000  0.04338000  0.92892700  1
  Cu  Cu98  1  0.60550900  0.68984100  0.37503400  1
  Cu  Cu99  1  0.91174500  0.84276500  0.30120100  1
  Cu  Cu100  1  0.11449500  0.61732300  0.29526000  1
  Cu  Cu101  1  0.09600500  0.07145100  0.29427600  1
  Cu  Cu102  1  0.94882200  0.65633300  0.70225300  1
  Cu  Cu103  1  0.62460200  0.68330100  0.06895800  1
