# generated using pymatgen
data_Cu23Ni23C8
_symmetry_space_group_name_H-M   'P 1'
_cell_length_a   9.24850600
_cell_length_b   13.94548600
_cell_length_c   14.60210076
_cell_angle_alpha   67.31817260
_cell_angle_beta   83.11137585
_cell_angle_gamma   82.78183983
_symmetry_Int_Tables_number   1
_chemical_formula_structural   Cu23Ni23C8
_chemical_formula_sum   'Cu46 Ni46 C16'
_cell_volume   1718.61420747
_cell_formula_units_Z   2
loop_
 _symmetry_equiv_pos_site_id
 _symmetry_equiv_pos_as_xyz
  1  'x, y, z'
loop_
 _atom_site_type_symbol
 _atom_site_label
 _atom_site_symmetry_multiplicity
 _atom_site_fract_x
 _atom_site_fract_y
 _atom_site_fract_z
 _atom_site_occupancy
  C  C0  1  0.63230700  0.49839400  0.16113300  1
  C  C1  1  0.71302000  0.81410100  0.14003900  1
  C  C2  1  0.01486900  0.11469900  0.66383000  1
  C  C3  1  0.61491000  0.70970800  0.32731900  1
  C  C4  1  0.36769300  0.50160600  0.83886700  1
  C  C5  1  0.08790700  0.52041100  0.77083900  1
  C  C6  1  0.38509000  0.29029200  0.67268100  1
  C  C7  1  0.91209300  0.47958900  0.22916100  1
  C  C8  1  0.28698000  0.18589900  0.85996100  1
  C  C9  1  0.72092800  0.01363400  0.31584800  1
  C  C10  1  0.27907200  0.98636600  0.68415200  1
  C  C11  1  0.98513100  0.88530100  0.33617000  1
  C  C12  1  0.26857600  0.37738100  0.78299500  1
  C  C13  1  0.76699500  0.85494400  0.28123700  1
  C  C14  1  0.23300500  0.14505600  0.71876300  1
  C  C15  1  0.73142400  0.62261900  0.21700500  1
  Ni  Ni16  1  0.07733000  0.18824300  0.53629300  1
  Ni  Ni17  1  0.75569400  0.64065500  0.41016800  1
  Ni  Ni18  1  0.23527200  0.88946000  0.64141500  1
  Ni  Ni19  1  0.24430600  0.35934500  0.58983200  1
  Ni  Ni20  1  0.51137100  0.80076100  0.20454800  1
  Ni  Ni21  1  0.67161100  0.95158000  0.08313700  1
  Ni  Ni22  1  0.50471200  0.39124900  0.63380300  1
  Ni  Ni23  1  0.43291400  0.58077800  0.71234000  1
  Ni  Ni24  1  0.04759500  0.64182400  0.78945700  1
  Ni  Ni25  1  0.76472800  0.11054000  0.35858500  1
  Ni  Ni26  1  0.32838900  0.04842000  0.91686300  1
  Ni  Ni27  1  0.46592000  0.57927900  0.13792900  1
  Ni  Ni28  1  0.95240500  0.35817600  0.21054300  1
  Ni  Ni29  1  0.92407600  0.51023100  0.72470100  1
  Ni  Ni30  1  0.65769700  0.93645300  0.44204800  1
  Ni  Ni31  1  0.79610100  0.08838600  0.19153000  1
  Ni  Ni32  1  0.90480000  0.22776100  0.66590900  1
  Ni  Ni33  1  0.53973700  0.04399800  0.27805600  1
  Ni  Ni34  1  0.34230300  0.06354700  0.55795200  1
  Ni  Ni35  1  0.65982800  0.79546400  0.03529500  1
  Ni  Ni36  1  0.98107900  0.56205100  0.10646100  1
  Ni  Ni37  1  0.01892100  0.43794900  0.89353900  1
  Ni  Ni38  1  0.04947800  0.95352100  0.20744200  1
  Ni  Ni39  1  0.46026300  0.95600200  0.72194400  1
  Ni  Ni40  1  0.92267000  0.81175700  0.46370700  1
  Ni  Ni41  1  0.50486500  0.22217100  0.60885500  1
  Ni  Ni42  1  0.16398400  0.57663900  0.64355200  1
  Ni  Ni43  1  0.53408000  0.42072100  0.86207100  1
  Ni  Ni44  1  0.48862900  0.19923900  0.79545200  1
  Ni  Ni45  1  0.56708600  0.41922200  0.28766000  1
  Ni  Ni46  1  0.70982400  0.55808400  0.03324300  1
  Ni  Ni47  1  0.07592400  0.48976900  0.27529900  1
  Ni  Ni48  1  0.37903800  0.61535900  0.86487100  1
  Ni  Ni49  1  0.83601600  0.42336100  0.35644800  1
  Ni  Ni50  1  0.07767600  0.96758300  0.37584700  1
  Ni  Ni51  1  0.34017200  0.20453600  0.96470500  1
  Ni  Ni52  1  0.92232400  0.03241700  0.62415300  1
  Ni  Ni53  1  0.62096200  0.38464100  0.13512900  1
  Ni  Ni54  1  0.49528800  0.60875100  0.36619700  1
  Ni  Ni55  1  0.90939600  0.80147400  0.11695900  1
  Ni  Ni56  1  0.20389900  0.91161400  0.80847000  1
  Ni  Ni57  1  0.95052200  0.04647900  0.79255800  1
  Ni  Ni58  1  0.49513500  0.77782900  0.39114500  1
  Ni  Ni59  1  0.09060400  0.19852600  0.88304100  1
  Ni  Ni60  1  0.09520000  0.77223900  0.33409100  1
  Ni  Ni61  1  0.29017600  0.44191600  0.96675700  1
  Cu  Cu62  1  0.15672300  0.40560700  0.53413500  1
  Cu  Cu63  1  0.61012200  0.16765200  0.81570000  1
  Cu  Cu64  1  0.58481900  0.45613800  0.59817900  1
  Cu  Cu65  1  0.39446200  0.68808100  0.88186900  1
  Cu  Cu66  1  0.10093700  0.99502900  0.12740000  1
  Cu  Cu67  1  0.38907000  0.10604900  0.47666500  1
  Cu  Cu68  1  0.48199800  0.63799400  0.63715400  1
  Cu  Cu69  1  0.96468200  0.20476100  0.90126800  1
  Cu  Cu70  1  0.35552400  0.63014100  0.12064200  1
  Cu  Cu71  1  0.96531100  0.38793800  0.97073000  1
  Cu  Cu72  1  0.37487600  0.20728400  0.03754700  1
  Cu  Cu73  1  0.79586500  0.38522400  0.43988700  1
  Cu  Cu74  1  0.51800200  0.36200600  0.36284600  1
  Cu  Cu75  1  0.86334200  0.98092700  0.59668200  1
  Cu  Cu76  1  0.03531800  0.79523900  0.09873200  1
  Cu  Cu77  1  0.01587600  0.72017600  0.80019900  1
  Cu  Cu78  1  0.84327700  0.59439300  0.46586500  1
  Cu  Cu79  1  0.89385100  0.76183800  0.54681500  1
  Cu  Cu80  1  0.16494200  0.69753200  0.33286400  1
  Cu  Cu81  1  0.83834700  0.14212200  0.11268300  1
  Cu  Cu82  1  0.03468900  0.61206200  0.02927000  1
  Cu  Cu83  1  0.21077200  0.82600200  0.61362300  1
  Cu  Cu84  1  0.57925000  0.93551600  0.74563900  1
  Cu  Cu85  1  0.41518100  0.54386200  0.40182100  1
  Cu  Cu86  1  0.98412400  0.27982400  0.19980100  1
  Cu  Cu87  1  0.38987800  0.83234800  0.18430000  1
  Cu  Cu88  1  0.24682800  0.40761100  0.04996700  1
  Cu  Cu89  1  0.81412500  0.50849000  0.69502400  1
  Cu  Cu90  1  0.75317200  0.59238900  0.95003300  1
  Cu  Cu91  1  0.10614900  0.23816200  0.45318500  1
  Cu  Cu92  1  0.78922800  0.17399800  0.38637700  1
  Cu  Cu93  1  0.20413500  0.61477600  0.56011300  1
  Cu  Cu94  1  0.83505800  0.30246800  0.66713600  1
  Cu  Cu95  1  0.63909900  0.03960200  0.03985100  1
  Cu  Cu96  1  0.62512400  0.79271600  0.96245300  1
  Cu  Cu97  1  0.89906300  0.00497100  0.87260000  1
  Cu  Cu98  1  0.13665800  0.01907300  0.40331800  1
  Cu  Cu99  1  0.16165300  0.85787800  0.88731700  1
  Cu  Cu100  1  0.59488500  0.18266300  0.56881900  1
  Cu  Cu101  1  0.18587500  0.49151000  0.30497600  1
  Cu  Cu102  1  0.60553800  0.31191900  0.11813100  1
  Cu  Cu103  1  0.40511500  0.81733700  0.43118100  1
  Cu  Cu104  1  0.64447600  0.36985900  0.87935800  1
  Cu  Cu105  1  0.36090100  0.96039800  0.96014900  1
  Cu  Cu106  1  0.42075000  0.06448400  0.25436100  1
  Cu  Cu107  1  0.61093000  0.89395100  0.52333500  1
