# generated using pymatgen
data_Cu3Ni10C3
_symmetry_space_group_name_H-M   'P 1'
_cell_length_a   13.96297100
_cell_length_b   14.25593800
_cell_length_c   19.66643808
_cell_angle_alpha   89.90669318
_cell_angle_beta   90.00000000
_cell_angle_gamma   90.00000000
_symmetry_Int_Tables_number   1
_chemical_formula_structural   Cu3Ni10C3
_chemical_formula_sum   'Cu24 Ni80 C24'
_cell_volume   3914.70253508
_cell_formula_units_Z   8
loop_
 _symmetry_equiv_pos_site_id
 _symmetry_equiv_pos_as_xyz
  1  'x, y, z'
loop_
 _atom_site_type_symbol
 _atom_site_label
 _atom_site_symmetry_multiplicity
 _atom_site_fract_x
 _atom_site_fract_y
 _atom_site_fract_z
 _atom_site_occupancy
  C  C0  1  0.24884000  0.63407400  0.39576100  1
  C  C1  1  0.23851900  0.71256500  0.24742400  1
  C  C2  1  0.76036000  0.45640200  0.25283800  1
  C  C3  1  0.74530000  0.94780200  0.45655900  1
  C  C4  1  0.23825700  0.62054900  0.89634800  1
  C  C5  1  0.76807800  0.29606200  0.95598700  1
  C  C6  1  0.23964000  0.54359800  0.74716200  1
  C  C7  1  0.75116000  0.36592600  0.60423900  1
  C  C8  1  0.23192200  0.70393800  0.04401300  1
  C  C9  1  0.25470000  0.05219800  0.54344100  1
  C  C10  1  0.26807800  0.20393800  0.04401300  1
  C  C11  1  0.73964000  0.95640200  0.25283800  1
  C  C12  1  0.73851900  0.78743500  0.75257600  1
  C  C13  1  0.73825700  0.87945100  0.10365200  1
  C  C14  1  0.75470000  0.44780200  0.45655900  1
  C  C15  1  0.26036000  0.04359800  0.74716200  1
  C  C16  1  0.73192200  0.79606200  0.95598700  1
  C  C17  1  0.24530000  0.55219800  0.54344100  1
  C  C18  1  0.26174300  0.12054900  0.89634800  1
  C  C19  1  0.76148100  0.28743500  0.75257600  1
  C  C20  1  0.26148100  0.21256500  0.24742400  1
  C  C21  1  0.76174300  0.37945100  0.10365200  1
  C  C22  1  0.74884000  0.86592600  0.60423900  1
  C  C23  1  0.25116000  0.13407400  0.39576100  1
  Ni  Ni24  1  0.34244400  0.48137500  0.43959300  1
  Ni  Ni25  1  0.40398500  0.07220300  0.46789900  1
  Ni  Ni26  1  0.34695600  0.77878800  0.14225700  1
  Ni  Ni27  1  0.14151200  0.98329800  0.64563900  1
  Ni  Ni28  1  0.16824900  0.14521500  0.64820700  1
  Ni  Ni29  1  0.90398500  0.42779700  0.53210100  1
  Ni  Ni30  1  0.58202300  0.82596400  0.03063600  1
  Ni  Ni31  1  0.60128600  0.37662300  0.51656300  1
  Ni  Ni32  1  0.88723800  0.85955300  0.01666200  1
  Ni  Ni33  1  0.08726400  0.55677900  0.82197000  1
  Ni  Ni34  1  0.83097600  0.45160300  0.71037600  1
  Ni  Ni35  1  0.09601500  0.57220300  0.46789900  1
  Ni  Ni36  1  0.58726400  0.94322100  0.17803000  1
  Ni  Ni37  1  0.66844000  0.20866800  0.64976100  1
  Ni  Ni38  1  0.16740300  0.96907400  0.85184600  1
  Ni  Ni39  1  0.60334100  0.34723700  0.69295900  1
  Ni  Ni40  1  0.61276200  0.35955300  0.01666200  1
  Ni  Ni41  1  0.41273600  0.05677900  0.82197000  1
  Ni  Ni42  1  0.16886600  0.71550800  0.50371800  1
  Ni  Ni43  1  0.83259700  0.03092600  0.14815400  1
  Ni  Ni44  1  0.09109500  0.68849600  0.32441700  1
  Ni  Ni45  1  0.66886600  0.78449200  0.49628200  1
  Ni  Ni46  1  0.15304400  0.27878800  0.14225700  1
  Ni  Ni47  1  0.66376200  0.96365100  0.99441700  1
  Ni  Ni48  1  0.38723800  0.64044700  0.98333800  1
  Ni  Ni49  1  0.61008100  0.38794200  0.18957000  1
  Ni  Ni50  1  0.33175100  0.64521500  0.64820700  1
  Ni  Ni51  1  0.83156000  0.70866800  0.64976100  1
  Ni  Ni52  1  0.41797700  0.17403600  0.96936400  1
  Ni  Ni53  1  0.59601500  0.92779700  0.53210100  1
  Ni  Ni54  1  0.65701900  0.79790100  0.21103300  1
  Ni  Ni55  1  0.85848800  0.01670200  0.35436100  1
  Ni  Ni56  1  0.64151200  0.51670200  0.35436100  1
  Ni  Ni57  1  0.83113400  0.28449200  0.49628200  1
  Ni  Ni58  1  0.90890500  0.31150400  0.67558300  1
  Ni  Ni59  1  0.84695600  0.72121200  0.85774300  1
  Ni  Ni60  1  0.89665900  0.84723700  0.69295900  1
  Ni  Ni61  1  0.91273600  0.44322100  0.17803000  1
  Ni  Ni62  1  0.84298100  0.29790100  0.21103300  1
  Ni  Ni63  1  0.88991900  0.88794200  0.18957000  1
  Ni  Ni64  1  0.40890500  0.18849600  0.32441700  1
  Ni  Ni65  1  0.08202300  0.67403600  0.96936400  1
  Ni  Ni66  1  0.33623800  0.03634900  0.00558300  1
  Ni  Ni67  1  0.91797700  0.32596400  0.03063600  1
  Ni  Ni68  1  0.17098800  0.11569200  0.14655600  1
  Ni  Ni69  1  0.10334100  0.15276300  0.30704100  1
  Ni  Ni70  1  0.33156000  0.79133200  0.35023900  1
  Ni  Ni71  1  0.59109500  0.81150400  0.67558300  1
  Ni  Ni72  1  0.32901200  0.61569200  0.14655600  1
  Ni  Ni73  1  0.11008100  0.11205800  0.81043000  1
  Ni  Ni74  1  0.66824900  0.35478500  0.35179300  1
  Ni  Ni75  1  0.32191100  0.77846100  0.93902600  1
  Ni  Ni76  1  0.16844000  0.29133200  0.35023900  1
  Ni  Ni77  1  0.17808900  0.27846100  0.93902600  1
  Ni  Ni78  1  0.34298100  0.20209900  0.78896700  1
  Ni  Ni79  1  0.38991900  0.61205800  0.81043000  1
  Ni  Ni80  1  0.82901200  0.88430800  0.85344400  1
  Ni  Ni81  1  0.65304400  0.22121200  0.85774300  1
  Ni  Ni82  1  0.82191100  0.72153900  0.06097400  1
  Ni  Ni83  1  0.67808900  0.22153900  0.06097400  1
  Ni  Ni84  1  0.10128600  0.12337700  0.48343700  1
  Ni  Ni85  1  0.89871400  0.87662300  0.51656300  1
  Ni  Ni86  1  0.15701900  0.70209900  0.78896700  1
  Ni  Ni87  1  0.11276200  0.14044700  0.98333800  1
  Ni  Ni88  1  0.84244400  0.01862500  0.56040700  1
  Ni  Ni89  1  0.83623800  0.46365100  0.99441700  1
  Ni  Ni90  1  0.33113400  0.21550800  0.50371800  1
  Ni  Ni91  1  0.39665900  0.65276300  0.30704100  1
  Ni  Ni92  1  0.67098800  0.38430800  0.85344400  1
  Ni  Ni93  1  0.83175100  0.85478500  0.35179300  1
  Ni  Ni94  1  0.39871400  0.62337700  0.48343700  1
  Ni  Ni95  1  0.35848800  0.48329800  0.64563900  1
  Ni  Ni96  1  0.66902400  0.95160300  0.71037600  1
  Ni  Ni97  1  0.66740300  0.53092600  0.14815400  1
  Ni  Ni98  1  0.33259700  0.46907400  0.85184600  1
  Ni  Ni99  1  0.15755600  0.98137500  0.43959300  1
  Ni  Ni100  1  0.16902400  0.54839700  0.28962400  1
  Ni  Ni101  1  0.33097600  0.04839700  0.28962400  1
  Ni  Ni102  1  0.65755600  0.51862500  0.56040700  1
  Ni  Ni103  1  0.16376200  0.53634900  0.00558300  1
  Cu  Cu104  1  0.81647100  0.63926100  0.25478200  1
  Cu  Cu105  1  0.40001300  0.19534400  0.14735100  1
  Cu  Cu106  1  0.31570900  0.87033600  0.54065600  1
  Cu  Cu107  1  0.31647100  0.86073900  0.74521800  1
  Cu  Cu108  1  0.09998700  0.69534400  0.14735100  1
  Cu  Cu109  1  0.83348900  0.11545100  0.95888800  1
  Cu  Cu110  1  0.39257700  0.05535100  0.64374400  1
  Cu  Cu111  1  0.16651100  0.88454900  0.04111200  1
  Cu  Cu112  1  0.10742300  0.55535100  0.64374400  1
  Cu  Cu113  1  0.68429100  0.12966400  0.45934400  1
  Cu  Cu114  1  0.60742300  0.94464900  0.35625600  1
  Cu  Cu115  1  0.66651100  0.61545100  0.95888800  1
  Cu  Cu116  1  0.18429100  0.37033600  0.54065600  1
  Cu  Cu117  1  0.82970200  0.10839800  0.75223300  1
  Cu  Cu118  1  0.33348900  0.38454900  0.04111200  1
  Cu  Cu119  1  0.68352900  0.13926100  0.25478200  1
  Cu  Cu120  1  0.90001300  0.30465600  0.85264900  1
  Cu  Cu121  1  0.67029800  0.60839800  0.75223300  1
  Cu  Cu122  1  0.17029800  0.89160200  0.24776700  1
  Cu  Cu123  1  0.59998700  0.80465600  0.85264900  1
  Cu  Cu124  1  0.81570900  0.62966400  0.45934400  1
  Cu  Cu125  1  0.89257700  0.44464900  0.35625600  1
  Cu  Cu126  1  0.18352900  0.36073900  0.74521800  1
  Cu  Cu127  1  0.32970200  0.39160200  0.24776700  1
