# generated using pymatgen
data_CuNi3C2
_symmetry_space_group_name_H-M   'P 1'
_cell_length_a   4.23556000
_cell_length_b   4.58515700
_cell_length_c   24.25158500
_cell_angle_alpha   90.00000000
_cell_angle_beta   90.00000000
_cell_angle_gamma   90.00000000
_symmetry_Int_Tables_number   1
_chemical_formula_structural   CuNi3C2
_chemical_formula_sum   'Cu2 Ni6 C4'
_cell_volume   470.98294071
_cell_formula_units_Z   2
loop_
 _symmetry_equiv_pos_site_id
 _symmetry_equiv_pos_as_xyz
  1  'x, y, z'
loop_
 _atom_site_type_symbol
 _atom_site_label
 _atom_site_symmetry_multiplicity
 _atom_site_fract_x
 _atom_site_fract_y
 _atom_site_fract_z
 _atom_site_occupancy
  Ni  Ni0  1  0.50000000  0.00000000  0.69137000  1
  Ni  Ni1  1  0.00000000  0.50000000  0.80730800  1
  Ni  Ni2  1  0.50000000  0.00000000  0.19269200  1
  Ni  Ni3  1  0.00000000  0.50000000  0.30863000  1
  Ni  Ni4  1  0.50000000  0.00000000  0.43541200  1
  Ni  Ni5  1  0.00000000  0.50000000  0.56458800  1
  Cu  Cu6  1  0.50000000  0.00000000  0.31509700  1
  Cu  Cu7  1  0.00000000  0.50000000  0.68490300  1
  C  C8  1  0.00000000  0.50000000  0.18220900  1
  C  C9  1  0.00000000  0.50000000  0.44173400  1
  C  C10  1  0.50000000  0.00000000  0.55826600  1
  C  C11  1  0.50000000  0.00000000  0.81779100  1
