# generated using pymatgen
data_Cu6Ni5C2
_symmetry_space_group_name_H-M   'P 1'
_cell_length_a   9.47890100
_cell_length_b   9.47890100
_cell_length_c   9.47890100
_cell_angle_alpha   90.00000000
_cell_angle_beta   90.00000000
_cell_angle_gamma   90.00000000
_symmetry_Int_Tables_number   1
_chemical_formula_structural   Cu6Ni5C2
_chemical_formula_sum   'Cu18 Ni15 C6'
_cell_volume   851.67512364
_cell_formula_units_Z   3
loop_
 _symmetry_equiv_pos_site_id
 _symmetry_equiv_pos_as_xyz
  1  'x, y, z'
loop_
 _atom_site_type_symbol
 _atom_site_label
 _atom_site_symmetry_multiplicity
 _atom_site_fract_x
 _atom_site_fract_y
 _atom_site_fract_z
 _atom_site_occupancy
  C  C0  1  0.50000000  0.82809400  0.00000000  1
  C  C1  1  0.50000000  0.17190600  0.00000000  1
  C  C2  1  0.82809400  0.00000000  0.50000000  1
  C  C3  1  0.00000000  0.50000000  0.82809400  1
  C  C4  1  0.00000000  0.50000000  0.17190600  1
  C  C5  1  0.17190600  0.00000000  0.50000000  1
  Ni  Ni6  1  0.28338600  0.28338600  0.71661400  1
  Ni  Ni7  1  0.71661400  0.71661400  0.28338600  1
  Ni  Ni8  1  0.71661400  0.28338600  0.71661400  1
  Ni  Ni9  1  0.50000000  0.00000000  0.33766900  1
  Ni  Ni10  1  0.50000000  0.00000000  0.66233100  1
  Ni  Ni11  1  0.33766900  0.50000000  0.00000000  1
  Ni  Ni12  1  0.66233100  0.50000000  0.00000000  1
  Ni  Ni13  1  0.00000000  0.33766900  0.50000000  1
  Ni  Ni14  1  0.71661400  0.71661400  0.71661400  1
  Ni  Ni15  1  0.28338600  0.71661400  0.28338600  1
  Ni  Ni16  1  0.00000000  0.66233100  0.50000000  1
  Ni  Ni17  1  0.28338600  0.71661400  0.71661400  1
  Ni  Ni18  1  0.71661400  0.28338600  0.28338600  1
  Ni  Ni19  1  0.28338600  0.28338600  0.28338600  1
  Ni  Ni20  1  0.00000000  0.00000000  0.00000000  1
  Cu  Cu21  1  0.82686700  0.74062500  0.00000000  1
  Cu  Cu22  1  0.25937500  0.00000000  0.17313300  1
  Cu  Cu23  1  0.00000000  0.17313300  0.74062500  1
  Cu  Cu24  1  0.17313300  0.25937500  0.00000000  1
  Cu  Cu25  1  0.82686700  0.25937500  0.00000000  1
  Cu  Cu26  1  0.73502900  0.50000000  0.50000000  1
  Cu  Cu27  1  0.00000000  0.82686700  0.74062500  1
  Cu  Cu28  1  0.17313300  0.74062500  0.00000000  1
  Cu  Cu29  1  0.74062500  0.00000000  0.17313300  1
  Cu  Cu30  1  0.00000000  0.17313300  0.25937500  1
  Cu  Cu31  1  0.50000000  0.50000000  0.26497100  1
  Cu  Cu32  1  0.50000000  0.50000000  0.73502900  1
  Cu  Cu33  1  0.50000000  0.73502900  0.50000000  1
  Cu  Cu34  1  0.25937500  0.00000000  0.82686700  1
  Cu  Cu35  1  0.26497100  0.50000000  0.50000000  1
  Cu  Cu36  1  0.74062500  0.00000000  0.82686700  1
  Cu  Cu37  1  0.00000000  0.82686700  0.25937500  1
  Cu  Cu38  1  0.50000000  0.26497100  0.50000000  1
