# generated using pymatgen
data_CuNi4C3
_symmetry_space_group_name_H-M   'P 1'
_cell_length_a   10.35439000
_cell_length_b   10.50696000
_cell_length_c   10.74090000
_cell_angle_alpha   90.00000000
_cell_angle_beta   90.00000000
_cell_angle_gamma   90.00000000
_symmetry_Int_Tables_number   1
_chemical_formula_structural   CuNi4C3
_chemical_formula_sum   'Cu8 Ni32 C24'
_cell_volume   1168.53646894
_cell_formula_units_Z   8
loop_
 _symmetry_equiv_pos_site_id
 _symmetry_equiv_pos_as_xyz
  1  'x, y, z'
loop_
 _atom_site_type_symbol
 _atom_site_label
 _atom_site_symmetry_multiplicity
 _atom_site_fract_x
 _atom_site_fract_y
 _atom_site_fract_z
 _atom_site_occupancy
  C  C0  1  0.08395500  0.56446600  0.11964000  1
  C  C1  1  0.24788800  0.88943500  0.65939800  1
  C  C2  1  0.25211200  0.88943500  0.15939800  1
  C  C3  1  0.41604500  0.56446600  0.61964000  1
  C  C4  1  0.58395500  0.06446600  0.38036000  1
  C  C5  1  0.74788800  0.38943500  0.84060200  1
  C  C6  1  0.75211200  0.38943500  0.34060200  1
  C  C7  1  0.91604500  0.06446600  0.88036000  1
  C  C8  1  0.07215000  0.20053400  0.18492600  1
  C  C9  1  0.23342200  0.25562000  0.93685300  1
  C  C10  1  0.26657800  0.25562000  0.43685300  1
  C  C11  1  0.42785000  0.20053400  0.68492600  1
  C  C12  1  0.57215000  0.70053400  0.31507400  1
  C  C13  1  0.73342200  0.75562000  0.56314700  1
  C  C14  1  0.76657800  0.75562000  0.06314700  1
  C  C15  1  0.92785000  0.70053400  0.81507400  1
  C  C16  1  0.96994900  0.77745500  0.38171000  1
  C  C17  1  0.55551000  0.04834400  0.94094600  1
  C  C18  1  0.94449000  0.04834400  0.44094600  1
  C  C19  1  0.53005100  0.77745500  0.88171000  1
  C  C20  1  0.46994900  0.27745500  0.11829000  1
  C  C21  1  0.05551000  0.54834400  0.55905400  1
  C  C22  1  0.44449000  0.54834400  0.05905400  1
  C  C23  1  0.03005100  0.27745500  0.61829000  1
  Ni  Ni24  1  0.93874500  0.41921800  0.55036600  1
  Ni  Ni25  1  0.06984200  0.16938400  0.48900900  1
  Ni  Ni26  1  0.56292600  0.09229300  0.78639600  1
  Ni  Ni27  1  0.16441900  0.60196300  0.45639900  1
  Ni  Ni28  1  0.55462400  0.84300300  0.55169600  1
  Ni  Ni29  1  0.52513200  0.30804800  0.55833700  1
  Ni  Ni30  1  0.33843200  0.12706900  0.54442300  1
  Ni  Ni31  1  0.17208600  0.37021000  0.58696100  1
  Ni  Ni32  1  0.32791400  0.37021000  0.08696100  1
  Ni  Ni33  1  0.16156800  0.12706900  0.04442300  1
  Ni  Ni34  1  0.97486800  0.30804800  0.05833700  1
  Ni  Ni35  1  0.94537600  0.84300300  0.05169600  1
  Ni  Ni36  1  0.33558100  0.60196300  0.95639900  1
  Ni  Ni37  1  0.93707400  0.09229300  0.28639600  1
  Ni  Ni38  1  0.43015800  0.16938400  0.98900900  1
  Ni  Ni39  1  0.56125500  0.41921800  0.05036600  1
  Ni  Ni40  1  0.43874500  0.91921800  0.94963400  1
  Ni  Ni41  1  0.56984200  0.66938400  0.01099100  1
  Ni  Ni42  1  0.06292600  0.59229300  0.71360400  1
  Ni  Ni43  1  0.66441900  0.10196300  0.04360100  1
  Ni  Ni44  1  0.05462400  0.34300300  0.94830400  1
  Ni  Ni45  1  0.02513200  0.80804800  0.94166300  1
  Ni  Ni46  1  0.83843200  0.62706900  0.95557700  1
  Ni  Ni47  1  0.67208600  0.87021000  0.91303900  1
  Ni  Ni48  1  0.82791400  0.87021000  0.41303900  1
  Ni  Ni49  1  0.66156800  0.62706900  0.45557700  1
  Ni  Ni50  1  0.47486800  0.80804800  0.44166300  1
  Ni  Ni51  1  0.44537600  0.34300300  0.44830400  1
  Ni  Ni52  1  0.83558100  0.10196300  0.54360100  1
  Ni  Ni53  1  0.43707400  0.59229300  0.21360400  1
  Ni  Ni54  1  0.93015800  0.66938400  0.51099100  1
  Ni  Ni55  1  0.06125500  0.91921800  0.44963400  1
  Cu  Cu56  1  0.12026400  0.34666700  0.30212000  1
  Cu  Cu57  1  0.24181800  0.14569000  0.77993700  1
  Cu  Cu58  1  0.25818200  0.14569000  0.27993700  1
  Cu  Cu59  1  0.37973600  0.34666700  0.80212000  1
  Cu  Cu60  1  0.62026400  0.84666700  0.19788000  1
  Cu  Cu61  1  0.74181800  0.64569000  0.72006300  1
  Cu  Cu62  1  0.75818200  0.64569000  0.22006300  1
  Cu  Cu63  1  0.87973600  0.84666700  0.69788000  1
