# generated using pymatgen
data_Cu2NiC5
_symmetry_space_group_name_H-M   'P 1'
_cell_length_a   10.03200023
_cell_length_b   10.03200023
_cell_length_c   7.79359100
_cell_angle_alpha   90.00000000
_cell_angle_beta   90.00000000
_cell_angle_gamma   146.82782795
_symmetry_Int_Tables_number   1
_chemical_formula_structural   Cu2NiC5
_chemical_formula_sum   'Cu4 Ni2 C10'
_cell_volume   429.16514166
_cell_formula_units_Z   2
loop_
 _symmetry_equiv_pos_site_id
 _symmetry_equiv_pos_as_xyz
  1  'x, y, z'
loop_
 _atom_site_type_symbol
 _atom_site_label
 _atom_site_symmetry_multiplicity
 _atom_site_fract_x
 _atom_site_fract_y
 _atom_site_fract_z
 _atom_site_occupancy
  C  C0  1  0.92370600  0.55613700  0.25000000  1
  C  C1  1  0.55613700  0.92370600  0.75000000  1
  Ni  Ni2  1  0.60873000  0.39068300  0.75000000  1
  Ni  Ni3  1  0.39068300  0.60873000  0.25000000  1
  Cu  Cu4  1  0.10666500  0.89351300  0.75000000  1
  Cu  Cu5  1  0.89351300  0.10666500  0.25000000  1
  Cu  Cu6  1  0.48373000  0.48373000  0.50000000  1
  Cu  Cu7  1  0.48373000  0.48373000  0.00000000  1
  C  C8  1  0.74926000  0.74325100  0.75000000  1
  C  C9  1  0.14399800  0.35759800  0.50560900  1
  C  C10  1  0.54104600  0.96241800  0.25000000  1
  C  C11  1  0.74325100  0.74926000  0.25000000  1
  C  C12  1  0.96241800  0.54104600  0.75000000  1
  C  C13  1  0.14399800  0.35759800  0.99439100  1
  C  C14  1  0.35759800  0.14399800  0.00560900  1
  C  C15  1  0.35759800  0.14399800  0.49439100  1
