# generated using pymatgen
data_CuNiC5
_symmetry_space_group_name_H-M   'P 1'
_cell_length_a   4.14571300
_cell_length_b   7.45245800
_cell_length_c   13.01203900
_cell_angle_alpha   90.00000000
_cell_angle_beta   90.00000000
_cell_angle_gamma   90.00000000
_symmetry_Int_Tables_number   1
_chemical_formula_structural   CuNiC5
_chemical_formula_sum   'Cu4 Ni4 C20'
_cell_volume   402.01673012
_cell_formula_units_Z   4
loop_
 _symmetry_equiv_pos_site_id
 _symmetry_equiv_pos_as_xyz
  1  'x, y, z'
loop_
 _atom_site_type_symbol
 _atom_site_label
 _atom_site_symmetry_multiplicity
 _atom_site_fract_x
 _atom_site_fract_y
 _atom_site_fract_z
 _atom_site_occupancy
  Ni  Ni0  1  0.00000000  0.25000000  0.52128900  1
  Ni  Ni1  1  0.00000000  0.75000000  0.47871100  1
  Ni  Ni2  1  0.00000000  0.25000000  0.02128900  1
  Ni  Ni3  1  0.00000000  0.75000000  0.97871100  1
  Cu  Cu4  1  0.90251000  0.00000000  0.75000000  1
  Cu  Cu5  1  0.09749000  0.00000000  0.25000000  1
  Cu  Cu6  1  0.90251000  0.50000000  0.25000000  1
  Cu  Cu7  1  0.09749000  0.50000000  0.75000000  1
  C  C8  1  0.98898700  0.45745300  0.40201600  1
  C  C9  1  0.98898700  0.04254700  0.90201600  1
  C  C10  1  0.98898700  0.95745300  0.59798400  1
  C  C11  1  0.51755700  0.00000000  0.25000000  1
  C  C12  1  0.50000000  0.25000000  0.52639500  1
  C  C13  1  0.48244300  0.50000000  0.25000000  1
  C  C14  1  0.01101300  0.54254700  0.59798400  1
  C  C15  1  0.98898700  0.54254700  0.09798400  1
  C  C16  1  0.00000000  0.75000000  0.29557200  1
  C  C17  1  0.01101300  0.95745300  0.09798400  1
  C  C18  1  0.01101300  0.04254700  0.40201600  1
  C  C19  1  0.50000000  0.75000000  0.47360500  1
  C  C20  1  0.00000000  0.25000000  0.20442800  1
  C  C21  1  0.48244300  0.00000000  0.75000000  1
  C  C22  1  0.00000000  0.25000000  0.70442800  1
  C  C23  1  0.50000000  0.25000000  0.02639500  1
  C  C24  1  0.50000000  0.75000000  0.97360500  1
  C  C25  1  0.01101300  0.45745300  0.90201600  1
  C  C26  1  0.51755700  0.50000000  0.75000000  1
  C  C27  1  0.00000000  0.75000000  0.79557200  1
