# generated using pymatgen
data_CuNiC8
_symmetry_space_group_name_H-M   'P 1'
_cell_length_a   5.16851200
_cell_length_b   8.70517600
_cell_length_c   8.94835400
_cell_angle_alpha   90.00000000
_cell_angle_beta   90.00000000
_cell_angle_gamma   90.00000000
_symmetry_Int_Tables_number   1
_chemical_formula_structural   CuNiC8
_chemical_formula_sum   'Cu4 Ni4 C32'
_cell_volume   402.61156107
_cell_formula_units_Z   4
loop_
 _symmetry_equiv_pos_site_id
 _symmetry_equiv_pos_as_xyz
  1  'x, y, z'
loop_
 _atom_site_type_symbol
 _atom_site_label
 _atom_site_symmetry_multiplicity
 _atom_site_fract_x
 _atom_site_fract_y
 _atom_site_fract_z
 _atom_site_occupancy
  Ni  Ni0  1  0.51549600  0.16653800  0.89930800  1
  Ni  Ni1  1  0.01549600  0.33346200  0.39930800  1
  Ni  Ni2  1  0.51549600  0.66653800  0.60069200  1
  Ni  Ni3  1  0.01549600  0.83346200  0.10069200  1
  Cu  Cu4  1  0.98102500  0.18732100  0.08332400  1
  Cu  Cu5  1  0.48102500  0.31267900  0.58332400  1
  Cu  Cu6  1  0.98102500  0.68732100  0.41667600  1
  Cu  Cu7  1  0.48102500  0.81267900  0.91667600  1
  C  C8  1  0.23478800  0.01476700  0.72319800  1
  C  C9  1  0.01119700  0.05848800  0.61527500  1
  C  C10  1  0.67162500  0.15777300  0.42116800  1
  C  C11  1  0.17162500  0.34222700  0.92116800  1
  C  C12  1  0.51119700  0.44151200  0.11527500  1
  C  C13  1  0.73478800  0.48523300  0.22319800  1
  C  C14  1  0.23478800  0.51476700  0.77680200  1
  C  C15  1  0.01119700  0.55848800  0.88472500  1
  C  C16  1  0.67162500  0.65777300  0.07883200  1
  C  C17  1  0.17162500  0.84222700  0.57883200  1
  C  C18  1  0.51119700  0.94151200  0.38472500  1
  C  C19  1  0.73478800  0.98523300  0.27680200  1
  C  C20  1  0.08715900  0.97140000  0.66903700  1
  C  C21  1  0.00213800  0.01517400  0.10304100  1
  C  C22  1  0.74575800  0.23842900  0.99303800  1
  C  C23  1  0.22894200  0.24480600  0.98498300  1
  C  C24  1  0.49008300  0.22799700  0.73151700  1
  C  C25  1  0.99008300  0.27200300  0.23151700  1
  C  C26  1  0.72894200  0.25519400  0.48498300  1
  C  C27  1  0.24575800  0.26157100  0.49303800  1
  C  C28  1  0.50213800  0.48482600  0.60304100  1
  C  C29  1  0.58715900  0.52860000  0.16903700  1
  C  C30  1  0.08715900  0.47140000  0.83096300  1
  C  C31  1  0.00213800  0.51517400  0.39695900  1
  C  C32  1  0.74575800  0.73842900  0.50696200  1
  C  C33  1  0.22894200  0.74480600  0.51501700  1
  C  C34  1  0.49008300  0.72799700  0.76848300  1
  C  C35  1  0.99008300  0.77200300  0.26848300  1
  C  C36  1  0.72894200  0.75519400  0.01501700  1
  C  C37  1  0.24575800  0.76157100  0.00696200  1
  C  C38  1  0.50213800  0.98482600  0.89695900  1
  C  C39  1  0.58715900  0.02860000  0.33096300  1
