# generated using pymatgen
data_Cu5NiC3
_symmetry_space_group_name_H-M   'P 1'
_cell_length_a   6.88755197
_cell_length_b   7.59937299
_cell_length_c   7.81373400
_cell_angle_alpha   90.00011242
_cell_angle_beta   90.00120079
_cell_angle_gamma   115.89677594
_symmetry_Int_Tables_number   1
_chemical_formula_structural   Cu5NiC3
_chemical_formula_sum   'Cu20 Ni4 C12'
_cell_volume   367.91051606
_cell_formula_units_Z   4
loop_
 _symmetry_equiv_pos_site_id
 _symmetry_equiv_pos_as_xyz
  1  'x, y, z'
loop_
 _atom_site_type_symbol
 _atom_site_label
 _atom_site_symmetry_multiplicity
 _atom_site_fract_x
 _atom_site_fract_y
 _atom_site_fract_z
 _atom_site_occupancy
  C  C0  1  0.00000000  0.50000000  0.00000000  1
  C  C1  1  0.00000000  0.00000000  0.50000000  1
  C  C2  1  0.50000000  0.50000000  0.50000000  1
  C  C3  1  0.50000000  0.00000000  0.00000000  1
  C  C4  1  0.66080100  0.79408900  0.29178700  1
  C  C5  1  0.16185200  0.79399800  0.79167900  1
  C  C6  1  0.83812800  0.70599900  0.29167000  1
  C  C7  1  0.33919500  0.70592100  0.79180100  1
  C  C8  1  0.33919900  0.20591100  0.70821400  1
  C  C9  1  0.83814800  0.20600200  0.20832100  1
  C  C10  1  0.16187100  0.29400000  0.70833100  1
  C  C11  1  0.66080500  0.29407900  0.20819800  1
  Ni  Ni12  1  0.74895700  0.74976900  0.84053600  1
  Ni  Ni13  1  0.25103900  0.75023300  0.34053000  1
  Ni  Ni14  1  0.25104300  0.25023100  0.15946400  1
  Ni  Ni15  1  0.74896100  0.24976700  0.65947000  1
  Cu  Cu16  1  0.75008300  0.75050100  0.36595500  1
  Cu  Cu17  1  0.24991300  0.74950900  0.86596500  1
  Cu  Cu18  1  0.24991700  0.24949900  0.63404600  1
  Cu  Cu19  1  0.75008700  0.25049100  0.13403400  1
  Cu  Cu20  1  0.22946100  0.89961500  0.44947500  1
  Cu  Cu21  1  0.72794200  0.89982800  0.94972100  1
  Cu  Cu22  1  0.27209700  0.60018700  0.44971500  1
  Cu  Cu23  1  0.77055200  0.60038700  0.94947500  1
  Cu  Cu24  1  0.77053900  0.10038400  0.55052600  1
  Cu  Cu25  1  0.27205900  0.10017300  0.05027800  1
  Cu  Cu26  1  0.72790300  0.39981200  0.55028500  1
  Cu  Cu27  1  0.22944800  0.39961400  0.05052600  1
  Cu  Cu28  1  0.55147600  0.65678900  0.72968900  1
  Cu  Cu29  1  0.05387300  0.65675900  0.22891000  1
  Cu  Cu30  1  0.94610800  0.84322000  0.72889500  1
  Cu  Cu31  1  0.44850500  0.84321000  0.22966600  1
  Cu  Cu32  1  0.44852400  0.34321100  0.27031100  1
  Cu  Cu33  1  0.94612700  0.34324100  0.77109000  1
  Cu  Cu34  1  0.05389200  0.15678000  0.27110400  1
  Cu  Cu35  1  0.55149500  0.15679000  0.77033300  1
