# generated using pymatgen
data_Cu3(Ni4C5)2
_symmetry_space_group_name_H-M   'P 1'
_cell_length_a   10.93872800
_cell_length_b   12.35788400
_cell_length_c   18.86769396
_cell_angle_alpha   87.75568056
_cell_angle_beta   90.00000000
_cell_angle_gamma   90.00000000
_symmetry_Int_Tables_number   1
_chemical_formula_structural   Cu3(Ni4C5)2
_chemical_formula_sum   'Cu24 Ni64 C80'
_cell_volume   2548.56958641
_cell_formula_units_Z   8
loop_
 _symmetry_equiv_pos_site_id
 _symmetry_equiv_pos_as_xyz
  1  'x, y, z'
loop_
 _atom_site_type_symbol
 _atom_site_label
 _atom_site_symmetry_multiplicity
 _atom_site_fract_x
 _atom_site_fract_y
 _atom_site_fract_z
 _atom_site_occupancy
  Ni  Ni0  1  0.36207700  0.77846700  0.05203000  1
  Ni  Ni1  1  0.38172500  0.65681300  0.61252000  1
  Ni  Ni2  1  0.36215700  0.52925100  0.96963300  1
  Ni  Ni3  1  0.39323600  0.43452700  0.52467700  1
  Ni  Ni4  1  0.88718900  0.66157200  0.81047300  1
  Ni  Ni5  1  0.10848500  0.29440900  0.56843900  1
  Ni  Ni6  1  0.86128200  0.19556600  0.62240000  1
  Ni  Ni7  1  0.63784300  0.52925100  0.46963300  1
  Ni  Ni8  1  0.38738600  0.06000800  0.78176000  1
  Ni  Ni9  1  0.60676400  0.43452700  0.02467700  1
  Ni  Ni10  1  0.34941600  0.35346900  0.69913200  1
  Ni  Ni11  1  0.61261400  0.06000800  0.28176000  1
  Ni  Ni12  1  0.11472300  0.15485100  0.32431100  1
  Ni  Ni13  1  0.11281100  0.66157200  0.31047300  1
  Ni  Ni14  1  0.85770000  0.70714600  0.62344900  1
  Ni  Ni15  1  0.37968700  0.23976200  0.24452100  1
  Ni  Ni16  1  0.60974100  0.24403900  0.56835800  1
  Ni  Ni17  1  0.60642300  0.56310500  0.27136500  1
  Ni  Ni18  1  0.14181400  0.56563200  0.47789300  1
  Ni  Ni19  1  0.63671200  0.87210500  0.17999100  1
  Ni  Ni20  1  0.13312500  0.00037700  0.84836300  1
  Ni  Ni21  1  0.61827500  0.65681300  0.11252000  1
  Ni  Ni22  1  0.64853800  0.15453300  0.11612400  1
  Ni  Ni23  1  0.63792300  0.77846700  0.55203000  1
  Ni  Ni24  1  0.86311400  0.85181000  0.91318300  1
  Ni  Ni25  1  0.37235600  0.94673200  0.51311900  1
  Ni  Ni26  1  0.11726000  0.48207900  0.85261100  1
  Ni  Ni27  1  0.65058400  0.35346900  0.19913200  1
  Ni  Ni28  1  0.36784900  0.72088400  0.24514600  1
  Ni  Ni29  1  0.35929300  0.01444700  0.96855100  1
  Ni  Ni30  1  0.89151500  0.29440900  0.06843900  1
  Ni  Ni31  1  0.12047700  0.06791300  0.48265500  1
  Ni  Ni32  1  0.12172200  0.77461100  0.57912300  1
  Ni  Ni33  1  0.62764400  0.94673200  0.01311900  1
  Ni  Ni34  1  0.36328800  0.87210500  0.67999100  1
  Ni  Ni35  1  0.87394300  0.22578100  0.26186300  1
  Ni  Ni36  1  0.62399300  0.49402500  0.82940800  1
  Ni  Ni37  1  0.64432400  0.95915100  0.85499600  1
  Ni  Ni38  1  0.63215100  0.72088400  0.74514600  1
  Ni  Ni39  1  0.84672000  0.36270500  0.89535800  1
  Ni  Ni40  1  0.88274000  0.48207900  0.35261100  1
  Ni  Ni41  1  0.39025900  0.24403900  0.06835800  1
  Ni  Ni42  1  0.86687500  0.00037700  0.34836300  1
  Ni  Ni43  1  0.35146200  0.15453300  0.61612400  1
  Ni  Ni44  1  0.13688600  0.85181000  0.41318300  1
  Ni  Ni45  1  0.11316700  0.47710500  0.02565400  1
  Ni  Ni46  1  0.85818600  0.56563200  0.97789300  1
  Ni  Ni47  1  0.12605700  0.22578100  0.76186300  1
  Ni  Ni48  1  0.39357700  0.56310500  0.77136500  1
  Ni  Ni49  1  0.88527700  0.15485100  0.82431100  1
  Ni  Ni50  1  0.35567600  0.95915100  0.35499600  1
  Ni  Ni51  1  0.64070700  0.01444700  0.46855100  1
  Ni  Ni52  1  0.15328000  0.36270500  0.39535800  1
  Ni  Ni53  1  0.87952300  0.06791300  0.98265500  1
  Ni  Ni54  1  0.37600700  0.49402500  0.32940800  1
  Ni  Ni55  1  0.13814800  0.76085400  0.73885800  1
  Ni  Ni56  1  0.87827800  0.77461100  0.07912300  1
  Ni  Ni57  1  0.62031300  0.23976200  0.74452100  1
  Ni  Ni58  1  0.14230000  0.70714600  0.12344900  1
  Ni  Ni59  1  0.13871800  0.19556600  0.12240000  1
  Ni  Ni60  1  0.13976300  0.94319000  0.03965100  1
  Ni  Ni61  1  0.86023700  0.94319000  0.53965100  1
  Ni  Ni62  1  0.88683300  0.47710500  0.52565400  1
  Ni  Ni63  1  0.86185200  0.76085400  0.23885800  1
  Cu  Cu64  1  0.38125200  0.00259100  0.14521300  1
  Cu  Cu65  1  0.61874800  0.00259100  0.64521300  1
  Cu  Cu66  1  0.88324000  0.01354500  0.16069000  1
  Cu  Cu67  1  0.62857500  0.49361400  0.65161600  1
  Cu  Cu68  1  0.12844400  0.92409200  0.23192000  1
  Cu  Cu69  1  0.62241000  0.79479800  0.35903200  1
  Cu  Cu70  1  0.87951900  0.41528600  0.72501900  1
  Cu  Cu71  1  0.86545700  0.51995900  0.15057700  1
  Cu  Cu72  1  0.37142500  0.49361400  0.15161600  1
  Cu  Cu73  1  0.12664600  0.22861900  0.94026900  1
  Cu  Cu74  1  0.13454300  0.51995900  0.65057700  1
  Cu  Cu75  1  0.11676000  0.01354500  0.66069000  1
  Cu  Cu76  1  0.62057300  0.70595500  0.93263100  1
  Cu  Cu77  1  0.87155600  0.92409200  0.73192000  1
  Cu  Cu78  1  0.12149500  0.71960800  0.94388800  1
  Cu  Cu79  1  0.62799600  0.19735600  0.93579900  1
  Cu  Cu80  1  0.37200400  0.19735600  0.43579900  1
  Cu  Cu81  1  0.87335400  0.22861900  0.44026900  1
  Cu  Cu82  1  0.61797600  0.31004000  0.37439400  1
  Cu  Cu83  1  0.12048100  0.41528600  0.22501900  1
  Cu  Cu84  1  0.37942700  0.70595500  0.43263100  1
  Cu  Cu85  1  0.37759000  0.79479800  0.85903200  1
  Cu  Cu86  1  0.38202400  0.31004000  0.87439400  1
  Cu  Cu87  1  0.87850500  0.71960800  0.44388800  1
  C  C88  1  0.16140400  0.27744200  0.22794100  1
  C  C89  1  0.41475200  0.75209400  0.77472500  1
  C  C90  1  0.08922300  0.97090000  0.31482100  1
  C  C91  1  0.86193600  0.47785100  0.80685500  1
  C  C92  1  0.15335900  0.15405100  0.65884400  1
  C  C93  1  0.33892800  0.56679700  0.43247500  1
  C  C94  1  0.94990400  0.00411600  0.66292900  1
  C  C95  1  0.54620300  0.71055900  0.42731600  1
  C  C96  1  0.38582000  0.24570600  0.79291100  1
  C  C97  1  0.08065300  0.09133100  0.94548500  1
  C  C98  1  0.16361500  0.95418300  0.58141300  1
  C  C99  1  0.81588000  0.94647300  0.23620100  1
  C  C100  1  0.78367700  0.77174600  0.37171700  1
  C  C101  1  0.71557800  0.06384000  0.57843300  1
  C  C102  1  0.33335300  0.76456100  0.51212700  1
  C  C103  1  0.46839800  0.31562400  0.41650800  1
  C  C104  1  0.29012900  0.93841400  0.21569900  1
  C  C105  1  0.58382300  0.63148900  0.64571900  1
  C  C106  1  0.08458100  0.29693800  0.01778400  1
  C  C107  1  0.21162400  0.65812900  0.01360300  1
  C  C108  1  0.07086300  0.29493700  0.86140100  1
  C  C109  1  0.02546100  0.62243200  0.90626700  1
  C  C110  1  0.70623300  0.23018300  0.43866200  1
  C  C111  1  0.21720900  0.60540700  0.70520600  1
  C  C112  1  0.52856600  0.89948400  0.60884200  1
  C  C113  1  0.95063400  0.59797900  0.08658300  1
  C  C114  1  0.21632300  0.77174600  0.87171700  1
  C  C115  1  0.91541900  0.29693800  0.51778400  1
  C  C116  1  0.45379700  0.71055900  0.92731600  1
  C  C117  1  0.41350000  0.93169200  0.87230000  1
  C  C118  1  0.53160200  0.31562400  0.91650800  1
  C  C119  1  0.96446400  0.82790100  0.47663300  1
  C  C120  1  0.13806400  0.47785100  0.30685500  1
  C  C121  1  0.55443200  0.12003100  0.00495800  1
  C  C122  1  0.03553600  0.82790100  0.97663300  1
  C  C123  1  0.40806400  0.42549000  0.07343600  1
  C  C124  1  0.75920500  0.42859100  0.11180400  1
  C  C125  1  0.78279100  0.60540700  0.20520600  1
  C  C126  1  0.78837600  0.65812900  0.51360300  1
  C  C127  1  0.59193600  0.42549000  0.57343600  1
  C  C128  1  0.33089600  0.44512800  0.86543800  1
  C  C129  1  0.91044700  0.78625400  0.72179300  1
  C  C130  1  0.47143400  0.89948400  0.10884200  1
  C  C131  1  0.96243900  0.42561300  0.19994700  1
  C  C132  1  0.08955300  0.78625400  0.22179300  1
  C  C133  1  0.47428200  0.10160500  0.18258300  1
  C  C134  1  0.91077700  0.97090000  0.81482100  1
  C  C135  1  0.83638500  0.95418300  0.08141300  1
  C  C136  1  0.23125200  0.24688400  0.46988700  1
  C  C137  1  0.41617700  0.63148900  0.14571900  1
  C  C138  1  0.79579200  0.49191600  0.65728600  1
  C  C139  1  0.91934700  0.09133100  0.44548500  1
  C  C140  1  0.97453900  0.62243200  0.40626700  1
  C  C141  1  0.04936600  0.59797900  0.58658300  1
  C  C142  1  0.24079500  0.42859100  0.61180400  1
  C  C143  1  0.56488500  0.42726000  0.72816600  1
  C  C144  1  0.34174600  0.13432700  0.35555600  1
  C  C145  1  0.31692500  0.77906000  0.35748400  1
  C  C146  1  0.29376700  0.23018300  0.93866200  1
  C  C147  1  0.28442200  0.06384000  0.07843300  1
  C  C148  1  0.76874800  0.24688400  0.96988700  1
  C  C149  1  0.68307500  0.77906000  0.85748400  1
  C  C150  1  0.84664100  0.15405100  0.15884400  1
  C  C151  1  0.44556800  0.12003100  0.50495800  1
  C  C152  1  0.65825400  0.13432700  0.85555600  1
  C  C153  1  0.43511500  0.42726000  0.22816600  1
  C  C154  1  0.20420800  0.49191600  0.15728600  1
  C  C155  1  0.52571800  0.10160500  0.68258300  1
  C  C156  1  0.03756100  0.42561300  0.69994700  1
  C  C157  1  0.92913700  0.29493700  0.36140100  1
  C  C158  1  0.18412000  0.94647300  0.73620100  1
  C  C159  1  0.05009600  0.00411600  0.16292900  1
  C  C160  1  0.66910400  0.44512800  0.36543800  1
  C  C161  1  0.83859600  0.27744200  0.72794100  1
  C  C162  1  0.66107200  0.56679700  0.93247500  1
  C  C163  1  0.58524800  0.75209400  0.27472500  1
  C  C164  1  0.61418000  0.24570600  0.29291100  1
  C  C165  1  0.66664700  0.76456100  0.01212700  1
  C  C166  1  0.70987100  0.93841400  0.71569900  1
  C  C167  1  0.58650000  0.93169200  0.37230000  1
