# generated using pymatgen
data_Cu13Ni2C7
_symmetry_space_group_name_H-M   'P 1'
_cell_length_a   10.37751900
_cell_length_b   7.62869400
_cell_length_c   15.31818827
_cell_angle_alpha   74.76881241
_cell_angle_beta   90.00000000
_cell_angle_gamma   90.00000000
_symmetry_Int_Tables_number   1
_chemical_formula_structural   Cu13Ni2C7
_chemical_formula_sum   'Cu52 Ni8 C28'
_cell_volume   1170.09621559
_cell_formula_units_Z   4
loop_
 _symmetry_equiv_pos_site_id
 _symmetry_equiv_pos_as_xyz
  1  'x, y, z'
loop_
 _atom_site_type_symbol
 _atom_site_label
 _atom_site_symmetry_multiplicity
 _atom_site_fract_x
 _atom_site_fract_y
 _atom_site_fract_z
 _atom_site_occupancy
  C  C0  1  0.08921500  0.95523400  0.62627000  1
  C  C1  1  0.42034300  0.44058100  0.13937500  1
  C  C2  1  0.07965700  0.44058100  0.63937500  1
  C  C3  1  0.57965700  0.55941900  0.86062500  1
  C  C4  1  0.91078500  0.04476600  0.37373000  1
  C  C5  1  0.41078500  0.95523400  0.12627000  1
  C  C6  1  0.92034300  0.55941900  0.36062500  1
  C  C7  1  0.58921500  0.04476600  0.87373000  1
  C  C8  1  0.29035000  0.60815500  0.31938800  1
  C  C9  1  0.79035000  0.39184500  0.18061200  1
  C  C10  1  0.70965000  0.39184500  0.68061200  1
  C  C11  1  0.20965000  0.60815500  0.81938800  1
  C  C12  1  0.28816500  0.09004100  0.32382000  1
  C  C13  1  0.78816500  0.90995900  0.17618000  1
  C  C14  1  0.71183500  0.90995900  0.67618000  1
  C  C15  1  0.21183500  0.09004100  0.82382000  1
  C  C16  1  0.50540100  0.74940900  0.49637400  1
  C  C17  1  0.00540100  0.25059100  0.00362600  1
  C  C18  1  0.49459900  0.25059100  0.50362600  1
  C  C19  1  0.99459900  0.74940900  0.99637400  1
  C  C20  1  0.58405000  0.56944200  0.29659300  1
  C  C21  1  0.08405000  0.43055800  0.20340700  1
  C  C22  1  0.41595000  0.43055800  0.70340700  1
  C  C23  1  0.91595000  0.56944200  0.79659300  1
  C  C24  1  0.57886000  0.13760600  0.29866500  1
  C  C25  1  0.07886000  0.86239400  0.20133500  1
  C  C26  1  0.42114000  0.86239400  0.70133500  1
  C  C27  1  0.92114000  0.13760600  0.79866500  1
  Ni  Ni28  1  0.81067700  0.65982700  0.53094500  1
  Ni  Ni29  1  0.19479000  0.81999000  0.47625400  1
  Ni  Ni30  1  0.69479000  0.18001000  0.02374600  1
  Ni  Ni31  1  0.80521000  0.18001000  0.52374600  1
  Ni  Ni32  1  0.30521000  0.81999000  0.97625400  1
  Ni  Ni33  1  0.18932300  0.34017300  0.46905500  1
  Ni  Ni34  1  0.68932300  0.65982700  0.03094500  1
  Ni  Ni35  1  0.31067700  0.34017300  0.96905500  1
  Cu  Cu36  1  0.58373500  0.36535400  0.27441500  1
  Cu  Cu37  1  0.46777000  0.11502300  0.22645200  1
  Cu  Cu38  1  0.03223000  0.11502300  0.72645200  1
  Cu  Cu39  1  0.53223000  0.88497700  0.77354800  1
  Cu  Cu40  1  0.52963100  0.55223200  0.39841000  1
  Cu  Cu41  1  0.02963100  0.44776800  0.10159000  1
  Cu  Cu42  1  0.47036900  0.44776800  0.60159000  1
  Cu  Cu43  1  0.97036900  0.55223200  0.89841000  1
  Cu  Cu44  1  0.52436500  0.05532200  0.40098100  1
  Cu  Cu45  1  0.02436500  0.94467800  0.09901900  1
  Cu  Cu46  1  0.47563500  0.94467800  0.59901900  1
  Cu  Cu47  1  0.97563500  0.05532200  0.90098100  1
  Cu  Cu48  1  0.73334000  0.63266200  0.27187500  1
  Cu  Cu49  1  0.82665900  0.27590400  0.44278800  1
  Cu  Cu50  1  0.26666000  0.36733800  0.72812500  1
  Cu  Cu51  1  0.76666000  0.63266200  0.77187500  1
  Cu  Cu52  1  0.72491500  0.08641600  0.27433500  1
  Cu  Cu53  1  0.22491500  0.91358400  0.22566500  1
  Cu  Cu54  1  0.27508500  0.91358400  0.72566500  1
  Cu  Cu55  1  0.77508500  0.08641600  0.77433500  1
  Cu  Cu56  1  0.52616500  0.32336600  0.77555500  1
  Cu  Cu57  1  0.96777000  0.88497700  0.27354800  1
  Cu  Cu58  1  0.02616500  0.67663400  0.72444500  1
  Cu  Cu59  1  0.47383500  0.67663400  0.22444500  1
  Cu  Cu60  1  0.97383500  0.32336600  0.27555500  1
  Cu  Cu61  1  0.91626500  0.36535400  0.77441500  1
  Cu  Cu62  1  0.41626500  0.63464600  0.72558500  1
  Cu  Cu63  1  0.08373500  0.63464600  0.22558500  1
  Cu  Cu64  1  0.20775700  0.29863500  0.92867600  1
  Cu  Cu65  1  0.70775700  0.70136500  0.57132400  1
  Cu  Cu66  1  0.79224300  0.70136500  0.07132400  1
  Cu  Cu67  1  0.29224300  0.29863500  0.42867600  1
  Cu  Cu68  1  0.20574800  0.78601100  0.92990800  1
  Cu  Cu69  1  0.70574800  0.21398900  0.57009200  1
  Cu  Cu70  1  0.79425200  0.21398900  0.07009200  1
  Cu  Cu71  1  0.29425200  0.78601100  0.42990800  1
  Cu  Cu72  1  0.37821600  0.47884300  0.92613700  1
  Cu  Cu73  1  0.87821600  0.52115700  0.57386300  1
  Cu  Cu74  1  0.62178400  0.52115700  0.07386300  1
  Cu  Cu75  1  0.12178400  0.47884300  0.42613700  1
  Cu  Cu76  1  0.37627900  0.96044200  0.93970200  1
  Cu  Cu77  1  0.87627900  0.03955800  0.56029800  1
  Cu  Cu78  1  0.62372100  0.03955800  0.06029800  1
  Cu  Cu79  1  0.12372100  0.96044200  0.43970200  1
  Cu  Cu80  1  0.66000100  0.74912900  0.95014100  1
  Cu  Cu81  1  0.16000100  0.25087100  0.54985900  1
  Cu  Cu82  1  0.33999900  0.25087100  0.04985900  1
  Cu  Cu83  1  0.83999900  0.74912900  0.45014100  1
  Cu  Cu84  1  0.67334100  0.27590400  0.94278800  1
  Cu  Cu85  1  0.17334100  0.72409600  0.55721200  1
  Cu  Cu86  1  0.32665900  0.72409600  0.05721200  1
  Cu  Cu87  1  0.23334000  0.36733800  0.22812500  1
