# generated using pymatgen
data_Cu2Ni2C13
_symmetry_space_group_name_H-M   'P 1'
_cell_length_a   5.23463002
_cell_length_b   5.23463002
_cell_length_c   14.53244944
_cell_angle_alpha   89.02868470
_cell_angle_beta   89.02868470
_cell_angle_gamma   120.05065010
_symmetry_Int_Tables_number   1
_chemical_formula_structural   Cu2Ni2C13
_chemical_formula_sum   'Cu4 Ni4 C26'
_cell_volume   344.48429181
_cell_formula_units_Z   2
loop_
 _symmetry_equiv_pos_site_id
 _symmetry_equiv_pos_as_xyz
  1  'x, y, z'
loop_
 _atom_site_type_symbol
 _atom_site_label
 _atom_site_symmetry_multiplicity
 _atom_site_fract_x
 _atom_site_fract_y
 _atom_site_fract_z
 _atom_site_occupancy
  Ni  Ni0  1  0.55064400  0.21689500  0.73113300  1
  Ni  Ni1  1  0.21689500  0.55064400  0.23113300  1
  Ni  Ni2  1  0.89201400  0.88891800  0.73115800  1
  Ni  Ni3  1  0.88891800  0.89201400  0.23115800  1
  Cu  Cu4  1  0.57802700  0.54058300  0.54101800  1
  Cu  Cu5  1  0.54058300  0.57802700  0.04101800  1
  Cu  Cu6  1  0.89335800  0.19870200  0.54045900  1
  Cu  Cu7  1  0.19870200  0.89335800  0.04045900  1
  C  C8  1  0.22645000  0.75173800  0.65823300  1
  C  C9  1  0.75173800  0.22645000  0.15823300  1
  C  C10  1  0.87728300  0.54789100  0.85809900  1
  C  C11  1  0.54789100  0.87728300  0.35809900  1
  C  C12  1  0.21267100  0.24694000  0.85574400  1
  C  C13  1  0.24694000  0.21267100  0.35574400  1
  C  C14  1  0.52436200  0.85794700  0.85623300  1
  C  C15  1  0.85794700  0.52436200  0.35623300  1
  C  C16  1  0.73523200  0.37006600  0.49259600  1
  C  C17  1  0.37006600  0.73523200  0.99259600  1
  C  C18  1  0.74114300  0.87381600  0.49393500  1
  C  C19  1  0.87381600  0.74114300  0.99393500  1
  C  C20  1  0.23919200  0.38146700  0.50631300  1
  C  C21  1  0.38146700  0.23919200  0.00631300  1
  C  C22  1  0.60905000  0.55039300  0.65179600  1
  C  C23  1  0.55039300  0.60905000  0.15179600  1
  C  C24  1  0.84634000  0.17071800  0.65172100  1
  C  C25  1  0.17071800  0.84634000  0.15172100  1
  C  C26  1  0.22772000  0.93872900  0.65755700  1
  C  C27  1  0.93872900  0.22772000  0.15755700  1
  C  C28  1  0.82722400  0.54563300  0.79406700  1
  C  C29  1  0.54563300  0.82722400  0.29406700  1
  C  C30  1  0.21569300  0.15952600  0.79795500  1
  C  C31  1  0.15952600  0.21569300  0.29795500  1
  C  C32  1  0.60691800  0.93672000  0.79498300  1
  C  C33  1  0.93672000  0.60691800  0.29498300  1
