# generated using pymatgen
data_Cu8NiC6
_symmetry_space_group_name_H-M   'P 1'
_cell_length_a   6.44740500
_cell_length_b   7.36530800
_cell_length_c   9.78638100
_cell_angle_alpha   90.00000000
_cell_angle_beta   90.00000000
_cell_angle_gamma   90.00000000
_symmetry_Int_Tables_number   1
_chemical_formula_structural   Cu8NiC6
_chemical_formula_sum   'Cu16 Ni2 C12'
_cell_volume   464.72708440
_cell_formula_units_Z   2
loop_
 _symmetry_equiv_pos_site_id
 _symmetry_equiv_pos_as_xyz
  1  'x, y, z'
loop_
 _atom_site_type_symbol
 _atom_site_label
 _atom_site_symmetry_multiplicity
 _atom_site_fract_x
 _atom_site_fract_y
 _atom_site_fract_z
 _atom_site_occupancy
  C  C0  1  0.75000000  0.00000000  0.75000000  1
  C  C1  1  0.75000000  0.00000000  0.25000000  1
  C  C2  1  0.25000000  0.00000000  0.25000000  1
  C  C3  1  0.50000000  0.79320400  0.50000000  1
  C  C4  1  0.00000000  0.20679600  0.00000000  1
  C  C5  1  0.25000000  0.00000000  0.75000000  1
  C  C6  1  0.00000000  0.75510100  0.00000000  1
  C  C7  1  0.50000000  0.24489900  0.50000000  1
  C  C8  1  0.50000000  0.61101900  0.19308000  1
  C  C9  1  0.00000000  0.38898100  0.69308000  1
  C  C10  1  0.50000000  0.61101900  0.80692000  1
  C  C11  1  0.00000000  0.38898100  0.30692000  1
  Ni  Ni12  1  0.00000000  0.84150800  0.50000000  1
  Ni  Ni13  1  0.50000000  0.15849200  0.00000000  1
  Cu  Cu14  1  0.00000000  0.01000800  0.86397000  1
  Cu  Cu15  1  0.50000000  0.98999200  0.36397000  1
  Cu  Cu16  1  0.00000000  0.41137400  0.86731500  1
  Cu  Cu17  1  0.28879000  0.75583200  0.16562800  1
  Cu  Cu18  1  0.21121000  0.24416800  0.66562800  1
  Cu  Cu19  1  0.50000000  0.58862600  0.36731500  1
  Cu  Cu20  1  0.78879000  0.24416800  0.33437200  1
  Cu  Cu21  1  0.78879000  0.24416800  0.66562800  1
  Cu  Cu22  1  0.00000000  0.41137400  0.13268500  1
  Cu  Cu23  1  0.50000000  0.58862600  0.63268500  1
  Cu  Cu24  1  0.71121000  0.75583200  0.83437200  1
  Cu  Cu25  1  0.21121000  0.24416800  0.33437200  1
  Cu  Cu26  1  0.50000000  0.98999200  0.63603000  1
  Cu  Cu27  1  0.00000000  0.01000800  0.13603000  1
  Cu  Cu28  1  0.71121000  0.75583200  0.16562800  1
  Cu  Cu29  1  0.28879000  0.75583200  0.83437200  1
