# generated using pymatgen
data_CuNiC5
_symmetry_space_group_name_H-M   'P 1'
_cell_length_a   18.47247781
_cell_length_b   18.47247781
_cell_length_c   8.64909600
_cell_angle_alpha   90.00000000
_cell_angle_beta   90.00000000
_cell_angle_gamma   119.99999932
_symmetry_Int_Tables_number   1
_chemical_formula_structural   CuNiC5
_chemical_formula_sum   'Cu24 Ni24 C120'
_cell_volume   2555.94591267
_cell_formula_units_Z   24
loop_
 _symmetry_equiv_pos_site_id
 _symmetry_equiv_pos_as_xyz
  1  'x, y, z'
loop_
 _atom_site_type_symbol
 _atom_site_label
 _atom_site_symmetry_multiplicity
 _atom_site_fract_x
 _atom_site_fract_y
 _atom_site_fract_z
 _atom_site_occupancy
  C  C0  1  0.48046100  0.00008900  0.92734600  1
  C  C1  1  0.19477700  0.33442800  0.41810200  1
  C  C2  1  0.51962800  0.51953900  0.92734600  1
  C  C3  1  0.80522300  0.66557200  0.91810200  1
  C  C4  1  0.15166000  0.33088100  0.92806100  1
  C  C5  1  0.33333300  0.66666700  0.42072500  1
  C  C6  1  0.66557200  0.86034900  0.41810200  1
  C  C7  1  0.33088100  0.17922100  0.42806100  1
  C  C8  1  0.66666700  0.33333300  0.42516400  1
  C  C9  1  0.84834000  0.66911900  0.42806100  1
  C  C10  1  0.51953900  0.99991100  0.42734600  1
  C  C11  1  0.00008900  0.51962800  0.42734600  1
  C  C12  1  0.00000000  0.00000000  0.95885200  1
  C  C13  1  0.99991100  0.48037200  0.92734600  1
  C  C14  1  0.82077900  0.15166000  0.42806100  1
  C  C15  1  0.66911900  0.82077900  0.92806100  1
  C  C16  1  0.66666700  0.33333300  0.92072500  1
  C  C17  1  0.33442800  0.13965100  0.91810200  1
  C  C18  1  0.17922100  0.84834000  0.92806100  1
  C  C19  1  0.33333300  0.66666700  0.92516400  1
  C  C20  1  0.86034900  0.19477700  0.91810200  1
  C  C21  1  0.13965100  0.80522300  0.41810200  1
  C  C22  1  0.48037200  0.48046100  0.42734600  1
  C  C23  1  0.00000000  0.00000000  0.45885200  1
  Ni  Ni24  1  0.99746400  0.66349900  0.11305500  1
  Ni  Ni25  1  0.83666300  0.33848300  0.24396100  1
  Ni  Ni26  1  0.00253600  0.33650100  0.61305500  1
  Ni  Ni27  1  0.33650100  0.33396500  0.11305500  1
  Ni  Ni28  1  0.84455900  0.00996700  0.73942900  1
  Ni  Ni29  1  0.16540800  0.15544100  0.73942900  1
  Ni  Ni30  1  0.15544100  0.99003300  0.23942900  1
  Ni  Ni31  1  0.49452200  0.32443900  0.74459000  1
  Ni  Ni32  1  0.83459200  0.84455900  0.23942900  1
  Ni  Ni33  1  0.49818000  0.83666300  0.74396100  1
  Ni  Ni34  1  0.00996700  0.16540800  0.23942900  1
  Ni  Ni35  1  0.32443900  0.82991700  0.24459000  1
  Ni  Ni36  1  0.50182000  0.16333700  0.24396100  1
  Ni  Ni37  1  0.66151700  0.49818000  0.24396100  1
  Ni  Ni38  1  0.67556100  0.17008300  0.74459000  1
  Ni  Ni39  1  0.33848300  0.50182000  0.74396100  1
  Ni  Ni40  1  0.82991700  0.50547800  0.74459000  1
  Ni  Ni41  1  0.66603500  0.00253600  0.11305500  1
  Ni  Ni42  1  0.99003300  0.83459200  0.73942900  1
  Ni  Ni43  1  0.17008300  0.49452200  0.24459000  1
  Ni  Ni44  1  0.16333700  0.66151700  0.74396100  1
  Ni  Ni45  1  0.50547800  0.67556100  0.24459000  1
  Ni  Ni46  1  0.33396500  0.99746400  0.61305500  1
  Ni  Ni47  1  0.66349900  0.66603500  0.61305500  1
  Cu  Cu48  1  0.82900900  0.84015600  0.62423000  1
  Cu  Cu49  1  0.50061400  0.67459800  0.63439000  1
  Cu  Cu50  1  0.49208900  0.83671800  0.13493400  1
  Cu  Cu51  1  0.34462900  0.50791100  0.13493400  1
  Cu  Cu52  1  0.33135000  0.00379800  0.21664300  1
  Cu  Cu53  1  0.83671800  0.34462900  0.63493400  1
  Cu  Cu54  1  0.16328200  0.65537100  0.13493400  1
  Cu  Cu55  1  0.99620200  0.32755200  0.21664300  1
  Cu  Cu56  1  0.32755200  0.33135000  0.71664300  1
  Cu  Cu57  1  0.84015600  0.01114700  0.12423000  1
  Cu  Cu58  1  0.17099100  0.15984400  0.12423000  1
  Cu  Cu59  1  0.82601600  0.50061400  0.13439000  1
  Cu  Cu60  1  0.00379800  0.67244800  0.71664300  1
  Cu  Cu61  1  0.98885300  0.82900900  0.12423000  1
  Cu  Cu62  1  0.17398400  0.49938600  0.63439000  1
  Cu  Cu63  1  0.32540200  0.82601600  0.63439000  1
  Cu  Cu64  1  0.65537100  0.49208900  0.63493400  1
  Cu  Cu65  1  0.66865000  0.99620200  0.71664300  1
  Cu  Cu66  1  0.49938600  0.32540200  0.13439000  1
  Cu  Cu67  1  0.50791100  0.16328200  0.63493400  1
  Cu  Cu68  1  0.15984400  0.98885300  0.62423000  1
  Cu  Cu69  1  0.67459800  0.17398400  0.13439000  1
  Cu  Cu70  1  0.67244800  0.66865000  0.21664300  1
  Cu  Cu71  1  0.01114700  0.17099100  0.62423000  1
  C  C72  1  0.38384400  0.29519700  0.66275500  1
  C  C73  1  0.23625400  0.26981100  0.66379400  1
  C  C74  1  0.92071400  0.04848600  0.22512500  1
  C  C75  1  0.81067300  0.51718700  0.96566000  1
  C  C76  1  0.44429900  0.86864600  0.23724400  1
  C  C77  1  0.04734300  0.18328200  0.45806700  1
  C  C78  1  0.48281300  0.29348600  0.96566000  1
  C  C79  1  0.11283000  0.69908300  0.18141100  1
  C  C80  1  0.41711700  0.06090100  0.13481400  1
  C  C81  1  0.95265700  0.81671800  0.95806700  1
  C  C82  1  0.86864600  0.42434700  0.73724400  1
  C  C83  1  0.96644300  0.23625400  0.16379400  1
  C  C84  1  0.08555400  0.88626900  0.12195000  1
  C  C85  1  0.06090100  0.64378400  0.63481400  1
  C  C86  1  0.88626900  0.80071500  0.62195000  1
  C  C87  1  0.35621600  0.41711700  0.63481400  1
  C  C88  1  0.38465000  0.78998000  0.65953900  1
  C  C89  1  0.51718700  0.70651400  0.46566000  1
  C  C90  1  0.69908300  0.58625300  0.68141100  1
  C  C91  1  0.29519700  0.91135400  0.16275500  1
  C  C92  1  0.93909900  0.35621600  0.13481400  1
  C  C93  1  0.78998000  0.40533000  0.15953900  1
  C  C94  1  0.92148600  0.54736500  0.17385000  1
  C  C95  1  0.73018900  0.96644300  0.66379400  1
  C  C96  1  0.46584800  0.24765600  0.24212100  1
  C  C97  1  0.21819300  0.46584800  0.74212100  1
  C  C98  1  0.34508800  0.01372700  0.39111000  1
  C  C99  1  0.86406100  0.04734300  0.95806700  1
  C  C100  1  0.96577500  0.74263400  0.19621000  1
  C  C101  1  0.78180700  0.53415200  0.24212100  1
  C  C102  1  0.33136000  0.34508800  0.89111000  1
  C  C103  1  0.03422500  0.25736600  0.69621000  1
  C  C104  1  0.12777200  0.07928600  0.22512500  1
  C  C105  1  0.21002000  0.59467000  0.65953900  1
  C  C106  1  0.11373100  0.19928500  0.12195000  1
  C  C107  1  0.66864000  0.65491200  0.39111000  1
  C  C108  1  0.52303100  0.15007100  0.46388500  1
  C  C109  1  0.01372700  0.66864000  0.89111000  1
  C  C110  1  0.18932700  0.48281300  0.46566000  1
  C  C111  1  0.13135400  0.57565300  0.23724400  1
  C  C112  1  0.04848600  0.12777200  0.72512500  1
  C  C113  1  0.58288300  0.93909900  0.63481400  1
  C  C114  1  0.37412100  0.92148600  0.67385000  1
  C  C115  1  0.91444600  0.11373100  0.62195000  1
  C  C116  1  0.64378400  0.58288300  0.13481400  1
  C  C117  1  0.74263400  0.77685900  0.69621000  1
  C  C118  1  0.75234400  0.21819300  0.24212100  1
  C  C119  1  0.61535000  0.21002000  0.15953900  1
  C  C120  1  0.26981100  0.03355700  0.16379400  1
  C  C121  1  0.70480300  0.08864600  0.66275500  1
  C  C122  1  0.47696900  0.84992900  0.96388500  1
  C  C123  1  0.03355700  0.76374600  0.66379400  1
  C  C124  1  0.30091700  0.41374700  0.18141100  1
  C  C125  1  0.07928600  0.95151400  0.72512500  1
  C  C126  1  0.40533000  0.61535000  0.65953900  1
  C  C127  1  0.59467000  0.38465000  0.15953900  1
  C  C128  1  0.28393900  0.54188800  0.16347800  1
  C  C129  1  0.84992900  0.37296000  0.46388500  1
  C  C130  1  0.65491200  0.98627300  0.89111000  1
  C  C131  1  0.08864600  0.38384400  0.16275500  1
  C  C132  1  0.74205000  0.28393900  0.66347800  1
  C  C133  1  0.22314100  0.96577500  0.69621000  1
  C  C134  1  0.53415200  0.75234400  0.74212100  1
  C  C135  1  0.41374700  0.11283000  0.68141100  1
  C  C136  1  0.62587900  0.07851400  0.17385000  1
  C  C137  1  0.98627300  0.33136000  0.39111000  1
  C  C138  1  0.45263500  0.37412100  0.17385000  1
  C  C139  1  0.18328200  0.13593900  0.95806700  1
  C  C140  1  0.91135400  0.61615600  0.66275500  1
  C  C141  1  0.25736600  0.22314100  0.19621000  1
  C  C142  1  0.88717000  0.30091700  0.68141100  1
  C  C143  1  0.70651400  0.18932700  0.96566000  1
  C  C144  1  0.19928500  0.08555400  0.62195000  1
  C  C145  1  0.15007100  0.62704000  0.96388500  1
  C  C146  1  0.76374600  0.73018900  0.16379400  1
  C  C147  1  0.07851400  0.45263500  0.67385000  1
  C  C148  1  0.25795000  0.71606100  0.16347800  1
  C  C149  1  0.61615600  0.70480300  0.16275500  1
  C  C150  1  0.24765600  0.78180700  0.74212100  1
  C  C151  1  0.54188800  0.25795000  0.66347800  1
  C  C152  1  0.80071500  0.91444600  0.12195000  1
  C  C153  1  0.62704000  0.47696900  0.46388500  1
  C  C154  1  0.57565300  0.44429900  0.73724400  1
  C  C155  1  0.81671800  0.86406100  0.45806700  1
  C  C156  1  0.37296000  0.52303100  0.96388500  1
  C  C157  1  0.13593900  0.95265700  0.45806700  1
  C  C158  1  0.58625300  0.88717000  0.18141100  1
  C  C159  1  0.77685900  0.03422500  0.19621000  1
  C  C160  1  0.42434700  0.55570100  0.23724400  1
  C  C161  1  0.55570100  0.13135400  0.73724400  1
  C  C162  1  0.95151400  0.87222800  0.22512500  1
  C  C163  1  0.45811200  0.74205000  0.16347800  1
  C  C164  1  0.87222800  0.92071400  0.72512500  1
  C  C165  1  0.54736500  0.62587900  0.67385000  1
  C  C166  1  0.29348600  0.81067300  0.46566000  1
  C  C167  1  0.71606100  0.45811200  0.66347800  1
