# generated using pymatgen
data_Cu16Ni17C5
_symmetry_space_group_name_H-M   'P 1'
_cell_length_a   10.17936600
_cell_length_b   16.07371938
_cell_length_c   16.71692957
_cell_angle_alpha   96.74047324
_cell_angle_beta   103.30901878
_cell_angle_gamma   93.31588872
_symmetry_Int_Tables_number   1
_chemical_formula_structural   Cu16Ni17C5
_chemical_formula_sum   'Cu64 Ni68 C20'
_cell_volume   2633.15887672
_cell_formula_units_Z   4
loop_
 _symmetry_equiv_pos_site_id
 _symmetry_equiv_pos_as_xyz
  1  'x, y, z'
loop_
 _atom_site_type_symbol
 _atom_site_label
 _atom_site_symmetry_multiplicity
 _atom_site_fract_x
 _atom_site_fract_y
 _atom_site_fract_z
 _atom_site_occupancy
  C  C0  1  0.79651100  0.87689800  0.72926200  1
  C  C1  1  0.45917900  0.95115000  0.80042100  1
  C  C2  1  0.67262800  0.84430200  0.86889400  1
  C  C3  1  0.98514900  0.52711600  0.30783900  1
  C  C4  1  0.51757100  0.89742600  0.63828900  1
  C  C5  1  0.20840300  0.44428700  0.84585000  1
  C  C6  1  0.48242900  0.10257400  0.36171100  1
  C  C7  1  0.01485100  0.47288400  0.69216100  1
  C  C8  1  0.92836300  0.36176500  0.79001700  1
  C  C9  1  0.07163700  0.63823500  0.20998300  1
  C  C10  1  0.71022500  0.70241100  0.25140500  1
  C  C11  1  0.32737200  0.15569800  0.13110600  1
  C  C12  1  0.20348900  0.12310200  0.27073800  1
  C  C13  1  0.98694700  0.70901900  0.35917800  1
  C  C14  1  0.42276600  0.77927900  0.73973400  1
  C  C15  1  0.79159700  0.55571300  0.15415000  1
  C  C16  1  0.54082100  0.04885000  0.19957900  1
  C  C17  1  0.01305300  0.29098100  0.64082200  1
  C  C18  1  0.28977500  0.29758900  0.74859500  1
  C  C19  1  0.57723400  0.22072100  0.26026600  1
  Ni  Ni20  1  0.16807400  0.52135300  0.36814500  1
  Ni  Ni21  1  0.22737700  0.25278500  0.12028300  1
  Ni  Ni22  1  0.42088400  0.99688500  0.38831900  1
  Ni  Ni23  1  0.94890000  0.28377300  0.86974000  1
  Ni  Ni24  1  0.83683400  0.29719400  0.57158600  1
  Ni  Ni25  1  0.82473800  0.99787200  0.77169800  1
  Ni  Ni26  1  0.62857500  0.49097400  0.15688100  1
  Ni  Ni27  1  0.28161700  0.39592200  0.94392000  1
  Ni  Ni28  1  0.33337400  0.90831200  0.58267000  1
  Ni  Ni29  1  0.75825300  0.22506000  0.32520300  1
  Ni  Ni30  1  0.23408800  0.24417100  0.31260900  1
  Ni  Ni31  1  0.40990500  0.17819600  0.04259300  1
  Ni  Ni32  1  0.98127200  0.17197800  0.64106300  1
  Ni  Ni33  1  0.80416200  0.92186000  0.94736700  1
  Ni  Ni34  1  0.91023800  0.70984700  0.45336100  1
  Ni  Ni35  1  0.83192600  0.47864700  0.63185500  1
  Ni  Ni36  1  0.67160100  0.79840100  0.32011600  1
  Ni  Ni37  1  0.54517600  0.82203400  0.54687200  1
  Ni  Ni38  1  0.21665500  0.21771500  0.81132100  1
  Ni  Ni39  1  0.59009500  0.82180400  0.95740700  1
  Ni  Ni40  1  0.77262300  0.74721500  0.87971700  1
  Ni  Ni41  1  0.71605200  0.02095600  0.25163500  1
  Ni  Ni42  1  0.78334500  0.78228500  0.18867900  1
  Ni  Ni43  1  0.46310500  0.31550200  0.82820300  1
  Ni  Ni44  1  0.24828600  0.68511100  0.26806700  1
  Ni  Ni45  1  0.37142500  0.50902600  0.84311900  1
  Ni  Ni46  1  0.11051700  0.50673200  0.61362600  1
  Ni  Ni47  1  0.17526200  0.00212800  0.22830200  1
  Ni  Ni48  1  0.01872800  0.82802200  0.35893700  1
  Ni  Ni49  1  0.46463500  0.67346100  0.68886800  1
  Ni  Ni50  1  0.89537500  0.63017400  0.25637500  1
  Ni  Ni51  1  0.45237700  0.93682000  0.17724700  1
  Ni  Ni52  1  0.53536500  0.32653900  0.31113200  1
  Ni  Ni53  1  0.85655800  0.89672700  0.63121600  1
  Ni  Ni54  1  0.54762300  0.06318000  0.82275300  1
  Ni  Ni55  1  0.53689500  0.68449800  0.17179700  1
  Ni  Ni56  1  0.64619600  0.62559000  0.32145900  1
  Ni  Ni57  1  0.02805500  0.13748900  0.20204500  1
  Ni  Ni58  1  0.66662600  0.09168800  0.41733000  1
  Ni  Ni59  1  0.85520300  0.46481000  0.09147800  1
  Ni  Ni60  1  0.02266400  0.58588200  0.74284100  1
  Ni  Ni61  1  0.16316600  0.70280600  0.42841400  1
  Ni  Ni62  1  0.76591200  0.75582900  0.68739100  1
  Ni  Ni63  1  0.14479700  0.53519000  0.90852200  1
  Ni  Ni64  1  0.85722400  0.44685500  0.85325000  1
  Ni  Ni65  1  0.71838300  0.60407800  0.05608000  1
  Ni  Ni66  1  0.14277600  0.55314500  0.14675000  1
  Ni  Ni67  1  0.40135100  0.94688200  0.90054000  1
  Ni  Ni68  1  0.28394800  0.97904400  0.74836500  1
  Ni  Ni69  1  0.05110000  0.71622700  0.13026000  1
  Ni  Ni70  1  0.97733600  0.41411800  0.25715900  1
  Ni  Ni71  1  0.59864900  0.05311800  0.09946000  1
  Ni  Ni72  1  0.10462500  0.36982600  0.74362500  1
  Ni  Ni73  1  0.63752900  0.26437800  0.17269300  1
  Ni  Ni74  1  0.36247100  0.73562200  0.82730700  1
  Ni  Ni75  1  0.35380400  0.37441000  0.67854100  1
  Ni  Ni76  1  0.57911600  0.00311500  0.61168100  1
  Ni  Ni77  1  0.41212400  0.13039900  0.24577200  1
  Ni  Ni78  1  0.19583800  0.07814000  0.05263300  1
  Ni  Ni79  1  0.58787600  0.86960100  0.75422800  1
  Ni  Ni80  1  0.32839900  0.20159900  0.67988400  1
  Ni  Ni81  1  0.08976200  0.29015300  0.54663900  1
  Ni  Ni82  1  0.14344200  0.10327300  0.36878400  1
  Ni  Ni83  1  0.24174700  0.77494000  0.67479700  1
  Ni  Ni84  1  0.88948300  0.49326800  0.38637400  1
  Ni  Ni85  1  0.97194500  0.86251100  0.79795500  1
  Ni  Ni86  1  0.45482400  0.17796600  0.45312800  1
  Ni  Ni87  1  0.75171400  0.31488900  0.73193300  1
  Cu  Cu88  1  0.96897800  0.34295100  0.23046800  1
  Cu  Cu89  1  0.89104600  0.41053800  0.05184800  1
  Cu  Cu90  1  0.48082800  0.60733100  0.65789100  1
  Cu  Cu91  1  0.07700700  0.85510900  0.83988600  1
  Cu  Cu92  1  0.15203400  0.93180800  0.20270100  1
  Cu  Cu93  1  0.56577600  0.32803300  0.87684600  1
  Cu  Cu94  1  0.67155500  0.63535700  0.99789500  1
  Cu  Cu95  1  0.87037900  0.22816400  0.36372300  1
  Cu  Cu96  1  0.35737300  0.71528800  0.30162700  1
  Cu  Cu97  1  0.11088400  0.09257300  0.42891700  1
  Cu  Cu98  1  0.47133200  0.54662700  0.84060200  1
  Cu  Cu99  1  0.10895400  0.58946200  0.94815200  1
  Cu  Cu100  1  0.39330400  0.41669500  0.63670000  1
  Cu  Cu101  1  0.92299300  0.14489100  0.16011400  1
  Cu  Cu102  1  0.67565200  0.29165900  0.11966900  1
  Cu  Cu103  1  0.95575900  0.24187000  0.92271200  1
  Cu  Cu104  1  0.51917200  0.39266900  0.34210900  1
  Cu  Cu105  1  0.32844500  0.36464300  0.00210500  1
  Cu  Cu106  1  0.38435700  0.93142600  0.40291900  1
  Cu  Cu107  1  0.75142500  0.68541500  0.66196300  1
  Cu  Cu108  1  0.12962100  0.77183600  0.63627700  1
  Cu  Cu109  1  0.04424100  0.75813000  0.07728800  1
  Cu  Cu110  1  0.34711100  0.14200300  0.63936700  1
  Cu  Cu111  1  0.88911600  0.90742700  0.57108300  1
  Cu  Cu112  1  0.73089300  0.29998100  0.52791500  1
  Cu  Cu113  1  0.41043100  0.86615900  0.16616000  1
  Cu  Cu114  1  0.52866800  0.45337300  0.15939800  1
  Cu  Cu115  1  0.95938500  0.10026200  0.64198500  1
  Cu  Cu116  1  0.19048300  0.50238000  0.10935500  1
  Cu  Cu117  1  0.64262700  0.28471200  0.69837300  1
  Cu  Cu118  1  0.82542200  0.00314200  0.27965900  1
  Cu  Cu119  1  0.77692300  0.08448800  0.45295300  1
  Cu  Cu120  1  0.61564300  0.06857400  0.59708100  1
  Cu  Cu121  1  0.22307700  0.91551200  0.54704700  1
  Cu  Cu122  1  0.60669600  0.58330500  0.36330000  1
  Cu  Cu123  1  0.83418800  0.68861000  0.88363500  1
  Cu  Cu124  1  0.65288900  0.85799700  0.36063300  1
  Cu  Cu125  1  0.13871800  0.29217000  0.49035500  1
  Cu  Cu126  1  0.84018400  0.47032000  0.43732700  1
  Cu  Cu127  1  0.15981600  0.52968000  0.56267300  1
  Cu  Cu128  1  0.43422400  0.67196700  0.12315400  1
  Cu  Cu129  1  0.28001900  0.51644500  0.40238200  1
  Cu  Cu130  1  0.17720400  0.16695400  0.84547700  1
  Cu  Cu131  1  0.16581200  0.31139000  0.11636500  1
  Cu  Cu132  1  0.26910700  0.70001900  0.47208500  1
  Cu  Cu133  1  0.03102200  0.65704900  0.76953200  1
  Cu  Cu134  1  0.11917600  0.03258500  0.00174100  1
  Cu  Cu135  1  0.56341600  0.77499100  0.49286700  1
  Cu  Cu136  1  0.32434800  0.70834100  0.88033100  1
  Cu  Cu137  1  0.43658400  0.22500900  0.50713300  1
  Cu  Cu138  1  0.80951700  0.49762000  0.89064500  1
  Cu  Cu139  1  0.17457800  0.99685800  0.72034100  1
  Cu  Cu140  1  0.63901400  0.05521200  0.03974300  1
  Cu  Cu141  1  0.86128200  0.70783000  0.50964500  1
  Cu  Cu142  1  0.58956900  0.13384100  0.83384000  1
  Cu  Cu143  1  0.82279600  0.83304600  0.15452300  1
  Cu  Cu144  1  0.24857500  0.31458500  0.33803700  1
  Cu  Cu145  1  0.88082400  0.96741500  0.99825900  1
  Cu  Cu146  1  0.45381800  0.19017700  0.98616500  1
  Cu  Cu147  1  0.84796600  0.06819200  0.79729900  1
  Cu  Cu148  1  0.71998100  0.48355500  0.59761800  1
  Cu  Cu149  1  0.36098600  0.94478800  0.96025700  1
  Cu  Cu150  1  0.54618200  0.80982300  0.01383500  1
  Cu  Cu151  1  0.04061500  0.89973800  0.35801500  1
