# generated using pymatgen
data_Cu2NiC6
_symmetry_space_group_name_H-M   'P 1'
_cell_length_a   8.29760200
_cell_length_b   12.45825600
_cell_length_c   12.86949800
_cell_angle_alpha   90.00000000
_cell_angle_beta   90.00000000
_cell_angle_gamma   90.00000000
_symmetry_Int_Tables_number   1
_chemical_formula_structural   Cu2NiC6
_chemical_formula_sum   'Cu24 Ni12 C72'
_cell_volume   1330.36698067
_cell_formula_units_Z   12
loop_
 _symmetry_equiv_pos_site_id
 _symmetry_equiv_pos_as_xyz
  1  'x, y, z'
loop_
 _atom_site_type_symbol
 _atom_site_label
 _atom_site_symmetry_multiplicity
 _atom_site_fract_x
 _atom_site_fract_y
 _atom_site_fract_z
 _atom_site_occupancy
  C  C0  1  0.33961500  0.37975800  0.13472800  1
  C  C1  1  0.16038500  0.87975800  0.36527200  1
  C  C2  1  0.66038500  0.62024200  0.63472800  1
  C  C3  1  0.83961500  0.12024200  0.86527200  1
  C  C4  1  0.66038500  0.62024200  0.86527200  1
  C  C5  1  0.83961500  0.12024200  0.63472800  1
  C  C6  1  0.33961500  0.37975800  0.36527200  1
  C  C7  1  0.16038500  0.87975800  0.13472800  1
  C  C8  1  0.56572500  0.52784700  0.25000000  1
  C  C9  1  0.93427500  0.02784700  0.25000000  1
  C  C10  1  0.43427500  0.47215300  0.75000000  1
  C  C11  1  0.06572500  0.97215300  0.75000000  1
  C  C12  1  0.41183800  0.93896800  0.75000000  1
  C  C13  1  0.08816200  0.43896800  0.75000000  1
  C  C14  1  0.58816200  0.06103200  0.25000000  1
  C  C15  1  0.91183800  0.56103200  0.25000000  1
  C  C16  1  0.03360900  0.67442800  0.25000000  1
  C  C17  1  0.46639100  0.17442800  0.25000000  1
  C  C18  1  0.96639100  0.32557200  0.75000000  1
  C  C19  1  0.53360900  0.82557200  0.75000000  1
  C  C20  1  0.08887000  0.56309800  0.18433600  1
  C  C21  1  0.41113000  0.06309800  0.31566400  1
  C  C22  1  0.91113000  0.43690200  0.68433600  1
  C  C23  1  0.58887000  0.93690200  0.81566400  1
  C  C24  1  0.91113000  0.43690200  0.81566400  1
  C  C25  1  0.58887000  0.93690200  0.68433600  1
  C  C26  1  0.08887000  0.56309800  0.31566400  1
  C  C27  1  0.41113000  0.06309800  0.18433600  1
  C  C28  1  0.83882300  0.78928200  0.43022400  1
  C  C29  1  0.66117700  0.28928200  0.06977600  1
  C  C30  1  0.16117700  0.21071800  0.93022400  1
  C  C31  1  0.33882300  0.71071800  0.56977600  1
  C  C32  1  0.16117700  0.21071800  0.56977600  1
  C  C33  1  0.33882300  0.71071800  0.93022400  1
  C  C34  1  0.83882300  0.78928200  0.06977600  1
  C  C35  1  0.66117700  0.28928200  0.43022400  1
  C  C36  1  0.15510200  0.73091000  0.62351600  1
  C  C37  1  0.34489800  0.23091000  0.87648400  1
  C  C38  1  0.84489800  0.26909000  0.12351600  1
  C  C39  1  0.65510200  0.76909000  0.37648400  1
  C  C40  1  0.84489800  0.26909000  0.37648400  1
  C  C41  1  0.65510200  0.76909000  0.12351600  1
  C  C42  1  0.15510200  0.73091000  0.87648400  1
  C  C43  1  0.34489800  0.23091000  0.62351600  1
  C  C44  1  0.21301400  0.60606700  0.91441200  1
  C  C45  1  0.28698600  0.10606700  0.58558800  1
  C  C46  1  0.78698600  0.39393300  0.41441200  1
  C  C47  1  0.71301400  0.89393300  0.08558800  1
  C  C48  1  0.78698600  0.39393300  0.08558800  1
  C  C49  1  0.71301400  0.89393300  0.41441200  1
  C  C50  1  0.21301400  0.60606700  0.58558800  1
  C  C51  1  0.28698600  0.10606700  0.91441200  1
  C  C52  1  0.66860200  0.79688600  0.50443800  1
  C  C53  1  0.83139800  0.29688600  0.99556200  1
  C  C54  1  0.33139800  0.20311400  0.00443800  1
  C  C55  1  0.16860200  0.70311400  0.49556200  1
  C  C56  1  0.33139800  0.20311400  0.49556200  1
  C  C57  1  0.16860200  0.70311400  0.00443800  1
  C  C58  1  0.66860200  0.79688600  0.99556200  1
  C  C59  1  0.83139800  0.29688600  0.50443800  1
  C  C60  1  0.17429000  0.42981100  0.03768000  1
  C  C61  1  0.32571000  0.92981100  0.46232000  1
  C  C62  1  0.82571000  0.57018900  0.53768000  1
  C  C63  1  0.67429000  0.07018900  0.96232000  1
  C  C64  1  0.82571000  0.57018900  0.96232000  1
  C  C65  1  0.67429000  0.07018900  0.53768000  1
  C  C66  1  0.17429000  0.42981100  0.46232000  1
  C  C67  1  0.32571000  0.92981100  0.03768000  1
  C  C68  1  0.51181400  0.68211300  0.25000000  1
  C  C69  1  0.98818600  0.18211300  0.25000000  1
  C  C70  1  0.48818600  0.31788700  0.75000000  1
  C  C71  1  0.01181400  0.81788700  0.75000000  1
  Ni  Ni72  1  0.53093300  0.90840600  0.75000000  1
  Ni  Ni73  1  0.96906700  0.40840600  0.75000000  1
  Ni  Ni74  1  0.46906700  0.09159400  0.25000000  1
  Ni  Ni75  1  0.03093300  0.59159400  0.25000000  1
  Ni  Ni76  1  0.71906600  0.81331500  0.43176500  1
  Ni  Ni77  1  0.78093400  0.31331500  0.06823500  1
  Ni  Ni78  1  0.28093400  0.18668500  0.93176500  1
  Ni  Ni79  1  0.21906600  0.68668500  0.56823500  1
  Ni  Ni80  1  0.28093400  0.18668500  0.56823500  1
  Ni  Ni81  1  0.21906600  0.68668500  0.93176500  1
  Ni  Ni82  1  0.71906600  0.81331500  0.06823500  1
  Ni  Ni83  1  0.78093400  0.31331500  0.43176500  1
  Cu  Cu84  1  0.25674100  0.37737300  0.25000000  1
  Cu  Cu85  1  0.24325900  0.87737300  0.25000000  1
  Cu  Cu86  1  0.74325900  0.62262700  0.75000000  1
  Cu  Cu87  1  0.75674100  0.12262700  0.75000000  1
  Cu  Cu88  1  0.42651500  0.27499200  0.11394200  1
  Cu  Cu89  1  0.07348500  0.77499200  0.38605800  1
  Cu  Cu90  1  0.57348500  0.72500800  0.61394200  1
  Cu  Cu91  1  0.92651500  0.22500800  0.88605800  1
  Cu  Cu92  1  0.57348500  0.72500800  0.88605800  1
  Cu  Cu93  1  0.92651500  0.22500800  0.61394200  1
  Cu  Cu94  1  0.42651500  0.27499200  0.38605800  1
  Cu  Cu95  1  0.07348500  0.77499200  0.11394200  1
  Cu  Cu96  1  0.47599000  0.47267900  0.15052000  1
  Cu  Cu97  1  0.02401000  0.97267900  0.34948000  1
  Cu  Cu98  1  0.52401000  0.52732100  0.65052000  1
  Cu  Cu99  1  0.97599000  0.02732100  0.84948000  1
  Cu  Cu100  1  0.52401000  0.52732100  0.84948000  1
  Cu  Cu101  1  0.97599000  0.02732100  0.65052000  1
  Cu  Cu102  1  0.47599000  0.47267900  0.34948000  1
  Cu  Cu103  1  0.02401000  0.97267900  0.15052000  1
  Cu  Cu104  1  0.73794500  0.48966500  0.25000000  1
  Cu  Cu105  1  0.76205500  0.98966500  0.25000000  1
  Cu  Cu106  1  0.26205500  0.51033500  0.75000000  1
  Cu  Cu107  1  0.23794500  0.01033500  0.75000000  1
