# generated using pymatgen
data_Cu2NiC24
_symmetry_space_group_name_H-M   'P 1'
_cell_length_a   10.77495580
_cell_length_b   10.77495580
_cell_length_c   10.77495580
_cell_angle_alpha   132.45226230
_cell_angle_beta   124.22383830
_cell_angle_gamma   76.26667847
_symmetry_Int_Tables_number   1
_chemical_formula_structural   Cu2NiC24
_chemical_formula_sum   'Cu4 Ni2 C48'
_cell_volume   742.16429633
_cell_formula_units_Z   2
loop_
 _symmetry_equiv_pos_site_id
 _symmetry_equiv_pos_as_xyz
  1  'x, y, z'
loop_
 _atom_site_type_symbol
 _atom_site_label
 _atom_site_symmetry_multiplicity
 _atom_site_fract_x
 _atom_site_fract_y
 _atom_site_fract_z
 _atom_site_occupancy
  Ni  Ni0  1  0.15391200  0.65391200  0.50000000  1
  Ni  Ni1  1  0.65391200  0.15391200  0.50000000  1
  Cu  Cu2  1  0.23174900  0.86437300  0.28661500  1
  Cu  Cu3  1  0.07775800  0.36437300  0.63262400  1
  Cu  Cu4  1  0.57775800  0.94513400  0.71338500  1
  Cu  Cu5  1  0.73174900  0.44513400  0.36737600  1
  C  C6  1  0.24906300  0.13369000  0.25676000  1
  C  C7  1  0.87693000  0.99230300  0.74324000  1
  C  C8  1  0.75427700  0.03212000  0.16458100  1
  C  C9  1  0.74906300  0.49230300  0.11537300  1
  C  C10  1  0.36753900  0.53212000  0.27784300  1
  C  C11  1  0.25427700  0.08969600  0.72215700  1
  C  C12  1  0.86753900  0.58969600  0.83541900  1
  C  C13  1  0.37693000  0.63369000  0.88462700  1
  C  C14  1  0.93935600  0.82272400  0.27009100  1
  C  C15  1  0.55828100  0.73070000  0.29446300  1
  C  C16  1  0.43623700  0.26381800  0.70553700  1
  C  C17  1  0.05828100  0.76381800  0.82758100  1
  C  C18  1  0.93623700  0.23070000  0.17241900  1
  C  C19  1  0.05263300  0.32272400  0.88336800  1
  C  C20  1  0.43935600  0.16926500  0.11663200  1
  C  C21  1  0.55263300  0.66926500  0.72990900  1
  C  C22  1  0.87997400  0.40790100  0.22403800  1
  C  C23  1  0.18386300  0.65593600  0.77596200  1
  C  C24  1  0.37997400  0.15593600  0.47207300  1
  C  C25  1  0.68386300  0.90790100  0.52792700  1
  C  C26  1  0.11658300  0.90036000  0.47303600  1
  C  C27  1  0.42732400  0.64354700  0.52696400  1
  C  C28  1  0.61658300  0.14354700  0.21622300  1
  C  C29  1  0.92732400  0.40036000  0.78377700  1
  C  C30  1  0.46109300  0.36351400  0.20158800  1
  C  C31  1  0.16192600  0.25950500  0.79841200  1
  C  C32  1  0.96109300  0.75950500  0.09757900  1
  C  C33  1  0.66192600  0.86351400  0.90242100  1
  C  C34  1  0.48566900  0.77688300  0.15235200  1
  C  C35  1  0.62453100  0.33331700  0.84764800  1
  C  C36  1  0.98566900  0.83331700  0.70878600  1
  C  C37  1  0.12453100  0.27688300  0.29121400  1
  C  C38  1  0.83648600  0.96948300  0.30573100  1
  C  C39  1  0.66375200  0.53075500  0.69426900  1
  C  C40  1  0.33648600  0.03075500  0.86700300  1
  C  C41  1  0.16375200  0.46948300  0.13299700  1
  C  C42  1  0.34782000  0.41939300  0.77740500  1
  C  C43  1  0.64198800  0.57041500  0.22259500  1
  C  C44  1  0.89145600  0.19309700  0.26957300  1
  C  C45  1  0.92352400  0.62188300  0.73042700  1
  C  C46  1  0.39145600  0.12188300  0.69835900  1
  C  C47  1  0.42352400  0.69309700  0.30164100  1
  C  C48  1  0.36666000  0.15460400  0.20537700  1
  C  C49  1  0.94922700  0.16128300  0.79462300  1
  C  C50  1  0.86666000  0.66128300  0.21205600  1
  C  C51  1  0.44922700  0.65460400  0.78794400  1
  C  C52  1  0.14198800  0.91939300  0.07157300  1
  C  C53  1  0.84782000  0.07041500  0.92842700  1
