# generated using pymatgen
data_Cu2Ni
_symmetry_space_group_name_H-M   'P 1'
_cell_length_a   6.64424955
_cell_length_b   6.64424955
_cell_length_c   8.24499700
_cell_angle_alpha   90.00000000
_cell_angle_beta   90.00000000
_cell_angle_gamma   104.86121548
_symmetry_Int_Tables_number   1
_chemical_formula_structural   Cu2Ni
_chemical_formula_sum   'Cu16 Ni8'
_cell_volume   351.80876889
_cell_formula_units_Z   8
loop_
 _symmetry_equiv_pos_site_id
 _symmetry_equiv_pos_as_xyz
  1  'x, y, z'
loop_
 _atom_site_type_symbol
 _atom_site_label
 _atom_site_symmetry_multiplicity
 _atom_site_fract_x
 _atom_site_fract_y
 _atom_site_fract_z
 _atom_site_occupancy
  Ni  Ni0  1  0.69663500  0.69663500  0.68760100  1
  Ni  Ni1  1  0.30336500  0.30336500  0.31239900  1
  Ni  Ni2  1  0.71834700  0.28165300  0.50000000  1
  Ni  Ni3  1  0.21834700  0.78165300  0.00000000  1
  Ni  Ni4  1  0.19663500  0.19663500  0.81239900  1
  Ni  Ni5  1  0.28165300  0.71834700  0.50000000  1
  Ni  Ni6  1  0.78165300  0.21834700  0.00000000  1
  Ni  Ni7  1  0.80336500  0.80336500  0.18760100  1
  Cu  Cu8  1  0.10075100  0.35507900  0.54413400  1
  Cu  Cu9  1  0.16589200  0.91350200  0.26880800  1
  Cu  Cu10  1  0.35507900  0.10075100  0.54413400  1
  Cu  Cu11  1  0.66589200  0.41350200  0.23119200  1
  Cu  Cu12  1  0.08649800  0.83410800  0.73119200  1
  Cu  Cu13  1  0.64492100  0.89924900  0.45586600  1
  Cu  Cu14  1  0.89924900  0.64492100  0.45586600  1
  Cu  Cu15  1  0.85507900  0.60075100  0.95586600  1
  Cu  Cu16  1  0.58649800  0.33410800  0.76880800  1
  Cu  Cu17  1  0.41350200  0.66589200  0.23119200  1
  Cu  Cu18  1  0.14492100  0.39924900  0.04413400  1
  Cu  Cu19  1  0.83410800  0.08649800  0.73119200  1
  Cu  Cu20  1  0.33410800  0.58649800  0.76880800  1
  Cu  Cu21  1  0.91350200  0.16589200  0.26880800  1
  Cu  Cu22  1  0.39924900  0.14492100  0.04413400  1
  Cu  Cu23  1  0.60075100  0.85507900  0.95586600  1
