# generated using pymatgen
data_Cu52Ni44C15
_symmetry_space_group_name_H-M   'P 1'
_cell_length_a   8.88192247
_cell_length_b   8.88192263
_cell_length_c   25.03356486
_cell_angle_alpha   90.00000000
_cell_angle_beta   90.00000000
_cell_angle_gamma   119.99999937
_symmetry_Int_Tables_number   1
_chemical_formula_structural   Cu52Ni44C15
_chemical_formula_sum   'Cu52 Ni44 C15'
_cell_volume   1710.28031456
_cell_formula_units_Z   1
loop_
 _symmetry_equiv_pos_site_id
 _symmetry_equiv_pos_as_xyz
  1  'x, y, z'
loop_
 _atom_site_type_symbol
 _atom_site_label
 _atom_site_symmetry_multiplicity
 _atom_site_fract_x
 _atom_site_fract_y
 _atom_site_fract_z
 _atom_site_occupancy
  C  C0  1  0.66666700  0.33333300  0.10235329  1
  C  C1  1  0.33333300  0.66666700  0.58572571  1
  C  C2  1  0.66666700  0.33333300  0.58390303  1
  C  C3  1  0.33333300  0.66666700  0.00000000  1
  C  C4  1  0.33333300  0.66666700  0.73274637  1
  C  C5  1  0.00000000  0.00000000  0.09445198  1
  C  C6  1  0.33333300  0.66666700  0.41427429  1
  C  C7  1  0.66666700  0.33333300  0.72937368  1
  C  C8  1  0.66666700  0.33333300  0.27062632  1
  C  C9  1  0.66666700  0.33333300  0.89764671  1
  C  C10  1  0.66666700  0.33333300  0.41609697  1
  C  C11  1  0.00000000  0.00000000  0.66448158  1
  C  C12  1  0.00000000  0.00000000  0.90554802  1
  C  C13  1  0.00000000  0.00000000  0.33551842  1
  C  C14  1  0.33333300  0.66666700  0.26725363  1
  Ni  Ni15  1  0.85353644  0.14646356  0.50000000  1
  Ni  Ni16  1  0.54604742  0.45395258  0.00000000  1
  Ni  Ni17  1  0.48762559  0.51237441  0.50000000  1
  Ni  Ni18  1  0.13282087  0.86717913  0.00000000  1
  Ni  Ni19  1  0.48762559  0.97525117  0.50000000  1
  Ni  Ni20  1  0.82519134  0.65038267  0.82057870  1
  Ni  Ni21  1  0.63540835  0.66355053  0.91403298  1
  Ni  Ni22  1  0.15807638  0.84192362  0.81665071  1
  Ni  Ni23  1  0.33333300  0.66666700  0.87018494  1
  Ni  Ni24  1  0.02814218  0.66355053  0.91403298  1
  Ni  Ni25  1  0.15807638  0.31615275  0.81665071  1
  Ni  Ni26  1  0.15807638  0.84192362  0.18334929  1
  Ni  Ni27  1  0.00170014  0.50085007  0.80080894  1
  Ni  Ni28  1  0.34961733  0.17480866  0.17942130  1
  Ni  Ni29  1  0.33644947  0.97185782  0.91403298  1
  Ni  Ni30  1  0.90790516  0.45395258  0.00000000  1
  Ni  Ni31  1  0.02814218  0.36459165  0.08596702  1
  Ni  Ni32  1  0.82519134  0.17480866  0.17942130  1
  Ni  Ni33  1  0.82519134  0.65038267  0.17942130  1
  Ni  Ni34  1  0.15807638  0.31615275  0.18334929  1
  Ni  Ni35  1  0.33644947  0.36459165  0.91403298  1
  Ni  Ni36  1  0.02814218  0.36459165  0.91403298  1
  Ni  Ni37  1  0.68384725  0.84192362  0.81665071  1
  Ni  Ni38  1  0.49914993  0.99829986  0.80080894  1
  Ni  Ni39  1  0.49914993  0.99829986  0.19919106  1
  Ni  Ni40  1  0.54604742  0.09209484  0.00000000  1
  Ni  Ni41  1  0.33644947  0.97185782  0.08596702  1
  Ni  Ni42  1  0.63540835  0.97185782  0.91403298  1
  Ni  Ni43  1  0.33333300  0.66666700  0.12981506  1
  Ni  Ni44  1  0.73435826  0.86717913  0.00000000  1
  Ni  Ni45  1  0.02814218  0.66355053  0.08596702  1
  Ni  Ni46  1  0.49914993  0.50085007  0.19919106  1
  Ni  Ni47  1  0.13282087  0.26564174  0.00000000  1
  Ni  Ni48  1  0.68384725  0.84192362  0.18334929  1
  Ni  Ni49  1  0.00170014  0.50085007  0.19919106  1
  Ni  Ni50  1  0.34961733  0.17480866  0.82057870  1
  Ni  Ni51  1  0.29292712  0.14646356  0.50000000  1
  Ni  Ni52  1  0.82519134  0.17480866  0.82057870  1
  Ni  Ni53  1  0.63540835  0.97185782  0.08596702  1
  Ni  Ni54  1  0.02474883  0.51237441  0.50000000  1
  Ni  Ni55  1  0.85353644  0.70707288  0.50000000  1
  Ni  Ni56  1  0.33644947  0.36459165  0.08596702  1
  Ni  Ni57  1  0.63540835  0.66355053  0.08596702  1
  Ni  Ni58  1  0.49914993  0.50085007  0.80080894  1
  Cu  Cu59  1  0.99673837  0.70235378  0.73637275  1
  Cu  Cu60  1  0.50049021  0.49950979  0.66024613  1
  Cu  Cu61  1  0.18199706  0.81800294  0.65806303  1
  Cu  Cu62  1  0.00174764  0.31016103  0.58129685  1
  Cu  Cu63  1  0.81764861  0.18235139  0.34256943  1
  Cu  Cu64  1  0.00174764  0.69158661  0.41870315  1
  Cu  Cu65  1  0.70561541  0.70235378  0.26362725  1
  Cu  Cu66  1  0.29764622  0.29438459  0.73637275  1
  Cu  Cu67  1  0.68983897  0.69158661  0.41870315  1
  Cu  Cu68  1  0.00000000  0.00000000  0.55087356  1
  Cu  Cu69  1  0.18199706  0.36399413  0.65806303  1
  Cu  Cu70  1  0.99901957  0.49950979  0.33975387  1
  Cu  Cu71  1  0.81764861  0.18235139  0.65743057  1
  Cu  Cu72  1  0.66053697  0.83026848  0.50000000  1
  Cu  Cu73  1  0.68983897  0.99825236  0.41870315  1
  Cu  Cu74  1  0.16973152  0.33946303  0.50000000  1
  Cu  Cu75  1  0.99673837  0.70235378  0.26362725  1
  Cu  Cu76  1  0.30841339  0.99825236  0.41870315  1
  Cu  Cu77  1  0.29764622  0.00326163  0.73637275  1
  Cu  Cu78  1  0.63600587  0.81800294  0.34193697  1
  Cu  Cu79  1  0.00000000  0.00000000  0.78786565  1
  Cu  Cu80  1  0.00000000  0.00000000  0.21213435  1
  Cu  Cu81  1  0.70561541  0.00326163  0.26362725  1
  Cu  Cu82  1  0.81764861  0.63529721  0.34256943  1
  Cu  Cu83  1  0.70561541  0.00326163  0.73637275  1
  Cu  Cu84  1  0.30841339  0.99825236  0.58129685  1
  Cu  Cu85  1  0.99673837  0.29438459  0.73637275  1
  Cu  Cu86  1  0.29764622  0.00326163  0.26362725  1
  Cu  Cu87  1  0.32841873  0.16420937  0.00000000  1
  Cu  Cu88  1  0.00000000  0.00000000  0.44912644  1
  Cu  Cu89  1  0.30841339  0.31016103  0.58129685  1
  Cu  Cu90  1  0.18199706  0.81800294  0.34193697  1
  Cu  Cu91  1  0.83579063  0.16420937  0.00000000  1
  Cu  Cu92  1  0.30841339  0.31016103  0.41870315  1
  Cu  Cu93  1  0.99901957  0.49950979  0.66024613  1
  Cu  Cu94  1  0.68983897  0.69158661  0.58129685  1
  Cu  Cu95  1  0.68983897  0.99825236  0.58129685  1
  Cu  Cu96  1  0.00174764  0.69158661  0.58129685  1
  Cu  Cu97  1  0.50049021  0.00098043  0.33975387  1
  Cu  Cu98  1  0.70561541  0.70235378  0.73637275  1
  Cu  Cu99  1  0.83579063  0.67158127  0.00000000  1
  Cu  Cu100  1  0.29764622  0.29438459  0.26362725  1
  Cu  Cu101  1  0.00174764  0.31016103  0.41870315  1
  Cu  Cu102  1  0.50049021  0.00098043  0.66024613  1
  Cu  Cu103  1  0.18199706  0.36399413  0.34193697  1
  Cu  Cu104  1  0.36470279  0.18235139  0.34256943  1
  Cu  Cu105  1  0.36470279  0.18235139  0.65743057  1
  Cu  Cu106  1  0.63600587  0.81800294  0.65806303  1
  Cu  Cu107  1  0.99673837  0.29438459  0.26362725  1
  Cu  Cu108  1  0.50049021  0.49950979  0.33975387  1
  Cu  Cu109  1  0.81764861  0.63529721  0.65743057  1
  Cu  Cu110  1  0.16973152  0.83026848  0.50000000  1
