# generated using pymatgen
data_CuNiC2
_symmetry_space_group_name_H-M   'P 1'
_cell_length_a   6.25237175
_cell_length_b   6.25237175
_cell_length_c   8.49657803
_cell_angle_alpha   82.86066758
_cell_angle_beta   82.86066758
_cell_angle_gamma   84.68932641
_symmetry_Int_Tables_number   1
_chemical_formula_structural   CuNiC2
_chemical_formula_sum   'Cu4 Ni4 C8'
_cell_volume   326.01457806
_cell_formula_units_Z   4
loop_
 _symmetry_equiv_pos_site_id
 _symmetry_equiv_pos_as_xyz
  1  'x, y, z'
loop_
 _atom_site_type_symbol
 _atom_site_label
 _atom_site_symmetry_multiplicity
 _atom_site_fract_x
 _atom_site_fract_y
 _atom_site_fract_z
 _atom_site_occupancy
  C  C0  1  0.26432800  0.56329600  0.10626200  1
  C  C1  1  0.43670400  0.73567200  0.39373800  1
  C  C2  1  0.73567200  0.43670400  0.89373800  1
  C  C3  1  0.56329600  0.26432800  0.60626200  1
  Ni  Ni4  1  0.03403400  0.25821400  0.38812700  1
  Ni  Ni5  1  0.74178600  0.96596600  0.11187300  1
  Ni  Ni6  1  0.96596600  0.74178600  0.61187300  1
  Ni  Ni7  1  0.25821400  0.03403400  0.88812700  1
  C  C8  1  0.28389500  0.24638500  0.29981600  1
  C  C9  1  0.71610500  0.75361500  0.70018400  1
  C  C10  1  0.75361500  0.71610500  0.20018400  1
  C  C11  1  0.24638500  0.28389500  0.79981600  1
  Cu  Cu12  1  0.85618100  0.26048100  0.45276900  1
  Cu  Cu13  1  0.26048100  0.85618100  0.95276900  1
  Cu  Cu14  1  0.14381900  0.73951900  0.54723100  1
  Cu  Cu15  1  0.73951900  0.14381900  0.04723100  1
