# generated using pymatgen
data_CuNi3C4
_symmetry_space_group_name_H-M   'P 1'
_cell_length_a   9.63192930
_cell_length_b   9.63192930
_cell_length_c   11.36189600
_cell_angle_alpha   90.00000000
_cell_angle_beta   90.00000000
_cell_angle_gamma   134.89130426
_symmetry_Int_Tables_number   1
_chemical_formula_structural   CuNi3C4
_chemical_formula_sum   'Cu2 Ni6 C8'
_cell_volume   746.76631951
_cell_formula_units_Z   2
loop_
 _symmetry_equiv_pos_site_id
 _symmetry_equiv_pos_as_xyz
  1  'x, y, z'
loop_
 _atom_site_type_symbol
 _atom_site_label
 _atom_site_symmetry_multiplicity
 _atom_site_fract_x
 _atom_site_fract_y
 _atom_site_fract_z
 _atom_site_occupancy
  Ni  Ni0  1  0.61202100  0.38797900  0.55418300  1
  Ni  Ni1  1  0.61202100  0.38797900  0.94581700  1
  Ni  Ni2  1  0.38797900  0.61202100  0.44581700  1
  Ni  Ni3  1  0.38797900  0.61202100  0.05418300  1
  Ni  Ni4  1  0.76728700  0.23271300  0.25000000  1
  Ni  Ni5  1  0.23271300  0.76728700  0.75000000  1
  Cu  Cu6  1  0.00000000  0.00000000  0.50000000  1
  Cu  Cu7  1  0.00000000  0.00000000  0.00000000  1
  C  C8  1  0.27289800  0.17727700  0.25000000  1
  C  C9  1  0.82771800  0.17228200  0.88553400  1
  C  C10  1  0.82771800  0.17228200  0.61446600  1
  C  C11  1  0.17727700  0.27289800  0.75000000  1
  C  C12  1  0.72710200  0.82272300  0.75000000  1
  C  C13  1  0.17228200  0.82771800  0.38553400  1
  C  C14  1  0.82272300  0.72710200  0.25000000  1
  C  C15  1  0.17228200  0.82771800  0.11446600  1
