# generated using pymatgen
data_CuNiC5
_symmetry_space_group_name_H-M   'P 1'
_cell_length_a   8.92391385
_cell_length_b   8.92391385
_cell_length_c   8.92391385
_cell_angle_alpha   60.00000000
_cell_angle_beta   60.00000000
_cell_angle_gamma   60.00000000
_symmetry_Int_Tables_number   1
_chemical_formula_structural   CuNiC5
_chemical_formula_sum   'Cu4 Ni4 C20'
_cell_volume   502.51740643
_cell_formula_units_Z   4
loop_
 _symmetry_equiv_pos_site_id
 _symmetry_equiv_pos_as_xyz
  1  'x, y, z'
loop_
 _atom_site_type_symbol
 _atom_site_label
 _atom_site_symmetry_multiplicity
 _atom_site_fract_x
 _atom_site_fract_y
 _atom_site_fract_z
 _atom_site_occupancy
  C  C0  1  0.69780600  0.30219400  0.30219400  1
  C  C1  1  0.47277300  0.02722700  0.02722700  1
  C  C2  1  0.66804400  0.66804400  0.99586800  1
  C  C3  1  0.69780600  0.69780600  0.30219400  1
  C  C4  1  0.88197700  0.88197700  0.35406800  1
  C  C5  1  0.47277300  0.02722700  0.47277300  1
  C  C6  1  0.30219400  0.69780600  0.30219400  1
  C  C7  1  0.66804400  0.99586800  0.66804400  1
  C  C8  1  0.47277300  0.47277300  0.02722700  1
  C  C9  1  0.35406800  0.88197700  0.88197700  1
  C  C10  1  0.99586800  0.66804400  0.66804400  1
  C  C11  1  0.88197700  0.35406800  0.88197700  1
  C  C12  1  0.66804400  0.66804400  0.66804400  1
  C  C13  1  0.30219400  0.69780600  0.69780600  1
  C  C14  1  0.02722700  0.47277300  0.47277300  1
  C  C15  1  0.02722700  0.47277300  0.02722700  1
  C  C16  1  0.30219400  0.30219400  0.69780600  1
  C  C17  1  0.69780600  0.30219400  0.69780600  1
  C  C18  1  0.88197700  0.88197700  0.88197700  1
  C  C19  1  0.02722700  0.02722700  0.47277300  1
  Ni  Ni20  1  0.10028600  0.10028600  0.10028600  1
  Ni  Ni21  1  0.69914300  0.10028600  0.10028600  1
  Ni  Ni22  1  0.10028600  0.10028600  0.69914300  1
  Ni  Ni23  1  0.10028600  0.69914300  0.10028600  1
  Cu  Cu24  1  0.36907200  0.36907200  0.89278400  1
  Cu  Cu25  1  0.36907200  0.89278400  0.36907200  1
  Cu  Cu26  1  0.36907200  0.36907200  0.36907200  1
  Cu  Cu27  1  0.89278400  0.36907200  0.36907200  1
