# generated using pymatgen
data_Cu6Ni5C21
_symmetry_space_group_name_H-M   'P 1'
_cell_length_a   7.33728900
_cell_length_b   7.33728900
_cell_length_c   10.28953900
_cell_angle_alpha   90.00000000
_cell_angle_beta   90.00000000
_cell_angle_gamma   90.00000000
_symmetry_Int_Tables_number   1
_chemical_formula_structural   Cu6Ni5C21
_chemical_formula_sum   'Cu6 Ni5 C21'
_cell_volume   553.94566525
_cell_formula_units_Z   1
loop_
 _symmetry_equiv_pos_site_id
 _symmetry_equiv_pos_as_xyz
  1  'x, y, z'
loop_
 _atom_site_type_symbol
 _atom_site_label
 _atom_site_symmetry_multiplicity
 _atom_site_fract_x
 _atom_site_fract_y
 _atom_site_fract_z
 _atom_site_occupancy
  C  C0  1  0.50000000  0.50000000  0.00000000  1
  Ni  Ni1  1  0.68332200  0.70723200  0.21456100  1
  Ni  Ni2  1  0.31667800  0.29276800  0.21456100  1
  Ni  Ni3  1  0.29276800  0.68332200  0.78543900  1
  Ni  Ni4  1  0.00000000  0.00000000  0.50000000  1
  Ni  Ni5  1  0.70723200  0.31667800  0.78543900  1
  Cu  Cu6  1  0.00000000  0.50000000  0.50317500  1
  Cu  Cu7  1  0.20321500  0.20202200  0.80857200  1
  Cu  Cu8  1  0.79678500  0.79797800  0.80857200  1
  Cu  Cu9  1  0.50000000  0.00000000  0.49682500  1
  Cu  Cu10  1  0.20202200  0.79678500  0.19142800  1
  Cu  Cu11  1  0.79797800  0.20321500  0.19142800  1
  C  C12  1  0.78975600  0.52132100  0.27823200  1
  C  C13  1  0.66546100  0.45436500  0.92397400  1
  C  C14  1  0.15649600  0.86850100  0.41607300  1
  C  C15  1  0.52132100  0.21024400  0.72176800  1
  C  C16  1  0.51744200  0.79832300  0.31264600  1
  C  C17  1  0.15504200  0.13679800  0.16743500  1
  C  C18  1  0.84350400  0.13149900  0.41607300  1
  C  C19  1  0.13149900  0.15649600  0.58392700  1
  C  C20  1  0.79832300  0.48255800  0.68735400  1
  C  C21  1  0.21024400  0.47867900  0.27823200  1
  C  C22  1  0.45436500  0.33453900  0.07602600  1
  C  C23  1  0.54563500  0.66546100  0.07602600  1
  C  C24  1  0.86320200  0.15504200  0.83256500  1
  C  C25  1  0.48255800  0.20167700  0.31264600  1
  C  C26  1  0.20167700  0.51744200  0.68735400  1
  C  C27  1  0.84495800  0.86320200  0.16743500  1
  C  C28  1  0.13679800  0.84495800  0.83256500  1
  C  C29  1  0.33453900  0.54563500  0.92397400  1
  C  C30  1  0.47867900  0.78975600  0.72176800  1
  C  C31  1  0.86850100  0.84350400  0.58392700  1
