# generated using pymatgen
data_Cu6Ni9C2
_symmetry_space_group_name_H-M   'P 1'
_cell_length_a   11.14275700
_cell_length_b   9.43194300
_cell_length_c   15.49753255
_cell_angle_alpha   66.56069849
_cell_angle_beta   90.00000000
_cell_angle_gamma   90.00000000
_symmetry_Int_Tables_number   1
_chemical_formula_structural   Cu6Ni9C2
_chemical_formula_sum   'Cu24 Ni36 C8'
_cell_volume   1494.35551965
_cell_formula_units_Z   4
loop_
 _symmetry_equiv_pos_site_id
 _symmetry_equiv_pos_as_xyz
  1  'x, y, z'
loop_
 _atom_site_type_symbol
 _atom_site_label
 _atom_site_symmetry_multiplicity
 _atom_site_fract_x
 _atom_site_fract_y
 _atom_site_fract_z
 _atom_site_occupancy
  C  C0  1  0.72865100  0.78520100  0.12568400  1
  C  C1  1  0.77134900  0.78520100  0.62568400  1
  C  C2  1  0.22865100  0.21479900  0.37431600  1
  C  C3  1  0.27134900  0.21479900  0.87431600  1
  C  C4  1  0.75122400  0.30136100  0.10084000  1
  C  C5  1  0.24877600  0.69863900  0.89916000  1
  C  C6  1  0.25122400  0.69863900  0.39916000  1
  C  C7  1  0.74877600  0.30136100  0.60084000  1
  Ni  Ni8  1  0.88450800  0.44653500  0.39443700  1
  Ni  Ni9  1  0.18443200  0.59000300  0.54697400  1
  Ni  Ni10  1  0.36300600  0.73247100  0.86738700  1
  Ni  Ni11  1  0.27304600  0.61989900  0.49202700  1
  Ni  Ni12  1  0.04477700  0.30361300  0.10709100  1
  Ni  Ni13  1  0.45522300  0.30361300  0.60709100  1
  Ni  Ni14  1  0.65683200  0.25644600  0.66324300  1
  Ni  Ni15  1  0.60164400  0.11348200  0.29493300  1
  Ni  Ni16  1  0.15683200  0.74355400  0.83675700  1
  Ni  Ni17  1  0.34316800  0.74355400  0.33675700  1
  Ni  Ni18  1  0.22695400  0.61989900  0.99202700  1
  Ni  Ni19  1  0.77304600  0.38010100  0.00797300  1
  Ni  Ni20  1  0.95522300  0.69638700  0.89290900  1
  Ni  Ni21  1  0.13699400  0.73247100  0.36738700  1
  Ni  Ni22  1  0.89835600  0.11348200  0.79493300  1
  Ni  Ni23  1  0.05264400  0.71512300  0.87067600  1
  Ni  Ni24  1  0.84316800  0.25644600  0.16324300  1
  Ni  Ni25  1  0.63699400  0.26752900  0.13261300  1
  Ni  Ni26  1  0.12580400  0.81339500  0.28076000  1
  Ni  Ni27  1  0.62580400  0.18660500  0.21924000  1
  Ni  Ni28  1  0.31556800  0.59000300  0.04697400  1
  Ni  Ni29  1  0.37419600  0.81339500  0.78076000  1
  Ni  Ni30  1  0.68443200  0.40999700  0.95302600  1
  Ni  Ni31  1  0.38450800  0.55346500  0.10556300  1
  Ni  Ni32  1  0.10164400  0.88651800  0.20506700  1
  Ni  Ni33  1  0.39835600  0.88651800  0.70506700  1
  Ni  Ni34  1  0.94735600  0.28487700  0.12932400  1
  Ni  Ni35  1  0.87419600  0.18660500  0.71924000  1
  Ni  Ni36  1  0.11549200  0.55346500  0.60556300  1
  Ni  Ni37  1  0.81556800  0.40999700  0.45302600  1
  Ni  Ni38  1  0.61549200  0.44653500  0.89443700  1
  Ni  Ni39  1  0.86300600  0.26752900  0.63261300  1
  Ni  Ni40  1  0.72695400  0.38010100  0.50797300  1
  Ni  Ni41  1  0.55264400  0.28487700  0.62932400  1
  Ni  Ni42  1  0.54477700  0.69638700  0.39290900  1
  Ni  Ni43  1  0.44735600  0.71512300  0.37067600  1
  Cu  Cu44  1  0.91791600  0.66325500  0.11847600  1
  Cu  Cu45  1  0.84635100  0.53834500  0.73700300  1
  Cu  Cu46  1  0.80588600  0.84163700  0.25493900  1
  Cu  Cu47  1  0.69411400  0.84163700  0.75493900  1
  Cu  Cu48  1  0.58208400  0.66325500  0.61847600  1
  Cu  Cu49  1  0.65364900  0.53834500  0.23700300  1
  Cu  Cu50  1  0.30588600  0.15836300  0.24506100  1
  Cu  Cu51  1  0.45966800  0.09557300  0.86347800  1
  Cu  Cu52  1  0.34900900  0.26893300  0.00335900  1
  Cu  Cu53  1  0.80672400  0.02856900  0.01541300  1
  Cu  Cu54  1  0.84900900  0.73106700  0.49664100  1
  Cu  Cu55  1  0.54033200  0.90442700  0.13652200  1
  Cu  Cu56  1  0.95966800  0.90442700  0.63652200  1
  Cu  Cu57  1  0.34635100  0.46165500  0.76299700  1
  Cu  Cu58  1  0.30672400  0.97143100  0.48458700  1
  Cu  Cu59  1  0.19411400  0.15836300  0.74506100  1
  Cu  Cu60  1  0.04033200  0.09557300  0.36347800  1
  Cu  Cu61  1  0.15099100  0.26893300  0.50335900  1
  Cu  Cu62  1  0.65099100  0.73106700  0.99664100  1
  Cu  Cu63  1  0.19327600  0.97143100  0.98458700  1
  Cu  Cu64  1  0.41791600  0.33674500  0.38152400  1
  Cu  Cu65  1  0.08208400  0.33674500  0.88152400  1
  Cu  Cu66  1  0.15364900  0.46165500  0.26299700  1
  Cu  Cu67  1  0.69327600  0.02856900  0.51541300  1
