# generated using pymatgen
data_Cu4Ni3C16
_symmetry_space_group_name_H-M   'P 1'
_cell_length_a   13.16754570
_cell_length_b   13.16754570
_cell_length_c   18.37037900
_cell_angle_alpha   90.00000000
_cell_angle_beta   90.00000000
_cell_angle_gamma   119.99999851
_symmetry_Int_Tables_number   1
_chemical_formula_structural   Cu4Ni3C16
_chemical_formula_sum   'Cu16 Ni12 C64'
_cell_volume   2758.40749037
_cell_formula_units_Z   4
loop_
 _symmetry_equiv_pos_site_id
 _symmetry_equiv_pos_as_xyz
  1  'x, y, z'
loop_
 _atom_site_type_symbol
 _atom_site_label
 _atom_site_symmetry_multiplicity
 _atom_site_fract_x
 _atom_site_fract_y
 _atom_site_fract_z
 _atom_site_occupancy
  Ni  Ni0  1  0.14500900  0.67016700  0.49044900  1
  Ni  Ni1  1  0.52515800  0.85499100  0.49044900  1
  Ni  Ni2  1  0.47484200  0.14500900  0.50955100  1
  Ni  Ni3  1  0.52515800  0.67016700  0.99044900  1
  Ni  Ni4  1  0.67016700  0.52515800  0.50955100  1
  Ni  Ni5  1  0.32983300  0.47484200  0.49044900  1
  Ni  Ni6  1  0.14500900  0.47484200  0.99044900  1
  Ni  Ni7  1  0.67016700  0.14500900  0.00955100  1
  Ni  Ni8  1  0.32983300  0.85499100  0.99044900  1
  Ni  Ni9  1  0.85499100  0.52515800  0.00955100  1
  Ni  Ni10  1  0.85499100  0.32983300  0.50955100  1
  Ni  Ni11  1  0.47484200  0.32983300  0.00955100  1
  Cu  Cu12  1  0.57208900  0.90600700  0.92600900  1
  Cu  Cu13  1  0.09399300  0.66608200  0.92600900  1
  Cu  Cu14  1  0.66608200  0.57208900  0.07399100  1
  Cu  Cu15  1  0.66666700  0.33333300  0.40410800  1
  Cu  Cu16  1  0.33333300  0.66666700  0.59589200  1
  Cu  Cu17  1  0.57208900  0.66608200  0.42600900  1
  Cu  Cu18  1  0.66666700  0.33333300  0.90410800  1
  Cu  Cu19  1  0.09399300  0.42791100  0.42600900  1
  Cu  Cu20  1  0.33333300  0.66666700  0.09589200  1
  Cu  Cu21  1  0.66608200  0.09399300  0.57399100  1
  Cu  Cu22  1  0.33391800  0.42791100  0.92600900  1
  Cu  Cu23  1  0.42791100  0.33391800  0.57399100  1
  Cu  Cu24  1  0.90600700  0.33391800  0.07399100  1
  Cu  Cu25  1  0.33391800  0.90600700  0.42600900  1
  Cu  Cu26  1  0.42791100  0.09399300  0.07399100  1
  Cu  Cu27  1  0.90600700  0.57208900  0.57399100  1
  C  C28  1  0.32279800  0.77158100  0.06695800  1
  C  C29  1  0.80526200  0.21003800  0.05489000  1
  C  C30  1  0.38187000  0.33448400  0.65057100  1
  C  C31  1  0.66666700  0.33333300  0.82107700  1
  C  C32  1  0.57744900  0.43853800  0.06845900  1
  C  C33  1  0.04738700  0.38187000  0.34942900  1
  C  C34  1  0.44878200  0.67720200  0.06695800  1
  C  C35  1  0.99538300  0.36242700  0.48282300  1
  C  C36  1  0.42255100  0.56146200  0.93154100  1
  C  C37  1  0.86108900  0.43853800  0.56845900  1
  C  C38  1  0.33448400  0.38187000  0.84942900  1
  C  C39  1  0.57744900  0.13891100  0.56845900  1
  C  C40  1  0.61813000  0.66551600  0.34942900  1
  C  C41  1  0.78996200  0.59522300  0.05489000  1
  C  C42  1  0.36242700  0.36704400  0.51717700  1
  C  C43  1  0.86108900  0.42255100  0.06845900  1
  C  C44  1  0.13891100  0.56146200  0.43154100  1
  C  C45  1  0.63757300  0.00461700  0.98282300  1
  C  C46  1  0.63757300  0.63295600  0.48282300  1
  C  C47  1  0.56146200  0.13891100  0.06845900  1
  C  C48  1  0.32279800  0.55121800  0.56695800  1
  C  C49  1  0.43853800  0.57744900  0.43154100  1
  C  C50  1  0.21003800  0.40477700  0.94511000  1
  C  C51  1  0.77158100  0.32279800  0.43304200  1
  C  C52  1  0.99538300  0.63295600  0.98282300  1
  C  C53  1  0.42255100  0.86108900  0.43154100  1
  C  C54  1  0.43853800  0.86108900  0.93154100  1
  C  C55  1  0.21003800  0.80526200  0.44511000  1
  C  C56  1  0.78996200  0.19473800  0.55489000  1
  C  C57  1  0.00461700  0.63757300  0.51717700  1
  C  C58  1  0.19473800  0.40477700  0.44511000  1
  C  C59  1  0.36704400  0.36242700  0.98282300  1
  C  C60  1  0.36242700  0.99538300  0.01717700  1
  C  C61  1  0.63295600  0.63757300  0.01717700  1
  C  C62  1  0.19473800  0.78996200  0.94511000  1
  C  C63  1  0.40477700  0.19473800  0.05489000  1
  C  C64  1  0.56146200  0.42255100  0.56845900  1
  C  C65  1  0.67720200  0.44878200  0.43304200  1
  C  C66  1  0.33333300  0.66666700  0.67892300  1
  C  C67  1  0.44878200  0.77158100  0.56695800  1
  C  C68  1  0.59522300  0.78996200  0.44511000  1
  C  C69  1  0.66666700  0.33333300  0.32107700  1
  C  C70  1  0.55121800  0.22841900  0.43304200  1
  C  C71  1  0.67720200  0.22841900  0.93304200  1
  C  C72  1  0.33333300  0.66666700  0.17892300  1
  C  C73  1  0.66551600  0.04738700  0.65057100  1
  C  C74  1  0.38187000  0.04738700  0.15057100  1
  C  C75  1  0.22841900  0.67720200  0.56695800  1
  C  C76  1  0.55121800  0.32279800  0.93304200  1
  C  C77  1  0.40477700  0.21003800  0.55489000  1
  C  C78  1  0.22841900  0.55121800  0.06695800  1
  C  C79  1  0.80526200  0.59522300  0.55489000  1
  C  C80  1  0.63295600  0.99538300  0.51717700  1
  C  C81  1  0.13891100  0.57744900  0.93154100  1
  C  C82  1  0.66551600  0.61813000  0.15057100  1
  C  C83  1  0.59522300  0.80526200  0.94511000  1
  C  C84  1  0.77158100  0.44878200  0.93304200  1
  C  C85  1  0.04738700  0.66551600  0.84942900  1
  C  C86  1  0.61813000  0.95261300  0.84942900  1
  C  C87  1  0.95261300  0.61813000  0.65057100  1
  C  C88  1  0.00461700  0.36704400  0.01717700  1
  C  C89  1  0.33448400  0.95261300  0.34942900  1
  C  C90  1  0.36704400  0.00461700  0.48282300  1
  C  C91  1  0.95261300  0.33448400  0.15057100  1
