# generated using pymatgen
data_Cu12NiC12
_symmetry_space_group_name_H-M   'P 1'
_cell_length_a   6.17098900
_cell_length_b   6.92231900
_cell_length_c   11.37999100
_cell_angle_alpha   90.00000000
_cell_angle_beta   90.00000000
_cell_angle_gamma   90.00000000
_symmetry_Int_Tables_number   1
_chemical_formula_structural   Cu12NiC12
_chemical_formula_sum   'Cu24 Ni2 C24'
_cell_volume   486.12538465
_cell_formula_units_Z   2
loop_
 _symmetry_equiv_pos_site_id
 _symmetry_equiv_pos_as_xyz
  1  'x, y, z'
loop_
 _atom_site_type_symbol
 _atom_site_label
 _atom_site_symmetry_multiplicity
 _atom_site_fract_x
 _atom_site_fract_y
 _atom_site_fract_z
 _atom_site_occupancy
  C  C0  1  0.34904700  0.50000000  0.22878700  1
  C  C1  1  0.65095300  0.00000000  0.72878700  1
  C  C2  1  0.38611200  0.50000000  0.88042600  1
  C  C3  1  0.61388800  0.00000000  0.38042600  1
  Ni  Ni4  1  0.01263900  0.00000000  0.01195900  1
  Ni  Ni5  1  0.98736100  0.50000000  0.51195900  1
  Cu  Cu6  1  0.20719200  0.69942000  0.69302300  1
  Cu  Cu7  1  0.79280800  0.80058000  0.19302300  1
  Cu  Cu8  1  0.64383000  0.75704800  0.01186800  1
  Cu  Cu9  1  0.72625200  0.50000000  0.71079500  1
  Cu  Cu10  1  0.99677100  0.88233500  0.50348800  1
  Cu  Cu11  1  0.16977700  0.00000000  0.34196500  1
  Cu  Cu12  1  0.35617000  0.74295200  0.51186800  1
  Cu  Cu13  1  0.35617000  0.25704800  0.51186800  1
  Cu  Cu14  1  0.27374800  0.00000000  0.21079500  1
  Cu  Cu15  1  0.81820600  0.67764300  0.31323100  1
  Cu  Cu16  1  0.60465500  0.32866000  0.52090300  1
  Cu  Cu17  1  0.39534500  0.17134000  0.02090300  1
  Cu  Cu18  1  0.39534500  0.82866000  0.02090300  1
  Cu  Cu19  1  0.83022300  0.50000000  0.84196500  1
  Cu  Cu20  1  0.18179400  0.17764300  0.81323100  1
  Cu  Cu21  1  0.00322900  0.38233500  0.00348800  1
  Cu  Cu22  1  0.00322900  0.61766500  0.00348800  1
  Cu  Cu23  1  0.18179400  0.82235700  0.81323100  1
  Cu  Cu24  1  0.81820600  0.32235700  0.31323100  1
  Cu  Cu25  1  0.79280800  0.19942000  0.19302300  1
  Cu  Cu26  1  0.20719200  0.30058000  0.69302300  1
  Cu  Cu27  1  0.64383000  0.24295200  0.01186800  1
  Cu  Cu28  1  0.99677100  0.11766500  0.50348800  1
  Cu  Cu29  1  0.60465500  0.67134000  0.52090300  1
  C  C30  1  0.72584100  0.77679700  0.27180600  1
  C  C31  1  0.27415900  0.72320300  0.77180600  1
  C  C32  1  0.24244900  0.00000000  0.06991900  1
  C  C33  1  0.49044000  0.71851000  0.99365800  1
  C  C34  1  0.93353600  0.00000000  0.46380300  1
  C  C35  1  0.50956000  0.78149000  0.49365800  1
  C  C36  1  0.27415900  0.27679700  0.77180600  1
  C  C37  1  0.88917400  0.18430800  0.05363100  1
  C  C38  1  0.75755100  0.50000000  0.56991900  1
  C  C39  1  0.72584100  0.22320300  0.27180600  1
  C  C40  1  0.96326900  0.50000000  0.37658100  1
  C  C41  1  0.11082600  0.31569200  0.55363100  1
  C  C42  1  0.03673100  0.00000000  0.87658100  1
  C  C43  1  0.30700400  0.00000000  0.29806900  1
  C  C44  1  0.49044000  0.28149000  0.99365800  1
  C  C45  1  0.50956000  0.21851000  0.49365800  1
  C  C46  1  0.11082600  0.68430800  0.55363100  1
  C  C47  1  0.69299600  0.50000000  0.79806900  1
  C  C48  1  0.06646400  0.50000000  0.96380300  1
  C  C49  1  0.88917400  0.81569200  0.05363100  1
