# generated using pymatgen
data_Cu(Ni3C2)3
_symmetry_space_group_name_H-M   'P 1'
_cell_length_a   5.44499600
_cell_length_b   7.09132863
_cell_length_c   10.41858784
_cell_angle_alpha   106.50052385
_cell_angle_beta   94.11119575
_cell_angle_gamma   104.58026600
_symmetry_Int_Tables_number   1
_chemical_formula_structural   Cu(Ni3C2)3
_chemical_formula_sum   'Cu2 Ni18 C12'
_cell_volume   368.82500576
_cell_formula_units_Z   2
loop_
 _symmetry_equiv_pos_site_id
 _symmetry_equiv_pos_as_xyz
  1  'x, y, z'
loop_
 _atom_site_type_symbol
 _atom_site_label
 _atom_site_symmetry_multiplicity
 _atom_site_fract_x
 _atom_site_fract_y
 _atom_site_fract_z
 _atom_site_occupancy
  C  C0  1  0.99771700  0.58366500  0.83506600  1
  C  C1  1  0.50380800  0.08424900  0.33229100  1
  C  C2  1  0.00228300  0.41633500  0.16493400  1
  C  C3  1  0.49619200  0.91575100  0.66770900  1
  C  C4  1  0.00000000  0.00000000  0.50000000  1
  C  C5  1  0.00000000  0.50000000  0.50000000  1
  C  C6  1  0.50000000  0.50000000  0.00000000  1
  C  C7  1  0.50000000  0.00000000  0.00000000  1
  C  C8  1  0.02726000  0.09332100  0.84774600  1
  C  C9  1  0.52354400  0.59034500  0.33530700  1
  C  C10  1  0.97274000  0.90667900  0.15225400  1
  C  C11  1  0.47645600  0.40965500  0.66469300  1
  Ni  Ni12  1  0.25114300  0.02142000  0.11705800  1
  Ni  Ni13  1  0.14562000  0.33496000  0.94758800  1
  Ni  Ni14  1  0.74580500  0.53675800  0.62778800  1
  Ni  Ni15  1  0.44087000  0.59127100  0.18066900  1
  Ni  Ni16  1  0.23910900  0.96174100  0.85178200  1
  Ni  Ni17  1  0.62782800  0.82638100  0.44099900  1
  Ni  Ni18  1  0.76089100  0.03825900  0.14821800  1
  Ni  Ni19  1  0.55913000  0.40872900  0.81933100  1
  Ni  Ni20  1  0.89277400  0.21579200  0.46669000  1
  Ni  Ni21  1  0.94435000  0.09543400  0.69218500  1
  Ni  Ni22  1  0.73333700  0.45879400  0.33964500  1
  Ni  Ni23  1  0.85438000  0.66504000  0.05241200  1
  Ni  Ni24  1  0.26666300  0.54120600  0.66035500  1
  Ni  Ni25  1  0.05565000  0.90456600  0.30781500  1
  Ni  Ni26  1  0.74885700  0.97858000  0.88294200  1
  Ni  Ni27  1  0.10722600  0.78420800  0.53331000  1
  Ni  Ni28  1  0.37217200  0.17361900  0.55900100  1
  Ni  Ni29  1  0.25419500  0.46324200  0.37221200  1
  Cu  Cu30  1  0.39968200  0.71514600  0.96421100  1
  Cu  Cu31  1  0.60031800  0.28485400  0.03578900  1
