# generated using pymatgen
data_CuNi9C40
_symmetry_space_group_name_H-M   'P 1'
_cell_length_a   5.47796000
_cell_length_b   5.53506854
_cell_length_c   22.69429879
_cell_angle_alpha   83.93886659
_cell_angle_beta   83.12999567
_cell_angle_gamma   60.34926069
_symmetry_Int_Tables_number   1
_chemical_formula_structural   CuNi9C40
_chemical_formula_sum   'Cu1 Ni9 C40'
_cell_volume   592.85470176
_cell_formula_units_Z   1
loop_
 _symmetry_equiv_pos_site_id
 _symmetry_equiv_pos_as_xyz
  1  'x, y, z'
loop_
 _atom_site_type_symbol
 _atom_site_label
 _atom_site_symmetry_multiplicity
 _atom_site_fract_x
 _atom_site_fract_y
 _atom_site_fract_z
 _atom_site_occupancy
  C  C0  1  0.54882800  0.54982000  0.34873600  1
  C  C1  1  0.14921800  0.15033400  0.54977100  1
  C  C2  1  0.34655300  0.34988900  0.95262400  1
  C  C3  1  0.65211800  0.64981400  0.05040100  1
  C  C4  1  0.25225400  0.25024400  0.25029700  1
  C  C5  1  0.95533600  0.94997100  0.15060900  1
  C  C6  1  0.75215200  0.75070100  0.74866100  1
  C  C7  1  0.84550300  0.85099700  0.44792300  1
  C  C8  1  0.45400600  0.44961800  0.64869600  1
  C  C9  1  0.04556400  0.04908200  0.85232100  1
  Ni  Ni10  1  0.99993500  0.99905500  0.00086900  1
  Ni  Ni11  1  0.60024300  0.59957500  0.20050700  1
  Ni  Ni12  1  0.19991200  0.20105600  0.39932800  1
  Ni  Ni13  1  0.80355500  0.80088200  0.59905900  1
  Ni  Ni14  1  0.39665700  0.39899500  0.80058500  1
  Ni  Ni15  1  0.30045800  0.29998600  0.09993100  1
  Ni  Ni16  1  0.89999200  0.90019900  0.29982300  1
  Ni  Ni17  1  0.49830400  0.50131800  0.49913800  1
  Ni  Ni18  1  0.70130500  0.69820300  0.90150100  1
  Cu  Cu19  1  0.10064200  0.10045600  0.69942700  1
  C  C20  1  0.14797600  0.65323300  0.05202200  1
  C  C21  1  0.75369700  0.24606800  0.24770800  1
  C  C22  1  0.34805500  0.84918700  0.45050800  1
  C  C23  1  0.93568100  0.46709900  0.64995700  1
  C  C24  1  0.55174700  0.04276400  0.84807400  1
  C  C25  1  0.93262300  0.41996500  0.14434400  1
  C  C26  1  0.53477500  0.03000900  0.34546600  1
  C  C27  1  0.11972000  0.63566900  0.53893400  1
  C  C28  1  0.70900800  0.22369700  0.74234300  1
  C  C29  1  0.32727600  0.83523400  0.94082400  1
  C  C30  1  0.19040700  0.13033500  0.04513500  1
  C  C31  1  0.40944200  0.31698400  0.44377000  1
  C  C32  1  0.79568700  0.73669300  0.24168900  1
  C  C33  1  0.01762000  0.90325500  0.64157500  1
  C  C34  1  0.61500200  0.52144400  0.84073100  1
  C  C35  1  0.45547800  0.94927300  0.15014200  1
  C  C36  1  0.04570900  0.55562200  0.35278000  1
  C  C37  1  0.64577100  0.15419400  0.54962400  1
  C  C38  1  0.25865900  0.73798900  0.75227600  1
  C  C39  1  0.85237900  0.34476400  0.94690100  1
  C  C40  1  0.39681300  0.48022700  0.15590100  1
  C  C41  1  0.00457200  0.06326200  0.35888800  1
  C  C42  1  0.59694400  0.66483100  0.55849400  1
  C  C43  1  0.18073400  0.28236600  0.76243100  1
  C  C44  1  0.80582100  0.87288300  0.95486000  1
  C  C45  1  0.67427200  0.16330200  0.05861000  1
  C  C46  1  0.26492700  0.77041000  0.25465800  1
  C  C47  1  0.86727900  0.38248700  0.45676100  1
  C  C48  1  0.48774400  0.98183800  0.65703300  1
  C  C49  1  0.07164700  0.58472200  0.85735100  1
