# generated using pymatgen
data_Cu11Ni3C5
_symmetry_space_group_name_H-M   'P 1'
_cell_length_a   9.43457558
_cell_length_b   9.43457558
_cell_length_c   13.21487300
_cell_angle_alpha   90.00000000
_cell_angle_beta   90.00000000
_cell_angle_gamma   119.99999702
_symmetry_Int_Tables_number   1
_chemical_formula_structural   Cu11Ni3C5
_chemical_formula_sum   'Cu44 Ni12 C20'
_cell_volume   1018.68139406
_cell_formula_units_Z   4
loop_
 _symmetry_equiv_pos_site_id
 _symmetry_equiv_pos_as_xyz
  1  'x, y, z'
loop_
 _atom_site_type_symbol
 _atom_site_label
 _atom_site_symmetry_multiplicity
 _atom_site_fract_x
 _atom_site_fract_y
 _atom_site_fract_z
 _atom_site_occupancy
  C  C0  1  0.69189200  0.12881600  0.87551400  1
  C  C1  1  0.87118400  0.56307700  0.87551400  1
  C  C2  1  0.43692300  0.30810800  0.87551400  1
  C  C3  1  0.56307700  0.87118400  0.62448600  1
  C  C4  1  0.30810800  0.43692300  0.62448600  1
  C  C5  1  0.12881600  0.69189200  0.62448600  1
  C  C6  1  0.30810800  0.87118400  0.12448600  1
  C  C7  1  0.12881600  0.43692300  0.12448600  1
  C  C8  1  0.56307700  0.69189200  0.12448600  1
  C  C9  1  0.43692300  0.12881600  0.37551400  1
  C  C10  1  0.69189200  0.56307700  0.37551400  1
  C  C11  1  0.87118400  0.30810800  0.37551400  1
  C  C12  1  0.00000000  0.00000000  0.50000000  1
  C  C13  1  0.00000000  0.00000000  0.00000000  1
  C  C14  1  0.00000000  0.00000000  0.75000000  1
  C  C15  1  0.00000000  0.00000000  0.25000000  1
  C  C16  1  0.66666700  0.33333300  0.62959300  1
  C  C17  1  0.33333300  0.66666700  0.87040700  1
  C  C18  1  0.33333300  0.66666700  0.37040700  1
  C  C19  1  0.66666700  0.33333300  0.12959300  1
  Ni  Ni20  1  0.25306600  0.92344700  0.87212600  1
  Ni  Ni21  1  0.07655300  0.32961900  0.87212600  1
  Ni  Ni22  1  0.67038100  0.74693400  0.87212600  1
  Ni  Ni23  1  0.32961900  0.07655300  0.62787400  1
  Ni  Ni24  1  0.74693400  0.67038100  0.62787400  1
  Ni  Ni25  1  0.92344700  0.25306600  0.62787400  1
  Ni  Ni26  1  0.74693400  0.07655300  0.12787400  1
  Ni  Ni27  1  0.92344700  0.67038100  0.12787400  1
  Ni  Ni28  1  0.32961900  0.25306600  0.12787400  1
  Ni  Ni29  1  0.67038100  0.92344700  0.37212600  1
  Ni  Ni30  1  0.25306600  0.32961900  0.37212600  1
  Ni  Ni31  1  0.07655300  0.74693400  0.37212600  1
  Cu  Cu32  1  0.62316800  0.85525000  0.85808200  1
  Cu  Cu33  1  0.14475000  0.76791800  0.85808200  1
  Cu  Cu34  1  0.23208200  0.37683200  0.85808200  1
  Cu  Cu35  1  0.76791800  0.14475000  0.64191800  1
  Cu  Cu36  1  0.37683200  0.23208200  0.64191800  1
  Cu  Cu37  1  0.85525000  0.62316800  0.64191800  1
  Cu  Cu38  1  0.37683200  0.14475000  0.14191800  1
  Cu  Cu39  1  0.85525000  0.23208200  0.14191800  1
  Cu  Cu40  1  0.76791800  0.62316800  0.14191800  1
  Cu  Cu41  1  0.23208200  0.85525000  0.35808200  1
  Cu  Cu42  1  0.62316800  0.76791800  0.35808200  1
  Cu  Cu43  1  0.14475000  0.37683200  0.35808200  1
  Cu  Cu44  1  0.40376600  0.95234200  0.88112000  1
  Cu  Cu45  1  0.04765800  0.45142300  0.88112000  1
  Cu  Cu46  1  0.54857700  0.59623400  0.88112000  1
  Cu  Cu47  1  0.45142300  0.04765800  0.61888000  1
  Cu  Cu48  1  0.59623400  0.54857700  0.61888000  1
  Cu  Cu49  1  0.95234200  0.40376600  0.61888000  1
  Cu  Cu50  1  0.59623400  0.04765800  0.11888000  1
  Cu  Cu51  1  0.95234200  0.54857700  0.11888000  1
  Cu  Cu52  1  0.45142300  0.40376600  0.11888000  1
  Cu  Cu53  1  0.54857700  0.95234200  0.38112000  1
  Cu  Cu54  1  0.40376600  0.45142300  0.38112000  1
  Cu  Cu55  1  0.04765800  0.59623400  0.38112000  1
  Cu  Cu56  1  0.21516600  0.03442400  0.87739600  1
  Cu  Cu57  1  0.96557600  0.18074300  0.87739600  1
  Cu  Cu58  1  0.81925700  0.78483400  0.87739600  1
  Cu  Cu59  1  0.18074300  0.96557600  0.62260400  1
  Cu  Cu60  1  0.78483400  0.81925700  0.62260400  1
  Cu  Cu61  1  0.03442400  0.21516600  0.62260400  1
  Cu  Cu62  1  0.78483400  0.96557600  0.12260400  1
  Cu  Cu63  1  0.03442400  0.81925700  0.12260400  1
  Cu  Cu64  1  0.18074300  0.21516600  0.12260400  1
  Cu  Cu65  1  0.81925700  0.03442400  0.37739600  1
  Cu  Cu66  1  0.21516600  0.18074300  0.37739600  1
  Cu  Cu67  1  0.96557600  0.78483400  0.37739600  1
  Cu  Cu68  1  0.66666700  0.33333300  0.48864100  1
  Cu  Cu69  1  0.33333300  0.66666700  0.01135900  1
  Cu  Cu70  1  0.33333300  0.66666700  0.51135900  1
  Cu  Cu71  1  0.66666700  0.33333300  0.98864100  1
  Cu  Cu72  1  0.66666700  0.33333300  0.77074800  1
  Cu  Cu73  1  0.33333300  0.66666700  0.72925200  1
  Cu  Cu74  1  0.33333300  0.66666700  0.22925200  1
  Cu  Cu75  1  0.66666700  0.33333300  0.27074800  1
