# generated using pymatgen
data_Cu12Ni3C4
_symmetry_space_group_name_H-M   'P 1'
_cell_length_a   10.08748200
_cell_length_b   10.08748200
_cell_length_c   10.08748200
_cell_angle_alpha   90.00000000
_cell_angle_beta   90.00000000
_cell_angle_gamma   90.00000000
_symmetry_Int_Tables_number   1
_chemical_formula_structural   Cu12Ni3C4
_chemical_formula_sum   'Cu48 Ni12 C16'
_cell_volume   1026.47486252
_cell_formula_units_Z   4
loop_
 _symmetry_equiv_pos_site_id
 _symmetry_equiv_pos_as_xyz
  1  'x, y, z'
loop_
 _atom_site_type_symbol
 _atom_site_label
 _atom_site_symmetry_multiplicity
 _atom_site_fract_x
 _atom_site_fract_y
 _atom_site_fract_z
 _atom_site_occupancy
  C  C0  1  0.68511800  0.18511800  0.31488200  1
  C  C1  1  0.31488200  0.68511800  0.18511800  1
  C  C2  1  0.94942300  0.55057700  0.44942300  1
  C  C3  1  0.18511800  0.31488200  0.68511800  1
  C  C4  1  0.05057700  0.05057700  0.05057700  1
  C  C5  1  0.44942300  0.94942300  0.55057700  1
  C  C6  1  0.55057700  0.44942300  0.94942300  1
  C  C7  1  0.81488200  0.81488200  0.81488200  1
  C  C8  1  0.33448300  0.33448300  0.33448300  1
  C  C9  1  0.16551700  0.66551700  0.83448300  1
  C  C10  1  0.83448300  0.16551700  0.66551700  1
  C  C11  1  0.66551700  0.83448300  0.16551700  1
  C  C12  1  0.59119500  0.59119500  0.59119500  1
  C  C13  1  0.09119500  0.90880500  0.40880500  1
  C  C14  1  0.40880500  0.09119500  0.90880500  1
  C  C15  1  0.90880500  0.40880500  0.09119500  1
  Ni  Ni16  1  0.28050000  0.62349300  0.51884900  1
  Ni  Ni17  1  0.78050000  0.87650700  0.48115100  1
  Ni  Ni18  1  0.71950000  0.12349300  0.98115100  1
  Ni  Ni19  1  0.87650700  0.48115100  0.78050000  1
  Ni  Ni20  1  0.98115100  0.71950000  0.12349300  1
  Ni  Ni21  1  0.48115100  0.78050000  0.87650700  1
  Ni  Ni22  1  0.62349300  0.51884900  0.28050000  1
  Ni  Ni23  1  0.51884900  0.28050000  0.62349300  1
  Ni  Ni24  1  0.12349300  0.98115100  0.71950000  1
  Ni  Ni25  1  0.21950000  0.37650700  0.01884900  1
  Ni  Ni26  1  0.01884900  0.21950000  0.37650700  1
  Ni  Ni27  1  0.37650700  0.01884900  0.21950000  1
  Cu  Cu28  1  0.25019600  0.59413200  0.65959300  1
  Cu  Cu29  1  0.75019600  0.90586800  0.34040700  1
  Cu  Cu30  1  0.74980400  0.09413200  0.84040700  1
  Cu  Cu31  1  0.90586800  0.34040700  0.75019600  1
  Cu  Cu32  1  0.84040700  0.74980400  0.09413200  1
  Cu  Cu33  1  0.34040700  0.75019600  0.90586800  1
  Cu  Cu34  1  0.59413200  0.65959300  0.25019600  1
  Cu  Cu35  1  0.65959300  0.25019600  0.59413200  1
  Cu  Cu36  1  0.09413200  0.84040700  0.74980400  1
  Cu  Cu37  1  0.40586800  0.15959300  0.24980400  1
  Cu  Cu38  1  0.15959300  0.24980400  0.40586800  1
  Cu  Cu39  1  0.24980400  0.40586800  0.15959300  1
  Cu  Cu40  1  0.25998000  0.49938100  0.44134700  1
  Cu  Cu41  1  0.75998000  0.00061900  0.55865300  1
  Cu  Cu42  1  0.74002000  0.99938100  0.05865300  1
  Cu  Cu43  1  0.00061900  0.55865300  0.75998000  1
  Cu  Cu44  1  0.05865300  0.74002000  0.99938100  1
  Cu  Cu45  1  0.55865300  0.75998000  0.00061900  1
  Cu  Cu46  1  0.99479800  0.57960400  0.17200300  1
  Cu  Cu47  1  0.49938100  0.44134700  0.25998000  1
  Cu  Cu48  1  0.99938100  0.05865300  0.74002000  1
  Cu  Cu49  1  0.50061900  0.94134700  0.24002000  1
  Cu  Cu50  1  0.94134700  0.24002000  0.50061900  1
  Cu  Cu51  1  0.24002000  0.50061900  0.94134700  1
  Cu  Cu52  1  0.42039600  0.67200300  0.50520200  1
  Cu  Cu53  1  0.92039600  0.82799700  0.49479800  1
  Cu  Cu54  1  0.57960400  0.17200300  0.99479800  1
  Cu  Cu55  1  0.82799700  0.49479800  0.92039600  1
  Cu  Cu56  1  0.30971200  0.27501200  0.96233600  1
  Cu  Cu57  1  0.96233600  0.30971200  0.27501200  1
  Cu  Cu58  1  0.27501200  0.96233600  0.30971200  1
  Cu  Cu59  1  0.22498800  0.03766400  0.80971200  1
  Cu  Cu60  1  0.46233600  0.19028800  0.72498800  1
  Cu  Cu61  1  0.72498800  0.46233600  0.19028800  1
  Cu  Cu62  1  0.53766400  0.69028800  0.77501200  1
  Cu  Cu63  1  0.03766400  0.80971200  0.22498800  1
  Cu  Cu64  1  0.77501200  0.53766400  0.69028800  1
  Cu  Cu65  1  0.80971200  0.22498800  0.03766400  1
  Cu  Cu66  1  0.69028800  0.77501200  0.53766400  1
  Cu  Cu67  1  0.19028800  0.72498800  0.46233600  1
  Cu  Cu68  1  0.07960400  0.32799700  0.00520200  1
  Cu  Cu69  1  0.00520200  0.07960400  0.32799700  1
  Cu  Cu70  1  0.32799700  0.00520200  0.07960400  1
  Cu  Cu71  1  0.17200300  0.99479800  0.57960400  1
  Cu  Cu72  1  0.50520200  0.42039600  0.67200300  1
  Cu  Cu73  1  0.67200300  0.50520200  0.42039600  1
  Cu  Cu74  1  0.49479800  0.92039600  0.82799700  1
  Cu  Cu75  1  0.44134700  0.25998000  0.49938100  1
