# generated using pymatgen
data_Cu11(NiC10)2
_symmetry_space_group_name_H-M   'P 1'
_cell_length_a   8.74216100
_cell_length_b   8.83547104
_cell_length_c   8.84131176
_cell_angle_alpha   110.53263514
_cell_angle_beta   108.70136557
_cell_angle_gamma   107.95784166
_symmetry_Int_Tables_number   1
_chemical_formula_structural   Cu11(NiC10)2
_chemical_formula_sum   'Cu11 Ni2 C20'
_cell_volume   533.27027096
_cell_formula_units_Z   1
loop_
 _symmetry_equiv_pos_site_id
 _symmetry_equiv_pos_as_xyz
  1  'x, y, z'
loop_
 _atom_site_type_symbol
 _atom_site_label
 _atom_site_symmetry_multiplicity
 _atom_site_fract_x
 _atom_site_fract_y
 _atom_site_fract_z
 _atom_site_occupancy
  Ni  Ni0  1  0.80545000  0.09469500  0.33279500  1
  Ni  Ni1  1  0.00396100  0.01818300  0.02884300  1
  Cu  Cu2  1  0.49860700  0.65935900  0.80386100  1
  Cu  Cu3  1  0.81829800  0.48416400  0.64905700  1
  Cu  Cu4  1  0.29450900  0.15231400  0.48606500  1
  Cu  Cu5  1  0.13616700  0.31562400  0.82141400  1
  Cu  Cu6  1  0.31955300  0.83158200  0.13172500  1
  Cu  Cu7  1  0.70345700  0.19278100  0.85724300  1
  Cu  Cu8  1  0.85971200  0.71455400  0.19787700  1
  Cu  Cu9  1  0.65062700  0.79683500  0.50544500  1
  Cu  Cu10  1  0.14898000  0.48548200  0.29408700  1
  Cu  Cu11  1  0.50448300  0.30421900  0.16124100  1
  Cu  Cu12  1  0.18842300  0.86151100  0.69422400  1
  C  C13  1  0.66719600  0.25925700  0.35920300  1
  C  C14  1  0.82935500  0.05946100  0.08349500  1
  C  C15  1  0.27037000  0.38593500  0.62184200  1
  C  C16  1  0.22860300  0.61086300  0.87300300  1
  C  C17  1  0.88485200  0.23422200  0.59972600  1
  C  C18  1  0.63793100  0.35620300  0.73053700  1
  C  C19  1  0.01293000  0.81177100  0.01929300  1
  C  C20  1  0.61723000  0.87350500  0.23107100  1
  C  C21  1  0.99837200  0.39087900  0.99182600  1
  C  C22  1  0.37451600  0.60677400  0.25679000  1
  C  C23  1  0.35028600  0.12301900  0.74057400  1
  C  C24  1  0.73308800  0.38000800  0.10078000  1
  C  C25  1  0.99872500  0.01476600  0.40252400  1
  C  C26  1  0.11929300  0.74391400  0.35705000  1
  C  C27  1  0.38221200  0.99639200  0.99523500  1
  C  C28  1  0.38025800  0.76080500  0.64075400  1
  C  C29  1  0.76967000  0.64925400  0.38910100  1
  C  C30  1  0.97843900  0.01249600  0.81460800  1
  C  C31  1  0.22110900  0.21517800  0.21894500  1
  C  C32  1  0.61333900  0.60399400  0.60976500  1
