# generated using pymatgen
data_Cu4(Ni2C)3
_symmetry_space_group_name_H-M   'P 1'
_cell_length_a   16.93883497
_cell_length_b   16.93883497
_cell_length_c   16.93883580
_cell_angle_alpha   14.36396213
_cell_angle_beta   14.36396213
_cell_angle_gamma   14.36396369
_symmetry_Int_Tables_number   1
_chemical_formula_structural   Cu4(Ni2C)3
_chemical_formula_sum   'Cu4 Ni6 C3'
_cell_volume   260.39669943
_cell_formula_units_Z   1
loop_
 _symmetry_equiv_pos_site_id
 _symmetry_equiv_pos_as_xyz
  1  'x, y, z'
loop_
 _atom_site_type_symbol
 _atom_site_label
 _atom_site_symmetry_multiplicity
 _atom_site_fract_x
 _atom_site_fract_y
 _atom_site_fract_z
 _atom_site_occupancy
  C  C0  1  0.56561600  0.56561600  0.56561600  1
  C  C1  1  0.43438400  0.43438400  0.43438400  1
  Ni  Ni2  1  0.18540800  0.18540800  0.18540800  1
  Ni  Ni3  1  0.05240800  0.05240800  0.05240800  1
  Ni  Ni4  1  0.81459200  0.81459200  0.81459200  1
  Ni  Ni5  1  0.94759200  0.94759200  0.94759200  1
  Ni  Ni6  1  0.68330600  0.68330600  0.68330600  1
  Ni  Ni7  1  0.31669400  0.31669400  0.31669400  1
  Cu  Cu8  1  0.73387500  0.73387500  0.73387500  1
  Cu  Cu9  1  0.26612500  0.26612500  0.26612500  1
  Cu  Cu10  1  0.13543300  0.13543300  0.13543300  1
  Cu  Cu11  1  0.86456700  0.86456700  0.86456700  1
  C  C12  1  0.00000000  0.00000000  0.00000000  1
