# generated using pymatgen
data_CuNi7C11
_symmetry_space_group_name_H-M   'P 1'
_cell_length_a   7.23597900
_cell_length_b   10.53901500
_cell_length_c   25.93309700
_cell_angle_alpha   90.00000000
_cell_angle_beta   90.00000000
_cell_angle_gamma   90.00000000
_symmetry_Int_Tables_number   1
_chemical_formula_structural   CuNi7C11
_chemical_formula_sum   'Cu8 Ni56 C88'
_cell_volume   1977.66034285
_cell_formula_units_Z   8
loop_
 _symmetry_equiv_pos_site_id
 _symmetry_equiv_pos_as_xyz
  1  'x, y, z'
loop_
 _atom_site_type_symbol
 _atom_site_label
 _atom_site_symmetry_multiplicity
 _atom_site_fract_x
 _atom_site_fract_y
 _atom_site_fract_z
 _atom_site_occupancy
  C  C0  1  0.18736300  0.87733800  0.47273100  1
  C  C1  1  0.31263700  0.37733800  0.52726900  1
  C  C2  1  0.81263700  0.62266200  0.97273100  1
  C  C3  1  0.31263700  0.87733800  0.97273100  1
  C  C4  1  0.81263700  0.12266200  0.52726900  1
  C  C5  1  0.18736300  0.37733800  0.02726900  1
  C  C6  1  0.68736300  0.62266200  0.47273100  1
  C  C7  1  0.68736300  0.12266200  0.02726900  1
  C  C8  1  0.86949100  0.75754100  0.25246000  1
  C  C9  1  0.98791200  0.67111000  0.61097300  1
  C  C10  1  0.41177400  0.43463500  0.76819500  1
  C  C11  1  0.68888300  0.76392000  0.33394000  1
  C  C12  1  0.37856200  0.11456100  0.79229500  1
  C  C13  1  0.58822600  0.56536500  0.23180500  1
  C  C14  1  0.41177400  0.93463500  0.73180500  1
  C  C15  1  0.08822600  0.43463500  0.26819500  1
  C  C16  1  0.48791200  0.32889000  0.88902700  1
  C  C17  1  0.13050900  0.74245900  0.75246000  1
  C  C18  1  0.36949100  0.74245900  0.25246000  1
  C  C19  1  0.98791200  0.17111000  0.88902700  1
  C  C20  1  0.36949100  0.24245900  0.24754000  1
  C  C21  1  0.08822600  0.93463500  0.23180500  1
  C  C22  1  0.62143800  0.38543900  0.29229500  1
  C  C23  1  0.31111700  0.73608000  0.83394000  1
  C  C24  1  0.48791200  0.82889000  0.61097300  1
  C  C25  1  0.31111700  0.23608000  0.66606000  1
  C  C26  1  0.91177400  0.06536500  0.76819500  1
  C  C27  1  0.87856200  0.88543900  0.70770500  1
  C  C28  1  0.91177400  0.56536500  0.73180500  1
  C  C29  1  0.51208800  0.17111000  0.38902700  1
  C  C30  1  0.87856200  0.38543900  0.79229500  1
  C  C31  1  0.12143800  0.11456100  0.29229500  1
  C  C32  1  0.13050900  0.24245900  0.74754000  1
  C  C33  1  0.63050900  0.25754100  0.74754000  1
  C  C34  1  0.18888300  0.73608000  0.33394000  1
  C  C35  1  0.81111700  0.26392000  0.66606000  1
  C  C36  1  0.58822600  0.06536500  0.26819500  1
  C  C37  1  0.86949100  0.25754100  0.24754000  1
  C  C38  1  0.63050900  0.75754100  0.75246000  1
  C  C39  1  0.01208800  0.32889000  0.38902700  1
  C  C40  1  0.81111700  0.76392000  0.83394000  1
  C  C41  1  0.68888300  0.26392000  0.16606000  1
  C  C42  1  0.18888300  0.23608000  0.16606000  1
  C  C43  1  0.62143800  0.88543900  0.20770500  1
  C  C44  1  0.01208800  0.82889000  0.11097300  1
  C  C45  1  0.37856200  0.61456100  0.70770500  1
  C  C46  1  0.51208800  0.67111000  0.11097300  1
  C  C47  1  0.12143800  0.61456100  0.20770500  1
  Ni  Ni48  1  0.11348800  0.16296000  0.72093000  1
  Ni  Ni49  1  0.42795800  0.45821800  0.34818300  1
  Ni  Ni50  1  0.02563400  0.35321400  0.88552900  1
  Ni  Ni51  1  0.50806300  0.06420600  0.23255200  1
  Ni  Ni52  1  0.97436600  0.64678600  0.11447100  1
  Ni  Ni53  1  0.78534600  0.34018700  0.17511000  1
  Ni  Ni54  1  0.28534600  0.15981300  0.17511000  1
  Ni  Ni55  1  0.38651200  0.16296000  0.22093000  1
  Ni  Ni56  1  0.21465400  0.15981300  0.67511000  1
  Ni  Ni57  1  0.47343900  0.53756900  0.69844300  1
  Ni  Ni58  1  0.19432300  0.55888900  0.85951200  1
  Ni  Ni59  1  0.11348800  0.66296000  0.77907000  1
  Ni  Ni60  1  0.57204200  0.04178200  0.84818300  1
  Ni  Ni61  1  0.42795800  0.95821800  0.15181700  1
  Ni  Ni62  1  0.47436600  0.85321400  0.11447100  1
  Ni  Ni63  1  0.97436600  0.14678600  0.38552900  1
  Ni  Ni64  1  0.97343900  0.46243100  0.80155700  1
  Ni  Ni65  1  0.49193700  0.43579400  0.73255200  1
  Ni  Ni66  1  0.47436600  0.35321400  0.38552900  1
  Ni  Ni67  1  0.61348800  0.83704000  0.77907000  1
  Ni  Ni68  1  0.52656100  0.96243100  0.19844300  1
  Ni  Ni69  1  0.50806300  0.56420600  0.26744800  1
  Ni  Ni70  1  0.00806300  0.93579400  0.26744800  1
  Ni  Ni71  1  0.07204200  0.95821800  0.65181700  1
  Ni  Ni72  1  0.71465400  0.84018700  0.82489000  1
  Ni  Ni73  1  0.99193700  0.56420600  0.76744800  1
  Ni  Ni74  1  0.88651200  0.83704000  0.27907000  1
  Ni  Ni75  1  0.00806300  0.43579400  0.23255200  1
  Ni  Ni76  1  0.02563400  0.85321400  0.61447100  1
  Ni  Ni77  1  0.52656100  0.46243100  0.30155700  1
  Ni  Ni78  1  0.02656100  0.53756900  0.19844300  1
  Ni  Ni79  1  0.69432300  0.94111100  0.85951200  1
  Ni  Ni80  1  0.69432300  0.44111100  0.64048800  1
  Ni  Ni81  1  0.52563400  0.64678600  0.61447100  1
  Ni  Ni82  1  0.80567700  0.94111100  0.35951200  1
  Ni  Ni83  1  0.30567700  0.05888900  0.14048800  1
  Ni  Ni84  1  0.07204200  0.45821800  0.84818300  1
  Ni  Ni85  1  0.02656100  0.03756900  0.30155700  1
  Ni  Ni86  1  0.61348800  0.33704000  0.72093000  1
  Ni  Ni87  1  0.21465400  0.65981300  0.82489000  1
  Ni  Ni88  1  0.78534600  0.84018700  0.32489000  1
  Ni  Ni89  1  0.71465400  0.34018700  0.67511000  1
  Ni  Ni90  1  0.92795800  0.54178200  0.15181700  1
  Ni  Ni91  1  0.47343900  0.03756900  0.80155700  1
  Ni  Ni92  1  0.57204200  0.54178200  0.65181700  1
  Ni  Ni93  1  0.19432300  0.05888900  0.64048800  1
  Ni  Ni94  1  0.97343900  0.96243100  0.69844300  1
  Ni  Ni95  1  0.49193700  0.93579400  0.76744800  1
  Ni  Ni96  1  0.38651200  0.66296000  0.27907000  1
  Ni  Ni97  1  0.99193700  0.06420600  0.73255200  1
  Ni  Ni98  1  0.30567700  0.55888900  0.35951200  1
  Ni  Ni99  1  0.80567700  0.44111100  0.14048800  1
  Ni  Ni100  1  0.52563400  0.14678600  0.88552900  1
  Ni  Ni101  1  0.88651200  0.33704000  0.22093000  1
  Ni  Ni102  1  0.28534600  0.65981300  0.32489000  1
  Ni  Ni103  1  0.92795800  0.04178200  0.34818300  1
  Cu  Cu104  1  0.16592000  0.56369800  0.41718600  1
  Cu  Cu105  1  0.33408000  0.56369800  0.91718600  1
  Cu  Cu106  1  0.66592000  0.43630200  0.08281400  1
  Cu  Cu107  1  0.33408000  0.06369800  0.58281400  1
  Cu  Cu108  1  0.83408000  0.93630200  0.91718600  1
  Cu  Cu109  1  0.16592000  0.06369800  0.08281400  1
  Cu  Cu110  1  0.66592000  0.93630200  0.41718600  1
  Cu  Cu111  1  0.83408000  0.43630200  0.58281400  1
  C  C112  1  0.98520900  0.34745500  0.59319200  1
  C  C113  1  0.53788500  0.26171400  0.86422200  1
  C  C114  1  0.47252100  0.12648600  0.92977700  1
  C  C115  1  0.97252100  0.87351400  0.57022300  1
  C  C116  1  0.52747900  0.37351400  0.42977700  1
  C  C117  1  0.40033400  0.93226200  0.57390700  1
  C  C118  1  0.28616600  0.10549200  0.04049800  1
  C  C119  1  0.48520900  0.65254500  0.90680800  1
  C  C120  1  0.28616600  0.60549200  0.45950200  1
  C  C121  1  0.59966600  0.06773800  0.42609300  1
  C  C122  1  0.51479100  0.34745500  0.09319200  1
  C  C123  1  0.71383400  0.89450800  0.95950200  1
  C  C124  1  0.02747900  0.62648600  0.07022300  1
  C  C125  1  0.51479100  0.84745500  0.40680800  1
  C  C126  1  0.96211500  0.26171400  0.36422200  1
  C  C127  1  0.02747900  0.12648600  0.42977700  1
  C  C128  1  0.46211500  0.23828600  0.36422200  1
  C  C129  1  0.71383400  0.39450800  0.54049800  1
  C  C130  1  0.78616600  0.89450800  0.45950200  1
  C  C131  1  0.01479100  0.15254500  0.09319200  1
  C  C132  1  0.98520900  0.84745500  0.90680800  1
  C  C133  1  0.09966600  0.93226200  0.07390700  1
  C  C134  1  0.21383400  0.10549200  0.54049800  1
  C  C135  1  0.52747900  0.87351400  0.07022300  1
  C  C136  1  0.53788500  0.76171400  0.63577800  1
  C  C137  1  0.03788500  0.23828600  0.86422200  1
  C  C138  1  0.90033400  0.06773800  0.92609300  1
  C  C139  1  0.78616600  0.39450800  0.04049800  1
  C  C140  1  0.03788500  0.73828600  0.63577800  1
  C  C141  1  0.48520900  0.15254500  0.59319200  1
  C  C142  1  0.46211500  0.73828600  0.13577800  1
  C  C143  1  0.01479100  0.65254500  0.40680800  1
  C  C144  1  0.96211500  0.76171400  0.13577800  1
  C  C145  1  0.47252100  0.62648600  0.57022300  1
  C  C146  1  0.90033400  0.56773800  0.57390700  1
  C  C147  1  0.40033400  0.43226200  0.92609300  1
  C  C148  1  0.59966600  0.56773800  0.07390700  1
  C  C149  1  0.21383400  0.60549200  0.95950200  1
  C  C150  1  0.09966600  0.43226200  0.42609300  1
  C  C151  1  0.97252100  0.37351400  0.92977700  1
