# generated using pymatgen
data_Cu(Ni3C2)4
_symmetry_space_group_name_H-M   'P 1'
_cell_length_a   9.84985778
_cell_length_b   9.84985778
_cell_length_c   7.35915200
_cell_angle_alpha   90.00000000
_cell_angle_beta   90.00000000
_cell_angle_gamma   119.99999854
_symmetry_Int_Tables_number   1
_chemical_formula_structural   Cu(Ni3C2)4
_chemical_formula_sum   'Cu2 Ni24 C16'
_cell_volume   618.32717123
_cell_formula_units_Z   2
loop_
 _symmetry_equiv_pos_site_id
 _symmetry_equiv_pos_as_xyz
  1  'x, y, z'
loop_
 _atom_site_type_symbol
 _atom_site_label
 _atom_site_symmetry_multiplicity
 _atom_site_fract_x
 _atom_site_fract_y
 _atom_site_fract_z
 _atom_site_occupancy
  C  C0  1  0.66666700  0.33333300  0.49956100  1
  C  C1  1  0.33333300  0.66666700  0.99956100  1
  C  C2  1  0.33333300  0.66666700  0.50043900  1
  C  C3  1  0.66666700  0.33333300  0.00043900  1
  C  C4  1  0.75808000  0.01136000  0.75000000  1
  C  C5  1  0.74671900  0.75808000  0.25000000  1
  C  C6  1  0.01136000  0.25328100  0.25000000  1
  C  C7  1  0.98864000  0.74671900  0.75000000  1
  C  C8  1  0.25328100  0.24192000  0.75000000  1
  C  C9  1  0.24192000  0.98864000  0.25000000  1
  C  C10  1  0.03117000  0.39910200  0.75000000  1
  C  C11  1  0.63206800  0.03117000  0.25000000  1
  C  C12  1  0.39910200  0.36793200  0.25000000  1
  C  C13  1  0.60089800  0.63206800  0.75000000  1
  C  C14  1  0.36793200  0.96883000  0.75000000  1
  C  C15  1  0.96883000  0.60089800  0.25000000  1
  Ni  Ni16  1  0.11872900  0.58201400  0.75000000  1
  Ni  Ni17  1  0.53671500  0.11872900  0.25000000  1
  Ni  Ni18  1  0.58201400  0.46328500  0.25000000  1
  Ni  Ni19  1  0.41798600  0.53671500  0.75000000  1
  Ni  Ni20  1  0.46328500  0.88127100  0.75000000  1
  Ni  Ni21  1  0.88127100  0.41798600  0.25000000  1
  Ni  Ni22  1  0.34422600  0.26066200  0.42113600  1
  Ni  Ni23  1  0.08356400  0.34422600  0.92113600  1
  Ni  Ni24  1  0.26066200  0.91643600  0.92113600  1
  Ni  Ni25  1  0.73933800  0.08356400  0.42113600  1
  Ni  Ni26  1  0.91643600  0.65577400  0.42113600  1
  Ni  Ni27  1  0.65577400  0.73933800  0.92113600  1
  Ni  Ni28  1  0.65577400  0.73933800  0.57886400  1
  Ni  Ni29  1  0.91643600  0.65577400  0.07886400  1
  Ni  Ni30  1  0.73933800  0.08356400  0.07886400  1
  Ni  Ni31  1  0.26066200  0.91643600  0.57886400  1
  Ni  Ni32  1  0.08356400  0.34422600  0.57886400  1
  Ni  Ni33  1  0.34422600  0.26066200  0.07886400  1
  Ni  Ni34  1  0.14975300  0.66975200  0.25000000  1
  Ni  Ni35  1  0.48000100  0.14975300  0.75000000  1
  Ni  Ni36  1  0.66975200  0.51999900  0.75000000  1
  Ni  Ni37  1  0.33024800  0.48000100  0.25000000  1
  Ni  Ni38  1  0.51999900  0.85024700  0.25000000  1
  Ni  Ni39  1  0.85024700  0.33024800  0.75000000  1
  Cu  Cu40  1  0.00000000  0.00000000  0.75000000  1
  Cu  Cu41  1  0.00000000  0.00000000  0.25000000  1
