# generated using pymatgen
data_Cu5NiC23
_symmetry_space_group_name_H-M   'P 1'
_cell_length_a   7.19567900
_cell_length_b   7.19877639
_cell_length_c   7.22807192
_cell_angle_alpha   85.21045907
_cell_angle_beta   80.07970490
_cell_angle_gamma   79.94606836
_symmetry_Int_Tables_number   1
_chemical_formula_structural   Cu5NiC23
_chemical_formula_sum   'Cu5 Ni1 C23'
_cell_volume   362.60179378
_cell_formula_units_Z   1
loop_
 _symmetry_equiv_pos_site_id
 _symmetry_equiv_pos_as_xyz
  1  'x, y, z'
loop_
 _atom_site_type_symbol
 _atom_site_label
 _atom_site_symmetry_multiplicity
 _atom_site_fract_x
 _atom_site_fract_y
 _atom_site_fract_z
 _atom_site_occupancy
  C  C0  1  0.21251900  0.97740500  0.82433500  1
  C  C1  1  0.15135500  0.65295100  0.34494000  1
  C  C2  1  0.85930400  0.35080700  0.68300700  1
  C  C3  1  0.79623500  0.04515400  0.16699300  1
  Ni  Ni4  1  0.27834600  0.44913100  0.79070800  1
  Cu  Cu5  1  0.52142400  0.72466900  0.03884800  1
  Cu  Cu6  1  0.06553500  0.62209600  0.99703200  1
  Cu  Cu7  1  0.46644800  0.50923400  0.52382800  1
  Cu  Cu8  1  0.47063700  0.28305500  0.96695700  1
  Cu  Cu9  1  0.52786100  0.00219200  0.50486800  1
  C  C10  1  0.75062200  0.87841100  0.70780100  1
  C  C11  1  0.72508000  0.53019200  0.20787100  1
  C  C12  1  0.25466800  0.11781400  0.29761400  1
  C  C13  1  0.33456500  0.99837000  0.48943700  1
  C  C14  1  0.14167600  0.97564300  0.19901900  1
  C  C15  1  0.54835900  0.83558700  0.84179200  1
  C  C16  1  0.89670000  0.68641700  0.63632000  1
  C  C17  1  0.87721500  0.68601600  0.17013000  1
  C  C18  1  0.50212000  0.66053600  0.17137100  1
  C  C19  1  0.19583300  0.62388300  0.92002400  1
  C  C20  1  0.32661000  0.54427800  0.58810400  1
  C  C21  1  0.67153800  0.45413600  0.43050500  1
  C  C22  1  0.79167400  0.36328500  0.05925200  1
  C  C23  1  0.48147800  0.36097200  0.83996500  1
  C  C24  1  0.14410500  0.30959900  0.81003500  1
  C  C25  1  0.10629100  0.31477200  0.35940500  1
  C  C26  1  0.45253900  0.16180600  0.15243300  1
  C  C27  1  0.86190900  0.01918800  0.80677200  1
  C  C28  1  0.67685400  0.00829900  0.51043500  1
