# generated using pymatgen
data_Cu10Ni6C23
_symmetry_space_group_name_H-M   'P 1'
_cell_length_a   8.83769253
_cell_length_b   8.83769253
_cell_length_c   11.34193695
_cell_angle_alpha   69.00246165
_cell_angle_beta   69.00246165
_cell_angle_gamma   70.15093138
_symmetry_Int_Tables_number   1
_chemical_formula_structural   Cu10Ni6C23
_chemical_formula_sum   'Cu20 Ni12 C46'
_cell_volume   749.11822419
_cell_formula_units_Z   2
loop_
 _symmetry_equiv_pos_site_id
 _symmetry_equiv_pos_as_xyz
  1  'x, y, z'
loop_
 _atom_site_type_symbol
 _atom_site_label
 _atom_site_symmetry_multiplicity
 _atom_site_fract_x
 _atom_site_fract_y
 _atom_site_fract_z
 _atom_site_occupancy
  C  C0  1  0.32865400  0.67134600  0.75000000  1
  C  C1  1  0.67134600  0.32865400  0.25000000  1
  C  C2  1  0.06351400  0.16023300  0.47464500  1
  C  C3  1  0.83976700  0.93648600  0.02535500  1
  C  C4  1  0.93648600  0.83976700  0.52535500  1
  C  C5  1  0.16023300  0.06351400  0.97464500  1
  C  C6  1  0.89241100  0.32030900  0.43831200  1
  C  C7  1  0.67969100  0.10758900  0.06168800  1
  C  C8  1  0.10758900  0.67969100  0.56168800  1
  C  C9  1  0.32030900  0.89241100  0.93831200  1
  C  C10  1  0.13884100  0.10762300  0.65928300  1
  C  C11  1  0.89237700  0.86115900  0.84071700  1
  C  C12  1  0.86115900  0.89237700  0.34071700  1
  C  C13  1  0.10762300  0.13884100  0.15928300  1
  C  C14  1  0.04529300  0.25207100  0.75616200  1
  C  C15  1  0.74792900  0.95470700  0.74383800  1
  C  C16  1  0.95470700  0.74792900  0.24383800  1
  C  C17  1  0.25207100  0.04529300  0.25616200  1
  C  C18  1  0.73951500  0.49519300  0.58427500  1
  C  C19  1  0.50480700  0.26048500  0.91572500  1
  C  C20  1  0.26048500  0.50480700  0.41572500  1
  C  C21  1  0.49519300  0.73951500  0.08427500  1
  C  C22  1  0.81839500  0.46888000  0.71287700  1
  C  C23  1  0.53112000  0.18160500  0.78712300  1
  C  C24  1  0.18160500  0.53112000  0.28712300  1
  C  C25  1  0.46888000  0.81839500  0.21287700  1
  C  C26  1  0.30341600  0.42833600  0.66807000  1
  C  C27  1  0.57166400  0.69658400  0.83193000  1
  C  C28  1  0.69658400  0.57166400  0.33193000  1
  C  C29  1  0.42833600  0.30341600  0.16807000  1
  C  C30  1  0.13093000  0.47485800  0.77162400  1
  C  C31  1  0.52514200  0.86907000  0.72837600  1
  C  C32  1  0.86907000  0.52514200  0.22837600  1
  C  C33  1  0.47485800  0.13093000  0.27162400  1
  C  C34  1  0.34195300  0.90895100  0.49709200  1
  C  C35  1  0.09104900  0.65804700  0.00290800  1
  C  C36  1  0.65804700  0.09104900  0.50290800  1
  C  C37  1  0.90895100  0.34195300  0.99709200  1
  C  C38  1  0.24742600  0.51301900  0.02608100  1
  C  C39  1  0.48698100  0.75257400  0.47391900  1
  C  C40  1  0.75257400  0.48698100  0.97391900  1
  C  C41  1  0.51301900  0.24742600  0.52608100  1
  C  C42  1  0.94761400  0.29896300  0.60472800  1
  C  C43  1  0.70103700  0.05238600  0.89527200  1
  C  C44  1  0.05238600  0.70103700  0.39527200  1
  C  C45  1  0.29896300  0.94761400  0.10472800  1
  Ni  Ni46  1  0.95401200  0.24111100  0.50735900  1
  Ni  Ni47  1  0.75888900  0.04598800  0.99264100  1
  Ni  Ni48  1  0.04598800  0.75888900  0.49264100  1
  Ni  Ni49  1  0.24111100  0.95401200  0.00735900  1
  Ni  Ni50  1  0.05868000  0.21832700  0.67490000  1
  Ni  Ni51  1  0.78167300  0.94132000  0.82510000  1
  Ni  Ni52  1  0.94132000  0.78167300  0.32510000  1
  Ni  Ni53  1  0.21832700  0.05868000  0.17490000  1
  Ni  Ni54  1  0.83185500  0.43431800  0.63158800  1
  Ni  Ni55  1  0.56568200  0.16814500  0.86841200  1
  Ni  Ni56  1  0.16814500  0.56568200  0.36841200  1
  Ni  Ni57  1  0.43431800  0.83185500  0.13158800  1
  Cu  Cu58  1  0.25779000  0.90170600  0.61628000  1
  Cu  Cu59  1  0.09829400  0.74221000  0.88372000  1
  Cu  Cu60  1  0.74221000  0.09829400  0.38372000  1
  Cu  Cu61  1  0.90170600  0.25779000  0.11628000  1
  Cu  Cu62  1  0.35813000  0.47957800  0.92348400  1
  Cu  Cu63  1  0.52042200  0.64187000  0.57651600  1
  Cu  Cu64  1  0.64187000  0.52042200  0.07651600  1
  Cu  Cu65  1  0.47957800  0.35813000  0.42348400  1
  Cu  Cu66  1  0.21639100  0.52640600  0.69795900  1
  Cu  Cu67  1  0.47359400  0.78360900  0.80204100  1
  Cu  Cu68  1  0.78360900  0.47359400  0.30204100  1
  Cu  Cu69  1  0.52640600  0.21639100  0.19795900  1
  Cu  Cu70  1  0.31552300  0.03168600  0.40081400  1
  Cu  Cu71  1  0.96831400  0.68447700  0.09918600  1
  Cu  Cu72  1  0.68447700  0.96831400  0.59918600  1
  Cu  Cu73  1  0.03168600  0.31552300  0.90081400  1
  Cu  Cu74  1  0.25403200  0.43980900  0.14251700  1
  Cu  Cu75  1  0.56019100  0.74596800  0.35748300  1
  Cu  Cu76  1  0.74596800  0.56019100  0.85748300  1
  Cu  Cu77  1  0.43980900  0.25403200  0.64251700  1
