# generated using pymatgen
data_Cu18Ni5C
_symmetry_space_group_name_H-M   'P 1'
_cell_length_a   8.61176302
_cell_length_b   8.61176302
_cell_length_c   18.16369258
_cell_angle_alpha   85.69425816
_cell_angle_beta   85.69425816
_cell_angle_gamma   37.32291207
_symmetry_Int_Tables_number   1
_chemical_formula_structural   Cu18Ni5C
_chemical_formula_sum   'Cu36 Ni10 C2'
_cell_volume   814.16521617
_cell_formula_units_Z   2
loop_
 _symmetry_equiv_pos_site_id
 _symmetry_equiv_pos_as_xyz
  1  'x, y, z'
loop_
 _atom_site_type_symbol
 _atom_site_label
 _atom_site_symmetry_multiplicity
 _atom_site_fract_x
 _atom_site_fract_y
 _atom_site_fract_z
 _atom_site_occupancy
  C  C0  1  0.00000000  0.50000000  0.00000000  1
  C  C1  1  0.50000000  0.00000000  0.50000000  1
  Ni  Ni2  1  0.39545700  0.97529900  0.67008500  1
  Ni  Ni3  1  0.02470100  0.60454300  0.82991500  1
  Ni  Ni4  1  0.97529900  0.39545700  0.17008500  1
  Ni  Ni5  1  0.77732100  0.22267900  0.75000000  1
  Ni  Ni6  1  0.98500700  0.23170400  0.45461500  1
  Ni  Ni7  1  0.60454300  0.02470100  0.32991500  1
  Ni  Ni8  1  0.76829600  0.01499300  0.04538500  1
  Ni  Ni9  1  0.23170400  0.98500700  0.95461500  1
  Ni  Ni10  1  0.01499300  0.76829600  0.54538500  1
  Ni  Ni11  1  0.22267900  0.77732100  0.25000000  1
  Cu  Cu12  1  0.15193600  0.88297900  0.61541700  1
  Cu  Cu13  1  0.11702100  0.84806400  0.88458300  1
  Cu  Cu14  1  0.29618800  0.98568200  0.45716900  1
  Cu  Cu15  1  0.46232600  0.17426800  0.40699900  1
  Cu  Cu16  1  0.32488000  0.60598000  0.19093500  1
  Cu  Cu17  1  0.53767400  0.82573200  0.59300100  1
  Cu  Cu18  1  0.87910200  0.25736400  0.52675000  1
  Cu  Cu19  1  0.12491600  0.20457000  0.65674000  1
  Cu  Cu20  1  0.78635600  0.45760000  0.21464200  1
  Cu  Cu21  1  0.45760000  0.78635600  0.71464200  1
  Cu  Cu22  1  0.49408400  0.97393800  0.30530000  1
  Cu  Cu23  1  0.84806400  0.11702100  0.38458300  1
  Cu  Cu24  1  0.82573200  0.53767400  0.09300100  1
  Cu  Cu25  1  0.21364400  0.54240000  0.78535800  1
  Cu  Cu26  1  0.54240000  0.21364400  0.28535800  1
  Cu  Cu27  1  0.45809200  0.90022700  0.93386700  1
  Cu  Cu28  1  0.67512000  0.39402000  0.80906500  1
  Cu  Cu29  1  0.90022700  0.45809100  0.43386700  1
  Cu  Cu30  1  0.12089800  0.74263600  0.47325000  1
  Cu  Cu31  1  0.02606200  0.50591600  0.19470000  1
  Cu  Cu32  1  0.74263600  0.12089800  0.97325000  1
  Cu  Cu33  1  0.17426800  0.46232600  0.90699900  1
  Cu  Cu34  1  0.01431800  0.70381200  0.04283100  1
  Cu  Cu35  1  0.50591600  0.02606200  0.69470000  1
  Cu  Cu36  1  0.97393800  0.49408400  0.80530000  1
  Cu  Cu37  1  0.98568200  0.29618800  0.95716900  1
  Cu  Cu38  1  0.25736400  0.87910200  0.02675000  1
  Cu  Cu39  1  0.60598000  0.32488000  0.69093500  1
  Cu  Cu40  1  0.09977300  0.54190800  0.56613300  1
  Cu  Cu41  1  0.70381200  0.01431800  0.54283100  1
  Cu  Cu42  1  0.79543000  0.87508400  0.84326000  1
  Cu  Cu43  1  0.54190800  0.09977300  0.06613300  1
  Cu  Cu44  1  0.88297900  0.15193600  0.11541700  1
  Cu  Cu45  1  0.20457000  0.12491600  0.15674000  1
  Cu  Cu46  1  0.87508400  0.79543000  0.34326000  1
  Cu  Cu47  1  0.39402000  0.67512000  0.30906500  1
