# generated using pymatgen
data_CuNiC5
_symmetry_space_group_name_H-M   'P 1'
_cell_length_a   8.38847000
_cell_length_b   8.58192077
_cell_length_c   25.82384040
_cell_angle_alpha   94.84572628
_cell_angle_beta   92.39726592
_cell_angle_gamma   95.96516014
_symmetry_Int_Tables_number   1
_chemical_formula_structural   CuNiC5
_chemical_formula_sum   'Cu16 Ni16 C80'
_cell_volume   1839.95872574
_cell_formula_units_Z   16
loop_
 _symmetry_equiv_pos_site_id
 _symmetry_equiv_pos_as_xyz
  1  'x, y, z'
loop_
 _atom_site_type_symbol
 _atom_site_label
 _atom_site_symmetry_multiplicity
 _atom_site_fract_x
 _atom_site_fract_y
 _atom_site_fract_z
 _atom_site_occupancy
  C  C0  1  0.42292600  0.85821100  0.76518700  1
  C  C1  1  0.57707400  0.14178900  0.23481300  1
  C  C2  1  0.24967100  0.15404700  0.37182000  1
  C  C3  1  0.75032900  0.84595300  0.62818000  1
  C  C4  1  0.75175700  0.59668600  0.86244300  1
  C  C5  1  0.29159900  0.55519000  0.29122900  1
  C  C6  1  0.70840100  0.44481000  0.70877100  1
  C  C7  1  0.24824300  0.40331400  0.13755700  1
  Ni  Ni8  1  0.01759600  0.84177500  0.66297700  1
  Ni  Ni9  1  0.99258100  0.50337800  0.71389000  1
  Ni  Ni10  1  0.76561700  0.85860100  0.53671600  1
  Ni  Ni11  1  0.01988300  0.65077100  0.83485300  1
  Ni  Ni12  1  0.92925700  0.93932400  0.77787900  1
  Ni  Ni13  1  0.98011700  0.34922900  0.16514700  1
  Ni  Ni14  1  0.95519000  0.19664900  0.54454000  1
  Ni  Ni15  1  0.22964300  0.54598700  0.06275500  1
  Ni  Ni16  1  0.04481000  0.80335100  0.45546000  1
  Ni  Ni17  1  0.07074300  0.06067600  0.22212100  1
  Ni  Ni18  1  0.03718500  0.26069800  0.99138600  1
  Ni  Ni19  1  0.96281500  0.73930200  0.00861400  1
  Ni  Ni20  1  0.00741900  0.49662200  0.28611000  1
  Ni  Ni21  1  0.98240400  0.15822500  0.33702300  1
  Ni  Ni22  1  0.23438300  0.14139900  0.46328400  1
  Ni  Ni23  1  0.77035700  0.45401300  0.93724500  1
  C  C24  1  0.79491400  0.26751700  0.08602200  1
  C  C25  1  0.28737500  0.65391700  0.44809700  1
  C  C26  1  0.43905600  0.63845800  0.00110200  1
  C  C27  1  0.94334300  0.16773700  0.84729900  1
  C  C28  1  0.69338100  0.14887600  0.36501600  1
  C  C29  1  0.68105900  0.34575800  0.13758600  1
  C  C30  1  0.07809700  0.76760300  0.21634600  1
  C  C31  1  0.31894100  0.65424200  0.86241400  1
  C  C32  1  0.64226400  0.66804500  0.46213600  1
  C  C33  1  0.63991400  0.19606900  0.96466700  1
  C  C34  1  0.48961200  0.74202200  0.50121000  1
  C  C35  1  0.36008600  0.80393100  0.03533300  1
  C  C36  1  0.58689200  0.86326400  0.45581000  1
  C  C37  1  0.71262500  0.34608300  0.55190300  1
  C  C38  1  0.82766700  0.10831400  0.41674800  1
  C  C39  1  0.51038800  0.25797800  0.49879000  1
  C  C40  1  0.80705500  0.47523100  0.10149200  1
  C  C41  1  0.19294500  0.52476900  0.89850800  1
  C  C42  1  0.88186500  0.75220100  0.28679300  1
  C  C43  1  0.88488100  0.81449300  0.19254400  1
  C  C44  1  0.76483200  0.95801700  0.36530700  1
  C  C45  1  0.75099100  0.79637100  0.07276100  1
  C  C46  1  0.20508600  0.73248300  0.91397800  1
  C  C47  1  0.56094400  0.36154200  0.99889800  1
  C  C48  1  0.08166000  0.05256300  0.91899900  1
  C  C49  1  0.25767100  0.40543900  0.69423700  1
  C  C50  1  0.92190300  0.23239700  0.78365400  1
  C  C51  1  0.17233300  0.89168600  0.58325200  1
  C  C52  1  0.10691600  0.52073300  0.43931200  1
  C  C53  1  0.22832900  0.05548700  0.97220500  1
  C  C54  1  0.41310800  0.13673600  0.54419000  1
  C  C55  1  0.10033800  0.30988800  0.64903500  1
  C  C56  1  0.05665700  0.83226300  0.15270100  1
  C  C57  1  0.11511900  0.18550700  0.80745600  1
  C  C58  1  0.35773600  0.33195500  0.53786400  1
  C  C59  1  0.24900900  0.20362900  0.92723900  1
  C  C60  1  0.82524800  0.39722500  0.49637700  1
  C  C61  1  0.89966200  0.69011200  0.35096500  1
  C  C62  1  0.23516800  0.04198300  0.63469300  1
  C  C63  1  0.74232900  0.59456100  0.30576300  1
  C  C64  1  0.50445500  0.70063800  0.06745300  1
  C  C65  1  0.30661900  0.85112400  0.63498400  1
  C  C66  1  0.11813500  0.24779900  0.71320700  1
  C  C67  1  0.91834000  0.94743700  0.08100100  1
  C  C68  1  0.49554500  0.29936200  0.93254700  1
  C  C69  1  0.77167100  0.94451300  0.02779500  1
  C  C70  1  0.17475200  0.60277500  0.50362300  1
  C  C71  1  0.89308400  0.47926700  0.56068800  1
  Cu  Cu72  1  0.40354200  0.68899100  0.03861700  1
  Cu  Cu73  1  0.20482500  0.91536500  0.62491800  1
  Cu  Cu74  1  0.86598800  0.65158200  0.31006800  1
  Cu  Cu75  1  0.13401200  0.34841800  0.68993200  1
  Cu  Cu76  1  0.16360400  0.12746500  0.94712500  1
  Cu  Cu77  1  0.79517500  0.08463500  0.37508200  1
  Cu  Cu78  1  0.98492500  0.15627900  0.80769100  1
  Cu  Cu79  1  0.79372600  0.36085700  0.11764800  1
  Cu  Cu80  1  0.83202200  0.37577600  0.53737400  1
  Cu  Cu81  1  0.59645800  0.31100900  0.96138300  1
  Cu  Cu82  1  0.60199800  0.77306300  0.48246100  1
  Cu  Cu83  1  0.16797800  0.62422400  0.46262600  1
  Cu  Cu84  1  0.39800200  0.22693700  0.51753900  1
  Cu  Cu85  1  0.01507500  0.84372100  0.19230900  1
  Cu  Cu86  1  0.83639600  0.87253500  0.05287500  1
  Cu  Cu87  1  0.20627400  0.63914300  0.88235200  1
  C  C88  1  0.33383600  0.87556900  0.33462500  1
  C  C89  1  0.44256800  0.58249800  0.20578300  1
  C  C90  1  0.44607300  0.40118300  0.35745700  1
  C  C91  1  0.55392700  0.59881700  0.64254300  1
  C  C92  1  0.32387100  0.12649000  0.10531500  1
  C  C93  1  0.66616400  0.12443100  0.66537500  1
  C  C94  1  0.55743200  0.41750200  0.79421700  1
  C  C95  1  0.67612900  0.87351000  0.89468500  1
  C  C96  1  0.90567600  0.34219100  0.32179700  1
  C  C97  1  0.06046000  0.23334800  0.48478700  1
  C  C98  1  0.10303700  0.55652500  0.77673300  1
  C  C99  1  0.07271500  0.95944000  0.72447400  1
  C  C100  1  0.89696300  0.44347500  0.22326700  1
  C  C101  1  0.93572900  0.33295400  0.93480300  1
  C  C102  1  0.19448600  0.42964700  0.00035900  1
  C  C103  1  0.79764300  0.05072500  0.51176500  1
  C  C104  1  0.09432400  0.65780900  0.67820300  1
  C  C105  1  0.80551400  0.57035300  0.99964100  1
  C  C106  1  0.92779700  0.14446400  0.17842800  1
  C  C107  1  0.07220300  0.85553600  0.82157200  1
  C  C108  1  0.93954000  0.76665200  0.51521300  1
  C  C109  1  0.06427100  0.66704600  0.06519700  1
  C  C110  1  0.92728500  0.04056000  0.27552600  1
  C  C111  1  0.20235700  0.94927500  0.48823500  1
