# generated using pymatgen
data_CuNiC3
_symmetry_space_group_name_H-M   'P 1'
_cell_length_a   6.75970391
_cell_length_b   6.75970391
_cell_length_c   5.36694933
_cell_angle_alpha   72.92769901
_cell_angle_beta   72.92769901
_cell_angle_gamma   81.85455495
_symmetry_Int_Tables_number   1
_chemical_formula_structural   CuNiC3
_chemical_formula_sum   'Cu4 Ni4 C12'
_cell_volume   223.68517189
_cell_formula_units_Z   4
loop_
 _symmetry_equiv_pos_site_id
 _symmetry_equiv_pos_as_xyz
  1  'x, y, z'
loop_
 _atom_site_type_symbol
 _atom_site_label
 _atom_site_symmetry_multiplicity
 _atom_site_fract_x
 _atom_site_fract_y
 _atom_site_fract_z
 _atom_site_occupancy
  Ni  Ni0  1  0.26109600  0.73890400  0.25000000  1
  Ni  Ni1  1  0.89915500  0.10084500  0.25000000  1
  Ni  Ni2  1  0.73890400  0.26109600  0.75000000  1
  Ni  Ni3  1  0.10084500  0.89915500  0.75000000  1
  Cu  Cu4  1  0.61914200  0.79735500  0.80144300  1
  Cu  Cu5  1  0.20264500  0.38085800  0.69855700  1
  Cu  Cu6  1  0.79735500  0.61914200  0.30144300  1
  Cu  Cu7  1  0.38085800  0.20264500  0.19855700  1
  C  C8  1  0.68550300  0.62021900  0.62565900  1
  C  C9  1  0.62021900  0.68550300  0.12565900  1
  C  C10  1  0.86438900  0.37630500  0.34379500  1
  C  C11  1  0.62369500  0.13561100  0.15620500  1
  C  C12  1  0.31449700  0.37978100  0.37434100  1
  C  C13  1  0.78883500  0.97429500  0.66583400  1
  C  C14  1  0.37978100  0.31449700  0.87434100  1
  C  C15  1  0.21116500  0.02570500  0.33416600  1
  C  C16  1  0.37630500  0.86438900  0.84379500  1
  C  C17  1  0.13561100  0.62369500  0.65620500  1
  C  C18  1  0.97429500  0.78883500  0.16583400  1
  C  C19  1  0.02570500  0.21116500  0.83416600  1
