# generated using pymatgen
data_Cu8Ni2C11
_symmetry_space_group_name_H-M   'P 1'
_cell_length_a   18.41375500
_cell_length_b   8.26254200
_cell_length_c   15.12845326
_cell_angle_alpha   57.11030764
_cell_angle_beta   90.00000000
_cell_angle_gamma   90.00000000
_symmetry_Int_Tables_number   1
_chemical_formula_structural   Cu8Ni2C11
_chemical_formula_sum   'Cu32 Ni8 C44'
_cell_volume   1932.78616560
_cell_formula_units_Z   4
loop_
 _symmetry_equiv_pos_site_id
 _symmetry_equiv_pos_as_xyz
  1  'x, y, z'
loop_
 _atom_site_type_symbol
 _atom_site_label
 _atom_site_symmetry_multiplicity
 _atom_site_fract_x
 _atom_site_fract_y
 _atom_site_fract_z
 _atom_site_occupancy
  Ni  Ni0  1  0.54869500  0.98117800  0.89921100  1
  Ni  Ni1  1  0.96713300  0.48317700  0.38684700  1
  Ni  Ni2  1  0.03286700  0.51682300  0.61315300  1
  Ni  Ni3  1  0.95130500  0.98117800  0.39921100  1
  Ni  Ni4  1  0.04869500  0.01882200  0.60078900  1
  Ni  Ni5  1  0.53286700  0.48317700  0.88684700  1
  Ni  Ni6  1  0.46713300  0.51682300  0.11315300  1
  Ni  Ni7  1  0.45130500  0.01882200  0.10078900  1
  Cu  Cu8  1  0.08565400  0.88080800  0.99042000  1
  Cu  Cu9  1  0.39340900  0.36471200  0.76128700  1
  Cu  Cu10  1  0.58965000  0.66073800  0.46347200  1
  Cu  Cu11  1  0.20459400  0.59749600  0.77398600  1
  Cu  Cu12  1  0.10659100  0.36471200  0.26128700  1
  Cu  Cu13  1  0.75533300  0.37367000  0.49844900  1
  Cu  Cu14  1  0.70459400  0.40250400  0.72601400  1
  Cu  Cu15  1  0.24466700  0.62633000  0.50155100  1
  Cu  Cu16  1  0.77108500  0.88374200  0.24555000  1
  Cu  Cu17  1  0.22891500  0.11625800  0.75445000  1
  Cu  Cu18  1  0.29540600  0.59749600  0.27398600  1
  Cu  Cu19  1  0.25336200  0.11405800  0.00168200  1
  Cu  Cu20  1  0.41434600  0.88080800  0.49042000  1
  Cu  Cu21  1  0.10591500  0.85998100  0.25891300  1
  Cu  Cu22  1  0.91035000  0.66073800  0.96347200  1
  Cu  Cu23  1  0.72891500  0.88374200  0.74555000  1
  Cu  Cu24  1  0.60591500  0.14001900  0.24108700  1
  Cu  Cu25  1  0.74466700  0.37367000  0.99844900  1
  Cu  Cu26  1  0.08965000  0.33926200  0.03652800  1
  Cu  Cu27  1  0.75336200  0.88594200  0.49831800  1
  Cu  Cu28  1  0.58565400  0.11919200  0.50958000  1
  Cu  Cu29  1  0.74663800  0.88594200  0.99831800  1
  Cu  Cu30  1  0.27108500  0.11625800  0.25445000  1
  Cu  Cu31  1  0.25533300  0.62633000  0.00155100  1
  Cu  Cu32  1  0.41035000  0.33926200  0.53652800  1
  Cu  Cu33  1  0.89340900  0.63528800  0.73871300  1
  Cu  Cu34  1  0.60659100  0.63528800  0.23871300  1
  Cu  Cu35  1  0.91434600  0.11919200  0.00958000  1
  Cu  Cu36  1  0.24663800  0.11405800  0.50168200  1
  Cu  Cu37  1  0.89408500  0.14001900  0.74108700  1
  Cu  Cu38  1  0.39408500  0.85998100  0.75891300  1
  Cu  Cu39  1  0.79540600  0.40250400  0.22601400  1
  C  C40  1  0.08945400  0.37937900  0.50106000  1
  C  C41  1  0.06941700  0.33357900  0.80241000  1
  C  C42  1  0.41245300  0.87911900  0.98757300  1
  C  C43  1  0.43175100  0.81368800  0.29500100  1
  C  C44  1  0.56824900  0.18631200  0.70499900  1
  C  C45  1  0.56941700  0.66642100  0.69759000  1
  C  C46  1  0.43058300  0.33357900  0.30241000  1
  C  C47  1  0.93175100  0.18631200  0.20499900  1
  C  C48  1  0.08754700  0.87911900  0.48757300  1
  C  C49  1  0.91054600  0.62062100  0.49894000  1
  C  C50  1  0.06824900  0.81368800  0.79500100  1
  C  C51  1  0.58945400  0.62062100  0.99894000  1
  C  C52  1  0.58754700  0.12088100  0.01242700  1
  C  C53  1  0.91245300  0.12088100  0.51242700  1
  C  C54  1  0.41054600  0.37937900  0.00106000  1
  C  C55  1  0.93058300  0.66642100  0.19759000  1
  C  C56  1  0.86821700  0.99098500  0.91849900  1
  C  C57  1  0.70458600  0.06099000  0.56915900  1
  C  C58  1  0.22565300  0.32063200  0.31542400  1
  C  C59  1  0.30122100  0.42075400  0.45310800  1
  C  C60  1  0.77617600  0.20884300  0.68536700  1
  C  C61  1  0.29541400  0.93901000  0.43084100  1
  C  C62  1  0.22382400  0.79115700  0.31463300  1
  C  C63  1  0.86189600  0.84011500  0.78781000  1
  C  C64  1  0.69877900  0.57924600  0.54689200  1
  C  C65  1  0.79541400  0.06099000  0.06915900  1
  C  C66  1  0.77434700  0.67936800  0.68457600  1
  C  C67  1  0.20458600  0.93901000  0.93084100  1
  C  C68  1  0.72565300  0.67936800  0.18457600  1
  C  C69  1  0.36189600  0.15988500  0.71219000  1
  C  C70  1  0.80122100  0.57924600  0.04689200  1
  C  C71  1  0.13810400  0.15988500  0.21219000  1
  C  C72  1  0.72382400  0.20884300  0.18536700  1
  C  C73  1  0.27434700  0.32063200  0.81542400  1
  C  C74  1  0.63178300  0.99098500  0.41849900  1
  C  C75  1  0.36772800  0.57118400  0.58493900  1
  C  C76  1  0.63227200  0.42881600  0.41506100  1
  C  C77  1  0.13178300  0.00901500  0.08150100  1
  C  C78  1  0.63810400  0.84011500  0.28781000  1
  C  C79  1  0.36821700  0.00901500  0.58150100  1
  C  C80  1  0.86772800  0.42881600  0.91506100  1
  C  C81  1  0.27617600  0.79115700  0.81463300  1
  C  C82  1  0.13227200  0.57118400  0.08493900  1
  C  C83  1  0.19877900  0.42075400  0.95310800  1
