# generated using pymatgen
data_Cu6Ni2C3
_symmetry_space_group_name_H-M   'P 1'
_cell_length_a   8.42864300
_cell_length_b   8.42864300
_cell_length_c   19.94422600
_cell_angle_alpha   90.00000000
_cell_angle_beta   90.00000000
_cell_angle_gamma   90.00000000
_symmetry_Int_Tables_number   1
_chemical_formula_structural   Cu6Ni2C3
_chemical_formula_sum   'Cu24 Ni8 C12'
_cell_volume   1416.87815865
_cell_formula_units_Z   4
loop_
 _symmetry_equiv_pos_site_id
 _symmetry_equiv_pos_as_xyz
  1  'x, y, z'
loop_
 _atom_site_type_symbol
 _atom_site_label
 _atom_site_symmetry_multiplicity
 _atom_site_fract_x
 _atom_site_fract_y
 _atom_site_fract_z
 _atom_site_occupancy
  C  C0  1  0.00000000  0.50000000  0.32110400  1
  C  C1  1  0.00000000  0.50000000  0.02588800  1
  C  C2  1  0.50000000  0.00000000  0.17889600  1
  C  C3  1  0.00000000  0.50000000  0.82110400  1
  C  C4  1  0.50000000  0.00000000  0.67889600  1
  C  C5  1  0.50000000  0.00000000  0.97411200  1
  C  C6  1  0.50000000  0.00000000  0.47411200  1
  C  C7  1  0.00000000  0.50000000  0.52588800  1
  C  C8  1  0.00000000  0.00000000  0.00000000  1
  C  C9  1  0.50000000  0.50000000  0.50000000  1
  C  C10  1  0.00000000  0.00000000  0.50000000  1
  C  C11  1  0.50000000  0.50000000  0.00000000  1
  Ni  Ni12  1  0.00000000  0.00000000  0.33826500  1
  Ni  Ni13  1  0.00000000  0.00000000  0.16173500  1
  Ni  Ni14  1  0.50000000  0.50000000  0.83826500  1
  Ni  Ni15  1  0.50000000  0.50000000  0.66173500  1
  Ni  Ni16  1  0.50000000  0.50000000  0.33826500  1
  Ni  Ni17  1  0.50000000  0.50000000  0.16173500  1
  Ni  Ni18  1  0.00000000  0.00000000  0.83826500  1
  Ni  Ni19  1  0.00000000  0.00000000  0.66173500  1
  Cu  Cu20  1  0.66278700  0.33721300  0.25000000  1
  Cu  Cu21  1  0.67752800  0.34455000  0.91762300  1
  Cu  Cu22  1  0.32247200  0.34455000  0.41762300  1
  Cu  Cu23  1  0.84455000  0.82247200  0.91762300  1
  Cu  Cu24  1  0.33721300  0.66278700  0.25000000  1
  Cu  Cu25  1  0.84455000  0.17752800  0.41762300  1
  Cu  Cu26  1  0.65545000  0.32247200  0.58237700  1
  Cu  Cu27  1  0.33721300  0.33721300  0.75000000  1
  Cu  Cu28  1  0.34455000  0.32247200  0.08237700  1
  Cu  Cu29  1  0.83721300  0.16278700  0.75000000  1
  Cu  Cu30  1  0.65545000  0.67752800  0.08237700  1
  Cu  Cu31  1  0.66278700  0.66278700  0.75000000  1
  Cu  Cu32  1  0.82247200  0.15545000  0.08237700  1
  Cu  Cu33  1  0.67752800  0.65545000  0.41762300  1
  Cu  Cu34  1  0.16278700  0.83721300  0.75000000  1
  Cu  Cu35  1  0.83721300  0.83721300  0.25000000  1
  Cu  Cu36  1  0.34455000  0.67752800  0.58237700  1
  Cu  Cu37  1  0.17752800  0.84455000  0.08237700  1
  Cu  Cu38  1  0.32247200  0.65545000  0.91762300  1
  Cu  Cu39  1  0.16278700  0.16278700  0.25000000  1
  Cu  Cu40  1  0.17752800  0.15545000  0.58237700  1
  Cu  Cu41  1  0.15545000  0.82247200  0.41762300  1
  Cu  Cu42  1  0.82247200  0.84455000  0.58237700  1
  Cu  Cu43  1  0.15545000  0.17752800  0.91762300  1
