# generated using pymatgen
data_Cu2Ni2C7
_symmetry_space_group_name_H-M   'P 1'
_cell_length_a   5.61793500
_cell_length_b   22.39352600
_cell_length_c   22.92381200
_cell_angle_alpha   90.00000000
_cell_angle_beta   90.00000000
_cell_angle_gamma   90.00000000
_symmetry_Int_Tables_number   1
_chemical_formula_structural   Cu2Ni2C7
_chemical_formula_sum   'Cu32 Ni32 C112'
_cell_volume   2883.93873045
_cell_formula_units_Z   16
loop_
 _symmetry_equiv_pos_site_id
 _symmetry_equiv_pos_as_xyz
  1  'x, y, z'
loop_
 _atom_site_type_symbol
 _atom_site_label
 _atom_site_symmetry_multiplicity
 _atom_site_fract_x
 _atom_site_fract_y
 _atom_site_fract_z
 _atom_site_occupancy
  Ni  Ni0  1  0.48960400  0.82079400  0.30647100  1
  Ni  Ni1  1  0.54436800  0.93068600  0.94447600  1
  Ni  Ni2  1  0.02097700  0.94377400  0.31228000  1
  Ni  Ni3  1  0.04436800  0.56931400  0.44447600  1
  Ni  Ni4  1  0.95563200  0.06931400  0.44447600  1
  Ni  Ni5  1  0.48960400  0.67920600  0.69352900  1
  Ni  Ni6  1  0.98960400  0.67920600  0.80647100  1
  Ni  Ni7  1  0.04436800  0.93068600  0.55552400  1
  Ni  Ni8  1  0.49756700  0.19583700  0.19355500  1
  Ni  Ni9  1  0.99756700  0.30416300  0.69355500  1
  Ni  Ni10  1  0.01039600  0.32079400  0.19352900  1
  Ni  Ni11  1  0.45563200  0.43068600  0.94447600  1
  Ni  Ni12  1  0.49756700  0.30416300  0.80644500  1
  Ni  Ni13  1  0.00243300  0.69583700  0.30644500  1
  Ni  Ni14  1  0.98960400  0.82079400  0.19352900  1
  Ni  Ni15  1  0.45563200  0.06931400  0.05552400  1
  Ni  Ni16  1  0.01039600  0.17920600  0.80647100  1
  Ni  Ni17  1  0.02097700  0.55622600  0.68772000  1
  Ni  Ni18  1  0.00243300  0.80416300  0.69355500  1
  Ni  Ni19  1  0.95563200  0.43068600  0.55552400  1
  Ni  Ni20  1  0.50243300  0.80416300  0.80644500  1
  Ni  Ni21  1  0.99756700  0.19583700  0.30644500  1
  Ni  Ni22  1  0.52097700  0.55622600  0.81228000  1
  Ni  Ni23  1  0.97902300  0.44377400  0.31228000  1
  Ni  Ni24  1  0.97902300  0.05622600  0.68772000  1
  Ni  Ni25  1  0.51039600  0.32079400  0.30647100  1
  Ni  Ni26  1  0.50243300  0.69583700  0.19355500  1
  Ni  Ni27  1  0.47902300  0.44377400  0.18772000  1
  Ni  Ni28  1  0.47902300  0.05622600  0.81228000  1
  Ni  Ni29  1  0.51039600  0.17920600  0.69352900  1
  Ni  Ni30  1  0.54436800  0.56931400  0.05552400  1
  Ni  Ni31  1  0.52097700  0.94377400  0.18772000  1
  Cu  Cu32  1  0.98801700  0.68854900  0.56742400  1
  Cu  Cu33  1  0.07591500  0.93388300  0.81142800  1
  Cu  Cu34  1  0.42408500  0.06611700  0.31142800  1
  Cu  Cu35  1  0.49986900  0.05673700  0.56406500  1
  Cu  Cu36  1  0.49986900  0.44326300  0.43593500  1
  Cu  Cu37  1  0.49593000  0.30666100  0.56636100  1
  Cu  Cu38  1  0.92408500  0.06611700  0.18857200  1
  Cu  Cu39  1  0.49593000  0.19333900  0.43363900  1
  Cu  Cu40  1  0.01198300  0.18854900  0.56742400  1
  Cu  Cu41  1  0.42408500  0.43388300  0.68857200  1
  Cu  Cu42  1  0.50013100  0.94326300  0.43593500  1
  Cu  Cu43  1  0.50407000  0.69333900  0.43363900  1
  Cu  Cu44  1  0.99986900  0.05673700  0.93593500  1
  Cu  Cu45  1  0.50013100  0.55673700  0.56406500  1
  Cu  Cu46  1  0.92408500  0.43388300  0.81142800  1
  Cu  Cu47  1  0.00013100  0.55673700  0.93593500  1
  Cu  Cu48  1  0.50407000  0.80666100  0.56636100  1
  Cu  Cu49  1  0.51198300  0.18854900  0.93257600  1
  Cu  Cu50  1  0.48801700  0.68854900  0.93257600  1
  Cu  Cu51  1  0.98801700  0.81145100  0.43257600  1
  Cu  Cu52  1  0.99986900  0.44326300  0.06406500  1
  Cu  Cu53  1  0.48801700  0.81145100  0.06742400  1
  Cu  Cu54  1  0.07591500  0.56611700  0.18857200  1
  Cu  Cu55  1  0.99593000  0.30666100  0.93363900  1
  Cu  Cu56  1  0.57591500  0.56611700  0.31142800  1
  Cu  Cu57  1  0.99593000  0.19333900  0.06636100  1
  Cu  Cu58  1  0.00407000  0.80666100  0.93363900  1
  Cu  Cu59  1  0.51198300  0.31145100  0.06742400  1
  Cu  Cu60  1  0.00407000  0.69333900  0.06636100  1
  Cu  Cu61  1  0.00013100  0.94326300  0.06406500  1
  Cu  Cu62  1  0.57591500  0.93388300  0.68857200  1
  Cu  Cu63  1  0.01198300  0.31145100  0.43257600  1
  C  C64  1  0.69689500  0.63266000  0.26678700  1
  C  C65  1  0.28214600  0.14251500  0.97382200  1
  C  C66  1  0.75526400  0.00922700  0.53057700  1
  C  C67  1  0.81918900  0.27604500  0.86872600  1
  C  C68  1  0.36323400  0.93815000  0.85606800  1
  C  C69  1  0.13676600  0.06185000  0.35606800  1
  C  C70  1  0.74389200  0.85663700  0.53457500  1
  C  C71  1  0.21196900  0.24480400  0.74932300  1
  C  C72  1  0.81124100  0.27425800  0.37502600  1
  C  C73  1  0.74473600  0.50922700  0.96942300  1
  C  C74  1  0.71196900  0.24480400  0.75067700  1
  C  C75  1  0.78803100  0.75519600  0.25067700  1
  C  C76  1  0.15363400  0.36872300  0.38216300  1
  C  C77  1  0.75526400  0.49077300  0.46942300  1
  C  C78  1  0.20558700  0.62261600  0.74180100  1
  C  C79  1  0.19689500  0.86734000  0.76678700  1
  C  C80  1  0.34636600  0.86872300  0.11783700  1
  C  C81  1  0.31212500  0.63654700  0.39279800  1
  C  C82  1  0.28803100  0.74480400  0.75067700  1
  C  C83  1  0.18787500  0.13654700  0.10720200  1
  C  C84  1  0.21785400  0.64251500  0.52617800  1
  C  C85  1  0.68875900  0.77425800  0.12497400  1
  C  C86  1  0.18081100  0.77604500  0.86872600  1
  C  C87  1  0.68875900  0.72574200  0.87502600  1
  C  C88  1  0.31390700  0.50516200  0.39862700  1
  C  C89  1  0.31124100  0.22574200  0.87502600  1
  C  C90  1  0.31390700  0.99483800  0.60137300  1
  C  C91  1  0.70540200  0.50414200  0.26163100  1
  C  C92  1  0.79441300  0.37738400  0.25819900  1
  C  C93  1  0.31124100  0.27425800  0.12497400  1
  C  C94  1  0.29441300  0.12261600  0.75819900  1
  C  C95  1  0.84636600  0.86872300  0.38216300  1
  C  C96  1  0.70540200  0.99585800  0.73836900  1
  C  C97  1  0.75610800  0.14336300  0.03457500  1
  C  C98  1  0.13819000  0.42178000  0.13764300  1
  C  C99  1  0.68081100  0.77604500  0.63127400  1
  C  C100  1  0.13676600  0.43815000  0.64393200  1
  C  C101  1  0.20540200  0.99585800  0.76163100  1
  C  C102  1  0.86181000  0.92178000  0.13764300  1
  C  C103  1  0.86323400  0.93815000  0.64393200  1
  C  C104  1  0.19689500  0.63266000  0.23321300  1
  C  C105  1  0.31212500  0.86345300  0.60720200  1
  C  C106  1  0.79459800  0.49585800  0.76163100  1
  C  C107  1  0.86323400  0.56185000  0.35606800  1
  C  C108  1  0.78214600  0.14251500  0.52617800  1
  C  C109  1  0.69689500  0.86734000  0.73321300  1
  C  C110  1  0.24389200  0.64336300  0.03457500  1
  C  C111  1  0.13819000  0.07822000  0.86235700  1
  C  C112  1  0.71785400  0.64251500  0.97382200  1
  C  C113  1  0.28214600  0.35748500  0.02617800  1
  C  C114  1  0.79441300  0.12261600  0.74180100  1
  C  C115  1  0.18609300  0.00516200  0.10137300  1
  C  C116  1  0.31918900  0.22395500  0.36872600  1
  C  C117  1  0.70558700  0.87738400  0.24180100  1
  C  C118  1  0.63819000  0.42178000  0.36235700  1
  C  C119  1  0.21196900  0.25519600  0.25067700  1
  C  C120  1  0.18081100  0.72395500  0.13127400  1
  C  C121  1  0.15363400  0.13127700  0.61783700  1
  C  C122  1  0.20540200  0.50414200  0.23836900  1
  C  C123  1  0.21785400  0.85748500  0.47382200  1
  C  C124  1  0.63819000  0.07822000  0.63764300  1
  C  C125  1  0.79459800  0.00414200  0.23836900  1
  C  C126  1  0.70558700  0.62261600  0.75819900  1
  C  C127  1  0.86181000  0.57822000  0.86235700  1
  C  C128  1  0.84636600  0.63127700  0.61783700  1
  C  C129  1  0.36181000  0.92178000  0.36235700  1
  C  C130  1  0.25526400  0.00922700  0.96942300  1
  C  C131  1  0.63676600  0.43815000  0.85606800  1
  C  C132  1  0.65363400  0.13127700  0.88216300  1
  C  C133  1  0.68609300  0.49483800  0.60137300  1
  C  C134  1  0.25610800  0.35663700  0.53457500  1
  C  C135  1  0.18875900  0.72574200  0.62497400  1
  C  C136  1  0.24473600  0.50922700  0.53057700  1
  C  C137  1  0.78214600  0.35748500  0.47382200  1
  C  C138  1  0.29441300  0.37738400  0.24180100  1
  C  C139  1  0.18787500  0.36345300  0.89279800  1
  C  C140  1  0.65363400  0.36872300  0.11783700  1
  C  C141  1  0.68081100  0.72395500  0.36872600  1
  C  C142  1  0.68787500  0.36345300  0.60720200  1
  C  C143  1  0.18875900  0.77425800  0.37502600  1
  C  C144  1  0.74473600  0.99077300  0.03057700  1
  C  C145  1  0.30310500  0.13266000  0.26678700  1
  C  C146  1  0.80310500  0.36734000  0.76678700  1
  C  C147  1  0.24389200  0.85663700  0.96542500  1
  C  C148  1  0.31918900  0.27604500  0.63127400  1
  C  C149  1  0.71196900  0.25519600  0.24932300  1
  C  C150  1  0.34636600  0.63127700  0.88216300  1
  C  C151  1  0.25610800  0.14336300  0.46542500  1
  C  C152  1  0.81390700  0.50516200  0.10137300  1
  C  C153  1  0.81390700  0.99483800  0.89862700  1
  C  C154  1  0.18609300  0.49483800  0.89862700  1
  C  C155  1  0.28803100  0.75519600  0.24932300  1
  C  C156  1  0.74389200  0.64336300  0.46542500  1
  C  C157  1  0.25526400  0.49077300  0.03057700  1
  C  C158  1  0.81124100  0.22574200  0.62497400  1
  C  C159  1  0.63676600  0.06185000  0.14393200  1
  C  C160  1  0.81212500  0.86345300  0.89279800  1
  C  C161  1  0.24473600  0.99077300  0.46942300  1
  C  C162  1  0.68609300  0.00516200  0.39862700  1
  C  C163  1  0.75610800  0.35663700  0.96542500  1
  C  C164  1  0.30310500  0.36734000  0.73321300  1
  C  C165  1  0.36323400  0.56185000  0.14393200  1
  C  C166  1  0.29459800  0.00414200  0.26163100  1
  C  C167  1  0.29459800  0.49585800  0.73836900  1
  C  C168  1  0.81918900  0.22395500  0.13127400  1
  C  C169  1  0.78803100  0.74480400  0.74932300  1
  C  C170  1  0.80310500  0.13266000  0.23321300  1
  C  C171  1  0.71785400  0.85748500  0.02617800  1
  C  C172  1  0.68787500  0.13654700  0.39279800  1
  C  C173  1  0.20558700  0.87738400  0.25819900  1
  C  C174  1  0.81212500  0.63654700  0.10720200  1
  C  C175  1  0.36181000  0.57822000  0.63764300  1
