# generated using pymatgen
data_Cu2Ni3C10
_symmetry_space_group_name_H-M   'P 1'
_cell_length_a   6.47261725
_cell_length_b   6.47261725
_cell_length_c   8.37113463
_cell_angle_alpha   51.54709795
_cell_angle_beta   51.54709795
_cell_angle_gamma   49.00051296
_symmetry_Int_Tables_number   1
_chemical_formula_structural   Cu2Ni3C10
_chemical_formula_sum   'Cu2 Ni3 C10'
_cell_volume   193.22956300
_cell_formula_units_Z   1
loop_
 _symmetry_equiv_pos_site_id
 _symmetry_equiv_pos_as_xyz
  1  'x, y, z'
loop_
 _atom_site_type_symbol
 _atom_site_label
 _atom_site_symmetry_multiplicity
 _atom_site_fract_x
 _atom_site_fract_y
 _atom_site_fract_z
 _atom_site_occupancy
  Ni  Ni0  1  0.10228800  0.10228800  0.59575500  1
  Ni  Ni1  1  0.50000000  0.50000000  0.00000000  1
  Ni  Ni2  1  0.89771200  0.89771200  0.40424500  1
  Cu  Cu3  1  0.30322000  0.30322000  0.79415400  1
  Cu  Cu4  1  0.69678000  0.69678000  0.20584600  1
  C  C5  1  0.55297800  0.03719100  0.29155300  1
  C  C6  1  0.96280900  0.44702200  0.70844700  1
  C  C7  1  0.03719100  0.55297800  0.29155300  1
  C  C8  1  0.35506300  0.85527600  0.10644100  1
  C  C9  1  0.44702200  0.96280900  0.70844700  1
  C  C10  1  0.73377900  0.26622100  0.50000000  1
  C  C11  1  0.85527600  0.35506300  0.10644100  1
  C  C12  1  0.14472400  0.64493700  0.89355900  1
  C  C13  1  0.26622100  0.73377900  0.50000000  1
  C  C14  1  0.64493700  0.14472400  0.89355900  1
