# generated using pymatgen
data_Cu2Ni4C
_symmetry_space_group_name_H-M   'P 1'
_cell_length_a   6.04351249
_cell_length_b   6.04351249
_cell_length_c   11.42165300
_cell_angle_alpha   90.00000000
_cell_angle_beta   90.00000000
_cell_angle_gamma   115.10333991
_symmetry_Int_Tables_number   1
_chemical_formula_structural   Cu2Ni4C
_chemical_formula_sum   'Cu8 Ni16 C4'
_cell_volume   377.76124414
_cell_formula_units_Z   4
loop_
 _symmetry_equiv_pos_site_id
 _symmetry_equiv_pos_as_xyz
  1  'x, y, z'
loop_
 _atom_site_type_symbol
 _atom_site_label
 _atom_site_symmetry_multiplicity
 _atom_site_fract_x
 _atom_site_fract_y
 _atom_site_fract_z
 _atom_site_occupancy
  C  C0  1  0.21498900  0.78501100  0.25000000  1
  C  C1  1  0.78501100  0.21498900  0.75000000  1
  C  C2  1  0.65149000  0.65149000  0.50000000  1
  C  C3  1  0.34851000  0.34851000  0.00000000  1
  Ni  Ni4  1  0.29894300  0.72521900  0.71766500  1
  Ni  Ni5  1  0.27478100  0.70105700  0.78233500  1
  Ni  Ni6  1  0.70105700  0.27478100  0.21766500  1
  Ni  Ni7  1  0.72521900  0.29894300  0.28233500  1
  Ni  Ni8  1  0.89000100  0.61944800  0.45970600  1
  Ni  Ni9  1  0.38055200  0.10999900  0.04029400  1
  Ni  Ni10  1  0.10999900  0.38055200  0.95970600  1
  Ni  Ni11  1  0.61944800  0.89000100  0.54029400  1
  Ni  Ni12  1  0.05112100  0.14995100  0.14482200  1
  Ni  Ni13  1  0.85004900  0.94887900  0.35517800  1
  Ni  Ni14  1  0.94887900  0.85004900  0.64482200  1
  Ni  Ni15  1  0.14995100  0.05112100  0.85517800  1
  Ni  Ni16  1  0.77700400  0.88161600  0.30197700  1
  Ni  Ni17  1  0.11838400  0.22299600  0.19802300  1
  Ni  Ni18  1  0.22299600  0.11838400  0.80197700  1
  Ni  Ni19  1  0.88161600  0.77700400  0.69802300  1
  Cu  Cu20  1  0.37423600  0.48245200  0.39264600  1
  Cu  Cu21  1  0.51754800  0.62576400  0.10735400  1
  Cu  Cu22  1  0.62576400  0.51754800  0.89264600  1
  Cu  Cu23  1  0.48245200  0.37423600  0.60735400  1
  Cu  Cu24  1  0.29685500  0.19845300  0.59244300  1
  Cu  Cu25  1  0.80154700  0.70314500  0.90755700  1
  Cu  Cu26  1  0.70314500  0.80154700  0.09244300  1
  Cu  Cu27  1  0.19845300  0.29685500  0.40755700  1
