# generated using pymatgen
data_Cu3NiC
_symmetry_space_group_name_H-M   'P 1'
_cell_length_a   4.91782335
_cell_length_b   4.91782335
_cell_length_c   5.47371268
_cell_angle_alpha   71.71716616
_cell_angle_beta   71.71716616
_cell_angle_gamma   79.70982189
_symmetry_Int_Tables_number   1
_chemical_formula_structural   Cu3NiC
_chemical_formula_sum   'Cu6 Ni2 C2'
_cell_volume   118.88023145
_cell_formula_units_Z   2
loop_
 _symmetry_equiv_pos_site_id
 _symmetry_equiv_pos_as_xyz
  1  'x, y, z'
loop_
 _atom_site_type_symbol
 _atom_site_label
 _atom_site_symmetry_multiplicity
 _atom_site_fract_x
 _atom_site_fract_y
 _atom_site_fract_z
 _atom_site_occupancy
  C  C0  1  0.00000000  0.00000000  0.50000000  1
  C  C1  1  0.00000000  0.00000000  0.00000000  1
  Ni  Ni2  1  0.67025900  0.32974100  0.75000000  1
  Ni  Ni3  1  0.32974100  0.67025900  0.25000000  1
  Cu  Cu4  1  0.94867500  0.57677300  0.88204500  1
  Cu  Cu5  1  0.48977600  0.51022400  0.75000000  1
  Cu  Cu6  1  0.42322700  0.05132500  0.61795500  1
  Cu  Cu7  1  0.05132500  0.42322700  0.11795500  1
  Cu  Cu8  1  0.51022400  0.48977600  0.25000000  1
  Cu  Cu9  1  0.57677300  0.94867500  0.38204500  1
