# generated using pymatgen
data_Cu10Ni21C4
_symmetry_space_group_name_H-M   'P 1'
_cell_length_a   11.98043067
_cell_length_b   11.98043067
_cell_length_c   17.52906546
_cell_angle_alpha   56.23828586
_cell_angle_beta   56.23828586
_cell_angle_gamma   21.92696469
_symmetry_Int_Tables_number   1
_chemical_formula_structural   Cu10Ni21C4
_chemical_formula_sum   'Cu10 Ni21 C4'
_cell_volume   774.49939382
_cell_formula_units_Z   1
loop_
 _symmetry_equiv_pos_site_id
 _symmetry_equiv_pos_as_xyz
  1  'x, y, z'
loop_
 _atom_site_type_symbol
 _atom_site_label
 _atom_site_symmetry_multiplicity
 _atom_site_fract_x
 _atom_site_fract_y
 _atom_site_fract_z
 _atom_site_occupancy
  C  C0  1  0.77100700  0.77100700  0.32466500  1
  C  C1  1  0.87786900  0.87786900  0.83297300  1
  C  C2  1  0.12213100  0.12213100  0.16702700  1
  C  C3  1  0.22899300  0.22899300  0.67533500  1
  Ni  Ni4  1  0.00952700  0.00952700  0.40754500  1
  Ni  Ni5  1  0.61555800  0.61555800  0.79608500  1
  Ni  Ni6  1  0.79946900  0.79946900  0.50354600  1
  Ni  Ni7  1  0.54260300  0.54260300  0.13156400  1
  Ni  Ni8  1  0.60140200  0.60140200  0.50331400  1
  Ni  Ni9  1  0.29957500  0.29957500  0.00049000  1
  Ni  Ni10  1  0.93574000  0.93574000  0.29748000  1
  Ni  Ni11  1  0.25266200  0.25266200  0.20374100  1
  Ni  Ni12  1  0.20053100  0.20053100  0.49645400  1
  Ni  Ni13  1  0.88600800  0.88600800  0.04892700  1
  Ni  Ni14  1  0.06426000  0.06426000  0.70252000  1
  Ni  Ni15  1  0.11399200  0.11399200  0.95107300  1
  Ni  Ni16  1  0.63075800  0.63075800  0.30071100  1
  Ni  Ni17  1  0.36924200  0.36924200  0.69928900  1
  Ni  Ni18  1  0.50000000  0.50000000  0.00000000  1
  Ni  Ni19  1  0.74733800  0.74733800  0.79625900  1
  Ni  Ni20  1  0.38444200  0.38444200  0.20391500  1
  Ni  Ni21  1  0.99047300  0.99047300  0.59245500  1
  Ni  Ni22  1  0.70042500  0.70042500  0.99951000  1
  Ni  Ni23  1  0.45739700  0.45739700  0.86843600  1
  Ni  Ni24  1  0.39859800  0.39859800  0.49668600  1
  Cu  Cu25  1  0.24986100  0.24986100  0.88519300  1
  Cu  Cu26  1  0.65385700  0.65385700  0.61328400  1
  Cu  Cu27  1  0.13726400  0.13726400  0.39240700  1
  Cu  Cu28  1  0.75013900  0.75013900  0.11480700  1
  Cu  Cu29  1  0.34614300  0.34614300  0.38671600  1
  Cu  Cu30  1  0.86273600  0.86273600  0.60759300  1
  Cu  Cu31  1  0.49465400  0.49465400  0.68843000  1
  Cu  Cu32  1  0.97436300  0.97436300  0.11253300  1
  Cu  Cu33  1  0.50534600  0.50534600  0.31157000  1
  Cu  Cu34  1  0.02563700  0.02563700  0.88746700  1
