# generated using pymatgen
data_CuNi2C
_symmetry_space_group_name_H-M   'P 1'
_cell_length_a   6.03636000
_cell_length_b   6.03636000
_cell_length_c   39.41842000
_cell_angle_alpha   90.00000000
_cell_angle_beta   90.00000000
_cell_angle_gamma   90.00000000
_symmetry_Int_Tables_number   1
_chemical_formula_structural   CuNi2C
_chemical_formula_sum   'Cu16 Ni32 C16'
_cell_volume   1436.31427812
_cell_formula_units_Z   16
loop_
 _symmetry_equiv_pos_site_id
 _symmetry_equiv_pos_as_xyz
  1  'x, y, z'
loop_
 _atom_site_type_symbol
 _atom_site_label
 _atom_site_symmetry_multiplicity
 _atom_site_fract_x
 _atom_site_fract_y
 _atom_site_fract_z
 _atom_site_occupancy
  Ni  Ni0  1  0.82270900  0.14203200  0.84536100  1
  Ni  Ni1  1  0.04819100  0.09128600  0.67488300  1
  Ni  Ni2  1  0.47773900  0.74819400  0.04958600  1
  Ni  Ni3  1  0.14203200  0.82270900  0.15463900  1
  Ni  Ni4  1  0.52226100  0.25180600  0.54958600  1
  Ni  Ni5  1  0.85391400  0.67375400  0.93362400  1
  Ni  Ni6  1  0.17375400  0.64608600  0.18362400  1
  Ni  Ni7  1  0.02226100  0.24819400  0.70041400  1
  Ni  Ni8  1  0.35391400  0.82624600  0.31637600  1
  Ni  Ni9  1  0.09128600  0.04819100  0.32511700  1
  Ni  Ni10  1  0.35796800  0.32270900  0.59536100  1
  Ni  Ni11  1  0.97773900  0.75180600  0.20041400  1
  Ni  Ni12  1  0.64203200  0.67729100  0.09536100  1
  Ni  Ni13  1  0.32270900  0.35796800  0.40463900  1
  Ni  Ni14  1  0.32624600  0.14608600  0.56637600  1
  Ni  Ni15  1  0.24819400  0.02226100  0.29958600  1
  Ni  Ni16  1  0.59128600  0.45180900  0.92488300  1
  Ni  Ni17  1  0.82624600  0.35391400  0.68362400  1
  Ni  Ni18  1  0.95180900  0.90871400  0.17488300  1
  Ni  Ni19  1  0.67375400  0.85391400  0.06637600  1
  Ni  Ni20  1  0.40871400  0.54819100  0.42488300  1
  Ni  Ni21  1  0.90871400  0.95180900  0.82511700  1
  Ni  Ni22  1  0.85796800  0.17729100  0.65463900  1
  Ni  Ni23  1  0.25180600  0.52226100  0.45041400  1
  Ni  Ni24  1  0.17729100  0.85796800  0.34536100  1
  Ni  Ni25  1  0.74819400  0.47773900  0.95041400  1
  Ni  Ni26  1  0.14608600  0.32624600  0.43362400  1
  Ni  Ni27  1  0.75180600  0.97773900  0.79958600  1
  Ni  Ni28  1  0.67729100  0.64203200  0.90463900  1
  Ni  Ni29  1  0.45180900  0.59128600  0.07511700  1
  Ni  Ni30  1  0.54819100  0.40871400  0.57511700  1
  Ni  Ni31  1  0.64608600  0.17375400  0.81637600  1
  C  C32  1  0.69821400  0.20103200  0.50582700  1
  C  C33  1  0.24032400  0.33311100  0.08277100  1
  C  C34  1  0.33311100  0.24032400  0.91722900  1
  C  C35  1  0.16688900  0.74032400  0.83277100  1
  C  C36  1  0.83311100  0.25967600  0.33277100  1
  C  C37  1  0.75967600  0.66688900  0.58277100  1
  C  C38  1  0.25967600  0.83311100  0.66722900  1
  C  C39  1  0.20103200  0.69821400  0.49417300  1
  C  C40  1  0.66688900  0.75967600  0.41722900  1
  C  C41  1  0.19821400  0.29896800  0.74417300  1
  C  C42  1  0.29896800  0.19821400  0.25582700  1
  C  C43  1  0.70103200  0.80178600  0.75582700  1
  C  C44  1  0.79896800  0.30178600  0.99417300  1
  C  C45  1  0.74032400  0.16688900  0.16722900  1
  C  C46  1  0.30178600  0.79896800  0.00582700  1
  C  C47  1  0.80178600  0.70103200  0.24417300  1
  Cu  Cu48  1  0.69946400  0.50536600  0.68976000  1
  Cu  Cu49  1  0.99463400  0.19946400  0.43976000  1
  Cu  Cu50  1  0.49463400  0.30053600  0.81024000  1
  Cu  Cu51  1  0.37112400  0.26933100  0.37798800  1
  Cu  Cu52  1  0.73066900  0.62887600  0.12201200  1
  Cu  Cu53  1  0.26933100  0.37112400  0.62201200  1
  Cu  Cu54  1  0.80053600  0.00536600  0.06024000  1
  Cu  Cu55  1  0.12887600  0.76933100  0.37201200  1
  Cu  Cu56  1  0.00536600  0.80053600  0.93976000  1
  Cu  Cu57  1  0.87112400  0.23066900  0.87201200  1
  Cu  Cu58  1  0.62887600  0.73066900  0.87798800  1
  Cu  Cu59  1  0.19946400  0.99463400  0.56024000  1
  Cu  Cu60  1  0.76933100  0.12887600  0.62798800  1
  Cu  Cu61  1  0.23066900  0.87112400  0.12798800  1
  Cu  Cu62  1  0.50536600  0.69946400  0.31024000  1
  Cu  Cu63  1  0.30053600  0.49463400  0.18976000  1
