# generated using pymatgen
data_Cu2NiC17
_symmetry_space_group_name_H-M   'P 1'
_cell_length_a   5.50411000
_cell_length_b   5.50411000
_cell_length_c   23.65956400
_cell_angle_alpha   90.00000000
_cell_angle_beta   90.00000000
_cell_angle_gamma   90.00000000
_symmetry_Int_Tables_number   1
_chemical_formula_structural   Cu2NiC17
_chemical_formula_sum   'Cu6 Ni3 C51'
_cell_volume   716.77185955
_cell_formula_units_Z   3
loop_
 _symmetry_equiv_pos_site_id
 _symmetry_equiv_pos_as_xyz
  1  'x, y, z'
loop_
 _atom_site_type_symbol
 _atom_site_label
 _atom_site_symmetry_multiplicity
 _atom_site_fract_x
 _atom_site_fract_y
 _atom_site_fract_z
 _atom_site_occupancy
  Ni  Ni0  1  0.50000000  0.50000000  0.16586700  1
  Ni  Ni1  1  0.00000000  0.00000000  0.00000000  1
  Ni  Ni2  1  0.50000000  0.50000000  0.83413300  1
  Cu  Cu3  1  0.50000000  0.50000000  0.66807700  1
  Cu  Cu4  1  0.00000000  0.00000000  0.50000000  1
  Cu  Cu5  1  0.00000000  0.00000000  0.66771200  1
  Cu  Cu6  1  0.50000000  0.50000000  0.33192300  1
  Cu  Cu7  1  0.50000000  0.50000000  0.50000000  1
  Cu  Cu8  1  0.00000000  0.00000000  0.33228800  1
  C  C9  1  0.00000000  0.00000000  0.16593900  1
  C  C10  1  0.50000000  0.50000000  0.00000000  1
  C  C11  1  0.00000000  0.00000000  0.83406100  1
  C  C12  1  0.50000000  0.00000000  0.91744300  1
  C  C13  1  0.50000000  0.00000000  0.08255700  1
  C  C14  1  0.00000000  0.50000000  0.91744300  1
  C  C15  1  0.00000000  0.50000000  0.08255700  1
  C  C16  1  0.50000000  0.00000000  0.58408700  1
  C  C17  1  0.50000000  0.00000000  0.75273200  1
  C  C18  1  0.00000000  0.50000000  0.41591300  1
  C  C19  1  0.00000000  0.50000000  0.58408700  1
  C  C20  1  0.00000000  0.50000000  0.75273200  1
  C  C21  1  0.50000000  0.00000000  0.24726800  1
  C  C22  1  0.50000000  0.00000000  0.41591300  1
  C  C23  1  0.00000000  0.50000000  0.24726800  1
  C  C24  1  0.00000000  0.50000000  0.16500200  1
  C  C25  1  0.20050200  0.79949800  0.08621400  1
  C  C26  1  0.29929100  0.29929100  0.07923500  1
  C  C27  1  0.50000000  0.00000000  0.00000000  1
  C  C28  1  0.50000000  0.00000000  0.16500200  1
  C  C29  1  0.70070900  0.29929100  0.92076500  1
  C  C30  1  0.70070900  0.70070900  0.07923500  1
  C  C31  1  0.79949800  0.79949800  0.91378600  1
  C  C32  1  0.79949800  0.20050200  0.08621400  1
  C  C33  1  0.00000000  0.50000000  0.83499800  1
  C  C34  1  0.00000000  0.50000000  0.00000000  1
  C  C35  1  0.20799300  0.79200700  0.75483800  1
  C  C36  1  0.20050200  0.20050200  0.91378600  1
  C  C37  1  0.28012800  0.28012800  0.75159700  1
  C  C38  1  0.29929100  0.70070900  0.92076500  1
  C  C39  1  0.50000000  0.00000000  0.66832100  1
  C  C40  1  0.50000000  0.00000000  0.83499800  1
  C  C41  1  0.72444800  0.27555200  0.58432600  1
  C  C42  1  0.71987200  0.71987200  0.75159700  1
  C  C43  1  0.77540100  0.77540100  0.58361400  1
  C  C44  1  0.79200700  0.20799300  0.75483800  1
  C  C45  1  0.00000000  0.50000000  0.50000000  1
  C  C46  1  0.00000000  0.50000000  0.66832100  1
  C  C47  1  0.22459900  0.77540100  0.41638600  1
  C  C48  1  0.22459900  0.22459900  0.58361400  1
  C  C49  1  0.27555200  0.27555200  0.41567400  1
  C  C50  1  0.27555200  0.72444800  0.58432600  1
  C  C51  1  0.50000000  0.00000000  0.33167900  1
  C  C52  1  0.50000000  0.00000000  0.50000000  1
  C  C53  1  0.71987200  0.28012800  0.24840300  1
  C  C54  1  0.72444800  0.72444800  0.41567400  1
  C  C55  1  0.79200700  0.79200700  0.24516200  1
  C  C56  1  0.77540100  0.22459900  0.41638600  1
  C  C57  1  0.00000000  0.50000000  0.33167900  1
  C  C58  1  0.20799300  0.20799300  0.24516200  1
  C  C59  1  0.28012800  0.71987200  0.24840300  1
