# generated using pymatgen
data_Cu(NiC2)2
_symmetry_space_group_name_H-M   'P 1'
_cell_length_a   5.88560933
_cell_length_b   5.88560933
_cell_length_c   14.89682700
_cell_angle_alpha   90.00000000
_cell_angle_beta   90.00000000
_cell_angle_gamma   119.99999244
_symmetry_Int_Tables_number   1
_chemical_formula_structural   Cu(NiC2)2
_chemical_formula_sum   'Cu6 Ni12 C24'
_cell_volume   446.89685834
_cell_formula_units_Z   6
loop_
 _symmetry_equiv_pos_site_id
 _symmetry_equiv_pos_as_xyz
  1  'x, y, z'
loop_
 _atom_site_type_symbol
 _atom_site_label
 _atom_site_symmetry_multiplicity
 _atom_site_fract_x
 _atom_site_fract_y
 _atom_site_fract_z
 _atom_site_occupancy
  Ni  Ni0  1  0.66666700  0.33333300  0.92746600  1
  Ni  Ni1  1  0.16572100  0.83427900  0.79311200  1
  Ni  Ni2  1  0.33333300  0.66666700  0.59173200  1
  Ni  Ni3  1  0.66855800  0.83427900  0.79311200  1
  Ni  Ni4  1  0.16572100  0.33144200  0.79311200  1
  Ni  Ni5  1  0.83439600  0.16560400  0.45194000  1
  Ni  Ni6  1  0.33120800  0.16560400  0.45194000  1
  Ni  Ni7  1  0.49882100  0.50117900  0.12876100  1
  Ni  Ni8  1  0.83439600  0.66879200  0.45194000  1
  Ni  Ni9  1  0.66666700  0.33333300  0.28790400  1
  Ni  Ni10  1  0.00235800  0.50117900  0.12876100  1
  Ni  Ni11  1  0.49882100  0.99764200  0.12876100  1
  Cu  Cu12  1  0.00000000  0.00000000  0.99568200  1
  Cu  Cu13  1  0.66666700  0.33333300  0.65609000  1
  Cu  Cu14  1  0.33333300  0.66666700  0.94541600  1
  Cu  Cu15  1  0.33333300  0.66666700  0.33146400  1
  Cu  Cu16  1  0.00000000  0.00000000  0.25138500  1
  Cu  Cu17  1  0.00000000  0.00000000  0.60778500  1
  C  C18  1  0.47825600  0.95651300  0.88942600  1
  C  C19  1  0.04348700  0.52174400  0.88942600  1
  C  C20  1  0.33333300  0.66666700  0.72301200  1
  C  C21  1  0.14285400  0.28570900  0.54686000  1
  C  C22  1  0.82850800  0.17149200  0.69423200  1
  C  C23  1  0.47825600  0.52174400  0.88942600  1
  C  C24  1  0.34298400  0.17149200  0.69423200  1
  C  C25  1  0.00000000  0.00000000  0.88250400  1
  C  C26  1  0.71429100  0.85714600  0.54686000  1
  C  C27  1  0.00000000  0.00000000  0.36249400  1
  C  C28  1  0.48712400  0.51287600  0.37019400  1
  C  C29  1  0.84629100  0.69258100  0.21391400  1
  C  C30  1  0.14285400  0.85714600  0.54686000  1
  C  C31  1  0.82850800  0.65701600  0.69423200  1
  C  C32  1  0.66666700  0.33333300  0.54549300  1
  C  C33  1  0.02575100  0.51287600  0.37019400  1
  C  C34  1  0.30741900  0.15370900  0.21391400  1
  C  C35  1  0.66666700  0.33333300  0.06079300  1
  C  C36  1  0.16038400  0.83961600  0.03190700  1
  C  C37  1  0.84629100  0.15370900  0.21391400  1
  C  C38  1  0.48712400  0.97424900  0.37019400  1
  C  C39  1  0.33333300  0.66666700  0.21799100  1
  C  C40  1  0.67923200  0.83961600  0.03190700  1
  C  C41  1  0.16038400  0.32076800  0.03190700  1
