# generated using pymatgen
data_Cu15Ni5C7
_symmetry_space_group_name_H-M   'P 1'
_cell_length_a   5.32587517
_cell_length_b   13.96798645
_cell_length_c   21.20963572
_cell_angle_alpha   94.95142839
_cell_angle_beta   90.00000000
_cell_angle_gamma   90.00000000
_symmetry_Int_Tables_number   1
_chemical_formula_structural   Cu15Ni5C7
_chemical_formula_sum   'Cu60 Ni20 C28'
_cell_volume   1571.93388865
_cell_formula_units_Z   4
loop_
 _symmetry_equiv_pos_site_id
 _symmetry_equiv_pos_as_xyz
  1  'x, y, z'
loop_
 _atom_site_type_symbol
 _atom_site_label
 _atom_site_symmetry_multiplicity
 _atom_site_fract_x
 _atom_site_fract_y
 _atom_site_fract_z
 _atom_site_occupancy
  C  C0  1  0.99918664  0.40742672  0.81344952  1
  C  C1  1  0.99918664  0.59257328  0.18655048  1
  C  C2  1  0.98851813  0.10272907  0.69319755  1
  C  C3  1  0.49517818  0.09488750  0.19191845  1
  C  C4  1  0.98851813  0.89727093  0.30680245  1
  C  C5  1  0.47933392  0.40350192  0.31547879  1
  C  C6  1  0.49517818  0.90511250  0.80808155  1
  C  C7  1  0.51840465  0.50000000  0.00000000  1
  C  C8  1  0.00933203  0.50000000  0.50000000  1
  C  C9  1  0.48112583  0.00000000  0.50000000  1
  C  C10  1  0.47933392  0.59649808  0.68452121  1
  C  C11  1  0.99797572  0.00000000  0.00000000  1
  C  C12  1  0.99187797  0.20984034  0.39529512  1
  C  C13  1  0.49458059  0.78508883  0.10636041  1
  C  C14  1  0.99735302  0.31675892  0.09982359  1
  C  C15  1  0.50401886  0.31521012  0.60073779  1
  C  C16  1  0.49458059  0.21491117  0.89363959  1
  C  C17  1  0.99735302  0.68324108  0.90017641  1
  C  C18  1  0.99187797  0.79015966  0.60470488  1
  C  C19  1  0.50401886  0.68478988  0.39926221  1
  Ni  Ni20  1  0.49889300  0.77885045  0.24699569  1
  Ni  Ni21  1  0.49889300  0.22114955  0.75300431  1
  Ni  Ni22  1  0.00218406  0.60076636  0.33820239  1
  Ni  Ni23  1  0.00218406  0.39923364  0.66179761  1
  Ni  Ni24  1  0.99717612  0.69620170  0.04409618  1
  Ni  Ni25  1  0.99865872  0.77021810  0.74528523  1
  Ni  Ni26  1  0.00282775  0.85177876  0.45091011  1
  Ni  Ni27  1  0.49925017  0.59637752  0.83994832  1
  Ni  Ni28  1  0.50196322  0.70719572  0.54001264  1
  Ni  Ni29  1  0.99717612  0.30379830  0.95590382  1
  Ni  Ni30  1  0.99865872  0.22978190  0.25471477  1
  Ni  Ni31  1  0.50144939  0.96109894  0.65150748  1
  Ni  Ni32  1  0.49779348  0.14273077  0.04775697  1
  Ni  Ni33  1  0.99888972  0.95639769  0.14927881  1
  Ni  Ni34  1  0.50144939  0.03890106  0.34849252  1
  Ni  Ni35  1  0.50196322  0.29280428  0.45998736  1
  Ni  Ni36  1  0.99888972  0.04360231  0.85072119  1
  Ni  Ni37  1  0.49925017  0.40362248  0.16005168  1
  Ni  Ni38  1  0.00282775  0.14822124  0.54908989  1
  Ni  Ni39  1  0.49779348  0.85726923  0.95224303  1
  Cu  Cu40  1  0.70367619  0.21901855  0.78659462  1
  Cu  Cu41  1  0.29740363  0.05677719  0.38088844  1
  Cu  Cu42  1  0.71347927  0.30226928  0.49022102  1
  Cu  Cu43  1  0.78402388  0.06173165  0.87833620  1
  Cu  Cu44  1  0.70367619  0.78098145  0.21340538  1
  Cu  Cu45  1  0.99366313  0.72807598  0.10322955  1
  Cu  Cu46  1  0.28596029  0.77421413  0.21707323  1
  Cu  Cu47  1  0.71347927  0.69773072  0.50977898  1
  Cu  Cu48  1  0.50043188  0.36802095  0.10105489  1
  Cu  Cu49  1  0.50043188  0.63197905  0.89894511  1
  Cu  Cu50  1  0.00621982  0.00153845  0.20497063  1
  Cu  Cu51  1  0.70914166  0.42351830  0.18872687  1
  Cu  Cu52  1  0.78609717  0.75782908  0.71621875  1
  Cu  Cu53  1  0.28306827  0.15146045  0.07700376  1
  Cu  Cu54  1  0.50160351  0.74210246  0.59859894  1
  Cu  Cu55  1  0.78843544  0.31498881  0.98726135  1
  Cu  Cu56  1  0.28574495  0.41333289  0.18942911  1
  Cu  Cu57  1  0.71967447  0.93728580  0.62665943  1
  Cu  Cu58  1  0.00464367  0.63476411  0.39720098  1
  Cu  Cu59  1  0.01322318  0.22436824  0.19364572  1
  Cu  Cu60  1  0.20878773  0.68099929  0.01496134  1
  Cu  Cu61  1  0.19892379  0.78029516  0.71098716  1
  Cu  Cu62  1  0.28596029  0.22578587  0.78292677  1
  Cu  Cu63  1  0.79289871  0.83709160  0.42056824  1
  Cu  Cu64  1  0.70596270  0.84220386  0.92075048  1
  Cu  Cu65  1  0.70914166  0.57648170  0.81127313  1
  Cu  Cu66  1  0.50160351  0.25789754  0.40140106  1
  Cu  Cu67  1  0.29740363  0.94322281  0.61911156  1
  Cu  Cu68  1  0.19892379  0.21970484  0.28901284  1
  Cu  Cu69  1  0.00621982  0.99846155  0.79502937  1
  Cu  Cu70  1  0.78847273  0.41842844  0.68937773  1
  Cu  Cu71  1  0.00297358  0.11655077  0.48958548  1
  Cu  Cu72  1  0.78843544  0.68501119  0.01273865  1
  Cu  Cu73  1  0.49234948  0.00718943  0.70703118  1
  Cu  Cu74  1  0.20878773  0.31900071  0.98503866  1
  Cu  Cu75  1  0.00297358  0.88344923  0.51041452  1
  Cu  Cu76  1  0.29363656  0.31333972  0.48951092  1
  Cu  Cu77  1  0.50387582  0.11260662  0.98827481  1
  Cu  Cu78  1  0.78609717  0.24217092  0.28378125  1
  Cu  Cu79  1  0.21524613  0.84026741  0.42107910  1
  Cu  Cu80  1  0.29363656  0.68666028  0.51048908  1
  Cu  Cu81  1  0.28574495  0.58666711  0.81057089  1
  Cu  Cu82  1  0.21377344  0.41069738  0.69217229  1
  Cu  Cu83  1  0.20680747  0.06489913  0.88141463  1
  Cu  Cu84  1  0.78847273  0.58157156  0.31062227  1
  Cu  Cu85  1  0.71967447  0.06271420  0.37334057  1
  Cu  Cu86  1  0.51009725  0.21462799  0.69210588  1
  Cu  Cu87  1  0.78402388  0.93826835  0.12166380  1
  Cu  Cu88  1  0.21524613  0.15973259  0.57892090  1
  Cu  Cu89  1  0.20680747  0.93510087  0.11858537  1
  Cu  Cu90  1  0.00464367  0.36523589  0.60279902  1
  Cu  Cu91  1  0.70596270  0.15779614  0.07924952  1
  Cu  Cu92  1  0.99366313  0.27192402  0.89677045  1
  Cu  Cu93  1  0.51009725  0.78537201  0.30789412  1
  Cu  Cu94  1  0.79289871  0.16290840  0.57943176  1
  Cu  Cu95  1  0.01322318  0.77563176  0.80635428  1
  Cu  Cu96  1  0.49234948  0.99281057  0.29296882  1
  Cu  Cu97  1  0.28306827  0.84853955  0.92299624  1
  Cu  Cu98  1  0.21377344  0.58930262  0.30782771  1
  Cu  Cu99  1  0.50387582  0.88739338  0.01172519  1
  C  C100  1  0.48682060  0.61340214  0.12848395  1
  C  C101  1  0.49350270  0.51587616  0.42633312  1
  C  C102  1  0.00747664  0.61919908  0.62062751  1
  C  C103  1  0.49350270  0.48412384  0.57366688  1
  C  C104  1  0.99035221  0.47926784  0.07438168  1
  C  C105  1  0.48682060  0.38659786  0.87151605  1
  C  C106  1  0.00747664  0.38080092  0.37937249  1
  C  C107  1  0.99035221  0.52073216  0.92561832  1
