# generated using pymatgen
data_Cu4Ni2C9
_symmetry_space_group_name_H-M   'P 1'
_cell_length_a   16.98823846
_cell_length_b   15.36080844
_cell_length_c   10.23681630
_cell_angle_alpha   80.45556845
_cell_angle_beta   63.08587344
_cell_angle_gamma   36.45855811
_symmetry_Int_Tables_number   1
_chemical_formula_structural   Cu4Ni2C9
_chemical_formula_sum   'Cu32 Ni16 C72'
_cell_volume   1312.66763159
_cell_formula_units_Z   8
loop_
 _symmetry_equiv_pos_site_id
 _symmetry_equiv_pos_as_xyz
  1  'x, y, z'
loop_
 _atom_site_type_symbol
 _atom_site_label
 _atom_site_symmetry_multiplicity
 _atom_site_fract_x
 _atom_site_fract_y
 _atom_site_fract_z
 _atom_site_occupancy
  Ni  Ni0  1  0.93465100  0.71011200  0.34005800  1
  Ni  Ni1  1  0.49591600  0.14967000  0.80923900  1
  Ni  Ni2  1  0.84013300  0.51501000  0.93572200  1
  Ni  Ni3  1  0.10145800  0.75276200  0.20252800  1
  Ni  Ni4  1  0.73499000  0.40986700  0.54086500  1
  Ni  Ni5  1  0.34005800  0.01517900  0.93465100  1
  Ni  Ni6  1  0.23482100  0.90994200  0.53988800  1
  Ni  Ni7  1  0.10033000  0.75408400  0.70482500  1
  Ni  Ni8  1  0.93572200  0.70913500  0.84013300  1
  Ni  Ni9  1  0.20252800  0.94325200  0.10145800  1
  Ni  Ni10  1  0.80923900  0.54517500  0.49591600  1
  Ni  Ni11  1  0.30674800  0.04747200  0.49723800  1
  Ni  Ni12  1  0.53988800  0.31534900  0.23482100  1
  Ni  Ni13  1  0.54086500  0.31427800  0.73499000  1
  Ni  Ni14  1  0.70482500  0.44076100  0.10033000  1
  Ni  Ni15  1  0.49723800  0.14854200  0.30674800  1
  Cu  Cu16  1  0.30323000  0.69902600  0.81604700  1
  Cu  Cu17  1  0.40704800  0.77919200  0.71412600  1
  Cu  Cu18  1  0.81604700  0.18169700  0.30323000  1
  Cu  Cu19  1  0.32298600  0.36459100  0.63458900  1
  Cu  Cu20  1  0.06830300  0.43395300  0.55097400  1
  Cu  Cu21  1  0.97393000  0.02607000  0.97393000  1
  Cu  Cu22  1  0.22393000  0.27607000  0.22393000  1
  Cu  Cu23  1  0.47080800  0.84295200  0.15036600  1
  Cu  Cu24  1  0.47856500  0.52143500  0.47856500  1
  Cu  Cu25  1  0.22042200  0.28291700  0.73424300  1
  Cu  Cu26  1  0.63458900  0.67783400  0.32298600  1
  Cu  Cu27  1  0.97140200  0.34305300  0.15059900  1
  Cu  Cu28  1  0.30647300  0.69352700  0.30647300  1
  Cu  Cu29  1  0.71505400  0.09940100  0.90694700  1
  Cu  Cu30  1  0.72856500  0.77143500  0.72856500  1
  Cu  Cu31  1  0.71412600  0.09963400  0.40704800  1
  Cu  Cu32  1  0.15059900  0.53494600  0.97140200  1
  Cu  Cu33  1  0.88669900  0.92749300  0.07048800  1
  Cu  Cu34  1  0.32250700  0.36330100  0.13468000  1
  Cu  Cu35  1  0.57216600  0.61541100  0.88540900  1
  Cu  Cu36  1  0.81352600  0.18647400  0.81352600  1
  Cu  Cu37  1  0.73424300  0.76241700  0.22042200  1
  Cu  Cu38  1  0.06352600  0.43647400  0.06352600  1
  Cu  Cu39  1  0.48758300  0.51575700  0.96708300  1
  Cu  Cu40  1  0.55097400  0.94677000  0.06830300  1
  Cu  Cu41  1  0.90694700  0.27859800  0.71505400  1
  Cu  Cu42  1  0.88540900  0.92701400  0.57216600  1
  Cu  Cu43  1  0.07048800  0.11532000  0.88669900  1
  Cu  Cu44  1  0.96708300  0.02957800  0.48758300  1
  Cu  Cu45  1  0.15036600  0.53587400  0.47080800  1
  Cu  Cu46  1  0.55647300  0.94352700  0.55647300  1
  Cu  Cu47  1  0.13468000  0.17951200  0.32250700  1
  C  C48  1  0.68026800  0.72268200  0.10828100  1
  C  C49  1  0.17624700  0.89658400  0.43922800  1
  C  C50  1  0.85599700  0.22620500  0.09406900  1
  C  C51  1  0.16837000  0.58347200  0.77093000  1
  C  C52  1  0.09406900  0.82372900  0.85599700  1
  C  C53  1  0.18999300  0.23844900  0.60028400  1
  C  C54  1  0.12499400  0.12544300  0.01803800  1
  C  C55  1  0.41858600  0.82956900  0.36867800  1
  C  C56  1  0.01155100  0.06000700  0.27872600  1
  C  C57  1  0.52068100  0.89074500  0.43093200  1
  C  C58  1  0.92071600  0.33017000  0.86859200  1
  C  C59  1  0.66652800  0.08163000  0.77277300  1
  C  C60  1  0.60028400  0.97127400  0.18999300  1
  C  C61  1  0.76123000  0.14171900  0.52731800  1
  C  C62  1  0.27689800  0.64629500  0.51080400  1
  C  C63  1  0.18002100  0.22630000  0.10582100  1
  C  C64  1  0.75705900  0.81637200  0.86406000  1
  C  C65  1  0.42627100  0.15593100  0.02379500  1
  C  C66  1  0.18828600  0.90746100  0.93164400  1
  C  C67  1  0.94388300  0.63987100  0.01612200  1
  C  C68  1  0.34253900  0.06171400  0.27739100  1
  C  C69  1  0.51826600  0.23268400  0.62555800  1
  C  C70  1  0.69368200  0.40209800  0.92822800  1
  C  C71  1  0.02379500  0.39400300  0.42627100  1
  C  C72  1  0.61012900  0.30611700  0.84987500  1
  C  C73  1  0.91983000  0.32928400  0.36947800  1
  C  C74  1  0.77277300  0.47907000  0.66652800  1
  C  C75  1  0.10828100  0.48877000  0.68026800  1
  C  C76  1  0.26851300  0.98072200  0.66746400  1
  C  C77  1  0.68399800  0.73919600  0.60370500  1
  C  C78  1  0.86406000  0.56250900  0.75705900  1
  C  C79  1  0.86859200  0.88052200  0.92071600  1
  C  C80  1  0.02370000  0.06997900  0.76214200  1
  C  C81  1  0.76206000  0.81077200  0.35341600  1
  C  C82  1  0.60843300  0.30641000  0.35059500  1
  C  C83  1  0.36947800  0.38140800  0.91983000  1
  C  C84  1  0.77093000  0.47722700  0.16837000  1
  C  C85  1  0.51543900  0.89940500  0.94359000  1
  C  C86  1  0.16669800  0.58253600  0.26927800  1
  C  C87  1  0.76214200  0.14417900  0.02370000  1
  C  C88  1  0.43093200  0.15764100  0.52068100  1
  C  C89  1  0.62555800  0.62349200  0.51826600  1
  C  C90  1  0.66746400  0.08330200  0.26851300  1
  C  C91  1  0.01803800  0.73152500  0.12499400  1
  C  C92  1  0.60370500  0.97310200  0.68399800  1
  C  C93  1  0.27739100  0.31835600  0.34253900  1
  C  C94  1  0.93164400  0.97260900  0.18828600  1
  C  C95  1  0.51847500  0.23196200  0.12455700  1
  C  C96  1  0.92822800  0.97599200  0.69368200  1
  C  C97  1  0.01612200  0.40012500  0.94388300  1
  C  C98  1  0.10582100  0.48785800  0.18002100  1
  C  C99  1  0.35341600  0.07375300  0.76206000  1
  C  C100  1  0.86683300  0.88132200  0.42043100  1
  C  C101  1  0.27400800  0.32177200  0.84790200  1
  C  C102  1  0.84790200  0.55631800  0.27400800  1
  C  C103  1  0.36867800  0.38316700  0.41858600  1
  C  C104  1  0.84987500  0.23387800  0.61012900  1
  C  C105  1  0.68749100  0.38594000  0.43362800  1
  C  C106  1  0.35925500  0.72931900  0.09235900  1
  C  C107  1  0.62650800  0.62444200  0.01731600  1
  C  C108  1  0.43362800  0.49294100  0.68749100  1
  C  C109  1  0.12455700  0.12500600  0.51847500  1
  C  C110  1  0.94359000  0.64156700  0.51543900  1
  C  C111  1  0.01731600  0.73173400  0.62650800  1
  C  C112  1  0.26927800  0.98148700  0.16669800  1
  C  C113  1  0.52731800  0.56973200  0.76123000  1
  C  C114  1  0.43922800  0.48794000  0.17624700  1
  C  C115  1  0.42043100  0.83141400  0.86683300  1
  C  C116  1  0.35059500  0.73456100  0.60843300  1
  C  C117  1  0.09235900  0.81906800  0.35925500  1
  C  C118  1  0.51080400  0.56600200  0.27689800  1
  C  C119  1  0.27872600  0.64971600  0.01155100  1
