# generated using pymatgen
data_Cu4Ni29C13
_symmetry_space_group_name_H-M   'P 1'
_cell_length_a   7.81672572
_cell_length_b   11.15207421
_cell_length_c   11.15207421
_cell_angle_alpha   90.00000000
_cell_angle_beta   90.00000000
_cell_angle_gamma   90.00000000
_symmetry_Int_Tables_number   1
_chemical_formula_structural   Cu4Ni29C13
_chemical_formula_sum   'Cu8 Ni58 C26'
_cell_volume   972.15647869
_cell_formula_units_Z   2
loop_
 _symmetry_equiv_pos_site_id
 _symmetry_equiv_pos_as_xyz
  1  'x, y, z'
loop_
 _atom_site_type_symbol
 _atom_site_label
 _atom_site_symmetry_multiplicity
 _atom_site_fract_x
 _atom_site_fract_y
 _atom_site_fract_z
 _atom_site_occupancy
  C  C0  1  0.00000000  0.50000000  0.00000000  1
  C  C1  1  0.50000000  0.75000000  0.25000000  1
  C  C2  1  0.50000000  0.25000000  0.75000000  1
  C  C3  1  0.00000000  0.50000000  0.50000000  1
  C  C4  1  0.00000000  0.00000000  0.50000000  1
  C  C5  1  0.00000000  0.00000000  0.00000000  1
  Ni  Ni6  1  0.69750706  0.14003539  0.14003539  1
  Ni  Ni7  1  0.88825813  0.86002206  0.25000000  1
  Ni  Ni8  1  0.66390010  0.57547902  0.08865232  1
  Ni  Ni9  1  0.24973533  0.36426429  0.13573571  1
  Ni  Ni10  1  0.69750706  0.35996461  0.14003539  1
  Ni  Ni11  1  0.11174187  0.75000000  0.13997794  1
  Ni  Ni12  1  0.88825813  0.25000000  0.86002206  1
  Ni  Ni13  1  0.03021221  0.75000000  0.91489203  1
  Ni  Ni14  1  0.24973533  0.36426429  0.36426429  1
  Ni  Ni15  1  0.33609990  0.07547902  0.58865232  1
  Ni  Ni16  1  0.52715659  0.75000000  0.52255817  1
  Ni  Ni17  1  0.30249294  0.64003539  0.85996461  1
  Ni  Ni18  1  0.33609990  0.91134768  0.42452098  1
  Ni  Ni19  1  0.30249294  0.64003539  0.64003539  1
  Ni  Ni20  1  0.52715659  0.75000000  0.97744183  1
  Ni  Ni21  1  0.33609990  0.07547902  0.91134768  1
  Ni  Ni22  1  0.47284341  0.25000000  0.02255817  1
  Ni  Ni23  1  0.53225131  0.75000000  0.75000000  1
  Ni  Ni24  1  0.03021221  0.75000000  0.58510797  1
  Ni  Ni25  1  0.88825813  0.25000000  0.63997794  1
  Ni  Ni26  1  0.47284341  0.25000000  0.47744183  1
  Ni  Ni27  1  0.33609990  0.58865232  0.07547902  1
  Ni  Ni28  1  0.11174187  0.13997794  0.75000000  1
  Ni  Ni29  1  0.66390010  0.08865232  0.92452098  1
  Ni  Ni30  1  0.66390010  0.08865232  0.57547902  1
  Ni  Ni31  1  0.24973533  0.13573571  0.13573571  1
  Ni  Ni32  1  0.66390010  0.92452098  0.41134768  1
  Ni  Ni33  1  0.69750706  0.14003539  0.35996461  1
  Ni  Ni34  1  0.33609990  0.42452098  0.58865232  1
  Ni  Ni35  1  0.24973533  0.13573571  0.36426429  1
  Ni  Ni36  1  0.66390010  0.92452098  0.08865232  1
  Ni  Ni37  1  0.30249294  0.85996461  0.64003539  1
  Ni  Ni38  1  0.88825813  0.63997794  0.25000000  1
  Ni  Ni39  1  0.96978779  0.25000000  0.08510797  1
  Ni  Ni40  1  0.47284341  0.02255817  0.25000000  1
  Ni  Ni41  1  0.52715659  0.97744183  0.75000000  1
  Ni  Ni42  1  0.66390010  0.41134768  0.92452098  1
  Ni  Ni43  1  0.96978779  0.41489203  0.25000000  1
  Ni  Ni44  1  0.75026467  0.63573571  0.86426429  1
  Ni  Ni45  1  0.75026467  0.86426429  0.86426429  1
  Ni  Ni46  1  0.75026467  0.86426429  0.63573571  1
  Ni  Ni47  1  0.11174187  0.75000000  0.36002206  1
  Ni  Ni48  1  0.75026467  0.63573571  0.63573571  1
  Ni  Ni49  1  0.11174187  0.36002206  0.75000000  1
  Ni  Ni50  1  0.66390010  0.57547902  0.41134768  1
  Ni  Ni51  1  0.03021221  0.91489203  0.75000000  1
  Ni  Ni52  1  0.03021221  0.58510797  0.75000000  1
  Ni  Ni53  1  0.66390010  0.41134768  0.57547902  1
  Ni  Ni54  1  0.96978779  0.25000000  0.41489203  1
  Ni  Ni55  1  0.69750706  0.35996461  0.35996461  1
  Ni  Ni56  1  0.47284341  0.47744183  0.25000000  1
  Ni  Ni57  1  0.30249294  0.85996461  0.85996461  1
  Ni  Ni58  1  0.46774869  0.25000000  0.25000000  1
  Ni  Ni59  1  0.33609990  0.58865232  0.42452098  1
  Ni  Ni60  1  0.33609990  0.91134768  0.07547902  1
  Ni  Ni61  1  0.33609990  0.42452098  0.91134768  1
  Ni  Ni62  1  0.96978779  0.08510797  0.25000000  1
  Ni  Ni63  1  0.52715659  0.52255817  0.75000000  1
  Cu  Cu64  1  0.82508836  0.75000000  0.43139901  1
  Cu  Cu65  1  0.82508836  0.75000000  0.06860099  1
  Cu  Cu66  1  0.82508836  0.43139901  0.75000000  1
  Cu  Cu67  1  0.17491164  0.25000000  0.56860099  1
  Cu  Cu68  1  0.17491164  0.93139901  0.25000000  1
  Cu  Cu69  1  0.82508836  0.06860099  0.75000000  1
  Cu  Cu70  1  0.17491164  0.56860099  0.25000000  1
  Cu  Cu71  1  0.17491164  0.25000000  0.93139901  1
  C  C72  1  0.48121693  0.43631805  0.06368195  1
  C  C73  1  0.10106687  0.25000000  0.25000000  1
  C  C74  1  0.73647083  0.50577898  0.25000000  1
  C  C75  1  0.48121693  0.06368195  0.43631805  1
  C  C76  1  0.84871390  0.25000000  0.25000000  1
  C  C77  1  0.51878307  0.56368195  0.93631805  1
  C  C78  1  0.51878307  0.56368195  0.56368195  1
  C  C79  1  0.51878307  0.93631805  0.93631805  1
  C  C80  1  0.26352917  0.75000000  0.49422102  1
  C  C81  1  0.89893313  0.75000000  0.75000000  1
  C  C82  1  0.73647083  0.25000000  0.99422102  1
  C  C83  1  0.15128610  0.75000000  0.75000000  1
  C  C84  1  0.48121693  0.43631805  0.43631805  1
  C  C85  1  0.73647083  0.25000000  0.50577898  1
  C  C86  1  0.26352917  0.00577898  0.75000000  1
  C  C87  1  0.48121693  0.06368195  0.06368195  1
  C  C88  1  0.26352917  0.49422102  0.75000000  1
  C  C89  1  0.26352917  0.75000000  0.00577898  1
  C  C90  1  0.73647083  0.99422102  0.25000000  1
  C  C91  1  0.51878307  0.93631805  0.56368195  1
