# generated using pymatgen
data_Cu3Ni3C16
_symmetry_space_group_name_H-M   'P 1'
_cell_length_a   21.95253200
_cell_length_b   9.24323400
_cell_length_c   11.19340883
_cell_angle_alpha   89.82066069
_cell_angle_beta   90.00000000
_cell_angle_gamma   90.00000000
_symmetry_Int_Tables_number   1
_chemical_formula_structural   Cu3Ni3C16
_chemical_formula_sum   'Cu24 Ni24 C128'
_cell_volume   2271.27021414
_cell_formula_units_Z   8
loop_
 _symmetry_equiv_pos_site_id
 _symmetry_equiv_pos_as_xyz
  1  'x, y, z'
loop_
 _atom_site_type_symbol
 _atom_site_label
 _atom_site_symmetry_multiplicity
 _atom_site_fract_x
 _atom_site_fract_y
 _atom_site_fract_z
 _atom_site_occupancy
  C  C0  1  0.75491200  0.75753600  0.24790200  1
  C  C1  1  0.25369300  0.73834000  0.16232000  1
  C  C2  1  0.25491200  0.24246400  0.25209800  1
  C  C3  1  0.24508800  0.24246400  0.75209800  1
  C  C4  1  0.75369300  0.26166000  0.33768000  1
  C  C5  1  0.74508800  0.75753600  0.74790200  1
  C  C6  1  0.24630700  0.73834000  0.66232000  1
  C  C7  1  0.74630700  0.26166000  0.83768000  1
  C  C8  1  0.26023600  0.95987400  0.43764500  1
  C  C9  1  0.38997000  0.07254400  0.78121500  1
  C  C10  1  0.57638900  0.66326100  0.52854700  1
  C  C11  1  0.10857800  0.88405400  0.23499500  1
  C  C12  1  0.39164300  0.40224300  0.33255200  1
  C  C13  1  0.32115200  0.53023800  0.45751800  1
  C  C14  1  0.37622400  0.02221700  0.62784800  1
  C  C15  1  0.39142200  0.88405400  0.73499500  1
  C  C16  1  0.09450700  0.70213800  0.55068800  1
  C  C17  1  0.89295700  0.42778500  0.86455500  1
  C  C18  1  0.10704300  0.57221500  0.13544500  1
  C  C19  1  0.11146300  0.88999900  0.57339800  1
  C  C20  1  0.58954400  0.78578200  0.65028000  1
  C  C21  1  0.92361100  0.66326100  0.02854700  1
  C  C22  1  0.59450700  0.29786200  0.94931200  1
  C  C23  1  0.90549300  0.29786200  0.44931200  1
  C  C24  1  0.87806800  0.48646200  0.71308200  1
  C  C25  1  0.24505300  0.46232900  0.47035800  1
  C  C26  1  0.67884800  0.46976200  0.54248200  1
  C  C27  1  0.11003000  0.07254400  0.28121500  1
  C  C28  1  0.81586300  0.97425300  0.54446500  1
  C  C29  1  0.23976400  0.95987400  0.93764500  1
  C  C30  1  0.07638900  0.33673900  0.97145300  1
  C  C31  1  0.61146300  0.11000100  0.92660200  1
  C  C32  1  0.25494700  0.46232900  0.97035800  1
  C  C33  1  0.12193200  0.51353800  0.28691800  1
  C  C34  1  0.73976400  0.04012600  0.56235500  1
  C  C35  1  0.60857800  0.11594600  0.26500500  1
  C  C36  1  0.41045600  0.21421800  0.34972000  1
  C  C37  1  0.42361100  0.33673900  0.47145300  1
  C  C38  1  0.18413700  0.02574700  0.45553500  1
  C  C39  1  0.91045600  0.78578200  0.15028000  1
  C  C40  1  0.10627900  0.38142000  0.17548500  1
  C  C41  1  0.74505300  0.53767100  0.02964200  1
  C  C42  1  0.60704300  0.42778500  0.36455500  1
  C  C43  1  0.62193200  0.48646200  0.21308200  1
  C  C44  1  0.08954400  0.21421800  0.84972000  1
  C  C45  1  0.17884800  0.53023800  0.95751800  1
  C  C46  1  0.61003000  0.92745600  0.21878500  1
  C  C47  1  0.08305600  0.82915400  0.43072600  1
  C  C48  1  0.60627900  0.61858000  0.32451500  1
  C  C49  1  0.89372100  0.61858000  0.82451500  1
  C  C50  1  0.75494700  0.53767100  0.52964200  1
  C  C51  1  0.87622400  0.97778300  0.87215200  1
  C  C52  1  0.89142200  0.11594600  0.76500500  1
  C  C53  1  0.40549300  0.70213800  0.05068800  1
  C  C54  1  0.76023600  0.04012600  0.06235500  1
  C  C55  1  0.89164300  0.59775700  0.16744800  1
  C  C56  1  0.91694400  0.17084600  0.56927400  1
  C  C57  1  0.39295700  0.57221500  0.63544500  1
  C  C58  1  0.12377600  0.02221700  0.12784800  1
  C  C59  1  0.58305600  0.17084600  0.06927400  1
  C  C60  1  0.60835700  0.59775700  0.66744800  1
  C  C61  1  0.37806800  0.51353800  0.78691800  1
  C  C62  1  0.82115200  0.46976200  0.04248200  1
  C  C63  1  0.68413700  0.97425300  0.04446500  1
  C  C64  1  0.39372100  0.38142000  0.67548500  1
  C  C65  1  0.41694400  0.82915400  0.93072600  1
  C  C66  1  0.38853700  0.88999900  0.07339800  1
  C  C67  1  0.88853700  0.11000100  0.42660200  1
  C  C68  1  0.62377600  0.97778300  0.37215200  1
  C  C69  1  0.88997000  0.92745600  0.71878500  1
  C  C70  1  0.31586300  0.02574700  0.95553500  1
  C  C71  1  0.10835700  0.40224300  0.83255200  1
  C  C72  1  0.61116200  0.19827900  0.99166900  1
  C  C73  1  0.12945100  0.99048300  0.22175200  1
  C  C74  1  0.05183400  0.27764100  0.52865300  1
  C  C75  1  0.87054900  0.00951700  0.77824800  1
  C  C76  1  0.70747800  0.55344000  0.50154500  1
  C  C77  1  0.37054900  0.99048300  0.72175200  1
  C  C78  1  0.38883800  0.80172100  0.00833100  1
  C  C79  1  0.88883800  0.19827900  0.49166900  1
  C  C80  1  0.44816600  0.27764100  0.02865300  1
  C  C81  1  0.11116200  0.80172100  0.50833100  1
  C  C82  1  0.95488500  0.21952400  0.13217700  1
  C  C83  1  0.62697100  0.51266600  0.30806600  1
  C  C84  1  0.87302900  0.51266600  0.80806600  1
  C  C85  1  0.12697100  0.48733400  0.19193400  1
  C  C86  1  0.55183400  0.72235900  0.97134700  1
  C  C87  1  0.89402800  0.68855900  0.10444900  1
  C  C88  1  0.29252200  0.44656000  0.49845500  1
  C  C89  1  0.45488500  0.78047600  0.36782300  1
  C  C90  1  0.60597200  0.68855900  0.60444900  1
  C  C91  1  0.21242700  0.94384300  0.41176700  1
  C  C92  1  0.79252200  0.55344000  0.00154500  1
  C  C93  1  0.20747800  0.44656000  0.99845500  1
  C  C94  1  0.10597200  0.31144100  0.89555100  1
  C  C95  1  0.94816600  0.72235900  0.47134700  1
  C  C96  1  0.71242700  0.05615700  0.08823300  1
  C  C97  1  0.39402800  0.31144100  0.39555100  1
  C  C98  1  0.78757300  0.05615700  0.58823300  1
  C  C99  1  0.04511500  0.78047600  0.86782300  1
  C  C100  1  0.37302900  0.48733400  0.69193400  1
  C  C101  1  0.62945100  0.00951700  0.27824800  1
  C  C102  1  0.54511500  0.21952400  0.63217700  1
  C  C103  1  0.28757300  0.94384300  0.91176700  1
  C  C104  1  0.81784000  0.72998400  0.05168800  1
  C  C105  1  0.79214300  0.52307500  0.84005600  1
  C  C106  1  0.31784000  0.27001600  0.44831200  1
  C  C107  1  0.78935400  0.02191500  0.74921600  1
  C  C108  1  0.21064600  0.97808500  0.25078400  1
  C  C109  1  0.18848300  0.76548000  0.46051700  1
  C  C110  1  0.63598500  0.69601600  0.96593900  1
  C  C111  1  0.28935400  0.97808500  0.75078400  1
  C  C112  1  0.13598500  0.30398400  0.53406100  1
  C  C113  1  0.36401500  0.30398400  0.03406100  1
  C  C114  1  0.70785700  0.52307500  0.34005600  1
  C  C115  1  0.68848300  0.23452000  0.03948300  1
  C  C116  1  0.68216000  0.72998400  0.55168800  1
  C  C117  1  0.86401500  0.69601600  0.46593900  1
  C  C118  1  0.62925100  0.19212600  0.62136700  1
  C  C119  1  0.81151700  0.23452000  0.53948300  1
  C  C120  1  0.29214300  0.47692500  0.65994400  1
  C  C121  1  0.20785700  0.47692500  0.15994400  1
  C  C122  1  0.31151700  0.76548000  0.96051700  1
  C  C123  1  0.71064600  0.02191500  0.24921600  1
  C  C124  1  0.12925100  0.80787400  0.87863300  1
  C  C125  1  0.18216000  0.27001600  0.94831200  1
  C  C126  1  0.87074900  0.19212600  0.12136700  1
  C  C127  1  0.37074900  0.80787400  0.37863300  1
  Ni  Ni128  1  0.63771100  0.04113500  0.65509100  1
  Ni  Ni129  1  0.13771100  0.95886500  0.84490900  1
  Ni  Ni130  1  0.65364200  0.29779100  0.70685600  1
  Ni  Ni131  1  0.36228900  0.95886500  0.34490900  1
  Ni  Ni132  1  0.85780100  0.22731000  0.99668200  1
  Ni  Ni133  1  0.35624400  0.45135700  0.07657800  1
  Ni  Ni134  1  0.84603300  0.72133100  0.58992100  1
  Ni  Ni135  1  0.64219900  0.22731000  0.49668200  1
  Ni  Ni136  1  0.86228900  0.04113500  0.15509100  1
  Ni  Ni137  1  0.65633500  0.80950900  0.88255500  1
  Ni  Ni138  1  0.34635800  0.70220900  0.29314400  1
  Ni  Ni139  1  0.15633500  0.19049100  0.61744500  1
  Ni  Ni140  1  0.34603300  0.27866900  0.91007900  1
  Ni  Ni141  1  0.34366500  0.19049100  0.11744500  1
  Ni  Ni142  1  0.84635800  0.29779100  0.20685600  1
  Ni  Ni143  1  0.65396700  0.72133100  0.08992100  1
  Ni  Ni144  1  0.14375600  0.45135700  0.57657800  1
  Ni  Ni145  1  0.64375600  0.54864300  0.92342200  1
  Ni  Ni146  1  0.14219900  0.77269000  0.00331800  1
  Ni  Ni147  1  0.85624400  0.54864300  0.42342200  1
  Ni  Ni148  1  0.84366500  0.80950900  0.38255500  1
  Ni  Ni149  1  0.35780100  0.77269000  0.50331800  1
  Ni  Ni150  1  0.15364200  0.70220900  0.79314400  1
  Ni  Ni151  1  0.15396700  0.27866900  0.41007900  1
  Cu  Cu152  1  0.97447700  0.69849900  0.36313700  1
  Cu  Cu153  1  0.48481300  0.86849200  0.44522100  1
  Cu  Cu154  1  0.52410700  0.19085600  0.74368700  1
  Cu  Cu155  1  0.47011500  0.64119600  0.39552800  1
  Cu  Cu156  1  0.51518700  0.13150800  0.55477900  1
  Cu  Cu157  1  0.01518700  0.86849200  0.94522100  1
  Cu  Cu158  1  0.53803000  0.85987400  0.00502600  1
  Cu  Cu159  1  0.03803000  0.14012600  0.49497400  1
  Cu  Cu160  1  0.02410700  0.80914400  0.75631300  1
  Cu  Cu161  1  0.02552300  0.30150100  0.63686300  1
  Cu  Cu162  1  0.47447700  0.30150100  0.13686300  1
  Cu  Cu163  1  0.97589300  0.19085600  0.24368700  1
  Cu  Cu164  1  0.52645800  0.63015400  0.05166100  1
  Cu  Cu165  1  0.52988500  0.35880400  0.60447200  1
  Cu  Cu166  1  0.02645800  0.36984600  0.44833900  1
  Cu  Cu167  1  0.47354200  0.36984600  0.94833900  1
  Cu  Cu168  1  0.46197000  0.14012600  0.99497400  1
  Cu  Cu169  1  0.52552300  0.69849900  0.86313700  1
  Cu  Cu170  1  0.02988500  0.64119600  0.89552800  1
  Cu  Cu171  1  0.97354200  0.63015400  0.55166100  1
  Cu  Cu172  1  0.47589300  0.80914400  0.25631300  1
  Cu  Cu173  1  0.98481300  0.13150800  0.05477900  1
  Cu  Cu174  1  0.96197000  0.85987400  0.50502600  1
  Cu  Cu175  1  0.97011500  0.35880400  0.10447200  1
