# generated using pymatgen
data_CuNi4C5
_symmetry_space_group_name_H-M   'P 1'
_cell_length_a   12.38941500
_cell_length_b   10.18446500
_cell_length_c   13.27742918
_cell_angle_alpha   72.17634814
_cell_angle_beta   90.00000000
_cell_angle_gamma   90.00000000
_symmetry_Int_Tables_number   1
_chemical_formula_structural   CuNi4C5
_chemical_formula_sum   'Cu8 Ni32 C40'
_cell_volume   1594.92911351
_cell_formula_units_Z   8
loop_
 _symmetry_equiv_pos_site_id
 _symmetry_equiv_pos_as_xyz
  1  'x, y, z'
loop_
 _atom_site_type_symbol
 _atom_site_label
 _atom_site_symmetry_multiplicity
 _atom_site_fract_x
 _atom_site_fract_y
 _atom_site_fract_z
 _atom_site_occupancy
  C  C0  1  0.12828100  0.60992700  0.68343800  1
  C  C1  1  0.86959300  0.83532900  0.21017400  1
  C  C2  1  0.13040700  0.16467100  0.78982600  1
  C  C3  1  0.87171900  0.39007300  0.31656200  1
  C  C4  1  0.62828100  0.39007300  0.81656200  1
  C  C5  1  0.37171900  0.60992700  0.18343800  1
  C  C6  1  0.63040700  0.83532900  0.71017400  1
  C  C7  1  0.36959300  0.16467100  0.28982600  1
  Ni  Ni8  1  0.96427300  0.39793400  0.19058400  1
  Ni  Ni9  1  0.78373100  0.24936600  0.28963900  1
  Ni  Ni10  1  0.78136300  0.97377500  0.11345300  1
  Ni  Ni11  1  0.53572700  0.39793400  0.69058400  1
  Ni  Ni12  1  0.46275300  0.74904200  0.09038100  1
  Ni  Ni13  1  0.72425000  0.39254100  0.93734200  1
  Ni  Ni14  1  0.53962300  0.97277700  0.73948300  1
  Ni  Ni15  1  0.27575000  0.60745900  0.06265800  1
  Ni  Ni16  1  0.28136300  0.02622500  0.38654700  1
  Ni  Ni17  1  0.46037700  0.02722300  0.26051700  1
  Ni  Ni18  1  0.71863700  0.97377500  0.61345300  1
  Ni  Ni19  1  0.28373100  0.75063400  0.21036100  1
  Ni  Ni20  1  0.03572700  0.60206600  0.80941600  1
  Ni  Ni21  1  0.77318900  0.83352300  0.33198400  1
  Ni  Ni22  1  0.22425000  0.60745900  0.56265800  1
  Ni  Ni23  1  0.96636400  0.82259600  0.09252100  1
  Ni  Ni24  1  0.72681100  0.83352300  0.83198400  1
  Ni  Ni25  1  0.77575000  0.39254100  0.43734200  1
  Ni  Ni26  1  0.21626900  0.75063400  0.71036100  1
  Ni  Ni27  1  0.71626900  0.24936600  0.78963900  1
  Ni  Ni28  1  0.46636400  0.17740400  0.40747900  1
  Ni  Ni29  1  0.03363600  0.17740400  0.90747900  1
  Ni  Ni30  1  0.03724700  0.74904200  0.59038100  1
  Ni  Ni31  1  0.21863700  0.02622500  0.88654700  1
  Ni  Ni32  1  0.03962300  0.02722300  0.76051700  1
  Ni  Ni33  1  0.96275300  0.25095800  0.40961900  1
  Ni  Ni34  1  0.96037700  0.97277700  0.23948300  1
  Ni  Ni35  1  0.53363600  0.82259600  0.59252100  1
  Ni  Ni36  1  0.27318900  0.16647700  0.16801600  1
  Ni  Ni37  1  0.53724700  0.25095800  0.90961900  1
  Ni  Ni38  1  0.46427300  0.60206600  0.30941600  1
  Ni  Ni39  1  0.22681100  0.16647700  0.66801600  1
  Cu  Cu40  1  0.00849300  0.38493400  0.65074700  1
  Cu  Cu41  1  0.25323600  0.38812500  0.81993600  1
  Cu  Cu42  1  0.74676400  0.61187500  0.18006400  1
  Cu  Cu43  1  0.99150700  0.61506600  0.34925300  1
  Cu  Cu44  1  0.24676400  0.38812500  0.31993600  1
  Cu  Cu45  1  0.50849300  0.61506600  0.84925300  1
  Cu  Cu46  1  0.49150700  0.38493400  0.15074700  1
  Cu  Cu47  1  0.75323600  0.61187500  0.68006400  1
  C  C48  1  0.72890000  0.05761100  0.05416400  1
  C  C49  1  0.77999900  0.38968700  0.00798700  1
  C  C50  1  0.01668500  0.16561800  0.46571600  1
  C  C51  1  0.77024800  0.16353200  0.77433700  1
  C  C52  1  0.98455400  0.94458800  0.74190700  1
  C  C53  1  0.27024800  0.83646800  0.72566300  1
  C  C54  1  0.01437200  0.40171300  0.11619100  1
  C  C55  1  0.27999900  0.61031300  0.49201300  1
  C  C56  1  0.51668500  0.83438200  0.03428400  1
  C  C57  1  0.72000100  0.38968700  0.50798700  1
  C  C58  1  0.48331500  0.16561800  0.96571600  1
  C  C59  1  0.27110000  0.94238900  0.94583600  1
  C  C60  1  0.28170500  0.16740800  0.59708400  1
  C  C61  1  0.21829500  0.16740800  0.09708400  1
  C  C62  1  0.47715200  0.81704100  0.52452100  1
  C  C63  1  0.78170500  0.83259200  0.90291600  1
  C  C64  1  0.22890000  0.94238900  0.44583600  1
  C  C65  1  0.48562800  0.40171300  0.61619100  1
  C  C66  1  0.72975200  0.16353200  0.27433700  1
  C  C67  1  0.51544600  0.94458800  0.24190700  1
  C  C68  1  0.22975200  0.83646800  0.22566300  1
  C  C69  1  0.02284800  0.81704100  0.02452100  1
  C  C70  1  0.71829500  0.83259200  0.40291600  1
  C  C71  1  0.22000100  0.61031300  0.99201300  1
  C  C72  1  0.98562800  0.59828700  0.88380900  1
  C  C73  1  0.01544600  0.05541200  0.25809300  1
  C  C74  1  0.51437200  0.59828700  0.38380900  1
  C  C75  1  0.97715200  0.18295900  0.97547900  1
  C  C76  1  0.98331500  0.83438200  0.53428400  1
  C  C77  1  0.48455400  0.05541200  0.75809300  1
  C  C78  1  0.52284800  0.18295900  0.47547900  1
  C  C79  1  0.77110000  0.05761100  0.55416400  1
