# generated using pymatgen
data_Cu4NiC2
_symmetry_space_group_name_H-M   'P 1'
_cell_length_a   6.54427800
_cell_length_b   7.59980600
_cell_length_c   11.53492505
_cell_angle_alpha   53.45969687
_cell_angle_beta   90.00000000
_cell_angle_gamma   90.00000000
_symmetry_Int_Tables_number   1
_chemical_formula_structural   Cu4NiC2
_chemical_formula_sum   'Cu8 Ni2 C4'
_cell_volume   460.92633997
_cell_formula_units_Z   2
loop_
 _symmetry_equiv_pos_site_id
 _symmetry_equiv_pos_as_xyz
  1  'x, y, z'
loop_
 _atom_site_type_symbol
 _atom_site_label
 _atom_site_symmetry_multiplicity
 _atom_site_fract_x
 _atom_site_fract_y
 _atom_site_fract_z
 _atom_site_occupancy
  C  C0  1  0.34075900  0.74591900  0.85278100  1
  C  C1  1  0.84075900  0.25408100  0.64721900  1
  C  C2  1  0.15924100  0.74591900  0.35278100  1
  C  C3  1  0.65924100  0.25408100  0.14721900  1
  Ni  Ni4  1  0.50000000  0.00000000  0.50000000  1
  Ni  Ni5  1  0.00000000  0.00000000  0.00000000  1
  Cu  Cu6  1  0.60964500  0.45028200  0.79061900  1
  Cu  Cu7  1  0.15875800  0.26442300  0.12704700  1
  Cu  Cu8  1  0.65875800  0.73557700  0.37295300  1
  Cu  Cu9  1  0.10964500  0.54971800  0.70938100  1
  Cu  Cu10  1  0.89035500  0.45028200  0.29061900  1
  Cu  Cu11  1  0.34124200  0.26442300  0.62704700  1
  Cu  Cu12  1  0.84124200  0.73557700  0.87295300  1
  Cu  Cu13  1  0.39035500  0.54971800  0.20938100  1
