# generated using pymatgen
data_CuNiC6
_symmetry_space_group_name_H-M   'P 1'
_cell_length_a   5.36355000
_cell_length_b   7.08203500
_cell_length_c   11.09409300
_cell_angle_alpha   90.00000000
_cell_angle_beta   90.00000000
_cell_angle_gamma   90.00000000
_symmetry_Int_Tables_number   1
_chemical_formula_structural   CuNiC6
_chemical_formula_sum   'Cu4 Ni4 C24'
_cell_volume   421.40744545
_cell_formula_units_Z   4
loop_
 _symmetry_equiv_pos_site_id
 _symmetry_equiv_pos_as_xyz
  1  'x, y, z'
loop_
 _atom_site_type_symbol
 _atom_site_label
 _atom_site_symmetry_multiplicity
 _atom_site_fract_x
 _atom_site_fract_y
 _atom_site_fract_z
 _atom_site_occupancy
  C  C0  1  0.26545000  0.13032200  0.58739400  1
  C  C1  1  0.29246000  0.38414300  0.84219400  1
  C  C2  1  0.79246000  0.88414300  0.65780600  1
  C  C3  1  0.20754000  0.38414300  0.34219400  1
  C  C4  1  0.73455000  0.63032200  0.41260600  1
  C  C5  1  0.23455000  0.13032200  0.08739400  1
  C  C6  1  0.76545000  0.63032200  0.91260600  1
  C  C7  1  0.70754000  0.88414300  0.15780600  1
  Ni  Ni8  1  0.19803400  0.88035600  0.34267800  1
  Ni  Ni9  1  0.30196600  0.88035600  0.84267800  1
  Ni  Ni10  1  0.80196600  0.38035600  0.65732200  1
  Ni  Ni11  1  0.69803400  0.38035600  0.15732200  1
  Cu  Cu12  1  0.69544400  0.13242900  0.40540500  1
  Cu  Cu13  1  0.30455600  0.63242900  0.59459500  1
  Cu  Cu14  1  0.80455600  0.13242900  0.90540500  1
  Cu  Cu15  1  0.19544400  0.63242900  0.09459500  1
  C  C16  1  0.39134300  0.10216900  0.38881900  1
  C  C17  1  0.60865700  0.60216900  0.61118100  1
  C  C18  1  0.10865700  0.10216900  0.88881900  1
  C  C19  1  0.89134300  0.60216900  0.11118100  1
  C  C20  1  0.75449700  0.16141400  0.55085900  1
  C  C21  1  0.24550300  0.66141400  0.44914100  1
  C  C22  1  0.74550300  0.16141400  0.05085900  1
  C  C23  1  0.25449700  0.66141400  0.94914100  1
  C  C24  1  0.84012400  0.94204000  0.35506500  1
  C  C25  1  0.15987600  0.44204000  0.64493500  1
  C  C26  1  0.65987600  0.94204000  0.85506500  1
  C  C27  1  0.27793500  0.82312600  0.17186100  1
  C  C28  1  0.77793500  0.32312600  0.32813900  1
  C  C29  1  0.22206500  0.82312600  0.67186100  1
  C  C30  1  0.72206500  0.32312600  0.82813900  1
  C  C31  1  0.34012400  0.44204000  0.14493500  1
