# generated using pymatgen
data_Cu4Ni2C
_symmetry_space_group_name_H-M   'P 1'
_cell_length_a   4.19973400
_cell_length_b   7.40679100
_cell_length_c   15.56579100
_cell_angle_alpha   90.00000000
_cell_angle_beta   90.00000000
_cell_angle_gamma   90.00000000
_symmetry_Int_Tables_number   1
_chemical_formula_structural   Cu4Ni2C
_chemical_formula_sum   'Cu16 Ni8 C4'
_cell_volume   484.19808706
_cell_formula_units_Z   4
loop_
 _symmetry_equiv_pos_site_id
 _symmetry_equiv_pos_as_xyz
  1  'x, y, z'
loop_
 _atom_site_type_symbol
 _atom_site_label
 _atom_site_symmetry_multiplicity
 _atom_site_fract_x
 _atom_site_fract_y
 _atom_site_fract_z
 _atom_site_occupancy
  C  C0  1  0.25000000  0.85312600  0.18175700  1
  C  C1  1  0.75000000  0.14687400  0.81824300  1
  C  C2  1  0.25000000  0.35312600  0.31824300  1
  C  C3  1  0.75000000  0.64687400  0.68175700  1
  Ni  Ni4  1  0.25000000  0.31015100  0.69144700  1
  Ni  Ni5  1  0.25000000  0.78646800  0.55645000  1
  Ni  Ni6  1  0.75000000  0.21353200  0.44355000  1
  Ni  Ni7  1  0.75000000  0.18984900  0.19144700  1
  Ni  Ni8  1  0.25000000  0.81015100  0.80855300  1
  Ni  Ni9  1  0.25000000  0.28646800  0.94355000  1
  Ni  Ni10  1  0.75000000  0.71353200  0.05645000  1
  Ni  Ni11  1  0.75000000  0.68984900  0.30855300  1
  Cu  Cu12  1  0.25000000  0.98019800  0.68220500  1
  Cu  Cu13  1  0.25000000  0.48019800  0.81779500  1
  Cu  Cu14  1  0.75000000  0.37279300  0.99747800  1
  Cu  Cu15  1  0.75000000  0.73785500  0.87642500  1
  Cu  Cu16  1  0.75000000  0.52807700  0.44187600  1
  Cu  Cu17  1  0.75000000  0.23785500  0.62357500  1
  Cu  Cu18  1  0.75000000  0.51980200  0.18220500  1
  Cu  Cu19  1  0.75000000  0.02807700  0.05812400  1
  Cu  Cu20  1  0.25000000  0.76214500  0.37642500  1
  Cu  Cu21  1  0.25000000  0.26214500  0.12357500  1
  Cu  Cu22  1  0.25000000  0.97192300  0.94187600  1
  Cu  Cu23  1  0.25000000  0.12720700  0.49747800  1
  Cu  Cu24  1  0.75000000  0.87279300  0.50252200  1
  Cu  Cu25  1  0.75000000  0.01980200  0.31779500  1
  Cu  Cu26  1  0.25000000  0.62720700  0.00252200  1
  Cu  Cu27  1  0.25000000  0.47192300  0.55812400  1
