# generated using pymatgen
data_Cu3Ni3C2
_symmetry_space_group_name_H-M   'P 1'
_cell_length_a   7.68256300
_cell_length_b   7.58328800
_cell_length_c   13.23972853
_cell_angle_alpha   55.04211729
_cell_angle_beta   90.00000000
_cell_angle_gamma   90.00000000
_symmetry_Int_Tables_number   1
_chemical_formula_structural   Cu3Ni3C2
_chemical_formula_sum   'Cu12 Ni12 C8'
_cell_volume   632.16528366
_cell_formula_units_Z   4
loop_
 _symmetry_equiv_pos_site_id
 _symmetry_equiv_pos_as_xyz
  1  'x, y, z'
loop_
 _atom_site_type_symbol
 _atom_site_label
 _atom_site_symmetry_multiplicity
 _atom_site_fract_x
 _atom_site_fract_y
 _atom_site_fract_z
 _atom_site_occupancy
  C  C0  1  0.46449800  0.24234100  0.75003500  1
  C  C1  1  0.53550200  0.75765900  0.24996500  1
  C  C2  1  0.96449800  0.75765900  0.74996500  1
  C  C3  1  0.03550200  0.24234100  0.25003500  1
  C  C4  1  0.50000000  0.50000000  0.00000000  1
  C  C5  1  0.00000000  0.50000000  0.50000000  1
  C  C6  1  0.50000000  0.00000000  0.50000000  1
  C  C7  1  0.00000000  0.00000000  0.00000000  1
  Ni  Ni8  1  0.00584500  0.20949900  0.82895700  1
  Ni  Ni9  1  0.19883400  0.12089200  0.02066200  1
  Ni  Ni10  1  0.49415500  0.20949900  0.32895700  1
  Ni  Ni11  1  0.69883400  0.87910800  0.47933800  1
  Ni  Ni12  1  0.50584500  0.79050100  0.67104300  1
  Ni  Ni13  1  0.85863100  0.18371700  0.01686400  1
  Ni  Ni14  1  0.30116600  0.12089200  0.52066200  1
  Ni  Ni15  1  0.99415500  0.79050100  0.17104300  1
  Ni  Ni16  1  0.14136900  0.81628300  0.98313600  1
  Ni  Ni17  1  0.80116600  0.87910800  0.97933800  1
  Ni  Ni18  1  0.64136900  0.18371700  0.51686400  1
  Ni  Ni19  1  0.35863100  0.81628300  0.48313600  1
  Cu  Cu20  1  0.67602700  0.80543800  0.96520500  1
  Cu  Cu21  1  0.48803100  0.34200200  0.22208800  1
  Cu  Cu22  1  0.27096600  0.70088200  0.47192900  1
  Cu  Cu23  1  0.77096600  0.29911800  0.02807100  1
  Cu  Cu24  1  0.72903400  0.29911800  0.52807100  1
  Cu  Cu25  1  0.17602700  0.19456200  0.53479500  1
  Cu  Cu26  1  0.51196900  0.65799800  0.77791200  1
  Cu  Cu27  1  0.01196900  0.34200200  0.72208800  1
  Cu  Cu28  1  0.32397300  0.19456200  0.03479500  1
  Cu  Cu29  1  0.22903400  0.70088200  0.97192900  1
  Cu  Cu30  1  0.82397300  0.80543800  0.46520500  1
  Cu  Cu31  1  0.98803100  0.65799800  0.27791200  1
