# generated using pymatgen
data_Cu11NiC8
_symmetry_space_group_name_H-M   'P 1'
_cell_length_a   23.63018500
_cell_length_b   7.64299900
_cell_length_c   11.65566864
_cell_angle_alpha   71.05936414
_cell_angle_beta   90.00000000
_cell_angle_gamma   90.00000000
_symmetry_Int_Tables_number   1
_chemical_formula_structural   Cu11NiC8
_chemical_formula_sum   'Cu88 Ni8 C64'
_cell_volume   1991.09902446
_cell_formula_units_Z   8
loop_
 _symmetry_equiv_pos_site_id
 _symmetry_equiv_pos_as_xyz
  1  'x, y, z'
loop_
 _atom_site_type_symbol
 _atom_site_label
 _atom_site_symmetry_multiplicity
 _atom_site_fract_x
 _atom_site_fract_y
 _atom_site_fract_z
 _atom_site_occupancy
  C  C0  1  0.69360100  0.40295500  0.94034900  1
  C  C1  1  0.19239500  0.09499600  0.55642500  1
  C  C2  1  0.54415600  0.93845800  0.37724100  1
  C  C3  1  0.80639900  0.40295500  0.44034900  1
  C  C4  1  0.45667100  0.56620200  0.62545100  1
  C  C5  1  0.95459500  0.18875500  0.37453800  1
  C  C6  1  0.19147600  0.77652100  0.19341500  1
  C  C7  1  0.45441800  0.31044400  0.12764300  1
  C  C8  1  0.80852400  0.22347900  0.80658500  1
  C  C9  1  0.45584400  0.06154200  0.62275900  1
  C  C10  1  0.54558200  0.68955600  0.87235700  1
  C  C11  1  0.19005300  0.27799600  0.19586000  1
  C  C12  1  0.04332900  0.56620200  0.12545100  1
  C  C13  1  0.45459500  0.81124500  0.12546200  1
  C  C14  1  0.95584400  0.93845800  0.87724100  1
  C  C15  1  0.80994700  0.72200400  0.80414000  1
  C  C16  1  0.95441800  0.68955600  0.37235700  1
  C  C17  1  0.30760500  0.09499600  0.05642500  1
  C  C18  1  0.54332900  0.43379800  0.37454900  1
  C  C19  1  0.19360100  0.59704500  0.55965100  1
  C  C20  1  0.04415600  0.06154200  0.12275900  1
  C  C21  1  0.30994700  0.27799600  0.69586000  1
  C  C22  1  0.04558200  0.31044400  0.62764300  1
  C  C23  1  0.04540500  0.81124500  0.62546200  1
  C  C24  1  0.69239500  0.90500400  0.94357500  1
  C  C25  1  0.69147600  0.22347900  0.30658500  1
  C  C26  1  0.54540500  0.18875500  0.87453800  1
  C  C27  1  0.95667100  0.43379800  0.87454900  1
  C  C28  1  0.69005300  0.72200400  0.30414000  1
  C  C29  1  0.30639900  0.59704500  0.05965100  1
  C  C30  1  0.80760500  0.90500400  0.44357500  1
  C  C31  1  0.30852400  0.77652100  0.69341500  1
  C  C32  1  0.91367700  0.10186100  0.12579900  1
  C  C33  1  0.58610200  0.52423700  0.62371000  1
  C  C34  1  0.08632300  0.89813900  0.87420100  1
  C  C35  1  0.21765600  0.39310500  0.87843900  1
  C  C36  1  0.21787400  0.98157100  0.87207500  1
  C  C37  1  0.78234400  0.60689500  0.12156100  1
  C  C38  1  0.28212600  0.98157100  0.37207500  1
  C  C39  1  0.78212600  0.01842900  0.12792500  1
  C  C40  1  0.41389800  0.47576300  0.37629000  1
  C  C41  1  0.58632300  0.10186100  0.62579900  1
  C  C42  1  0.71765600  0.60689500  0.62156100  1
  C  C43  1  0.71787400  0.01842900  0.62792500  1
  C  C44  1  0.28234400  0.39310500  0.37843900  1
  C  C45  1  0.91389800  0.52423700  0.12371000  1
  C  C46  1  0.41367700  0.89813900  0.37420100  1
  C  C47  1  0.08610200  0.47576300  0.87629000  1
  C  C48  1  0.85348200  0.88990100  0.96308300  1
  C  C49  1  0.65232700  0.40018100  0.45374500  1
  C  C50  1  0.64651800  0.88990100  0.46308300  1
  C  C51  1  0.15232700  0.59981900  0.04625500  1
  C  C52  1  0.84767300  0.40018100  0.95374500  1
  C  C53  1  0.64756400  0.73538400  0.78647000  1
  C  C54  1  0.14756400  0.26461600  0.71353000  1
  C  C55  1  0.34767300  0.59981900  0.54625500  1
  C  C56  1  0.35243600  0.26461600  0.21353000  1
  C  C57  1  0.35348200  0.11009900  0.53691700  1
  C  C58  1  0.65257100  0.22573200  0.79414600  1
  C  C59  1  0.15257100  0.77426800  0.70585400  1
  C  C60  1  0.85243600  0.73538400  0.28647000  1
  C  C61  1  0.14651800  0.11009900  0.03691700  1
  C  C62  1  0.34742900  0.77426800  0.20585400  1
  C  C63  1  0.84742900  0.22573200  0.29414600  1
  Ni  Ni64  1  0.08099600  0.68638700  0.37669600  1
  Ni  Ni65  1  0.57888600  0.81289200  0.12376400  1
  Ni  Ni66  1  0.42111400  0.18710800  0.87623600  1
  Ni  Ni67  1  0.58099600  0.31361300  0.12330400  1
  Ni  Ni68  1  0.92111400  0.81289200  0.62376400  1
  Ni  Ni69  1  0.91900400  0.31361300  0.62330400  1
  Ni  Ni70  1  0.07888600  0.18710800  0.37623600  1
  Ni  Ni71  1  0.41900400  0.68638700  0.87669600  1
  Cu  Cu72  1  0.05088700  0.23915700  0.27424200  1
  Cu  Cu73  1  0.35593000  0.30995100  0.12514500  1
  Cu  Cu74  1  0.13318300  0.18459100  0.37836400  1
  Cu  Cu75  1  0.94911300  0.76084300  0.72575800  1
  Cu  Cu76  1  0.35225700  0.37585800  0.37593500  1
  Cu  Cu77  1  0.75833100  0.46399700  0.24667800  1
  Cu  Cu78  1  0.75765900  0.02618500  0.25611300  1
  Cu  Cu79  1  0.75959800  0.16077700  0.00108100  1
  Cu  Cu80  1  0.64797400  0.99966300  0.63095400  1
  Cu  Cu81  1  0.14329600  0.06425500  0.12529700  1
  Cu  Cu82  1  0.04886300  0.37496200  0.99646100  1
  Cu  Cu83  1  0.74166900  0.46399700  0.74667800  1
  Cu  Cu84  1  0.39653200  0.68818200  0.37253900  1
  Cu  Cu85  1  0.45113700  0.37496200  0.49646100  1
  Cu  Cu86  1  0.24040200  0.83922300  0.99891900  1
  Cu  Cu87  1  0.36468500  0.68569800  0.87907700  1
  Cu  Cu88  1  0.14407000  0.30995100  0.62514500  1
  Cu  Cu89  1  0.64259900  0.18176700  0.88020000  1
  Cu  Cu90  1  0.74234100  0.02618500  0.75611300  1
  Cu  Cu91  1  0.85202600  0.99966300  0.13095400  1
  Cu  Cu92  1  0.85670400  0.93574500  0.87470300  1
  Cu  Cu93  1  0.75958100  0.60039800  0.99175700  1
  Cu  Cu94  1  0.89653200  0.31181800  0.12746100  1
  Cu  Cu95  1  0.54791800  0.50784100  0.74340200  1
  Cu  Cu96  1  0.36681700  0.18459100  0.87836400  1
  Cu  Cu97  1  0.24234100  0.97381500  0.74388700  1
  Cu  Cu98  1  0.94906300  0.36469600  0.52284200  1
  Cu  Cu99  1  0.95296900  0.00116200  0.24375400  1
  Cu  Cu100  1  0.44960200  0.88023900  0.49590700  1
  Cu  Cu101  1  0.55039800  0.11976100  0.50409300  1
  Cu  Cu102  1  0.74180200  0.81260600  0.62458500  1
  Cu  Cu103  1  0.55302200  0.26191600  0.22556100  1
  Cu  Cu104  1  0.04703100  0.99883800  0.75624600  1
  Cu  Cu105  1  0.44911300  0.23915700  0.77424200  1
  Cu  Cu106  1  0.35740100  0.81823300  0.11980000  1
  Cu  Cu107  1  0.04791800  0.49215900  0.75659800  1
  Cu  Cu108  1  0.95078500  0.86306500  0.52278900  1
  Cu  Cu109  1  0.85740100  0.18176700  0.38020000  1
  Cu  Cu110  1  0.95208200  0.50784100  0.24340200  1
  Cu  Cu111  1  0.74041900  0.60039800  0.49175700  1
  Cu  Cu112  1  0.44906300  0.63530400  0.97715800  1
  Cu  Cu113  1  0.35670400  0.06425500  0.62529700  1
  Cu  Cu114  1  0.85851700  0.44369000  0.86821300  1
  Cu  Cu115  1  0.44697800  0.73808400  0.77443900  1
  Cu  Cu116  1  0.94960200  0.11976100  0.00409300  1
  Cu  Cu117  1  0.64329600  0.93574500  0.37470300  1
  Cu  Cu118  1  0.55088700  0.76084300  0.22575800  1
  Cu  Cu119  1  0.24166900  0.53600300  0.75332200  1
  Cu  Cu120  1  0.05093700  0.63530400  0.47715800  1
  Cu  Cu121  1  0.45078500  0.13693500  0.97721100  1
  Cu  Cu122  1  0.04921500  0.13693500  0.47721100  1
  Cu  Cu123  1  0.85225700  0.62414200  0.12406500  1
  Cu  Cu124  1  0.85593000  0.69004900  0.37485500  1
  Cu  Cu125  1  0.74040200  0.16077700  0.50108100  1
  Cu  Cu126  1  0.54703100  0.00116200  0.74375400  1
  Cu  Cu127  1  0.64148300  0.44369000  0.36821300  1
  Cu  Cu128  1  0.60346800  0.31181800  0.62746100  1
  Cu  Cu129  1  0.86681700  0.81540900  0.62163600  1
  Cu  Cu130  1  0.25819800  0.18739400  0.37541500  1
  Cu  Cu131  1  0.14797400  0.00033700  0.86904600  1
  Cu  Cu132  1  0.25959800  0.83922300  0.49891900  1
  Cu  Cu133  1  0.24180200  0.18739400  0.87541500  1
  Cu  Cu134  1  0.14259900  0.81823300  0.61980000  1
  Cu  Cu135  1  0.54921500  0.86306500  0.02278900  1
  Cu  Cu136  1  0.45208200  0.49215900  0.25659800  1
  Cu  Cu137  1  0.64774300  0.62414200  0.62406500  1
  Cu  Cu138  1  0.25958100  0.39960200  0.50824300  1
  Cu  Cu139  1  0.25833100  0.53600300  0.25332200  1
  Cu  Cu140  1  0.54886300  0.62503800  0.50353900  1
  Cu  Cu141  1  0.14148300  0.55631000  0.13178700  1
  Cu  Cu142  1  0.94697800  0.26191600  0.72556100  1
  Cu  Cu143  1  0.45296900  0.99883800  0.25624600  1
  Cu  Cu144  1  0.05039800  0.88023900  0.99590700  1
  Cu  Cu145  1  0.24041900  0.39960200  0.00824300  1
  Cu  Cu146  1  0.10346800  0.68818200  0.87253900  1
  Cu  Cu147  1  0.05302200  0.73808400  0.27443900  1
  Cu  Cu148  1  0.75819800  0.81260600  0.12458500  1
  Cu  Cu149  1  0.64407000  0.69004900  0.87485500  1
  Cu  Cu150  1  0.35202600  0.00033700  0.36904600  1
  Cu  Cu151  1  0.13531500  0.68569800  0.37907700  1
  Cu  Cu152  1  0.14774300  0.37585800  0.87593500  1
  Cu  Cu153  1  0.63531500  0.31430200  0.12092300  1
  Cu  Cu154  1  0.35851700  0.55631000  0.63178700  1
  Cu  Cu155  1  0.95113700  0.62503800  0.00353900  1
  Cu  Cu156  1  0.63318300  0.81540900  0.12163600  1
  Cu  Cu157  1  0.55093700  0.36469600  0.02284200  1
  Cu  Cu158  1  0.25765900  0.97381500  0.24388700  1
  Cu  Cu159  1  0.86468500  0.31430200  0.62092300  1
