# generated using pymatgen
data_CuNiC5
_symmetry_space_group_name_H-M   'P 1'
_cell_length_a   7.30299900
_cell_length_b   7.89662815
_cell_length_c   7.93753201
_cell_angle_alpha   97.49670883
_cell_angle_beta   107.37059269
_cell_angle_gamma   100.55901652
_symmetry_Int_Tables_number   1
_chemical_formula_structural   CuNiC5
_chemical_formula_sum   'Cu4 Ni4 C20'
_cell_volume   421.02793141
_cell_formula_units_Z   4
loop_
 _symmetry_equiv_pos_site_id
 _symmetry_equiv_pos_as_xyz
  1  'x, y, z'
loop_
 _atom_site_type_symbol
 _atom_site_label
 _atom_site_symmetry_multiplicity
 _atom_site_fract_x
 _atom_site_fract_y
 _atom_site_fract_z
 _atom_site_occupancy
  C  C0  1  0.59727200  0.02005400  0.27842800  1
  C  C1  1  0.40272800  0.97994600  0.72157200  1
  C  C2  1  0.59185100  0.52362200  0.28052300  1
  C  C3  1  0.40814900  0.47637800  0.71947700  1
  Ni  Ni4  1  0.25848000  0.21808600  0.34044500  1
  Ni  Ni5  1  0.74152000  0.78191400  0.65955500  1
  Ni  Ni6  1  0.27210400  0.67581800  0.02086000  1
  Ni  Ni7  1  0.72789600  0.32418200  0.97914000  1
  Cu  Cu8  1  0.08896600  0.17455400  0.18739000  1
  Cu  Cu9  1  0.91103400  0.82544600  0.81261000  1
  Cu  Cu10  1  0.08744900  0.64815100  0.04530400  1
  Cu  Cu11  1  0.91255100  0.35184900  0.95469600  1
  C  C12  1  0.42677800  0.68940700  0.20988300  1
  C  C13  1  0.57322200  0.31059300  0.79011700  1
  C  C14  1  0.26350100  0.51719600  0.88261100  1
  C  C15  1  0.73649900  0.48280400  0.11738900  1
  C  C16  1  0.22497500  0.35968600  0.47505400  1
  C  C17  1  0.77502500  0.64031400  0.52494600  1
  C  C18  1  0.43759700  0.28964200  0.28050000  1
  C  C19  1  0.56240300  0.71035800  0.71950000  1
  C  C20  1  0.29345100  0.04805800  0.40857800  1
  C  C21  1  0.70654900  0.95194200  0.59142200  1
  C  C22  1  0.68378200  0.14328100  0.03203900  1
  C  C23  1  0.31621800  0.85671900  0.96796100  1
  C  C24  1  0.88701600  0.85771700  0.21264500  1
  C  C25  1  0.11298400  0.14228300  0.78735500  1
  C  C26  1  0.90866100  0.28172100  0.53015900  1
  C  C27  1  0.09133900  0.71827900  0.46984100  1
