# generated using pymatgen
data_Cu2Ni2C5
_symmetry_space_group_name_H-M   'P 1'
_cell_length_a   6.39311600
_cell_length_b   9.63702100
_cell_length_c   14.00743300
_cell_angle_alpha   90.00000000
_cell_angle_beta   90.00000000
_cell_angle_gamma   90.00000000
_symmetry_Int_Tables_number   1
_chemical_formula_structural   Cu2Ni2C5
_chemical_formula_sum   'Cu16 Ni16 C40'
_cell_volume   863.00625560
_cell_formula_units_Z   8
loop_
 _symmetry_equiv_pos_site_id
 _symmetry_equiv_pos_as_xyz
  1  'x, y, z'
loop_
 _atom_site_type_symbol
 _atom_site_label
 _atom_site_symmetry_multiplicity
 _atom_site_fract_x
 _atom_site_fract_y
 _atom_site_fract_z
 _atom_site_occupancy
  C  C0  1  0.80138100  0.85649100  0.60334900  1
  C  C1  1  0.80138100  0.35649100  0.89665100  1
  C  C2  1  0.69861900  0.85649100  0.10334900  1
  C  C3  1  0.30138100  0.14350900  0.89665100  1
  C  C4  1  0.30138100  0.64350900  0.60334900  1
  C  C5  1  0.69861900  0.35649100  0.39665100  1
  C  C6  1  0.19861900  0.14350900  0.39665100  1
  C  C7  1  0.19861900  0.64350900  0.10334900  1
  Ni  Ni8  1  0.36584300  0.81885100  0.24772700  1
  Ni  Ni9  1  0.36584300  0.31885100  0.25227300  1
  Ni  Ni10  1  0.86584300  0.68114900  0.24772700  1
  Ni  Ni11  1  0.63415700  0.68114900  0.74772700  1
  Ni  Ni12  1  0.13415700  0.81885100  0.74772700  1
  Ni  Ni13  1  0.63415700  0.18114900  0.75227300  1
  Ni  Ni14  1  0.71016200  0.69520300  0.41868500  1
  Ni  Ni15  1  0.78983800  0.69520300  0.91868500  1
  Ni  Ni16  1  0.71016200  0.19520300  0.08131500  1
  Ni  Ni17  1  0.86584300  0.18114900  0.25227300  1
  Ni  Ni18  1  0.28983800  0.80479700  0.91868500  1
  Ni  Ni19  1  0.21016200  0.30479700  0.08131500  1
  Ni  Ni20  1  0.28983800  0.30479700  0.58131500  1
  Ni  Ni21  1  0.21016200  0.80479700  0.41868500  1
  Ni  Ni22  1  0.13415700  0.31885100  0.75227300  1
  Ni  Ni23  1  0.78983800  0.19520300  0.58131500  1
  Cu  Cu24  1  0.30458300  0.62118600  0.23025200  1
  Cu  Cu25  1  0.80458300  0.87881400  0.23025200  1
  Cu  Cu26  1  0.18571400  0.86430700  0.48550900  1
  Cu  Cu27  1  0.19541700  0.62118600  0.73025200  1
  Cu  Cu28  1  0.80458300  0.37881400  0.26974800  1
  Cu  Cu29  1  0.69541700  0.87881400  0.73025200  1
  Cu  Cu30  1  0.30458300  0.12118600  0.26974800  1
  Cu  Cu31  1  0.18571400  0.36430700  0.01449100  1
  Cu  Cu32  1  0.68571400  0.13569300  0.01449100  1
  Cu  Cu33  1  0.68571400  0.63569300  0.48550900  1
  Cu  Cu34  1  0.81428600  0.63569300  0.98550900  1
  Cu  Cu35  1  0.81428600  0.13569300  0.51449100  1
  Cu  Cu36  1  0.31428600  0.36430700  0.51449100  1
  Cu  Cu37  1  0.69541700  0.37881400  0.76974800  1
  Cu  Cu38  1  0.31428600  0.86430700  0.98550900  1
  Cu  Cu39  1  0.19541700  0.12118600  0.76974800  1
  C  C40  1  0.39349300  0.22691700  0.22247000  1
  C  C41  1  0.39349300  0.72691700  0.27753000  1
  C  C42  1  0.75980700  0.01131100  0.51005700  1
  C  C43  1  0.75980700  0.51131100  0.98994300  1
  C  C44  1  0.90144400  0.70296400  0.05603400  1
  C  C45  1  0.80190200  0.49484300  0.23397100  1
  C  C46  1  0.25980700  0.98868900  0.98994300  1
  C  C47  1  0.09855600  0.79703600  0.55603400  1
  C  C48  1  0.19809800  0.00515700  0.73397100  1
  C  C49  1  0.40144400  0.29703600  0.44396600  1
  C  C50  1  0.59855600  0.20296400  0.94396600  1
  C  C51  1  0.60650700  0.27308300  0.72247000  1
  C  C52  1  0.24019300  0.48868900  0.01005700  1
  C  C53  1  0.60650700  0.77308300  0.77753000  1
  C  C54  1  0.69809800  0.99484300  0.76602900  1
  C  C55  1  0.80190200  0.99484300  0.26602900  1
  C  C56  1  0.09855600  0.29703600  0.94396600  1
  C  C57  1  0.10650700  0.72691700  0.77753000  1
  C  C58  1  0.19809800  0.50515700  0.76602900  1
  C  C59  1  0.24019300  0.98868900  0.48994300  1
  C  C60  1  0.59855600  0.70296400  0.55603400  1
  C  C61  1  0.74019300  0.51131100  0.48994300  1
  C  C62  1  0.30190200  0.50515700  0.26602900  1
  C  C63  1  0.40144400  0.79703600  0.05603400  1
  C  C64  1  0.25980700  0.48868900  0.51005700  1
  C  C65  1  0.74019300  0.01131100  0.01005700  1
  C  C66  1  0.69809800  0.49484300  0.73397100  1
  C  C67  1  0.89349300  0.77308300  0.27753000  1
  C  C68  1  0.89349300  0.27308300  0.22247000  1
  C  C69  1  0.30190200  0.00515700  0.23397100  1
  C  C70  1  0.90144400  0.20296400  0.44396600  1
  C  C71  1  0.10650700  0.22691700  0.72247000  1
