# generated using pymatgen
data_Cu5Ni3C25
_symmetry_space_group_name_H-M   'P 1'
_cell_length_a   9.21835687
_cell_length_b   9.21835687
_cell_length_c   11.73045800
_cell_angle_alpha   90.00000000
_cell_angle_beta   90.00000000
_cell_angle_gamma   120.29334046
_symmetry_Int_Tables_number   1
_chemical_formula_structural   Cu5Ni3C25
_chemical_formula_sum   'Cu10 Ni6 C50'
_cell_volume   860.71882705
_cell_formula_units_Z   2
loop_
 _symmetry_equiv_pos_site_id
 _symmetry_equiv_pos_as_xyz
  1  'x, y, z'
loop_
 _atom_site_type_symbol
 _atom_site_label
 _atom_site_symmetry_multiplicity
 _atom_site_fract_x
 _atom_site_fract_y
 _atom_site_fract_z
 _atom_site_occupancy
  C  C0  1  0.59772500  0.00505000  0.25027600  1
  C  C1  1  0.40100000  0.40100000  0.24959000  1
  C  C2  1  0.59900000  0.59900000  0.74959000  1
  C  C3  1  0.99495000  0.40227500  0.75027600  1
  C  C4  1  0.00505000  0.59772500  0.25027600  1
  C  C5  1  0.40227500  0.99495000  0.75027600  1
  C  C6  1  0.99178000  0.99178000  0.75550600  1
  C  C7  1  0.00822000  0.00822000  0.25550600  1
  Ni  Ni8  1  0.24217200  0.24217200  0.58867400  1
  Ni  Ni9  1  0.66522200  0.33213500  0.49868200  1
  Ni  Ni10  1  0.66786500  0.33477800  0.99868200  1
  Ni  Ni11  1  0.33477800  0.66786500  0.99868200  1
  Ni  Ni12  1  0.33213500  0.66522200  0.49868200  1
  Ni  Ni13  1  0.75782800  0.75782800  0.08867400  1
  Cu  Cu14  1  0.25130300  0.25130300  0.91368500  1
  Cu  Cu15  1  0.99121500  0.24712200  0.40687300  1
  Cu  Cu16  1  0.00177300  0.25608600  0.08899300  1
  Cu  Cu17  1  0.74869700  0.74869700  0.41368500  1
  Cu  Cu18  1  0.00878500  0.75287800  0.90687300  1
  Cu  Cu19  1  0.99822700  0.74391400  0.58899300  1
  Cu  Cu20  1  0.25608600  0.00177300  0.08899300  1
  Cu  Cu21  1  0.24712200  0.99121500  0.40687300  1
  Cu  Cu22  1  0.75287800  0.00878500  0.90687300  1
  Cu  Cu23  1  0.74391400  0.99822700  0.58899300  1
  C  C24  1  0.20492900  0.99715300  0.24977000  1
  C  C25  1  0.19886400  0.19886400  0.42234700  1
  C  C26  1  0.19667500  0.19667500  0.75149000  1
  C  C27  1  0.48219100  0.16796500  0.10155000  1
  C  C28  1  0.48062900  0.16651600  0.40245800  1
  C  C29  1  0.79454200  0.99660900  0.07453200  1
  C  C30  1  0.79562600  0.00328000  0.42684200  1
  C  C31  1  0.48390800  0.31829100  0.60090900  1
  C  C32  1  0.48022300  0.31334600  0.90045700  1
  C  C33  1  0.68707900  0.16966000  0.59913400  1
  C  C34  1  0.68282400  0.16855600  0.89720200  1
  C  C35  1  0.83034000  0.31292100  0.09913400  1
  C  C36  1  0.83144400  0.31717600  0.39720200  1
  C  C37  1  0.68665400  0.51977700  0.40045700  1
  C  C38  1  0.68170900  0.51609200  0.10090900  1
  C  C39  1  0.99672000  0.20437400  0.92684200  1
  C  C40  1  0.00339100  0.20545800  0.57453200  1
  C  C41  1  0.99715300  0.20492900  0.24977000  1
  C  C42  1  0.83203500  0.51780900  0.60155000  1
  C  C43  1  0.83348400  0.51937100  0.90245800  1
  C  C44  1  0.20224300  0.20224300  0.07335100  1
  C  C45  1  0.80332500  0.80332500  0.25149000  1
  C  C46  1  0.80113600  0.80113600  0.92234700  1
  C  C47  1  0.79775700  0.79775700  0.57335100  1
  C  C48  1  0.16796500  0.48219100  0.10155000  1
  C  C49  1  0.16651600  0.48062900  0.40245800  1
  C  C50  1  0.00284700  0.79507100  0.74977000  1
  C  C51  1  0.99660900  0.79454200  0.07453200  1
  C  C52  1  0.00328000  0.79562600  0.42684200  1
  C  C53  1  0.31829100  0.48390800  0.60090900  1
  C  C54  1  0.31334600  0.48022300  0.90045700  1
  C  C55  1  0.16966000  0.68707900  0.59913400  1
  C  C56  1  0.16855600  0.68282400  0.89720200  1
  C  C57  1  0.31717600  0.83144400  0.39720200  1
  C  C58  1  0.31292100  0.83034000  0.09913400  1
  C  C59  1  0.51609200  0.68170900  0.10090900  1
  C  C60  1  0.51977700  0.68665400  0.40045700  1
  C  C61  1  0.20437400  0.99672000  0.92684200  1
  C  C62  1  0.20545800  0.00339100  0.57453200  1
  C  C63  1  0.51937100  0.83348400  0.90245800  1
  C  C64  1  0.51780900  0.83203500  0.60155000  1
  C  C65  1  0.79507100  0.00284700  0.74977000  1
