# generated using pymatgen
data_Cu2NiC6
_symmetry_space_group_name_H-M   'P 1'
_cell_length_a   5.72426800
_cell_length_b   7.09652900
_cell_length_c   12.35577700
_cell_angle_alpha   90.00000000
_cell_angle_beta   90.00000000
_cell_angle_gamma   90.00000000
_symmetry_Int_Tables_number   1
_chemical_formula_structural   Cu2NiC6
_chemical_formula_sum   'Cu8 Ni4 C24'
_cell_volume   501.92173404
_cell_formula_units_Z   4
loop_
 _symmetry_equiv_pos_site_id
 _symmetry_equiv_pos_as_xyz
  1  'x, y, z'
loop_
 _atom_site_type_symbol
 _atom_site_label
 _atom_site_symmetry_multiplicity
 _atom_site_fract_x
 _atom_site_fract_y
 _atom_site_fract_z
 _atom_site_occupancy
  Ni  Ni0  1  0.75000000  0.07806200  0.10172600  1
  Ni  Ni1  1  0.75000000  0.42193800  0.60172600  1
  Ni  Ni2  1  0.25000000  0.57806200  0.39827400  1
  Ni  Ni3  1  0.25000000  0.92193800  0.89827400  1
  Cu  Cu4  1  0.25000000  0.40037000  0.07437800  1
  Cu  Cu5  1  0.75000000  0.61931400  0.20813300  1
  Cu  Cu6  1  0.75000000  0.88068600  0.70813300  1
  Cu  Cu7  1  0.25000000  0.11931400  0.29186700  1
  Cu  Cu8  1  0.75000000  0.59963000  0.92562200  1
  Cu  Cu9  1  0.75000000  0.90037000  0.42562200  1
  Cu  Cu10  1  0.25000000  0.09963000  0.57437800  1
  Cu  Cu11  1  0.25000000  0.38068600  0.79186700  1
  C  C12  1  0.25000000  0.80874600  0.15013800  1
  C  C13  1  0.75000000  0.19125400  0.84986200  1
  C  C14  1  0.75000000  0.30874600  0.34986200  1
  C  C15  1  0.25000000  0.69125400  0.65013800  1
  C  C16  1  0.25000000  0.42211800  0.60119100  1
  C  C17  1  0.75000000  0.57788200  0.39880900  1
  C  C18  1  0.75000000  0.92211800  0.89880900  1
  C  C19  1  0.25000000  0.07788200  0.10119100  1
  C  C20  1  0.99938900  0.86027800  0.27540000  1
  C  C21  1  0.49938900  0.13972200  0.72460000  1
  C  C22  1  0.00061100  0.36027800  0.22460000  1
  C  C23  1  0.50061100  0.63972200  0.77540000  1
  C  C24  1  0.00061100  0.13972200  0.72460000  1
  C  C25  1  0.50061100  0.86027800  0.27540000  1
  C  C26  1  0.99938900  0.63972200  0.77540000  1
  C  C27  1  0.49938900  0.36027800  0.22460000  1
  C  C28  1  0.49960500  0.66214400  0.06616900  1
  C  C29  1  0.99960500  0.33785600  0.93383100  1
  C  C30  1  0.50039500  0.16214400  0.43383100  1
  C  C31  1  0.00039500  0.83785600  0.56616900  1
  C  C32  1  0.99960500  0.16214400  0.43383100  1
  C  C33  1  0.49960500  0.83785600  0.56616900  1
  C  C34  1  0.00039500  0.66214400  0.06616900  1
  C  C35  1  0.50039500  0.33785600  0.93383100  1
