# generated using pymatgen
data_CuNi3C22
_symmetry_space_group_name_H-M   'P 1'
_cell_length_a   11.68992400
_cell_length_b   10.52650800
_cell_length_c   10.52771033
_cell_angle_alpha   60.00726543
_cell_angle_beta   90.00000000
_cell_angle_gamma   90.00000000
_symmetry_Int_Tables_number   1
_chemical_formula_structural   CuNi3C22
_chemical_formula_sum   'Cu4 Ni12 C88'
_cell_volume   1121.99872013
_cell_formula_units_Z   4
loop_
 _symmetry_equiv_pos_site_id
 _symmetry_equiv_pos_as_xyz
  1  'x, y, z'
loop_
 _atom_site_type_symbol
 _atom_site_label
 _atom_site_symmetry_multiplicity
 _atom_site_fract_x
 _atom_site_fract_y
 _atom_site_fract_z
 _atom_site_occupancy
  Ni  Ni0  1  0.00000000  0.87454200  0.82363000  1
  Ni  Ni1  1  0.50000000  0.67299400  0.65893000  1
  Ni  Ni2  1  0.50000000  0.83844900  0.31009100  1
  Ni  Ni3  1  0.00000000  0.83802300  0.30628400  1
  Ni  Ni4  1  0.75063300  0.74924500  0.11851300  1
  Ni  Ni5  1  0.24936700  0.74924500  0.11851300  1
  Ni  Ni6  1  0.50000000  0.32894700  0.85339000  1
  Ni  Ni7  1  0.00000000  0.32535900  0.85895400  1
  Ni  Ni8  1  0.75079700  0.16457000  0.72583800  1
  Ni  Ni9  1  0.24920300  0.16457000  0.72583800  1
  Ni  Ni10  1  0.74950300  0.13571400  0.13695400  1
  Ni  Ni11  1  0.25049700  0.13571400  0.13695400  1
  Cu  Cu12  1  0.50000000  0.87047700  0.81608600  1
  Cu  Cu13  1  0.00000000  0.67723700  0.66262700  1
  Cu  Cu14  1  0.74978900  0.34327700  0.32844500  1
  Cu  Cu15  1  0.25021100  0.34327700  0.32844500  1
  C  C16  1  0.62718000  0.51394600  0.99569400  1
  C  C17  1  0.12645900  0.51508700  0.99604200  1
  C  C18  1  0.37435900  0.50954900  0.49444200  1
  C  C19  1  0.87377600  0.50809800  0.49709700  1
  C  C20  1  0.62564100  0.50954900  0.49444200  1
  C  C21  1  0.12622400  0.50809800  0.49709700  1
  C  C22  1  0.37282000  0.51394600  0.99569400  1
  C  C23  1  0.87354100  0.51508700  0.99604200  1
  C  C24  1  0.87367000  0.00909800  0.49388300  1
  C  C25  1  0.37106000  0.00769200  0.49195300  1
  C  C26  1  0.62894000  0.00769200  0.49195300  1
  C  C27  1  0.12633000  0.00909800  0.49388300  1
  C  C28  1  0.37410900  0.01272200  0.99365100  1
  C  C29  1  0.75264700  0.78369300  0.76467100  1
  C  C30  1  0.24735300  0.78369300  0.76467100  1
  C  C31  1  0.62589100  0.01272200  0.99365100  1
  C  C32  1  0.86947800  0.01552300  0.99339300  1
  C  C33  1  0.13052200  0.01552300  0.99339300  1
  C  C34  1  0.24934900  0.77552100  0.45374100  1
  C  C35  1  0.75065100  0.77552100  0.45374100  1
  C  C36  1  0.75007000  0.47632000  0.76650900  1
  C  C37  1  0.24993000  0.47632000  0.76650900  1
  C  C38  1  0.50000000  0.55472400  0.21918200  1
  C  C39  1  0.00000000  0.55480100  0.22041500  1
  C  C40  1  0.50000000  0.24078200  0.54039700  1
  C  C41  1  0.00000000  0.23986300  0.54020300  1
  C  C42  1  0.50000000  0.23546200  0.22615800  1
  C  C43  1  0.00000000  0.23382800  0.22551000  1
  C  C44  1  0.65029100  0.83994300  0.69084500  1
  C  C45  1  0.14531100  0.83445300  0.68861700  1
  C  C46  1  0.85468900  0.83445300  0.68861700  1
  C  C47  1  0.34970900  0.83994300  0.69084500  1
  C  C48  1  0.50000000  0.91903100  0.47592300  1
  C  C49  1  0.00000000  0.91551500  0.47493000  1
  C  C50  1  0.24983300  0.92332600  0.42166600  1
  C  C51  1  0.75016700  0.92332600  0.42166600  1
  C  C52  1  0.75145400  0.67433000  0.91375000  1
  C  C53  1  0.24854600  0.67433000  0.91375000  1
  C  C54  1  0.50000000  0.63006300  0.90621300  1
  C  C55  1  0.00000000  0.62717800  0.90356200  1
  C  C56  1  0.85382900  0.70237600  0.47536400  1
  C  C57  1  0.35114400  0.70340400  0.46843800  1
  C  C58  1  0.64885600  0.70340400  0.46843800  1
  C  C59  1  0.14617100  0.70237600  0.47536400  1
  C  C60  1  0.85313100  0.50019700  0.81769600  1
  C  C61  1  0.64847600  0.49538700  0.82223000  1
  C  C62  1  0.35152400  0.49538700  0.82223000  1
  C  C63  1  0.14686900  0.50019700  0.81769600  1
  C  C64  1  0.50000000  0.48426800  0.60733500  1
  C  C65  1  0.00000000  0.48728800  0.61067300  1
  C  C66  1  0.50000000  0.58797800  0.33266100  1
  C  C67  1  0.00000000  0.58581100  0.33575200  1
  C  C68  1  0.75011300  0.43709100  0.65597800  1
  C  C69  1  0.24988700  0.43709100  0.65597800  1
  C  C70  1  0.75064200  0.53188200  0.37787300  1
  C  C71  1  0.24935800  0.53188200  0.37787300  1
  C  C72  1  0.13691200  0.16574500  0.92888600  1
  C  C73  1  0.63334400  0.16222500  0.91922600  1
  C  C74  1  0.86308800  0.16574500  0.92888600  1
  C  C75  1  0.36665600  0.16222500  0.91922600  1
  C  C76  1  0.60440200  0.53860700  0.16492200  1
  C  C77  1  0.10405200  0.53985200  0.16501800  1
  C  C78  1  0.39559800  0.53860700  0.16492200  1
  C  C79  1  0.89594800  0.53985200  0.16501800  1
  C  C80  1  0.60407400  0.31210000  0.52037100  1
  C  C81  1  0.39592600  0.31210000  0.52037100  1
  C  C82  1  0.10378900  0.31137200  0.52434100  1
  C  C83  1  0.89621100  0.31137200  0.52434100  1
  C  C84  1  0.37130800  0.93786200  0.91630800  1
  C  C85  1  0.62869200  0.93786200  0.91630800  1
  C  C86  1  0.86125900  0.95111900  0.90771600  1
  C  C87  1  0.13874100  0.95111900  0.90771600  1
  C  C88  1  0.24936100  0.39358900  0.08798300  1
  C  C89  1  0.75063900  0.39358900  0.08798300  1
  C  C90  1  0.50000000  0.35161800  0.07936600  1
  C  C91  1  0.00000000  0.35124100  0.07973500  1
  C  C92  1  0.50000000  0.09056900  0.58073100  1
  C  C93  1  0.00000000  0.09332500  0.57121700  1
  C  C94  1  0.75061100  0.10348500  0.51905700  1
  C  C95  1  0.24938900  0.10348500  0.51905700  1
  C  C96  1  0.89608200  0.17739100  0.29653500  1
  C  C97  1  0.39597100  0.17970500  0.29725900  1
  C  C98  1  0.60402900  0.17970500  0.29725900  1
  C  C99  1  0.10391800  0.17739100  0.29653500  1
  C  C100  1  0.86456300  0.93004000  0.14354900  1
  C  C101  1  0.36558200  0.93377800  0.14357100  1
  C  C102  1  0.63441800  0.93377800  0.14357100  1
  C  C103  1  0.13543700  0.93004000  0.14354900  1
