# generated using pymatgen
data_Cu2NiC5
_symmetry_space_group_name_H-M   'P 1'
_cell_length_a   7.63659800
_cell_length_b   8.80598562
_cell_length_c   9.86827829
_cell_angle_alpha   65.99685007
_cell_angle_beta   84.58259156
_cell_angle_gamma   77.75640850
_symmetry_Int_Tables_number   1
_chemical_formula_structural   Cu2NiC5
_chemical_formula_sum   'Cu12 Ni6 C30'
_cell_volume   592.41844985
_cell_formula_units_Z   6
loop_
 _symmetry_equiv_pos_site_id
 _symmetry_equiv_pos_as_xyz
  1  'x, y, z'
loop_
 _atom_site_type_symbol
 _atom_site_label
 _atom_site_symmetry_multiplicity
 _atom_site_fract_x
 _atom_site_fract_y
 _atom_site_fract_z
 _atom_site_occupancy
  C  C0  1  0.75427100  0.85252800  0.61981800  1
  C  C1  1  0.24572900  0.14747200  0.38018200  1
  C  C2  1  0.47032200  0.22181800  0.71354400  1
  C  C3  1  0.52967800  0.77818200  0.28645600  1
  C  C4  1  0.85166100  0.52720000  0.14084200  1
  C  C5  1  0.14833900  0.47280000  0.85915800  1
  Ni  Ni6  1  0.92663600  0.13826600  0.75741500  1
  Ni  Ni7  1  0.07336400  0.86173400  0.24258500  1
  Ni  Ni8  1  0.25810200  0.61861300  0.11831200  1
  Ni  Ni9  1  0.74189800  0.38138700  0.88168800  1
  Ni  Ni10  1  0.75468700  0.12767800  0.20041400  1
  Ni  Ni11  1  0.24531300  0.87232200  0.79958600  1
  Cu  Cu12  1  0.71480900  0.90198600  0.97029000  1
  Cu  Cu13  1  0.28519100  0.09801400  0.02971000  1
  Cu  Cu14  1  0.56901600  0.79418800  0.99283600  1
  Cu  Cu15  1  0.43098400  0.20581200  0.00716400  1
  Cu  Cu16  1  0.48680500  0.39678500  0.38691200  1
  Cu  Cu17  1  0.51319500  0.60321500  0.61308800  1
  Cu  Cu18  1  0.65640300  0.25921600  0.40421100  1
  Cu  Cu19  1  0.34359700  0.74078400  0.59578900  1
  Cu  Cu20  1  0.81714400  0.44302500  0.46119300  1
  Cu  Cu21  1  0.18285600  0.55697500  0.53880700  1
  Cu  Cu22  1  0.88014000  0.61794200  0.40144700  1
  Cu  Cu23  1  0.11986000  0.38205800  0.59855300  1
  C  C24  1  0.23838900  0.93839600  0.21104500  1
  C  C25  1  0.76161100  0.06160400  0.78895500  1
  C  C26  1  0.01709600  0.76928000  0.40106000  1
  C  C27  1  0.98290400  0.23072000  0.59893900  1
  C  C28  1  0.91584900  0.26226300  0.84412600  1
  C  C29  1  0.08415100  0.73773700  0.15587400  1
  C  C30  1  0.90893200  0.00405400  0.14841400  1
  C  C31  1  0.09106800  0.99594600  0.85158600  1
  C  C32  1  0.66647200  0.25218500  0.03791500  1
  C  C33  1  0.33352800  0.74781500  0.96208500  1
  C  C34  1  0.18102300  0.48788900  0.09409200  1
  C  C35  1  0.81897700  0.51211100  0.90590800  1
  C  C36  1  0.40296700  0.56889300  0.22886000  1
  C  C37  1  0.59703300  0.43110700  0.77114000  1
  C  C38  1  0.83899600  0.22582700  0.26259200  1
  C  C39  1  0.16100400  0.77417300  0.73740800  1
  C  C40  1  0.38478800  0.96960000  0.71011700  1
  C  C41  1  0.61521200  0.03040000  0.28988300  1
  C  C42  1  0.66538600  0.80556400  0.04483500  1
  C  C43  1  0.33461400  0.19443600  0.95516500  1
  C  C44  1  0.44900500  0.71147200  0.53937900  1
  C  C45  1  0.55099500  0.28852800  0.46062100  1
  C  C46  1  0.79627000  0.55741400  0.38223400  1
  C  C47  1  0.20373000  0.44258600  0.61776600  1
