# generated using pymatgen
data_Cu3(NiC7)2
_symmetry_space_group_name_H-M   'P 1'
_cell_length_a   10.89456100
_cell_length_b   12.48128800
_cell_length_c   18.35198000
_cell_angle_alpha   90.00000000
_cell_angle_beta   90.00000000
_cell_angle_gamma   90.00000000
_symmetry_Int_Tables_number   1
_chemical_formula_structural   Cu3(NiC7)2
_chemical_formula_sum   'Cu24 Ni16 C112'
_cell_volume   2495.46835300
_cell_formula_units_Z   8
loop_
 _symmetry_equiv_pos_site_id
 _symmetry_equiv_pos_as_xyz
  1  'x, y, z'
loop_
 _atom_site_type_symbol
 _atom_site_label
 _atom_site_symmetry_multiplicity
 _atom_site_fract_x
 _atom_site_fract_y
 _atom_site_fract_z
 _atom_site_occupancy
  C  C0  1  0.25000000  0.50000000  0.94395500  1
  C  C1  1  0.00000000  0.49658000  0.75000000  1
  C  C2  1  0.27456400  0.15120100  0.46206000  1
  C  C3  1  0.27456400  0.84879900  0.96206000  1
  C  C4  1  0.77456400  0.15120100  0.53794000  1
  C  C5  1  0.22543600  0.15120100  0.96206000  1
  C  C6  1  0.75000000  0.50000000  0.55604500  1
  C  C7  1  0.25000000  0.50000000  0.44395500  1
  C  C8  1  0.00000000  0.50342000  0.25000000  1
  C  C9  1  0.50000000  0.49658000  0.25000000  1
  C  C10  1  0.72543600  0.15120100  0.03794000  1
  C  C11  1  0.50000000  0.50342000  0.75000000  1
  C  C12  1  0.22543600  0.84879900  0.46206000  1
  C  C13  1  0.75000000  0.50000000  0.05604500  1
  C  C14  1  0.72543600  0.84879900  0.53794000  1
  C  C15  1  0.77456400  0.84879900  0.03794000  1
  Ni  Ni16  1  0.00000000  0.83309600  0.25000000  1
  Ni  Ni17  1  0.50000000  0.83309600  0.75000000  1
  Ni  Ni18  1  0.75000000  0.00000000  0.71424900  1
  Ni  Ni19  1  0.08448100  0.32431200  0.09704000  1
  Ni  Ni20  1  0.00000000  0.16690400  0.75000000  1
  Ni  Ni21  1  0.25000000  0.00000000  0.78575100  1
  Ni  Ni22  1  0.41551900  0.67568800  0.09704000  1
  Ni  Ni23  1  0.50000000  0.16690400  0.25000000  1
  Ni  Ni24  1  0.08448100  0.67568800  0.59704000  1
  Ni  Ni25  1  0.58448100  0.67568800  0.40296000  1
  Ni  Ni26  1  0.58448100  0.32431200  0.90296000  1
  Ni  Ni27  1  0.75000000  0.00000000  0.21424900  1
  Ni  Ni28  1  0.25000000  0.00000000  0.28575100  1
  Ni  Ni29  1  0.41551900  0.32431200  0.59704000  1
  Ni  Ni30  1  0.91551900  0.32431200  0.40296000  1
  Ni  Ni31  1  0.91551900  0.67568800  0.90296000  1
  Cu  Cu32  1  0.21978300  0.69956700  0.79522700  1
  Cu  Cu33  1  0.42405300  0.35651500  0.08711300  1
  Cu  Cu34  1  0.78021700  0.69956700  0.70477300  1
  Cu  Cu35  1  0.54709600  0.02279600  0.88408600  1
  Cu  Cu36  1  0.28021700  0.30043300  0.79522700  1
  Cu  Cu37  1  0.54709600  0.97720400  0.38408600  1
  Cu  Cu38  1  0.07594700  0.35651500  0.58711300  1
  Cu  Cu39  1  0.92405300  0.35651500  0.91288700  1
  Cu  Cu40  1  0.07594700  0.64348500  0.08711300  1
  Cu  Cu41  1  0.42405300  0.64348500  0.58711300  1
  Cu  Cu42  1  0.95290400  0.02279600  0.38408600  1
  Cu  Cu43  1  0.04709600  0.02279600  0.11591400  1
  Cu  Cu44  1  0.57594700  0.35651500  0.41288700  1
  Cu  Cu45  1  0.04709600  0.97720400  0.61591400  1
  Cu  Cu46  1  0.57594700  0.64348500  0.91288700  1
  Cu  Cu47  1  0.21978300  0.30043300  0.29522700  1
  Cu  Cu48  1  0.71978300  0.69956700  0.20477300  1
  Cu  Cu49  1  0.28021700  0.69956700  0.29522700  1
  Cu  Cu50  1  0.92405300  0.64348500  0.41288700  1
  Cu  Cu51  1  0.95290400  0.97720400  0.88408600  1
  Cu  Cu52  1  0.45290400  0.97720400  0.11591400  1
  Cu  Cu53  1  0.45290400  0.02279600  0.61591400  1
  Cu  Cu54  1  0.71978300  0.30043300  0.70477300  1
  Cu  Cu55  1  0.78021700  0.30043300  0.20477300  1
  C  C56  1  0.05925000  0.50124400  0.10152500  1
  C  C57  1  0.77270900  0.66274400  0.45023700  1
  C  C58  1  0.80339100  0.17255400  0.70231900  1
  C  C59  1  0.39225000  0.02563000  0.20307100  1
  C  C60  1  0.03625500  0.68294500  0.47942000  1
  C  C61  1  0.39272900  0.84730600  0.09464200  1
  C  C62  1  0.61802300  0.97500300  0.12615400  1
  C  C63  1  0.93877100  0.71635500  0.32837700  1
  C  C64  1  0.46374500  0.31705500  0.47942000  1
  C  C65  1  0.67588100  0.40241600  0.18045500  1
  C  C66  1  0.60671000  0.30148400  0.63316100  1
  C  C67  1  0.80339100  0.82744600  0.20231900  1
  C  C68  1  0.89272900  0.15269400  0.40535800  1
  C  C69  1  0.82411900  0.40241600  0.68045500  1
  C  C70  1  0.64877000  0.66914300  0.29073000  1
  C  C71  1  0.55925000  0.49875600  0.39847500  1
  C  C72  1  0.08886500  0.06878400  0.54682000  1
  C  C73  1  0.53625500  0.31705500  0.02058000  1
  C  C74  1  0.96374500  0.31705500  0.52058000  1
  C  C75  1  0.56122900  0.71635500  0.82837700  1
  C  C76  1  0.41113500  0.93121600  0.54682000  1
  C  C77  1  0.32411900  0.59758400  0.81954500  1
  C  C78  1  0.39329000  0.30148400  0.86683900  1
  C  C79  1  0.58886500  0.06878400  0.45318000  1
  C  C80  1  0.96374500  0.68294500  0.02058000  1
  C  C81  1  0.03625500  0.31705500  0.97942000  1
  C  C82  1  0.85123000  0.66914300  0.79073000  1
  C  C83  1  0.91113500  0.06878400  0.95318000  1
  C  C84  1  0.60727100  0.15269400  0.90535800  1
  C  C85  1  0.17588100  0.59758400  0.31954500  1
  C  C86  1  0.22729100  0.33725600  0.54976300  1
  C  C87  1  0.64877000  0.33085700  0.79073000  1
  C  C88  1  0.32411900  0.40241600  0.31954500  1
  C  C89  1  0.88197700  0.02499700  0.12615400  1
  C  C90  1  0.19660900  0.82744600  0.29768100  1
  C  C91  1  0.38197700  0.97500300  0.37384600  1
  C  C92  1  0.17588100  0.40241600  0.81954500  1
  C  C93  1  0.19660900  0.17255400  0.79768100  1
  C  C94  1  0.06122900  0.71635500  0.17162300  1
  C  C95  1  0.89329000  0.30148400  0.13316100  1
  C  C96  1  0.10775000  0.97437000  0.20307100  1
  C  C97  1  0.72729100  0.33725600  0.45023700  1
  C  C98  1  0.53625500  0.68294500  0.52058000  1
  C  C99  1  0.10671000  0.30148400  0.36683900  1
  C  C100  1  0.88197700  0.97500300  0.62615400  1
  C  C101  1  0.89329000  0.69851600  0.63316100  1
  C  C102  1  0.06122900  0.28364500  0.67162300  1
  C  C103  1  0.35123000  0.33085700  0.70927000  1
  C  C104  1  0.10727100  0.15269400  0.09464200  1
  C  C105  1  0.91113500  0.93121600  0.45318000  1
  C  C106  1  0.94075000  0.50124400  0.39847500  1
  C  C107  1  0.60727100  0.84730600  0.40535800  1
  C  C108  1  0.58886500  0.93121600  0.95318000  1
  C  C109  1  0.14877000  0.33085700  0.20927000  1
  C  C110  1  0.72729100  0.66274400  0.95023700  1
  C  C111  1  0.39329000  0.69851600  0.36683900  1
  C  C112  1  0.41113500  0.06878400  0.04682000  1
  C  C113  1  0.77270900  0.33725600  0.95023700  1
  C  C114  1  0.93877100  0.28364500  0.82837700  1
  C  C115  1  0.30339100  0.82744600  0.79768100  1
  C  C116  1  0.10727100  0.84730600  0.59464200  1
  C  C117  1  0.89225000  0.02563000  0.79692900  1
  C  C118  1  0.30339100  0.17255400  0.29768100  1
  C  C119  1  0.11802300  0.02499700  0.37384600  1
  C  C120  1  0.14877000  0.66914300  0.70927000  1
  C  C121  1  0.43877100  0.28364500  0.17162300  1
  C  C122  1  0.46374500  0.68294500  0.97942000  1
  C  C123  1  0.27270900  0.33725600  0.04976300  1
  C  C124  1  0.60775000  0.97437000  0.79692900  1
  C  C125  1  0.08886500  0.93121600  0.04682000  1
  C  C126  1  0.39225000  0.97437000  0.70307100  1
  C  C127  1  0.44075000  0.49875600  0.10152500  1
  C  C128  1  0.44075000  0.50124400  0.60152500  1
  C  C129  1  0.55925000  0.50124400  0.89847500  1
  C  C130  1  0.60671000  0.69851600  0.13316100  1
  C  C131  1  0.39272900  0.15269400  0.59464200  1
  C  C132  1  0.60775000  0.02563000  0.29692900  1
  C  C133  1  0.69660900  0.82744600  0.70231900  1
  C  C134  1  0.94075000  0.49875600  0.89847500  1
  C  C135  1  0.11802300  0.97500300  0.87384600  1
  C  C136  1  0.10671000  0.69851600  0.86683900  1
  C  C137  1  0.27270900  0.66274400  0.54976300  1
  C  C138  1  0.85123000  0.33085700  0.29073000  1
  C  C139  1  0.69660900  0.17255400  0.20231900  1
  C  C140  1  0.05925000  0.49875600  0.60152500  1
  C  C141  1  0.82411900  0.59758400  0.18045500  1
  C  C142  1  0.10775000  0.02563000  0.70307100  1
  C  C143  1  0.38197700  0.02499700  0.87384600  1
  C  C144  1  0.89272900  0.84730600  0.90535800  1
  C  C145  1  0.22729100  0.66274400  0.04976300  1
  C  C146  1  0.35123000  0.66914300  0.20927000  1
  C  C147  1  0.67588100  0.59758400  0.68045500  1
  C  C148  1  0.43877100  0.71635500  0.67162300  1
  C  C149  1  0.56122900  0.28364500  0.32837700  1
  C  C150  1  0.61802300  0.02499700  0.62615400  1
  C  C151  1  0.89225000  0.97437000  0.29692900  1
