# generated using pymatgen
data_Cu8NiC41
_symmetry_space_group_name_H-M   'P 1'
_cell_length_a   5.55176300
_cell_length_b   5.55176300
_cell_length_c   19.65870600
_cell_angle_alpha   90.00000000
_cell_angle_beta   90.00000000
_cell_angle_gamma   90.00000000
_symmetry_Int_Tables_number   1
_chemical_formula_structural   Cu8NiC41
_chemical_formula_sum   'Cu8 Ni1 C41'
_cell_volume   605.92205978
_cell_formula_units_Z   1
loop_
 _symmetry_equiv_pos_site_id
 _symmetry_equiv_pos_as_xyz
  1  'x, y, z'
loop_
 _atom_site_type_symbol
 _atom_site_label
 _atom_site_symmetry_multiplicity
 _atom_site_fract_x
 _atom_site_fract_y
 _atom_site_fract_z
 _atom_site_occupancy
  Ni  Ni0  1  0.00000000  0.00000000  0.00000000  1
  Cu  Cu1  1  0.00000000  0.00000000  0.19914700  1
  Cu  Cu2  1  0.50000000  0.50000000  0.20048100  1
  Cu  Cu3  1  0.50000000  0.50000000  0.40001100  1
  Cu  Cu4  1  0.50000000  0.50000000  0.59998900  1
  Cu  Cu5  1  0.50000000  0.50000000  0.79951900  1
  Cu  Cu6  1  0.00000000  0.00000000  0.39998200  1
  Cu  Cu7  1  0.00000000  0.00000000  0.60001800  1
  Cu  Cu8  1  0.00000000  0.00000000  0.80085300  1
  C  C9  1  0.50000000  0.50000000  0.00000000  1
  C  C10  1  0.00000000  0.50000000  0.50000000  1
  C  C11  1  0.00000000  0.50000000  0.29991900  1
  C  C12  1  0.00000000  0.50000000  0.90095200  1
  C  C13  1  0.00000000  0.50000000  0.70008100  1
  C  C14  1  0.00000000  0.50000000  0.09904800  1
  C  C15  1  0.50000000  0.00000000  0.29991900  1
  C  C16  1  0.50000000  0.00000000  0.50000000  1
  C  C17  1  0.50000000  0.00000000  0.90095200  1
  C  C18  1  0.50000000  0.00000000  0.09904800  1
  C  C19  1  0.50000000  0.00000000  0.70008100  1
  C  C20  1  0.00000000  0.50000000  0.39999300  1
  C  C21  1  0.00000000  0.50000000  0.80035900  1
  C  C22  1  0.24985600  0.75014400  0.29999000  1
  C  C23  1  0.25001000  0.74999000  0.50000000  1
  C  C24  1  0.24985600  0.75014400  0.70001000  1
  C  C25  1  0.25696500  0.74303500  0.90095400  1
  C  C26  1  0.25696500  0.74303500  0.09904600  1
  C  C27  1  0.50000000  0.00000000  0.39999300  1
  C  C28  1  0.24985600  0.24985600  0.29999000  1
  C  C29  1  0.50000000  0.00000000  0.19964100  1
  C  C30  1  0.25001000  0.25001000  0.50000000  1
  C  C31  1  0.24985600  0.24985600  0.70001000  1
  C  C32  1  0.25696500  0.25696500  0.09904600  1
  C  C33  1  0.50000000  0.00000000  0.80035900  1
  C  C34  1  0.50000000  0.00000000  0.00000000  1
  C  C35  1  0.25696500  0.25696500  0.90095400  1
  C  C36  1  0.50000000  0.00000000  0.60000700  1
  C  C37  1  0.75014400  0.24985600  0.29999000  1
  C  C38  1  0.74999000  0.25001000  0.50000000  1
  C  C39  1  0.75014400  0.24985600  0.70001000  1
  C  C40  1  0.74303500  0.25696500  0.90095400  1
  C  C41  1  0.74303500  0.25696500  0.09904600  1
  C  C42  1  0.75014400  0.75014400  0.29999000  1
  C  C43  1  0.74999000  0.74999000  0.50000000  1
  C  C44  1  0.75014400  0.75014400  0.70001000  1
  C  C45  1  0.74303500  0.74303500  0.90095400  1
  C  C46  1  0.00000000  0.50000000  0.19964100  1
  C  C47  1  0.00000000  0.50000000  0.60000700  1
  C  C48  1  0.74303500  0.74303500  0.09904600  1
  C  C49  1  0.00000000  0.50000000  0.00000000  1
