# generated using pymatgen
data_Cu(Ni5C13)2
_symmetry_space_group_name_H-M   'P 1'
_cell_length_a   17.89576500
_cell_length_b   17.89576500
_cell_length_c   2.87724900
_cell_angle_alpha   90.00000000
_cell_angle_beta   90.00000000
_cell_angle_gamma   90.00000000
_symmetry_Int_Tables_number   1
_chemical_formula_structural   Cu(Ni5C13)2
_chemical_formula_sum   'Cu2 Ni20 C52'
_cell_volume   921.46317534
_cell_formula_units_Z   2
loop_
 _symmetry_equiv_pos_site_id
 _symmetry_equiv_pos_as_xyz
  1  'x, y, z'
loop_
 _atom_site_type_symbol
 _atom_site_label
 _atom_site_symmetry_multiplicity
 _atom_site_fract_x
 _atom_site_fract_y
 _atom_site_fract_z
 _atom_site_occupancy
  Ni  Ni0  1  0.70912800  0.79087200  0.50000000  1
  Ni  Ni1  1  0.20912800  0.70912800  0.50000000  1
  Ni  Ni2  1  0.96812400  0.81217300  0.50000000  1
  Ni  Ni3  1  0.16898100  0.33101900  0.50000000  1
  Ni  Ni4  1  0.44974700  0.94974700  0.50000000  1
  Ni  Ni5  1  0.33101900  0.83101900  0.50000000  1
  Ni  Ni6  1  0.94974700  0.55025300  0.50000000  1
  Ni  Ni7  1  0.66898100  0.16898100  0.50000000  1
  Ni  Ni8  1  0.05025300  0.44974700  0.50000000  1
  Ni  Ni9  1  0.46812400  0.68782700  0.50000000  1
  Ni  Ni10  1  0.53187600  0.31217400  0.50000000  1
  Ni  Ni11  1  0.79087200  0.29087200  0.50000000  1
  Ni  Ni12  1  0.83101900  0.66898100  0.50000000  1
  Ni  Ni13  1  0.03187600  0.18782700  0.50000000  1
  Ni  Ni14  1  0.18782700  0.96812400  0.50000000  1
  Ni  Ni15  1  0.68782700  0.53187600  0.50000000  1
  Ni  Ni16  1  0.29087200  0.20912800  0.50000000  1
  Ni  Ni17  1  0.55025300  0.05025300  0.50000000  1
  Ni  Ni18  1  0.81217300  0.03187600  0.50000000  1
  Ni  Ni19  1  0.31217400  0.46812400  0.50000000  1
  Cu  Cu20  1  0.50000000  0.50000000  0.50000000  1
  Cu  Cu21  1  0.00000000  0.00000000  0.50000000  1
  C  C22  1  0.87563800  0.16623100  0.50000000  1
  C  C23  1  0.66627200  0.96137400  0.50000000  1
  C  C24  1  0.03862600  0.66627200  0.50000000  1
  C  C25  1  0.33376900  0.62436200  0.50000000  1
  C  C26  1  0.96137400  0.33372800  0.50000000  1
  C  C27  1  0.83372800  0.46137400  0.50000000  1
  C  C28  1  0.12436200  0.83376900  0.50000000  1
  C  C29  1  0.66623100  0.37563800  0.50000000  1
  C  C30  1  0.33372800  0.03862600  0.50000000  1
  C  C31  1  0.62436200  0.66623100  0.50000000  1
  C  C32  1  0.53862600  0.83372800  0.50000000  1
  C  C33  1  0.83376900  0.87563800  0.50000000  1
  C  C34  1  0.16627200  0.53862600  0.50000000  1
  C  C35  1  0.16623100  0.12436200  0.50000000  1
  C  C36  1  0.46137400  0.16627200  0.50000000  1
  C  C37  1  0.37563800  0.33376900  0.50000000  1
  C  C38  1  0.91260300  0.25498900  0.00000000  1
  C  C39  1  0.58739700  0.75498900  0.00000000  1
  C  C40  1  0.17390200  0.45210800  0.00000000  1
  C  C41  1  0.66047500  0.28922300  0.00000000  1
  C  C42  1  0.06685000  0.90206500  0.00000000  1
  C  C43  1  0.43315000  0.40206500  0.00000000  1
  C  C44  1  0.41768500  0.08231500  0.00000000  1
  C  C45  1  0.41260300  0.24501100  0.00000000  1
  C  C46  1  0.21077700  0.83952500  0.00000000  1
  C  C47  1  0.28922300  0.33952500  0.00000000  1
  C  C48  1  0.24501100  0.58739700  0.00000000  1
  C  C49  1  0.04789200  0.32609800  0.00000000  1
  C  C50  1  0.08231500  0.58231500  0.00000000  1
  C  C51  1  0.95210800  0.67390200  0.00000000  1
  C  C52  1  0.54789200  0.17390200  0.00000000  1
  C  C53  1  0.09793500  0.06685000  0.00000000  1
  C  C54  1  0.93315000  0.09793500  0.00000000  1
  C  C55  1  0.78922300  0.16047500  0.00000000  1
  C  C56  1  0.32609800  0.95210800  0.00000000  1
  C  C57  1  0.67390200  0.04789200  0.00000000  1
  C  C58  1  0.16047500  0.21077700  0.00000000  1
  C  C59  1  0.59793500  0.43315000  0.00000000  1
  C  C60  1  0.74501100  0.91260300  0.00000000  1
  C  C61  1  0.08739700  0.74501100  0.00000000  1
  C  C62  1  0.82609800  0.54789200  0.00000000  1
  C  C63  1  0.71077700  0.66047500  0.00000000  1
  C  C64  1  0.83952500  0.78922300  0.00000000  1
  C  C65  1  0.25498900  0.08739700  0.00000000  1
  C  C66  1  0.58231500  0.91768500  0.00000000  1
  C  C67  1  0.91768500  0.41768500  0.00000000  1
  C  C68  1  0.75498900  0.41260300  0.00000000  1
  C  C69  1  0.90206500  0.93315000  0.00000000  1
  C  C70  1  0.40206500  0.56685000  0.00000000  1
  C  C71  1  0.33952500  0.71077700  0.00000000  1
  C  C72  1  0.45210800  0.82609800  0.00000000  1
  C  C73  1  0.56685000  0.59793500  0.00000000  1
