# generated using pymatgen
data_Cu6Ni9C20
_symmetry_space_group_name_H-M   'P 1'
_cell_length_a   6.03159054
_cell_length_b   6.03159054
_cell_length_c   24.85801667
_cell_angle_alpha   81.75159345
_cell_angle_beta   81.75159345
_cell_angle_gamma   59.58707352
_symmetry_Int_Tables_number   1
_chemical_formula_structural   Cu6Ni9C20
_chemical_formula_sum   'Cu12 Ni18 C40'
_cell_volume   769.16858078
_cell_formula_units_Z   2
loop_
 _symmetry_equiv_pos_site_id
 _symmetry_equiv_pos_as_xyz
  1  'x, y, z'
loop_
 _atom_site_type_symbol
 _atom_site_label
 _atom_site_symmetry_multiplicity
 _atom_site_fract_x
 _atom_site_fract_y
 _atom_site_fract_z
 _atom_site_occupancy
  Ni  Ni0  1  0.99404200  0.99404200  0.99944100  1
  Ni  Ni1  1  0.59433300  0.59433300  0.19749800  1
  Ni  Ni2  1  0.12626000  0.62408200  0.12500500  1
  Ni  Ni3  1  0.62408200  0.12626000  0.12500500  1
  Ni  Ni4  1  0.19741100  0.19741100  0.39896100  1
  Ni  Ni5  1  0.32406900  0.32406900  0.02512200  1
  Ni  Ni6  1  0.72570400  0.22313700  0.32493200  1
  Ni  Ni7  1  0.22313700  0.72570400  0.32493200  1
  Ni  Ni8  1  0.79440400  0.79440400  0.59999200  1
  Ni  Ni9  1  0.72560500  0.72560500  0.32482900  1
  Ni  Ni10  1  0.32591400  0.82264200  0.52496500  1
  Ni  Ni11  1  0.82264200  0.32591400  0.52496500  1
  Ni  Ni12  1  0.92628500  0.42372100  0.72586700  1
  Ni  Ni13  1  0.42372100  0.92628500  0.72586700  1
  Ni  Ni14  1  0.12554200  0.12554200  0.62586300  1
  Ni  Ni15  1  0.52486100  0.02515600  0.92373800  1
  Ni  Ni16  1  0.02515600  0.52486100  0.92373800  1
  Ni  Ni17  1  0.72471500  0.72471500  0.82461800  1
  Cu  Cu18  1  0.65371300  0.65371300  0.04929300  1
  Cu  Cu19  1  0.25075700  0.25075700  0.25056900  1
  Cu  Cu20  1  0.12499700  0.12499700  0.12509700  1
  Cu  Cu21  1  0.85477400  0.85477400  0.45208600  1
  Cu  Cu22  1  0.92362600  0.92362600  0.22478800  1
  Cu  Cu23  1  0.52529800  0.52529800  0.42596600  1
  Cu  Cu24  1  0.45372300  0.45372300  0.65094400  1
  Cu  Cu25  1  0.39704600  0.39704600  0.80007900  1
  Cu  Cu26  1  0.32618800  0.32618800  0.52473100  1
  Cu  Cu27  1  0.05341100  0.05341100  0.84935600  1
  Cu  Cu28  1  0.92536700  0.92536700  0.72560800  1
  Cu  Cu29  1  0.52540100  0.52540100  0.92395900  1
  C  C30  1  0.46466000  0.46466000  0.07863300  1
  C  C31  1  0.28497300  0.28497300  0.16935000  1
  C  C32  1  0.01171700  0.46670400  0.07703800  1
  C  C33  1  0.46670400  0.01171700  0.07703800  1
  C  C34  1  0.06134200  0.06134200  0.28125700  1
  C  C35  1  0.78363000  0.24034700  0.17084700  1
  C  C36  1  0.24034700  0.78363000  0.17084700  1
  C  C37  1  0.60493100  0.05876700  0.27975300  1
  C  C38  1  0.87706900  0.87706900  0.37153400  1
  C  C39  1  0.96518100  0.96518100  0.08155000  1
  C  C40  1  0.05876700  0.60493100  0.27975300  1
  C  C41  1  0.78587700  0.78587700  0.16883400  1
  C  C42  1  0.66626900  0.66626900  0.48187600  1
  C  C43  1  0.39266300  0.84127300  0.37039300  1
  C  C44  1  0.84127300  0.39266300  0.37039300  1
  C  C45  1  0.48598100  0.48598100  0.56963600  1
  C  C46  1  0.20772700  0.66795800  0.47945400  1
  C  C47  1  0.57238200  0.57238200  0.27967500  1
  C  C48  1  0.66795800  0.20772700  0.47945400  1
  C  C49  1  0.38976100  0.38976100  0.36853700  1
  C  C50  1  0.98697100  0.43525200  0.57282300  1
  C  C51  1  0.26647000  0.26647000  0.67837100  1
  C  C52  1  0.08354700  0.08354700  0.76803500  1
  C  C53  1  0.43525200  0.98697100  0.57282300  1
  C  C54  1  0.16442700  0.16442700  0.48157700  1
  C  C55  1  0.81176400  0.26775500  0.67712200  1
  C  C56  1  0.26775500  0.81176400  0.67712200  1
  C  C57  1  0.98826500  0.98826500  0.57092900  1
  C  C58  1  0.58229100  0.04024700  0.77349300  1
  C  C59  1  0.86441200  0.86441200  0.87697300  1
  C  C60  1  0.68438900  0.68438900  0.96768700  1
  C  C61  1  0.04024700  0.58229100  0.77349300  1
  C  C62  1  0.76640600  0.76640600  0.68336800  1
  C  C63  1  0.40955800  0.86698900  0.87657400  1
  C  C64  1  0.86698900  0.40955800  0.87657400  1
  C  C65  1  0.58504500  0.58504500  0.77316800  1
  C  C66  1  0.18561200  0.63641700  0.97224200  1
  C  C67  1  0.63641700  0.18561200  0.97224200  1
  C  C68  1  0.36617500  0.36617500  0.88100800  1
  C  C69  1  0.18661600  0.18661600  0.97071100  1
