# generated using pymatgen
data_CuNiC8
_symmetry_space_group_name_H-M   'P 1'
_cell_length_a   11.84309300
_cell_length_b   7.28547500
_cell_length_c   14.41044200
_cell_angle_alpha   87.80889405
_cell_angle_beta   90.00000000
_cell_angle_gamma   90.00000000
_symmetry_Int_Tables_number   1
_chemical_formula_structural   CuNiC8
_chemical_formula_sum   'Cu8 Ni8 C64'
_cell_volume   1242.46072427
_cell_formula_units_Z   8
loop_
 _symmetry_equiv_pos_site_id
 _symmetry_equiv_pos_as_xyz
  1  'x, y, z'
loop_
 _atom_site_type_symbol
 _atom_site_label
 _atom_site_symmetry_multiplicity
 _atom_site_fract_x
 _atom_site_fract_y
 _atom_site_fract_z
 _atom_site_occupancy
  C  C0  1  0.00000000  0.50151900  0.31940300  1
  C  C1  1  0.00000000  0.05912000  0.79652700  1
  C  C2  1  0.25432300  0.94652600  0.70737300  1
  C  C3  1  0.27531000  0.97516600  0.20360900  1
  C  C4  1  0.50000000  0.03919800  0.29626600  1
  C  C5  1  0.50000000  0.05478500  0.79547000  1
  C  C6  1  0.72469000  0.97516600  0.20360900  1
  C  C7  1  0.74567700  0.94652600  0.70737300  1
  C  C8  1  0.00000000  0.02412600  0.29737200  1
  C  C9  1  0.00000000  0.51334300  0.81839000  1
  C  C10  1  0.23202100  0.51194100  0.19640700  1
  C  C11  1  0.25037000  0.48919500  0.68115500  1
  C  C12  1  0.50000000  0.49157500  0.31092900  1
  C  C13  1  0.50000000  0.51041200  0.81745600  1
  C  C14  1  0.76797900  0.51194100  0.19640700  1
  C  C15  1  0.74963000  0.48919500  0.68115500  1
  Ni  Ni16  1  0.00000000  0.75346900  0.12993500  1
  Ni  Ni17  1  0.00000000  0.74107500  0.62557400  1
  Ni  Ni18  1  0.24998900  0.24447000  0.37207600  1
  Ni  Ni19  1  0.25142200  0.26199300  0.87575600  1
  Ni  Ni20  1  0.50000000  0.74492700  0.12682300  1
  Ni  Ni21  1  0.50000000  0.73902300  0.62180700  1
  Ni  Ni22  1  0.75001100  0.24447000  0.37207600  1
  Ni  Ni23  1  0.74857800  0.26199300  0.87575600  1
  Cu  Cu24  1  0.00000000  0.25806000  0.05327400  1
  Cu  Cu25  1  0.00000000  0.22598000  0.55545000  1
  Cu  Cu26  1  0.25081200  0.75291900  0.44202200  1
  Cu  Cu27  1  0.25020200  0.76825400  0.94671200  1
  Cu  Cu28  1  0.50000000  0.23722200  0.05375800  1
  Cu  Cu29  1  0.50000000  0.22906800  0.55406800  1
  Cu  Cu30  1  0.74918800  0.75291900  0.44202200  1
  Cu  Cu31  1  0.74979800  0.76825400  0.94671200  1
  C  C32  1  0.87474300  0.75437800  0.51395800  1
  C  C33  1  0.87418500  0.74440200  0.02033800  1
  C  C34  1  0.87233100  0.26091900  0.27326400  1
  C  C35  1  0.86737600  0.30168100  0.77796200  1
  C  C36  1  0.00000000  0.04474300  0.12376400  1
  C  C37  1  0.00000000  0.46140400  0.12280700  1
  C  C38  1  0.00000000  0.02971100  0.63794900  1
  C  C39  1  0.00000000  0.44091000  0.61595400  1
  C  C40  1  0.12766900  0.26091900  0.27326400  1
  C  C41  1  0.13262400  0.30168100  0.77796200  1
  C  C42  1  0.12525700  0.75437800  0.51395800  1
  C  C43  1  0.12581500  0.74440200  0.02033800  1
  C  C44  1  0.12363900  0.26883100  0.97984600  1
  C  C45  1  0.12436000  0.21901000  0.48250700  1
  C  C46  1  0.11975900  0.70096200  0.72380900  1
  C  C47  1  0.11679800  0.75793500  0.23212000  1
  C  C48  1  0.25030800  0.53849900  0.38025000  1
  C  C49  1  0.25439300  0.95893100  0.36704700  1
  C  C50  1  0.26110400  0.56140500  0.88072500  1
  C  C51  1  0.24174400  0.97057100  0.86850300  1
  C  C52  1  0.38114400  0.70215900  0.22854400  1
  C  C53  1  0.38365000  0.70200100  0.72194700  1
  C  C54  1  0.37727000  0.23838000  0.97940700  1
  C  C55  1  0.37525200  0.23587500  0.48051900  1
  C  C56  1  0.37314500  0.74816200  0.51775300  1
  C  C57  1  0.37479300  0.77419000  0.01917800  1
  C  C58  1  0.36374100  0.28717500  0.26616700  1
  C  C59  1  0.36750600  0.29486900  0.77577900  1
  C  C60  1  0.50000000  0.03500500  0.13395700  1
  C  C61  1  0.50000000  0.45549900  0.11097800  1
  C  C62  1  0.50000000  0.03018700  0.63429500  1
  C  C63  1  0.50000000  0.43804100  0.61833100  1
  C  C64  1  0.63625900  0.28717500  0.26616700  1
  C  C65  1  0.63249400  0.29486900  0.77577900  1
  C  C66  1  0.62685500  0.74816200  0.51775300  1
  C  C67  1  0.62520700  0.77419000  0.01917800  1
  C  C68  1  0.62273000  0.23838000  0.97940700  1
  C  C69  1  0.62474800  0.23587500  0.48051900  1
  C  C70  1  0.61885600  0.70215900  0.22854400  1
  C  C71  1  0.61635000  0.70200100  0.72194700  1
  C  C72  1  0.74969200  0.53849900  0.38025000  1
  C  C73  1  0.74560700  0.95893100  0.36704700  1
  C  C74  1  0.73889600  0.56140500  0.88072500  1
  C  C75  1  0.75825600  0.97057100  0.86850300  1
  C  C76  1  0.88320200  0.75793500  0.23212000  1
  C  C77  1  0.88024100  0.70096200  0.72380900  1
  C  C78  1  0.87636100  0.26883100  0.97984600  1
  C  C79  1  0.87564000  0.21901000  0.48250700  1
