# generated using pymatgen
data_Cu8Ni8C5
_symmetry_space_group_name_H-M   'P 1'
_cell_length_a   15.92875973
_cell_length_b   15.92875973
_cell_length_c   16.23209891
_cell_angle_alpha   60.15048961
_cell_angle_beta   60.15048961
_cell_angle_gamma   26.91613802
_symmetry_Int_Tables_number   1
_chemical_formula_structural   Cu8Ni8C5
_chemical_formula_sum   'Cu32 Ni32 C20'
_cell_volume   1601.72739879
_cell_formula_units_Z   4
loop_
 _symmetry_equiv_pos_site_id
 _symmetry_equiv_pos_as_xyz
  1  'x, y, z'
loop_
 _atom_site_type_symbol
 _atom_site_label
 _atom_site_symmetry_multiplicity
 _atom_site_fract_x
 _atom_site_fract_y
 _atom_site_fract_z
 _atom_site_occupancy
  C  C0  1  0.67297100  0.20174600  0.36128400  1
  C  C1  1  0.97678700  0.64989200  0.58437800  1
  C  C2  1  0.20174600  0.67297100  0.86128400  1
  C  C3  1  0.03514400  0.46276000  0.11531000  1
  C  C4  1  0.19203900  0.73217700  0.51775200  1
  C  C5  1  0.79825400  0.32702900  0.13871600  1
  C  C6  1  0.02321300  0.35010800  0.41562200  1
  C  C7  1  0.26782300  0.80796100  0.98224800  1
  C  C8  1  0.73217700  0.19203900  0.01775200  1
  C  C9  1  0.96485600  0.53724000  0.88469000  1
  C  C10  1  0.32702900  0.79825400  0.63871600  1
  C  C11  1  0.35010800  0.02321300  0.91562200  1
  C  C12  1  0.64989200  0.97678700  0.08437800  1
  C  C13  1  0.46276000  0.03514400  0.61531000  1
  C  C14  1  0.53724000  0.96485600  0.38469000  1
  C  C15  1  0.80796100  0.26782300  0.48224800  1
  C  C16  1  0.61632000  0.13893100  0.76089800  1
  C  C17  1  0.13893100  0.61632000  0.26089800  1
  C  C18  1  0.38368000  0.86106900  0.23910200  1
  C  C19  1  0.86106900  0.38368000  0.73910200  1
  Ni  Ni20  1  0.39581300  0.80004700  0.13766600  1
  Ni  Ni21  1  0.57093600  0.79194600  0.11174200  1
  Ni  Ni22  1  0.98742200  0.13337600  0.79030000  1
  Ni  Ni23  1  0.98495900  0.63670200  0.26309100  1
  Ni  Ni24  1  0.62639200  0.48664000  0.81524500  1
  Ni  Ni25  1  0.28061500  0.92333300  0.38127300  1
  Ni  Ni26  1  0.36135100  0.35423800  0.21158500  1
  Ni  Ni27  1  0.36329800  0.01504100  0.23690900  1
  Ni  Ni28  1  0.17718400  0.12491500  0.14917200  1
  Ni  Ni29  1  0.19995300  0.60418700  0.36233400  1
  Ni  Ni30  1  0.51336000  0.37360800  0.68475500  1
  Ni  Ni31  1  0.37360800  0.51336000  0.18475500  1
  Ni  Ni32  1  0.01504100  0.36329800  0.73690900  1
  Ni  Ni33  1  0.01257800  0.86662400  0.20970000  1
  Ni  Ni34  1  0.13337600  0.98742200  0.29030000  1
  Ni  Ni35  1  0.48664000  0.62639200  0.31524500  1
  Ni  Ni36  1  0.20805400  0.42906400  0.38825800  1
  Ni  Ni37  1  0.71938500  0.07666700  0.61872700  1
  Ni  Ni38  1  0.79194600  0.57093600  0.61174200  1
  Ni  Ni39  1  0.86662400  0.01257800  0.70970000  1
  Ni  Ni40  1  0.92333300  0.28061500  0.88127300  1
  Ni  Ni41  1  0.64576200  0.63864900  0.28841500  1
  Ni  Ni42  1  0.12491500  0.17718400  0.64917200  1
  Ni  Ni43  1  0.87508500  0.82281600  0.35082800  1
  Ni  Ni44  1  0.63670200  0.98495900  0.76309100  1
  Ni  Ni45  1  0.42906400  0.20805400  0.88825800  1
  Ni  Ni46  1  0.35423800  0.36135100  0.71158500  1
  Ni  Ni47  1  0.07666700  0.71938500  0.11872700  1
  Ni  Ni48  1  0.60418700  0.19995300  0.86233400  1
  Ni  Ni49  1  0.80004700  0.39581300  0.63766600  1
  Ni  Ni50  1  0.82281600  0.87508500  0.85082800  1
  Ni  Ni51  1  0.63864900  0.64576200  0.78841500  1
  Cu  Cu52  1  0.67079600  0.75861500  0.04263000  1
  Cu  Cu53  1  0.59882500  0.22326000  0.92418300  1
  Cu  Cu54  1  0.51618300  0.78687500  0.81664500  1
  Cu  Cu55  1  0.99916600  0.05276200  0.32269600  1
  Cu  Cu56  1  0.96252300  0.22130500  0.95820300  1
  Cu  Cu57  1  0.06873300  0.26352400  0.09592900  1
  Cu  Cu58  1  0.89301500  0.65584900  0.26570600  1
  Cu  Cu59  1  0.46320400  0.49703300  0.63905300  1
  Cu  Cu60  1  0.93126700  0.73647600  0.90407100  1
  Cu  Cu61  1  0.21312500  0.48381700  0.68335500  1
  Cu  Cu62  1  0.53679600  0.50296700  0.36094700  1
  Cu  Cu63  1  0.78687500  0.51618300  0.31664500  1
  Cu  Cu64  1  0.10698500  0.34415100  0.73429400  1
  Cu  Cu65  1  0.34415100  0.10698500  0.23429400  1
  Cu  Cu66  1  0.75861500  0.67079600  0.54263000  1
  Cu  Cu67  1  0.22326000  0.59882500  0.42418300  1
  Cu  Cu68  1  0.22130500  0.96252300  0.45820300  1
  Cu  Cu69  1  0.00083400  0.94723800  0.67730400  1
  Cu  Cu70  1  0.94723800  0.00083400  0.17730400  1
  Cu  Cu71  1  0.05276200  0.99916600  0.82269600  1
  Cu  Cu72  1  0.77869500  0.03747700  0.54179700  1
  Cu  Cu73  1  0.49703300  0.46320400  0.13905300  1
  Cu  Cu74  1  0.26352400  0.06873300  0.59592900  1
  Cu  Cu75  1  0.32920400  0.24138500  0.95737000  1
  Cu  Cu76  1  0.03747700  0.77869500  0.04179700  1
  Cu  Cu77  1  0.65584900  0.89301500  0.76570600  1
  Cu  Cu78  1  0.24138500  0.32920400  0.45737000  1
  Cu  Cu79  1  0.40117500  0.77674000  0.07581700  1
  Cu  Cu80  1  0.77674000  0.40117500  0.57581700  1
  Cu  Cu81  1  0.50296700  0.53679600  0.86094700  1
  Cu  Cu82  1  0.48381700  0.21312500  0.18335500  1
  Cu  Cu83  1  0.73647600  0.93126700  0.40407100  1
