# generated using pymatgen
data_Cu(NiC10)2
_symmetry_space_group_name_H-M   'P 1'
_cell_length_a   9.16263753
_cell_length_b   9.16263753
_cell_length_c   6.84099951
_cell_angle_alpha   85.82334770
_cell_angle_beta   85.82334770
_cell_angle_gamma   88.42285257
_symmetry_Int_Tables_number   1
_chemical_formula_structural   Cu(NiC10)2
_chemical_formula_sum   'Cu2 Ni4 C40'
_cell_volume   571.13972514
_cell_formula_units_Z   2
loop_
 _symmetry_equiv_pos_site_id
 _symmetry_equiv_pos_as_xyz
  1  'x, y, z'
loop_
 _atom_site_type_symbol
 _atom_site_label
 _atom_site_symmetry_multiplicity
 _atom_site_fract_x
 _atom_site_fract_y
 _atom_site_fract_z
 _atom_site_occupancy
  C  C0  1  0.80843600  0.83145400  0.41650300  1
  C  C1  1  0.16854600  0.19156400  0.58349700  1
  C  C2  1  0.91973300  0.80005300  0.90237000  1
  C  C3  1  0.19994700  0.08026700  0.09763000  1
  Ni  Ni4  1  0.05678900  0.57848200  0.23851300  1
  Ni  Ni5  1  0.42151800  0.94321100  0.76148700  1
  Ni  Ni6  1  0.75197800  0.24802200  0.50000000  1
  Ni  Ni7  1  0.24373800  0.75626200  0.50000000  1
  Cu  Cu8  1  0.49487200  0.32987000  0.79839700  1
  Cu  Cu9  1  0.67013000  0.50512800  0.20160300  1
  C  C10  1  0.82845000  0.16667800  0.81679400  1
  C  C11  1  0.83332200  0.17155000  0.18320600  1
  C  C12  1  0.45781400  0.25006100  0.29193600  1
  C  C13  1  0.74993900  0.54218600  0.70806400  1
  C  C14  1  0.21925900  0.58273400  0.97088700  1
  C  C15  1  0.41726600  0.78074100  0.02911300  1
  C  C16  1  0.11097500  0.50718200  0.68625300  1
  C  C17  1  0.49281800  0.88902500  0.31374700  1
  C  C18  1  0.24370500  0.41912900  0.95333500  1
  C  C19  1  0.14044600  0.63016900  0.79095400  1
  C  C20  1  0.71153800  0.46739300  0.88803700  1
  C  C21  1  0.53260700  0.28846200  0.11196300  1
  C  C22  1  0.35001400  0.13637800  0.79932900  1
  C  C23  1  0.54274500  0.26918000  0.45015300  1
  C  C24  1  0.73082000  0.45725500  0.54984700  1
  C  C25  1  0.50903800  0.94659100  0.48399900  1
  C  C26  1  0.87581300  0.12418700  0.00000000  1
  C  C27  1  0.62247500  0.85867200  0.19079500  1
  C  C28  1  0.80103600  0.07667600  0.34134300  1
  C  C29  1  0.14132800  0.37752500  0.80920500  1
  C  C30  1  0.92332400  0.19896400  0.65865700  1
  C  C31  1  0.68265900  0.15842700  0.77104000  1
  C  C32  1  0.84157300  0.31734100  0.22896000  1
  C  C33  1  0.12332700  0.92511800  0.89460200  1
  C  C34  1  0.07488200  0.87667300  0.10539800  1
  C  C35  1  0.79276600  0.68342300  0.68977200  1
  C  C36  1  0.04616800  0.83543700  0.51880700  1
  C  C37  1  0.16456300  0.95383200  0.48119300  1
  C  C38  1  0.31657700  0.20723400  0.31022800  1
  C  C39  1  0.05340900  0.49096200  0.51600100  1
  C  C40  1  0.35056100  0.64943900  0.00000000  1
  C  C41  1  0.32365800  0.56708600  0.46072100  1
  C  C42  1  0.43291400  0.67634200  0.53927900  1
  C  C43  1  0.58087100  0.75629500  0.04666500  1
  C  C44  1  0.36983100  0.85955400  0.20904600  1
  C  C45  1  0.86362200  0.64998600  0.20067100  1
