# generated using pymatgen
data_Cu2Ni4C3
_symmetry_space_group_name_H-M   'P 1'
_cell_length_a   6.77713400
_cell_length_b   7.24303600
_cell_length_c   8.11196000
_cell_angle_alpha   90.00000000
_cell_angle_beta   90.00000000
_cell_angle_gamma   90.00000000
_symmetry_Int_Tables_number   1
_chemical_formula_structural   Cu2Ni4C3
_chemical_formula_sum   'Cu8 Ni16 C12'
_cell_volume   398.19198769
_cell_formula_units_Z   4
loop_
 _symmetry_equiv_pos_site_id
 _symmetry_equiv_pos_as_xyz
  1  'x, y, z'
loop_
 _atom_site_type_symbol
 _atom_site_label
 _atom_site_symmetry_multiplicity
 _atom_site_fract_x
 _atom_site_fract_y
 _atom_site_fract_z
 _atom_site_occupancy
  Ni  Ni0  1  0.84140500  0.50017800  0.25072600  1
  Ni  Ni1  1  0.84140500  0.00017800  0.24927400  1
  Ni  Ni2  1  0.34140500  0.49982200  0.74927400  1
  Ni  Ni3  1  0.34140500  0.99982200  0.75072600  1
  Ni  Ni4  1  0.04956200  0.73956800  0.36421200  1
  Ni  Ni5  1  0.60145700  0.37168200  0.10524200  1
  Ni  Ni6  1  0.39134200  0.06551100  0.17841300  1
  Ni  Ni7  1  0.54956200  0.26043200  0.63578800  1
  Ni  Ni8  1  0.10145700  0.62831800  0.89475800  1
  Ni  Ni9  1  0.89134200  0.93448900  0.82158700  1
  Ni  Ni10  1  0.10145700  0.12831800  0.60524200  1
  Ni  Ni11  1  0.89134200  0.43448900  0.67841300  1
  Ni  Ni12  1  0.54956200  0.76043200  0.86421200  1
  Ni  Ni13  1  0.60145700  0.87168200  0.39475800  1
  Ni  Ni14  1  0.39134200  0.56551100  0.32158700  1
  Ni  Ni15  1  0.04956200  0.23956800  0.13578800  1
  Cu  Cu16  1  0.73893700  0.91541900  0.82337900  1
  Cu  Cu17  1  0.73893700  0.41541900  0.67662100  1
  Cu  Cu18  1  0.23893700  0.08458100  0.17662100  1
  Cu  Cu19  1  0.23893700  0.58458100  0.32337900  1
  Cu  Cu20  1  0.78546100  0.67330500  0.42969700  1
  Cu  Cu21  1  0.78546100  0.17330500  0.07030300  1
  Cu  Cu22  1  0.28546100  0.32669500  0.57030300  1
  Cu  Cu23  1  0.28546100  0.82669500  0.92969700  1
  C  C24  1  0.73727300  0.59521300  0.26913100  1
  C  C25  1  0.73727300  0.09521300  0.23086900  1
  C  C26  1  0.23727300  0.40478700  0.73086900  1
  C  C27  1  0.23727300  0.90478700  0.76913100  1
  C  C28  1  0.93063900  0.81538000  0.39657900  1
  C  C29  1  0.61790200  0.26983900  0.02497900  1
  C  C30  1  0.43063900  0.18462000  0.60342100  1
  C  C31  1  0.11790200  0.73016100  0.97502100  1
  C  C32  1  0.11790200  0.23016100  0.52497900  1
  C  C33  1  0.43063900  0.68462000  0.89657900  1
  C  C34  1  0.61790200  0.76983900  0.47502100  1
  C  C35  1  0.93063900  0.31538000  0.10342100  1
