# generated using pymatgen
data_CuNiC16
_symmetry_space_group_name_H-M   'P 1'
_cell_length_a   9.20633015
_cell_length_b   9.20633015
_cell_length_c   10.21243385
_cell_angle_alpha   56.38919615
_cell_angle_beta   56.38919615
_cell_angle_gamma   45.87549445
_symmetry_Int_Tables_number   1
_chemical_formula_structural   CuNiC16
_chemical_formula_sum   'Cu2 Ni2 C32'
_cell_volume   496.56258091
_cell_formula_units_Z   2
loop_
 _symmetry_equiv_pos_site_id
 _symmetry_equiv_pos_as_xyz
  1  'x, y, z'
loop_
 _atom_site_type_symbol
 _atom_site_label
 _atom_site_symmetry_multiplicity
 _atom_site_fract_x
 _atom_site_fract_y
 _atom_site_fract_z
 _atom_site_occupancy
  Ni  Ni0  1  0.00000000  0.00000000  0.00000000  1
  Ni  Ni1  1  0.00000000  0.00000000  0.50000000  1
  Cu  Cu2  1  0.22803300  0.77196700  0.25000000  1
  Cu  Cu3  1  0.77196700  0.22803300  0.75000000  1
  C  C4  1  0.68989600  0.01075700  0.20597000  1
  C  C5  1  0.98924300  0.31010400  0.29403000  1
  C  C6  1  0.31010400  0.98924300  0.79403000  1
  C  C7  1  0.01075700  0.68989600  0.70597000  1
  C  C8  1  0.58387900  0.68723200  0.38884400  1
  C  C9  1  0.31276800  0.41612100  0.11115600  1
  C  C10  1  0.41612100  0.31276800  0.61115600  1
  C  C11  1  0.68723200  0.58387900  0.88884400  1
  C  C12  1  0.76351400  0.99950100  0.03496200  1
  C  C13  1  0.00049900  0.23648600  0.46503800  1
  C  C14  1  0.23648600  0.00049900  0.96503800  1
  C  C15  1  0.99950100  0.76351400  0.53496200  1
  C  C16  1  0.84239200  0.99798700  0.23489200  1
  C  C17  1  0.00201300  0.15760800  0.26510800  1
  C  C18  1  0.15760800  0.00201300  0.76510800  1
  C  C19  1  0.99798700  0.84239200  0.73489200  1
  C  C20  1  0.45821800  0.22187400  0.23556600  1
  C  C21  1  0.77812600  0.54178200  0.26443400  1
  C  C22  1  0.57979000  0.56172800  0.56383600  1
  C  C23  1  0.43827200  0.42021000  0.93616400  1
  C  C24  1  0.42021000  0.43827200  0.43616400  1
  C  C25  1  0.56172800  0.57979000  0.06383600  1
  C  C26  1  0.83275200  0.65102100  0.84807500  1
  C  C27  1  0.34897900  0.16724800  0.65192500  1
  C  C28  1  0.16724800  0.34897900  0.15192500  1
  C  C29  1  0.65102100  0.83275200  0.34807500  1
  C  C30  1  0.81937000  0.39130500  0.83467500  1
  C  C31  1  0.60869500  0.18063000  0.66532500  1
  C  C32  1  0.18063000  0.60869500  0.16532500  1
  C  C33  1  0.39130500  0.81937000  0.33467500  1
  C  C34  1  0.22187400  0.45821800  0.73556600  1
  C  C35  1  0.54178200  0.77812600  0.76443400  1
