# generated using pymatgen
data_Cu(NiC7)3
_symmetry_space_group_name_H-M   'P 1'
_cell_length_a   7.38990200
_cell_length_b   14.81145300
_cell_length_c   16.03808200
_cell_angle_alpha   90.00000000
_cell_angle_beta   90.00000000
_cell_angle_gamma   90.00000000
_symmetry_Int_Tables_number   1
_chemical_formula_structural   Cu(NiC7)3
_chemical_formula_sum   'Cu4 Ni12 C84'
_cell_volume   1755.45125076
_cell_formula_units_Z   4
loop_
 _symmetry_equiv_pos_site_id
 _symmetry_equiv_pos_as_xyz
  1  'x, y, z'
loop_
 _atom_site_type_symbol
 _atom_site_label
 _atom_site_symmetry_multiplicity
 _atom_site_fract_x
 _atom_site_fract_y
 _atom_site_fract_z
 _atom_site_occupancy
  Ni  Ni0  1  0.50000000  0.53596100  0.38285200  1
  Ni  Ni1  1  0.50000000  0.59375300  0.93807300  1
  Ni  Ni2  1  0.50000000  0.40624700  0.06192700  1
  Ni  Ni3  1  0.50000000  0.09375300  0.56192700  1
  Ni  Ni4  1  0.00000000  0.62184200  0.71052400  1
  Ni  Ni5  1  0.00000000  0.37815800  0.28947600  1
  Ni  Ni6  1  0.00000000  0.12184200  0.78947600  1
  Ni  Ni7  1  0.00000000  0.87815800  0.21052400  1
  Ni  Ni8  1  0.50000000  0.90624700  0.43807300  1
  Ni  Ni9  1  0.50000000  0.03596100  0.11714800  1
  Ni  Ni10  1  0.50000000  0.46403900  0.61714800  1
  Ni  Ni11  1  0.50000000  0.96403900  0.88285200  1
  Cu  Cu12  1  0.00000000  0.50000000  0.00000000  1
  Cu  Cu13  1  0.00000000  0.00000000  0.50000000  1
  Cu  Cu14  1  0.00000000  0.50000000  0.50000000  1
  Cu  Cu15  1  0.00000000  0.00000000  0.00000000  1
  C  C16  1  0.71402400  0.19919800  0.96122500  1
  C  C17  1  0.71402400  0.80080200  0.03877500  1
  C  C18  1  0.28597600  0.69919800  0.53877500  1
  C  C19  1  0.28597600  0.30080200  0.46122500  1
  C  C20  1  0.28597600  0.80080200  0.03877500  1
  C  C21  1  0.28597600  0.19919800  0.96122500  1
  C  C22  1  0.71402400  0.30080200  0.46122500  1
  C  C23  1  0.71402400  0.69919800  0.53877500  1
  C  C24  1  0.00000000  0.77975500  0.40916800  1
  C  C25  1  0.00000000  0.22024500  0.59083200  1
  C  C26  1  0.00000000  0.27975500  0.09083200  1
  C  C27  1  0.00000000  0.72024500  0.90916800  1
  C  C28  1  0.71070300  0.36533300  0.85370700  1
  C  C29  1  0.71070300  0.63466700  0.14629300  1
  C  C30  1  0.28929700  0.86533300  0.64629300  1
  C  C31  1  0.00000000  0.87672800  0.78877600  1
  C  C32  1  0.28929700  0.13466700  0.35370700  1
  C  C33  1  0.00000000  0.12327200  0.21122400  1
  C  C34  1  0.28929700  0.36533300  0.85370700  1
  C  C35  1  0.71070300  0.13466700  0.35370700  1
  C  C36  1  0.28929700  0.63466700  0.14629300  1
  C  C37  1  0.00000000  0.62327200  0.28877600  1
  C  C38  1  0.00000000  0.37672800  0.71122400  1
  C  C39  1  0.71070300  0.86533300  0.64629300  1
  C  C40  1  0.75980500  0.25779500  0.87561900  1
  C  C41  1  0.50000000  0.78326600  0.01354000  1
  C  C42  1  0.50000000  0.21673400  0.98646000  1
  C  C43  1  0.50000000  0.28326600  0.48646000  1
  C  C44  1  0.50000000  0.71673400  0.51354000  1
  C  C45  1  0.76037500  0.09449200  0.94730700  1
  C  C46  1  0.76037500  0.90550800  0.05269300  1
  C  C47  1  0.23962500  0.59449200  0.55269300  1
  C  C48  1  0.23962500  0.40550800  0.44730700  1
  C  C49  1  0.23962500  0.90550800  0.05269300  1
  C  C50  1  0.23962500  0.09449200  0.94730700  1
  C  C51  1  0.76037500  0.40550800  0.44730700  1
  C  C52  1  0.76037500  0.59449200  0.55269300  1
  C  C53  1  0.75980500  0.74220500  0.12438100  1
  C  C54  1  0.24019500  0.75779500  0.62438100  1
  C  C55  1  0.24019500  0.24220500  0.37561900  1
  C  C56  1  0.24019500  0.74220500  0.12438100  1
  C  C57  1  0.50000000  0.63017300  0.17860200  1
  C  C58  1  0.75980500  0.24220500  0.37561900  1
  C  C59  1  0.75980500  0.75779500  0.62438100  1
  C  C60  1  0.74834400  0.43071300  0.93120900  1
  C  C61  1  0.74834400  0.56928700  0.06879100  1
  C  C62  1  0.25165600  0.93071300  0.56879100  1
  C  C63  1  0.25165600  0.06928700  0.43120900  1
  C  C64  1  0.25165600  0.56928700  0.06879100  1
  C  C65  1  0.24019500  0.25779500  0.87561900  1
  C  C66  1  0.74834400  0.06928700  0.43120900  1
  C  C67  1  0.74834400  0.93071300  0.56879100  1
  C  C68  1  0.81864100  0.75636000  0.95846100  1
  C  C69  1  0.81864100  0.24364000  0.04153900  1
  C  C70  1  0.18135900  0.25636000  0.54153900  1
  C  C71  1  0.18135900  0.74364000  0.45846100  1
  C  C72  1  0.18135900  0.24364000  0.04153900  1
  C  C73  1  0.18135900  0.75636000  0.95846100  1
  C  C74  1  0.81864100  0.74364000  0.45846100  1
  C  C75  1  0.81864100  0.25636000  0.54153900  1
  C  C76  1  0.00000000  0.61361000  0.89538200  1
  C  C77  1  0.00000000  0.38639000  0.10461800  1
  C  C78  1  0.00000000  0.11361000  0.60461800  1
  C  C79  1  0.00000000  0.88639000  0.39538200  1
  C  C80  1  0.00000000  0.76918700  0.81625400  1
  C  C81  1  0.00000000  0.23081300  0.18374600  1
  C  C82  1  0.00000000  0.26918700  0.68374600  1
  C  C83  1  0.00000000  0.73081300  0.31625400  1
  C  C84  1  0.00000000  0.94527100  0.86529700  1
  C  C85  1  0.00000000  0.05472900  0.13470300  1
  C  C86  1  0.00000000  0.44527100  0.63470300  1
  C  C87  1  0.00000000  0.55472900  0.36529700  1
  C  C88  1  0.81982500  0.89383200  0.73131000  1
  C  C89  1  0.81982500  0.10616800  0.26869000  1
  C  C90  1  0.18017500  0.39383200  0.76869000  1
  C  C91  1  0.18017500  0.60616800  0.23131000  1
  C  C92  1  0.18017500  0.10616800  0.26869000  1
  C  C93  1  0.18017500  0.89383200  0.73131000  1
  C  C94  1  0.81982500  0.60616800  0.23131000  1
  C  C95  1  0.81982500  0.39383200  0.76869000  1
  C  C96  1  0.50000000  0.86982700  0.67860200  1
  C  C97  1  0.50000000  0.13017300  0.32139800  1
  C  C98  1  0.50000000  0.36982700  0.82139800  1
  C  C99  1  0.25165600  0.43071300  0.93120900  1
