# generated using pymatgen
data_Cu(Ni4C)2
_symmetry_space_group_name_H-M   'P 1'
_cell_length_a   6.66673700
_cell_length_b   10.38143200
_cell_length_c   18.46577576
_cell_angle_alpha   79.80085154
_cell_angle_beta   90.00000000
_cell_angle_gamma   90.00000000
_symmetry_Int_Tables_number   1
_chemical_formula_structural   Cu(Ni4C)2
_chemical_formula_sum   'Cu4 Ni32 C8'
_cell_volume   1257.82646370
_cell_formula_units_Z   4
loop_
 _symmetry_equiv_pos_site_id
 _symmetry_equiv_pos_as_xyz
  1  'x, y, z'
loop_
 _atom_site_type_symbol
 _atom_site_label
 _atom_site_symmetry_multiplicity
 _atom_site_fract_x
 _atom_site_fract_y
 _atom_site_fract_z
 _atom_site_occupancy
  C  C0  1  0.18044800  0.89162900  0.87278300  1
  C  C1  1  0.81955200  0.10837100  0.12721700  1
  C  C2  1  0.18044800  0.10837100  0.62721700  1
  C  C3  1  0.03852700  0.44465500  0.16378100  1
  C  C4  1  0.96147300  0.44465500  0.66378100  1
  C  C5  1  0.03852700  0.55534500  0.33621900  1
  C  C6  1  0.96147300  0.55534500  0.83621900  1
  C  C7  1  0.81955200  0.89162900  0.37278300  1
  Ni  Ni8  1  0.68371100  0.21143100  0.01830600  1
  Ni  Ni9  1  0.65765000  0.54763300  0.89630500  1
  Ni  Ni10  1  0.86395700  0.08735300  0.58253400  1
  Ni  Ni11  1  0.00730900  0.00000000  0.75000000  1
  Ni  Ni12  1  0.77196700  0.50000000  0.25000000  1
  Ni  Ni13  1  0.13604300  0.08735300  0.08253400  1
  Ni  Ni14  1  0.43256700  0.15745900  0.70090500  1
  Ni  Ni15  1  0.10520200  0.59774800  0.57270100  1
  Ni  Ni16  1  0.69736300  0.09024900  0.38774700  1
  Ni  Ni17  1  0.68371100  0.78856900  0.48169400  1
  Ni  Ni18  1  0.81017000  0.65312700  0.71764600  1
  Ni  Ni19  1  0.56743300  0.84254100  0.29909500  1
  Ni  Ni20  1  0.22803300  0.50000000  0.75000000  1
  Ni  Ni21  1  0.18983000  0.34687300  0.28235400  1
  Ni  Ni22  1  0.65765000  0.45236700  0.60369500  1
  Ni  Ni23  1  0.56743300  0.15745900  0.20090500  1
  Ni  Ni24  1  0.34235000  0.54763300  0.39630500  1
  Ni  Ni25  1  0.13604300  0.91264700  0.41746600  1
  Ni  Ni26  1  0.69736300  0.90975100  0.11225300  1
  Ni  Ni27  1  0.34235000  0.45236700  0.10369500  1
  Ni  Ni28  1  0.31628900  0.21143100  0.51830600  1
  Ni  Ni29  1  0.99269100  0.00000000  0.25000000  1
  Ni  Ni30  1  0.31628900  0.78856900  0.98169400  1
  Ni  Ni31  1  0.10520200  0.40225200  0.92729900  1
  Ni  Ni32  1  0.89479800  0.40225200  0.42729900  1
  Ni  Ni33  1  0.18983000  0.65312700  0.21764600  1
  Ni  Ni34  1  0.43256700  0.84254100  0.79909500  1
  Ni  Ni35  1  0.30263700  0.09024900  0.88774700  1
  Ni  Ni36  1  0.30263700  0.90975100  0.61225300  1
  Ni  Ni37  1  0.81017000  0.34687300  0.78235400  1
  Ni  Ni38  1  0.89479800  0.59774800  0.07270100  1
  Ni  Ni39  1  0.86395700  0.91264700  0.91746600  1
  Cu  Cu40  1  0.93571400  0.29721100  0.14555900  1
  Cu  Cu41  1  0.06428600  0.70278900  0.85444100  1
  Cu  Cu42  1  0.93571400  0.70278900  0.35444100  1
  Cu  Cu43  1  0.06428600  0.29721100  0.64555900  1
