# generated using pymatgen
data_CuNi28C29
_symmetry_space_group_name_H-M   'P 1'
_cell_length_a   9.96822500
_cell_length_b   9.96822500
_cell_length_c   12.42281300
_cell_angle_alpha   90.00000000
_cell_angle_beta   90.00000000
_cell_angle_gamma   90.00000000
_symmetry_Int_Tables_number   1
_chemical_formula_structural   CuNi28C29
_chemical_formula_sum   'Cu2 Ni56 C58'
_cell_volume   1234.39914504
_cell_formula_units_Z   2
loop_
 _symmetry_equiv_pos_site_id
 _symmetry_equiv_pos_as_xyz
  1  'x, y, z'
loop_
 _atom_site_type_symbol
 _atom_site_label
 _atom_site_symmetry_multiplicity
 _atom_site_fract_x
 _atom_site_fract_y
 _atom_site_fract_z
 _atom_site_occupancy
  C  C0  1  0.50000000  0.50000000  0.00000000  1
  C  C1  1  0.00000000  0.00000000  0.50000000  1
  C  C2  1  0.70995100  0.70413000  0.00000000  1
  C  C3  1  0.20413000  0.20995100  0.50000000  1
  C  C4  1  0.29587000  0.70995100  0.00000000  1
  C  C5  1  0.20995100  0.79587000  0.50000000  1
  C  C6  1  0.79587000  0.79004900  0.50000000  1
  C  C7  1  0.29004900  0.29587000  0.00000000  1
  C  C8  1  0.79004900  0.20413000  0.50000000  1
  C  C9  1  0.70413000  0.29004900  0.00000000  1
  C  C10  1  0.54345600  0.71385300  0.24330800  1
  C  C11  1  0.78614700  0.95654400  0.25669200  1
  C  C12  1  0.71385300  0.45654400  0.24330800  1
  C  C13  1  0.04345600  0.78614700  0.74330800  1
  C  C14  1  0.78614700  0.95654400  0.74330800  1
  C  C15  1  0.71385300  0.45654400  0.75669200  1
  C  C16  1  0.95654400  0.21385300  0.25669200  1
  C  C17  1  0.54345600  0.71385300  0.75669200  1
  C  C18  1  0.21385300  0.04345600  0.74330800  1
  C  C19  1  0.95654400  0.21385300  0.74330800  1
  C  C20  1  0.21385300  0.04345600  0.25669200  1
  C  C21  1  0.45654400  0.28614700  0.75669200  1
  C  C22  1  0.04345600  0.78614700  0.25669200  1
  C  C23  1  0.28614700  0.54345600  0.75669200  1
  C  C24  1  0.28614700  0.54345600  0.24330800  1
  C  C25  1  0.45654400  0.28614700  0.24330800  1
  C  C26  1  0.89852200  0.43524700  0.60031600  1
  C  C27  1  0.43524700  0.10147800  0.39968400  1
  C  C28  1  0.41096400  0.67780900  0.46911400  1
  C  C29  1  0.39852200  0.06475300  0.89968400  1
  C  C30  1  0.82219100  0.08903600  0.03088600  1
  C  C31  1  0.91096400  0.82219100  0.03088600  1
  C  C32  1  0.43524700  0.10147800  0.60031600  1
  C  C33  1  0.58903600  0.32219100  0.46911400  1
  C  C34  1  0.56475300  0.89852200  0.60031600  1
  C  C35  1  0.82219100  0.08903600  0.96911400  1
  C  C36  1  0.10147800  0.56475300  0.39968400  1
  C  C37  1  0.17780900  0.91096400  0.96911400  1
  C  C38  1  0.06475300  0.60147800  0.10031600  1
  C  C39  1  0.67780900  0.58903600  0.53088600  1
  C  C40  1  0.08903600  0.17780900  0.96911400  1
  C  C41  1  0.39852200  0.06475300  0.10031600  1
  C  C42  1  0.91096400  0.82219100  0.96911400  1
  C  C43  1  0.32219100  0.41096400  0.46911400  1
  C  C44  1  0.93524700  0.39852200  0.89968400  1
  C  C45  1  0.60147800  0.93524700  0.89968400  1
  C  C46  1  0.89852200  0.43524700  0.39968400  1
  C  C47  1  0.56475300  0.89852200  0.39968400  1
  C  C48  1  0.67780900  0.58903600  0.46911400  1
  C  C49  1  0.10147800  0.56475300  0.60031600  1
  C  C50  1  0.32219100  0.41096400  0.53088600  1
  C  C51  1  0.93524700  0.39852200  0.10031600  1
  C  C52  1  0.60147800  0.93524700  0.10031600  1
  C  C53  1  0.06475300  0.60147800  0.89968400  1
  C  C54  1  0.58903600  0.32219100  0.53088600  1
  C  C55  1  0.41096400  0.67780900  0.53088600  1
  C  C56  1  0.17780900  0.91096400  0.03088600  1
  C  C57  1  0.08903600  0.17780900  0.03088600  1
  Ni  Ni58  1  0.02379600  0.77638200  0.38778700  1
  Ni  Ni59  1  0.66162000  0.60771500  0.71755700  1
  Ni  Ni60  1  0.83838000  0.10771500  0.78244300  1
  Ni  Ni61  1  0.69820000  0.93878600  0.11178500  1
  Ni  Ni62  1  0.22361800  0.02379600  0.38778700  1
  Ni  Ni63  1  0.47620400  0.27638200  0.11221300  1
  Ni  Ni64  1  0.19820000  0.56121400  0.61178500  1
  Ni  Ni65  1  0.27638200  0.52379600  0.88778700  1
  Ni  Ni66  1  0.66162000  0.60771500  0.28244300  1
  Ni  Ni67  1  0.93878600  0.30180000  0.11178500  1
  Ni  Ni68  1  0.97620400  0.22361800  0.61221300  1
  Ni  Ni69  1  0.37391600  0.12608400  0.75000000  1
  Ni  Ni70  1  0.72361800  0.47620400  0.88778700  1
  Ni  Ni71  1  0.06121400  0.69820000  0.88821500  1
  Ni  Ni72  1  0.97620400  0.22361800  0.38778700  1
  Ni  Ni73  1  0.12608400  0.62608400  0.75000000  1
  Ni  Ni74  1  0.52379600  0.72361800  0.11221300  1
  Ni  Ni75  1  0.87391600  0.37391600  0.25000000  1
  Ni  Ni76  1  0.37391600  0.12608400  0.25000000  1
  Ni  Ni77  1  0.87391600  0.37391600  0.75000000  1
  Ni  Ni78  1  0.22361800  0.02379600  0.61221300  1
  Ni  Ni79  1  0.39228500  0.66162000  0.71755700  1
  Ni  Ni80  1  0.16162000  0.89228500  0.78244300  1
  Ni  Ni81  1  0.33838000  0.39228500  0.71755700  1
  Ni  Ni82  1  0.83838000  0.10771500  0.21755700  1
  Ni  Ni83  1  0.16162000  0.89228500  0.21755700  1
  Ni  Ni84  1  0.93878600  0.30180000  0.88821500  1
  Ni  Ni85  1  0.02379600  0.77638200  0.61221300  1
  Ni  Ni86  1  0.69820000  0.93878600  0.88821500  1
  Ni  Ni87  1  0.06121400  0.69820000  0.11178500  1
  Ni  Ni88  1  0.30180000  0.06121400  0.88821500  1
  Ni  Ni89  1  0.62608400  0.87391600  0.25000000  1
  Ni  Ni90  1  0.12608400  0.62608400  0.25000000  1
  Ni  Ni91  1  0.39228500  0.66162000  0.28244300  1
  Ni  Ni92  1  0.77638200  0.97620400  0.38778700  1
  Ni  Ni93  1  0.62608400  0.87391600  0.75000000  1
  Ni  Ni94  1  0.80180000  0.43878600  0.61178500  1
  Ni  Ni95  1  0.30180000  0.06121400  0.11178500  1
  Ni  Ni96  1  0.52379600  0.72361800  0.88778700  1
  Ni  Ni97  1  0.19820000  0.56121400  0.38821500  1
  Ni  Ni98  1  0.89228500  0.83838000  0.21755700  1
  Ni  Ni99  1  0.89228500  0.83838000  0.78244300  1
  Ni  Ni100  1  0.43878600  0.19820000  0.38821500  1
  Ni  Ni101  1  0.56121400  0.80180000  0.61178500  1
  Ni  Ni102  1  0.60771500  0.33838000  0.28244300  1
  Ni  Ni103  1  0.72361800  0.47620400  0.11221300  1
  Ni  Ni104  1  0.10771500  0.16162000  0.21755700  1
  Ni  Ni105  1  0.33838000  0.39228500  0.28244300  1
  Ni  Ni106  1  0.10771500  0.16162000  0.78244300  1
  Ni  Ni107  1  0.27638200  0.52379600  0.11221300  1
  Ni  Ni108  1  0.43878600  0.19820000  0.61178500  1
  Ni  Ni109  1  0.60771500  0.33838000  0.71755700  1
  Ni  Ni110  1  0.77638200  0.97620400  0.61221300  1
  Ni  Ni111  1  0.47620400  0.27638200  0.88778700  1
  Ni  Ni112  1  0.56121400  0.80180000  0.38821500  1
  Ni  Ni113  1  0.80180000  0.43878600  0.38821500  1
  Cu  Cu114  1  0.50000000  0.50000000  0.50000000  1
  Cu  Cu115  1  0.00000000  0.00000000  0.00000000  1
