# generated using pymatgen
data_CuNi2C5
_symmetry_space_group_name_H-M   'P 1'
_cell_length_a   6.71412200
_cell_length_b   7.45539800
_cell_length_c   10.97779500
_cell_angle_alpha   90.00000000
_cell_angle_beta   90.00000000
_cell_angle_gamma   90.00000000
_symmetry_Int_Tables_number   1
_chemical_formula_structural   CuNi2C5
_chemical_formula_sum   'Cu4 Ni8 C20'
_cell_volume   549.50946553
_cell_formula_units_Z   4
loop_
 _symmetry_equiv_pos_site_id
 _symmetry_equiv_pos_as_xyz
  1  'x, y, z'
loop_
 _atom_site_type_symbol
 _atom_site_label
 _atom_site_symmetry_multiplicity
 _atom_site_fract_x
 _atom_site_fract_y
 _atom_site_fract_z
 _atom_site_occupancy
  Ni  Ni0  1  0.46628600  0.50520300  0.67075900  1
  Ni  Ni1  1  0.03371400  0.99479700  0.17075900  1
  Ni  Ni2  1  0.53371400  0.00520300  0.32924100  1
  Ni  Ni3  1  0.96628600  0.49479700  0.82924100  1
  Ni  Ni4  1  0.53371400  0.49479700  0.32924100  1
  Ni  Ni5  1  0.96628600  0.00520300  0.82924100  1
  Ni  Ni6  1  0.46628600  0.99479700  0.67075900  1
  Ni  Ni7  1  0.03371400  0.50520300  0.17075900  1
  Cu  Cu8  1  0.93422100  0.75000000  0.50296600  1
  Cu  Cu9  1  0.56577900  0.75000000  0.00296600  1
  Cu  Cu10  1  0.06577900  0.25000000  0.49703400  1
  Cu  Cu11  1  0.43422100  0.25000000  0.99703400  1
  C  C12  1  0.59945700  0.75000000  0.51098300  1
  C  C13  1  0.90054300  0.75000000  0.01098300  1
  C  C14  1  0.40054300  0.25000000  0.48901700  1
  C  C15  1  0.09945700  0.25000000  0.98901700  1
  C  C16  1  0.14911900  0.53478200  0.42360800  1
  C  C17  1  0.35088100  0.96521800  0.92360800  1
  C  C18  1  0.85088100  0.03478200  0.57639200  1
  C  C19  1  0.64911900  0.46521800  0.07639200  1
  C  C20  1  0.85088100  0.46521800  0.57639200  1
  C  C21  1  0.64911900  0.03478200  0.07639200  1
  C  C22  1  0.14911900  0.96521800  0.42360800  1
  C  C23  1  0.35088100  0.53478200  0.92360800  1
  C  C24  1  0.12925000  0.75000000  0.66958400  1
  C  C25  1  0.37075000  0.75000000  0.16958400  1
  C  C26  1  0.87075000  0.25000000  0.33041600  1
  C  C27  1  0.62925000  0.25000000  0.83041600  1
  C  C28  1  0.83562100  0.75000000  0.30550300  1
  C  C29  1  0.66437900  0.75000000  0.80550300  1
  C  C30  1  0.16437900  0.25000000  0.69449700  1
  C  C31  1  0.33562100  0.25000000  0.19449700  1
