# generated using pymatgen
data_CuNiC5
_symmetry_space_group_name_H-M   'P 1'
_cell_length_a   11.69520200
_cell_length_b   13.64781980
_cell_length_c   17.51069870
_cell_angle_alpha   109.30288948
_cell_angle_beta   105.32895007
_cell_angle_gamma   98.93469963
_symmetry_Int_Tables_number   1
_chemical_formula_structural   CuNiC5
_chemical_formula_sum   'Cu24 Ni24 C120'
_cell_volume   2451.88819431
_cell_formula_units_Z   24
loop_
 _symmetry_equiv_pos_site_id
 _symmetry_equiv_pos_as_xyz
  1  'x, y, z'
loop_
 _atom_site_type_symbol
 _atom_site_label
 _atom_site_symmetry_multiplicity
 _atom_site_fract_x
 _atom_site_fract_y
 _atom_site_fract_z
 _atom_site_occupancy
  Ni  Ni0  1  0.72115300  0.32509300  0.87920100  1
  Ni  Ni1  1  0.08315200  0.20571800  0.38048700  1
  Ni  Ni2  1  0.26359700  0.18493300  0.13553300  1
  Ni  Ni3  1  0.22224800  0.32998600  0.37047500  1
  Ni  Ni4  1  0.41041200  0.30635100  0.12942800  1
  Ni  Ni5  1  0.84471600  0.44479400  0.38059900  1
  Ni  Ni6  1  0.15528400  0.55520600  0.61940100  1
  Ni  Ni7  1  0.27884700  0.67490700  0.12079900  1
  Ni  Ni8  1  0.26551000  0.28937100  0.48762100  1
  Ni  Ni9  1  0.58958800  0.69364900  0.87057200  1
  Ni  Ni10  1  0.77775200  0.67001400  0.62952500  1
  Ni  Ni11  1  0.70716000  0.30768900  0.37705600  1
  Ni  Ni12  1  0.86043900  0.46205100  0.88359500  1
  Ni  Ni13  1  0.13956100  0.53794900  0.11640500  1
  Ni  Ni14  1  0.29284000  0.69231100  0.62294400  1
  Ni  Ni15  1  0.78133900  0.30850500  0.76435400  1
  Ni  Ni16  1  0.91684800  0.79428200  0.61951300  1
  Ni  Ni17  1  0.23298500  0.22375000  0.01735600  1
  Ni  Ni18  1  0.77297700  0.28894300  0.26431400  1
  Ni  Ni19  1  0.73640300  0.81506700  0.86446700  1
  Ni  Ni20  1  0.76701500  0.77625000  0.98264400  1
  Ni  Ni21  1  0.21866100  0.69149500  0.23564600  1
  Ni  Ni22  1  0.73449000  0.71062900  0.51237900  1
  Ni  Ni23  1  0.22702300  0.71105700  0.73568600  1
  Cu  Cu24  1  0.17384800  0.26077200  0.87796100  1
  Cu  Cu25  1  0.45017500  0.83781600  0.61107700  1
  Cu  Cu26  1  0.07180900  0.96220300  0.63494800  1
  Cu  Cu27  1  0.33223200  0.24595600  0.62235700  1
  Cu  Cu28  1  0.57482200  0.17222800  0.88977600  1
  Cu  Cu29  1  0.57431200  0.46886100  0.14649400  1
  Cu  Cu30  1  0.42568800  0.53113900  0.85350600  1
  Cu  Cu31  1  0.97145800  0.36995400  0.09060900  1
  Cu  Cu32  1  0.66776800  0.75404400  0.37764300  1
  Cu  Cu33  1  0.29981900  0.88375100  0.87330400  1
  Cu  Cu34  1  0.42517800  0.82777200  0.11022400  1
  Cu  Cu35  1  0.89369400  0.95180700  0.84575200  1
  Cu  Cu36  1  0.70018100  0.11624900  0.12669600  1
  Cu  Cu37  1  0.01086900  0.60845900  0.40185500  1
  Cu  Cu38  1  0.54982500  0.16218400  0.38892300  1
  Cu  Cu39  1  0.10630600  0.04819300  0.15424800  1
  Cu  Cu40  1  0.92819100  0.03779700  0.36505200  1
  Cu  Cu41  1  0.02854200  0.63004600  0.90939100  1
  Cu  Cu42  1  0.36704800  0.46950500  0.34391800  1
  Cu  Cu43  1  0.27766900  0.86458800  0.37134700  1
  Cu  Cu44  1  0.82615200  0.73922800  0.12203900  1
  Cu  Cu45  1  0.98913100  0.39154100  0.59814500  1
  Cu  Cu46  1  0.72233100  0.13541200  0.62865300  1
  Cu  Cu47  1  0.63295200  0.53049500  0.65608200  1
  C  C48  1  0.64873700  0.28616500  0.92007900  1
  C  C49  1  0.62319500  0.74666600  0.82455600  1
  C  C50  1  0.84297700  0.78456500  0.54293200  1
  C  C51  1  0.29794000  0.75704200  0.70108700  1
  C  C52  1  0.93690200  0.56588700  0.93217300  1
  C  C53  1  0.77274100  0.25450000  0.67889700  1
  C  C54  1  0.20835100  0.57382700  0.07564200  1
  C  C55  1  0.06309800  0.43411300  0.06782700  1
  C  C56  1  0.22725900  0.74550000  0.32110300  1
  C  C57  1  0.70206000  0.24295800  0.29891300  1
  C  C58  1  0.89091500  0.73879600  0.66597900  1
  C  C59  1  0.69573800  0.65142100  0.55282100  1
  C  C60  1  0.15391700  0.61019600  0.69834000  1
  C  C61  1  0.15702300  0.21543500  0.45706800  1
  C  C62  1  0.30426200  0.34857900  0.44717900  1
  C  C63  1  0.22561000  0.13167600  0.18361200  1
  C  C64  1  0.37680500  0.25333400  0.17544400  1
  C  C65  1  0.22643100  0.76982400  0.81773300  1
  C  C66  1  0.34358700  0.29553200  0.05046700  1
  C  C67  1  0.52700700  0.37931600  0.17068700  1
  C  C68  1  0.18761200  0.16631000  0.05678800  1
  C  C69  1  0.77439000  0.86832400  0.81638800  1
  C  C70  1  0.34790400  0.30887900  0.56847700  1
  C  C71  1  0.36506500  0.72898800  0.58111800  1
  C  C72  1  0.65209600  0.69112100  0.43152300  1
  C  C73  1  0.08142100  0.45016600  0.57197700  1
  C  C74  1  0.47299300  0.62068400  0.82931300  1
  C  C75  1  0.63493500  0.27101200  0.41888200  1
  C  C76  1  0.14128300  0.59233500  0.19640400  1
  C  C77  1  0.79164900  0.42617300  0.92435800  1
  C  C78  1  0.03269900  0.86850900  0.65706500  1
  C  C79  1  0.10908500  0.26120400  0.33402100  1
  C  C80  1  0.77356900  0.23017600  0.18226700  1
  C  C81  1  0.84608300  0.38980400  0.30166000  1
  C  C82  1  0.28643500  0.73882300  0.20012700  1
  C  C83  1  0.71356500  0.26117700  0.79987300  1
  C  C84  1  0.65641300  0.70446800  0.94953300  1
  C  C85  1  0.84537300  0.79566900  0.06458200  1
  C  C86  1  0.22274300  0.59089400  0.57810000  1
  C  C87  1  0.96730100  0.13149100  0.34293500  1
  C  C88  1  0.91857900  0.54983400  0.42802300  1
  C  C89  1  0.15462700  0.20433100  0.93541800  1
  C  C90  1  0.25302000  0.38324300  0.32030400  1
  C  C91  1  0.85871700  0.40766500  0.80359600  1
  C  C92  1  0.74698000  0.61675700  0.67969600  1
  C  C93  1  0.77725700  0.40910600  0.42190000  1
  C  C94  1  0.81238800  0.83369000  0.94321200  1
  C  C95  1  0.35126300  0.71383500  0.07992100  1
  C  C96  1  0.07897400  0.23238600  0.79880300  1
  C  C97  1  0.68898900  0.54314100  0.20195300  1
  C  C98  1  0.31101100  0.45685900  0.79804700  1
  C  C99  1  0.48077200  0.14459700  0.44072400  1
  C  C100  1  0.18694000  0.03738800  0.68776300  1
  C  C101  1  0.27027000  0.91013100  0.45438100  1
  C  C102  1  0.10000600  0.73268000  0.97218300  1
  C  C103  1  0.81306000  0.96261200  0.31223700  1
  C  C104  1  0.89999400  0.26732000  0.02781700  1
  C  C105  1  0.51922800  0.85540300  0.55927600  1
  C  C106  1  0.72973000  0.08986900  0.54561900  1
  C  C107  1  0.57426800  0.72480300  0.29759600  1
  C  C108  1  0.71225400  0.06703500  0.04548900  1
  C  C109  1  0.42573200  0.27519700  0.70240400  1
  C  C110  1  0.28774600  0.93296500  0.95451100  1
  C  C111  1  0.91633100  0.99811600  0.78830800  1
  C  C112  1  0.08366900  0.00188400  0.21169200  1
  C  C113  1  0.92102600  0.76761400  0.20119700  1
  C  C114  1  0.37838100  0.51247600  0.28202200  1
  C  C115  1  0.51020000  0.14777500  0.94167300  1
  C  C116  1  0.08198000  0.71285500  0.46085000  1
  C  C117  1  0.91802000  0.28714500  0.53915000  1
  C  C118  1  0.48980000  0.85222500  0.05832700  1
  C  C119  1  0.62161900  0.48752400  0.71797800  1
  C  C120  1  0.93321200  0.06997000  0.46153000  1
  C  C121  1  0.90125500  0.46077800  0.62803300  1
  C  C122  1  0.79577200  0.76202300  0.36200200  1
  C  C123  1  0.91380300  0.04503800  0.93382000  1
  C  C124  1  0.71839800  0.03785100  0.17547800  1
  C  C125  1  0.38249600  0.93018100  0.63165600  1
  C  C126  1  0.48150000  0.12546300  0.79433500  1
  C  C127  1  0.04886300  0.38654100  0.68814500  1
  C  C128  1  0.96985500  0.02539700  0.62552800  1
  C  C129  1  0.48924800  0.43749600  0.37672200  1
  C  C130  1  0.77732400  0.07032600  0.68196700  1
  C  C131  1  0.09874500  0.53922200  0.37196700  1
  C  C132  1  0.70129200  0.74465200  0.14109800  1
  C  C133  1  0.54185000  0.87903700  0.70634900  1
  C  C134  1  0.51075200  0.56250400  0.62327800  1
  C  C135  1  0.78735000  0.61291500  0.07352800  1
  C  C136  1  0.03259500  0.35693100  0.17692100  1
  C  C137  1  0.42098500  0.57069700  0.94787500  1
  C  C138  1  0.28160200  0.96214900  0.82452200  1
  C  C139  1  0.38983400  0.56559700  0.43100800  1
  C  C140  1  0.95113700  0.61345900  0.31185500  1
  C  C141  1  0.03014500  0.97460300  0.37447200  1
  C  C142  1  0.61016600  0.43440300  0.56899200  1
  C  C143  1  0.61750400  0.06981900  0.36834400  1
  C  C144  1  0.52430700  0.46701100  0.87172300  1
  C  C145  1  0.34589800  0.91111200  0.13061500  1
  C  C146  1  0.21265000  0.38708500  0.92647200  1
  C  C147  1  0.55810400  0.10049800  0.11383300  1
  C  C148  1  0.20422800  0.23797700  0.63799800  1
  C  C149  1  0.41424900  0.90625900  0.37541000  1
  C  C150  1  0.51850000  0.87453700  0.20566500  1
  C  C151  1  0.58575100  0.09374100  0.62459000  1
  C  C152  1  0.30538300  0.12095700  0.57033500  1
  C  C153  1  0.29870800  0.25534800  0.85890200  1
  C  C154  1  0.00969000  0.91272100  0.88016500  1
  C  C155  1  0.11686000  0.56429200  0.87562800  1
  C  C156  1  0.99031000  0.08727900  0.11983500  1
  C  C157  1  0.88314000  0.43570800  0.12437200  1
  C  C158  1  0.08619700  0.95496200  0.06618000  1
  C  C159  1  0.44189600  0.89950200  0.88616700  1
  C  C160  1  0.69461700  0.87904300  0.42966500  1
  C  C161  1  0.57901500  0.42930300  0.05212500  1
  C  C162  1  0.45815000  0.12096300  0.29365100  1
  C  C163  1  0.06678800  0.93003000  0.53847000  1
  C  C164  1  0.47569300  0.53298900  0.12827700  1
  C  C165  1  0.22267600  0.92967400  0.31803300  1
  C  C166  1  0.96740500  0.64306900  0.82307900  1
  C  C167  1  0.65410200  0.08888800  0.86938500  1
