# generated using pymatgen
data_Cu2NiC2
_symmetry_space_group_name_H-M   'P 1'
_cell_length_a   8.24891628
_cell_length_b   8.24891628
_cell_length_c   8.24891628
_cell_angle_alpha   134.05713554
_cell_angle_beta   129.21854552
_cell_angle_gamma   70.87346711
_symmetry_Int_Tables_number   1
_chemical_formula_structural   Cu2NiC2
_chemical_formula_sum   'Cu4 Ni2 C4'
_cell_volume   306.11841889
_cell_formula_units_Z   2
loop_
 _symmetry_equiv_pos_site_id
 _symmetry_equiv_pos_as_xyz
  1  'x, y, z'
loop_
 _atom_site_type_symbol
 _atom_site_label
 _atom_site_symmetry_multiplicity
 _atom_site_fract_x
 _atom_site_fract_y
 _atom_site_fract_z
 _atom_site_occupancy
  C  C0  1  0.02177200  0.85688300  0.16488900  1
  C  C1  1  0.69199400  0.35688300  0.33511100  1
  C  C2  1  0.30800600  0.64311700  0.66488900  1
  C  C3  1  0.97822800  0.14311700  0.83511100  1
  Ni  Ni4  1  0.50000000  0.25000000  0.75000000  1
  Ni  Ni5  1  0.50000000  0.75000000  0.25000000  1
  Cu  Cu6  1  0.76606800  0.60090500  0.16516300  1
  Cu  Cu7  1  0.43574300  0.10090500  0.33483700  1
  Cu  Cu8  1  0.56425700  0.89909500  0.66516300  1
  Cu  Cu9  1  0.23393200  0.39909500  0.83483700  1
