# generated using pymatgen
data_Cu4NiC2
_symmetry_space_group_name_H-M   'P 1'
_cell_length_a   3.65269500
_cell_length_b   11.58765600
_cell_length_c   13.84275800
_cell_angle_alpha   90.00000000
_cell_angle_beta   90.00000000
_cell_angle_gamma   90.00000000
_symmetry_Int_Tables_number   1
_chemical_formula_structural   Cu4NiC2
_chemical_formula_sum   'Cu16 Ni4 C8'
_cell_volume   585.91097175
_cell_formula_units_Z   4
loop_
 _symmetry_equiv_pos_site_id
 _symmetry_equiv_pos_as_xyz
  1  'x, y, z'
loop_
 _atom_site_type_symbol
 _atom_site_label
 _atom_site_symmetry_multiplicity
 _atom_site_fract_x
 _atom_site_fract_y
 _atom_site_fract_z
 _atom_site_occupancy
  C  C0  1  0.25000000  0.83002200  0.83598000  1
  C  C1  1  0.75000000  0.16997800  0.16402000  1
  C  C2  1  0.25000000  0.33002200  0.66402000  1
  C  C3  1  0.75000000  0.66997800  0.33598000  1
  C  C4  1  0.75000000  0.03496000  0.61099000  1
  C  C5  1  0.25000000  0.46504000  0.11099000  1
  C  C6  1  0.25000000  0.96504000  0.38901000  1
  C  C7  1  0.75000000  0.53496000  0.88901000  1
  Ni  Ni8  1  0.25000000  0.14751200  0.93044300  1
  Ni  Ni9  1  0.75000000  0.85248800  0.06955700  1
  Ni  Ni10  1  0.25000000  0.64751200  0.56955700  1
  Ni  Ni11  1  0.75000000  0.35248800  0.43044300  1
  Cu  Cu12  1  0.75000000  0.43755400  0.60341900  1
  Cu  Cu13  1  0.25000000  0.56244600  0.39658100  1
  Cu  Cu14  1  0.25000000  0.73710600  0.98038900  1
  Cu  Cu15  1  0.25000000  0.06244600  0.10341900  1
  Cu  Cu16  1  0.75000000  0.22085800  0.71970600  1
  Cu  Cu17  1  0.75000000  0.10129600  0.31171000  1
  Cu  Cu18  1  0.75000000  0.26289400  0.01961100  1
  Cu  Cu19  1  0.75000000  0.60129600  0.18829000  1
  Cu  Cu20  1  0.25000000  0.23710600  0.51961100  1
  Cu  Cu21  1  0.75000000  0.76289400  0.48038900  1
  Cu  Cu22  1  0.25000000  0.77914200  0.28029400  1
  Cu  Cu23  1  0.25000000  0.89870400  0.68829000  1
  Cu  Cu24  1  0.75000000  0.72085800  0.78029400  1
  Cu  Cu25  1  0.75000000  0.93755400  0.89658100  1
  Cu  Cu26  1  0.25000000  0.39870400  0.81171000  1
  Cu  Cu27  1  0.25000000  0.27914200  0.21970600  1
