# generated using pymatgen
data_Cu16Ni3C7
_symmetry_space_group_name_H-M   'P 1'
_cell_length_a   14.66633706
_cell_length_b   14.66633706
_cell_length_c   36.88744400
_cell_angle_alpha   90.00000000
_cell_angle_beta   90.00000000
_cell_angle_gamma   119.56255261
_symmetry_Int_Tables_number   1
_chemical_formula_structural   Cu16Ni3C7
_chemical_formula_sum   'Cu96 Ni18 C42'
_cell_volume   6901.60444572
_cell_formula_units_Z   6
loop_
 _symmetry_equiv_pos_site_id
 _symmetry_equiv_pos_as_xyz
  1  'x, y, z'
loop_
 _atom_site_type_symbol
 _atom_site_label
 _atom_site_symmetry_multiplicity
 _atom_site_fract_x
 _atom_site_fract_y
 _atom_site_fract_z
 _atom_site_occupancy
  C  C0  1  0.62711400  0.62711400  0.54428400  1
  C  C1  1  0.37593900  0.67279300  0.11999700  1
  C  C2  1  0.38502100  0.66872000  0.25000000  1
  C  C3  1  0.66961500  0.00486200  0.62026900  1
  C  C4  1  0.67279300  0.37593900  0.11999700  1
  C  C5  1  0.67204300  0.99883900  0.75000000  1
  C  C6  1  0.33038500  0.99513800  0.37973100  1
  C  C7  1  0.62406100  0.32720700  0.61999700  1
  C  C8  1  0.32720700  0.62406100  0.61999700  1
  C  C9  1  0.66872000  0.38502100  0.25000000  1
  C  C10  1  0.03990900  0.33686200  0.97166700  1
  C  C11  1  0.03990900  0.33686200  0.52833300  1
  C  C12  1  0.33038500  0.99513800  0.12026900  1
  C  C13  1  0.32720700  0.62406100  0.88000300  1
  C  C14  1  0.62406100  0.32720700  0.88000300  1
  C  C15  1  0.32795700  0.00116100  0.25000000  1
  C  C16  1  0.66961500  0.00486200  0.87973100  1
  C  C17  1  0.62711400  0.62711400  0.95571600  1
  C  C18  1  0.96009100  0.66313800  0.02833300  1
  C  C19  1  0.33686200  0.03990900  0.97166700  1
  C  C20  1  0.94818200  0.94818200  0.11589000  1
  C  C21  1  0.96009100  0.66313800  0.47166700  1
  C  C22  1  0.37288600  0.37288600  0.45571600  1
  C  C23  1  0.94757400  0.94757400  0.25000000  1
  C  C24  1  0.94818200  0.94818200  0.38411000  1
  C  C25  1  0.05181800  0.05181800  0.88411000  1
  C  C26  1  0.00486200  0.66961500  0.62026900  1
  C  C27  1  0.99513800  0.33038500  0.37973100  1
  C  C28  1  0.00116100  0.32795700  0.25000000  1
  C  C29  1  0.37288600  0.37288600  0.04428400  1
  C  C30  1  0.99883900  0.67204300  0.75000000  1
  C  C31  1  0.00486200  0.66961500  0.87973100  1
  C  C32  1  0.99513800  0.33038500  0.12026900  1
  C  C33  1  0.33128000  0.61497900  0.75000000  1
  C  C34  1  0.37593900  0.67279300  0.38000300  1
  C  C35  1  0.05181800  0.05181800  0.61589000  1
  C  C36  1  0.05242600  0.05242600  0.75000000  1
  C  C37  1  0.66313800  0.96009100  0.02833300  1
  C  C38  1  0.67279300  0.37593900  0.38000300  1
  C  C39  1  0.61497900  0.33128000  0.75000000  1
  C  C40  1  0.66313800  0.96009100  0.47166700  1
  C  C41  1  0.33686200  0.03990900  0.52833300  1
  Ni  Ni42  1  0.32741800  0.00275900  0.81656300  1
  Ni  Ni43  1  0.33553600  0.66446400  0.00000000  1
  Ni  Ni44  1  0.99724100  0.67258200  0.18343700  1
  Ni  Ni45  1  0.33942900  0.33942900  0.31577800  1
  Ni  Ni46  1  0.99724100  0.67258200  0.31656300  1
  Ni  Ni47  1  0.66446400  0.33553600  0.00000000  1
  Ni  Ni48  1  0.32741800  0.00275900  0.68343700  1
  Ni  Ni49  1  0.00000000  0.00000000  0.50000000  1
  Ni  Ni50  1  0.00275900  0.32741800  0.81656300  1
  Ni  Ni51  1  0.66446400  0.33553600  0.50000000  1
  Ni  Ni52  1  0.33553600  0.66446400  0.50000000  1
  Ni  Ni53  1  0.66057100  0.66057100  0.68422200  1
  Ni  Ni54  1  0.66057100  0.66057100  0.81577800  1
  Ni  Ni55  1  0.33942900  0.33942900  0.18422200  1
  Ni  Ni56  1  0.67258200  0.99724100  0.18343700  1
  Ni  Ni57  1  0.67258200  0.99724100  0.31656300  1
  Ni  Ni58  1  0.00000000  0.00000000  0.00000000  1
  Ni  Ni59  1  0.00275900  0.32741800  0.68343700  1
  Cu  Cu60  1  0.08281800  0.88582700  0.81523900  1
  Cu  Cu61  1  0.95014000  0.13533100  0.44688000  1
  Cu  Cu62  1  0.48779700  0.33259600  0.54325700  1
  Cu  Cu63  1  0.66740400  0.51220300  0.45674300  1
  Cu  Cu64  1  0.33259600  0.48779700  0.95674300  1
  Cu  Cu65  1  0.32115000  0.85253500  0.75000000  1
  Cu  Cu66  1  0.87823700  0.42628600  0.31382000  1
  Cu  Cu67  1  0.87823700  0.42628600  0.18618000  1
  Cu  Cu68  1  0.91718200  0.11417300  0.31523900  1
  Cu  Cu69  1  0.80719100  0.51572500  0.55369500  1
  Cu  Cu70  1  0.19088900  0.19088900  0.53080800  1
  Cu  Cu71  1  0.33319800  0.16068500  0.86888000  1
  Cu  Cu72  1  0.20877200  0.20877200  0.12193300  1
  Cu  Cu73  1  0.88582700  0.08281800  0.68476100  1
  Cu  Cu74  1  0.20877200  0.20877200  0.37806700  1
  Cu  Cu75  1  0.49676800  0.49676800  0.36659500  1
  Cu  Cu76  1  0.15266500  0.33182800  0.75000000  1
  Cu  Cu77  1  0.51220300  0.66740400  0.04325700  1
  Cu  Cu78  1  0.33182800  0.15266500  0.75000000  1
  Cu  Cu79  1  0.46463300  0.21717000  0.18555100  1
  Cu  Cu80  1  0.14746500  0.67885000  0.25000000  1
  Cu  Cu81  1  0.53536700  0.78283000  0.81444900  1
  Cu  Cu82  1  0.51298700  0.51298700  0.75000000  1
  Cu  Cu83  1  0.12176300  0.57371400  0.81382000  1
  Cu  Cu84  1  0.86466900  0.04986000  0.55312000  1
  Cu  Cu85  1  0.67827300  0.13038800  0.37923500  1
  Cu  Cu86  1  0.13038800  0.67827300  0.12076500  1
  Cu  Cu87  1  0.38129900  0.86470800  0.04574500  1
  Cu  Cu88  1  0.86466900  0.04986000  0.94688000  1
  Cu  Cu89  1  0.12176300  0.57371400  0.68618000  1
  Cu  Cu90  1  0.80911100  0.80911100  0.03080800  1
  Cu  Cu91  1  0.83931500  0.66680200  0.13112000  1
  Cu  Cu92  1  0.53536700  0.78283000  0.68555100  1
  Cu  Cu93  1  0.11417300  0.91718200  0.31523900  1
  Cu  Cu94  1  0.46463300  0.21717000  0.31444900  1
  Cu  Cu95  1  0.88582700  0.08281800  0.81523900  1
  Cu  Cu96  1  0.83931500  0.66680200  0.36888000  1
  Cu  Cu97  1  0.33319800  0.16068500  0.63112000  1
  Cu  Cu98  1  0.19280900  0.48427500  0.05369500  1
  Cu  Cu99  1  0.57371400  0.12176300  0.68618000  1
  Cu  Cu100  1  0.19088900  0.19088900  0.96919200  1
  Cu  Cu101  1  0.11417300  0.91718200  0.18476100  1
  Cu  Cu102  1  0.13533100  0.95014000  0.05312000  1
  Cu  Cu103  1  0.48427500  0.19280900  0.44630500  1
  Cu  Cu104  1  0.33259600  0.48779700  0.54325700  1
  Cu  Cu105  1  0.21717000  0.46463300  0.18555100  1
  Cu  Cu106  1  0.08281800  0.88582700  0.68476100  1
  Cu  Cu107  1  0.16068500  0.33319800  0.63112000  1
  Cu  Cu108  1  0.51220300  0.66740400  0.45674300  1
  Cu  Cu109  1  0.67885000  0.14746500  0.25000000  1
  Cu  Cu110  1  0.42628600  0.87823700  0.18618000  1
  Cu  Cu111  1  0.80911100  0.80911100  0.46919200  1
  Cu  Cu112  1  0.66680200  0.83931500  0.36888000  1
  Cu  Cu113  1  0.13533100  0.95014000  0.44688000  1
  Cu  Cu114  1  0.78283000  0.53536700  0.81444900  1
  Cu  Cu115  1  0.21717000  0.46463300  0.31444900  1
  Cu  Cu116  1  0.50323200  0.50323200  0.63340500  1
  Cu  Cu117  1  0.91718200  0.11417300  0.18476100  1
  Cu  Cu118  1  0.49676800  0.49676800  0.13340500  1
  Cu  Cu119  1  0.79122800  0.79122800  0.87806700  1
  Cu  Cu120  1  0.48427500  0.19280900  0.05369500  1
  Cu  Cu121  1  0.51572500  0.80719100  0.55369500  1
  Cu  Cu122  1  0.66740400  0.51220300  0.04325700  1
  Cu  Cu123  1  0.85253500  0.32115000  0.75000000  1
  Cu  Cu124  1  0.13038800  0.67827300  0.37923500  1
  Cu  Cu125  1  0.04986000  0.86466900  0.94688000  1
  Cu  Cu126  1  0.61870100  0.13529200  0.95425500  1
  Cu  Cu127  1  0.86961200  0.32172700  0.62076500  1
  Cu  Cu128  1  0.48701300  0.48701300  0.25000000  1
  Cu  Cu129  1  0.32172700  0.86961200  0.87923500  1
  Cu  Cu130  1  0.32172700  0.86961200  0.62076500  1
  Cu  Cu131  1  0.19217500  0.19217500  0.25000000  1
  Cu  Cu132  1  0.13529200  0.61870100  0.95425500  1
  Cu  Cu133  1  0.80782500  0.80782500  0.75000000  1
  Cu  Cu134  1  0.86961200  0.32172700  0.87923500  1
  Cu  Cu135  1  0.61870100  0.13529200  0.54574500  1
  Cu  Cu136  1  0.04986000  0.86466900  0.55312000  1
  Cu  Cu137  1  0.57371400  0.12176300  0.81382000  1
  Cu  Cu138  1  0.66680200  0.83931500  0.13112000  1
  Cu  Cu139  1  0.13529200  0.61870100  0.54574500  1
  Cu  Cu140  1  0.48779700  0.33259600  0.95674300  1
  Cu  Cu141  1  0.67827300  0.13038800  0.12076500  1
  Cu  Cu142  1  0.51572500  0.80719100  0.94630500  1
  Cu  Cu143  1  0.79122800  0.79122800  0.62193300  1
  Cu  Cu144  1  0.19280900  0.48427500  0.44630500  1
  Cu  Cu145  1  0.42628600  0.87823700  0.31382000  1
  Cu  Cu146  1  0.84733500  0.66817200  0.25000000  1
  Cu  Cu147  1  0.50323200  0.50323200  0.86659500  1
  Cu  Cu148  1  0.78283000  0.53536700  0.68555100  1
  Cu  Cu149  1  0.66817200  0.84733500  0.25000000  1
  Cu  Cu150  1  0.95014000  0.13533100  0.05312000  1
  Cu  Cu151  1  0.86470800  0.38129900  0.04574500  1
  Cu  Cu152  1  0.38129900  0.86470800  0.45425500  1
  Cu  Cu153  1  0.80719100  0.51572500  0.94630500  1
  Cu  Cu154  1  0.16068500  0.33319800  0.86888000  1
  Cu  Cu155  1  0.86470800  0.38129900  0.45425500  1
