# generated using pymatgen
data_Cu2NiC12
_symmetry_space_group_name_H-M   'P 1'
_cell_length_a   11.16030500
_cell_length_b   14.23821300
_cell_length_c   14.24364900
_cell_angle_alpha   90.00000000
_cell_angle_beta   90.00000000
_cell_angle_gamma   90.00000000
_symmetry_Int_Tables_number   1
_chemical_formula_structural   Cu2NiC12
_chemical_formula_sum   'Cu16 Ni8 C96'
_cell_volume   2263.35570454
_cell_formula_units_Z   8
loop_
 _symmetry_equiv_pos_site_id
 _symmetry_equiv_pos_as_xyz
  1  'x, y, z'
loop_
 _atom_site_type_symbol
 _atom_site_label
 _atom_site_symmetry_multiplicity
 _atom_site_fract_x
 _atom_site_fract_y
 _atom_site_fract_z
 _atom_site_occupancy
  Ni  Ni0  1  0.16289600  0.13058900  0.72838800  1
  Ni  Ni1  1  0.65586100  0.98366700  0.76212300  1
  Ni  Ni2  1  0.15586100  0.98366700  0.23787700  1
  Ni  Ni3  1  0.83710400  0.63058900  0.27161200  1
  Ni  Ni4  1  0.33710400  0.63058900  0.72838800  1
  Ni  Ni5  1  0.84413900  0.48366700  0.76212300  1
  Ni  Ni6  1  0.66289600  0.13058900  0.27161200  1
  Ni  Ni7  1  0.34413900  0.48366700  0.23787700  1
  C  C8  1  0.74803900  0.24509600  0.91621400  1
  C  C9  1  0.27571500  0.90496800  0.55457300  1
  C  C10  1  0.75196100  0.74509600  0.91621400  1
  C  C11  1  0.25196100  0.74509600  0.08378600  1
  C  C12  1  0.00816400  0.67426400  0.57244700  1
  C  C13  1  0.46541400  0.46164900  0.94800900  1
  C  C14  1  0.99183600  0.17426400  0.42755300  1
  C  C15  1  0.53458600  0.96164900  0.05199100  1
  C  C16  1  0.72428500  0.40496800  0.44542700  1
  C  C17  1  0.24803900  0.24509600  0.08378600  1
  C  C18  1  0.22428500  0.40496800  0.55457300  1
  C  C19  1  0.77571500  0.90496800  0.44542700  1
  C  C20  1  0.50816400  0.67426400  0.42755300  1
  C  C21  1  0.49183600  0.17426400  0.57244700  1
  C  C22  1  0.03458600  0.96164900  0.94800900  1
  C  C23  1  0.96541400  0.46164900  0.05199100  1
  Cu  Cu24  1  0.33585300  0.21547800  0.33841100  1
  Cu  Cu25  1  0.43944300  0.16645200  0.88473600  1
  Cu  Cu26  1  0.83585300  0.21547800  0.66158900  1
  Cu  Cu27  1  0.94881500  0.90749000  0.66264500  1
  Cu  Cu28  1  0.34850300  0.88898300  0.81769400  1
  Cu  Cu29  1  0.66414700  0.71547800  0.66158900  1
  Cu  Cu30  1  0.44881500  0.90749000  0.33735500  1
  Cu  Cu31  1  0.05118500  0.40749000  0.33735500  1
  Cu  Cu32  1  0.16414700  0.71547800  0.33841100  1
  Cu  Cu33  1  0.65149700  0.38898300  0.18230600  1
  Cu  Cu34  1  0.06055700  0.66645200  0.88473600  1
  Cu  Cu35  1  0.55118500  0.40749000  0.66264500  1
  Cu  Cu36  1  0.56055700  0.66645200  0.11526400  1
  Cu  Cu37  1  0.84850300  0.88898300  0.18230600  1
  Cu  Cu38  1  0.93944300  0.16645200  0.11526400  1
  Cu  Cu39  1  0.15149700  0.38898300  0.81769400  1
  C  C40  1  0.22875000  0.46038000  0.14956500  1
  C  C41  1  0.04069600  0.00250900  0.32759600  1
  C  C42  1  0.01184000  0.77126900  0.94048800  1
  C  C43  1  0.73340900  0.74031400  0.55288200  1
  C  C44  1  0.76659100  0.24031400  0.55288200  1
  C  C45  1  0.01503400  0.67063300  0.36196800  1
  C  C46  1  0.49023300  0.37253800  0.55188000  1
  C  C47  1  0.95930400  0.50250900  0.67240400  1
  C  C48  1  0.21684900  0.49613900  0.77470800  1
  C  C49  1  0.72875000  0.46038000  0.85043500  1
  C  C50  1  0.85626000  0.10157200  0.03241800  1
  C  C51  1  0.84482200  0.80139200  0.27607600  1
  C  C52  1  0.35626000  0.10157200  0.96758200  1
  C  C53  1  0.78315100  0.99613900  0.22529200  1
  C  C54  1  0.24957100  0.12936400  0.27464700  1
  C  C55  1  0.92527100  0.59744600  0.85943500  1
  C  C56  1  0.28315100  0.99613900  0.77470800  1
  C  C57  1  0.26659100  0.24031400  0.44711800  1
  C  C58  1  0.79947100  0.95676000  0.64035400  1
  C  C59  1  0.70052900  0.45676000  0.64035400  1
  C  C60  1  0.00976700  0.87253800  0.55188000  1
  C  C61  1  0.26469800  0.85193200  0.91540800  1
  C  C62  1  0.54069600  0.00250900  0.67240400  1
  C  C63  1  0.20052900  0.45676000  0.35964600  1
  C  C64  1  0.15517800  0.30139200  0.72392400  1
  C  C65  1  0.06583800  0.30410100  0.27060400  1
  C  C66  1  0.71684900  0.49613900  0.22529200  1
  C  C67  1  0.72929400  0.11387600  0.38763300  1
  C  C68  1  0.45930400  0.50250900  0.32759600  1
  C  C69  1  0.42527100  0.59744600  0.14056500  1
  C  C70  1  0.50976700  0.87253800  0.44812000  1
  C  C71  1  0.34482200  0.80139200  0.72392400  1
  C  C72  1  0.14374000  0.60157200  0.96758200  1
  C  C73  1  0.40643100  0.64507200  0.84352600  1
  C  C74  1  0.64374000  0.60157200  0.03241800  1
  C  C75  1  0.51503400  0.67063300  0.63803200  1
  C  C76  1  0.99775300  0.41099900  0.85562600  1
  C  C77  1  0.45217600  0.49177500  0.71989300  1
  C  C78  1  0.29947100  0.95676000  0.35964600  1
  C  C79  1  0.65396400  0.68635100  0.21931000  1
  C  C80  1  0.22929400  0.11387600  0.61236700  1
  C  C81  1  0.15342400  0.82022000  0.26737900  1
  C  C82  1  0.77070600  0.61387600  0.38763300  1
  C  C83  1  0.51184000  0.77126900  0.05951200  1
  C  C84  1  0.99023300  0.37253800  0.44812000  1
  C  C85  1  0.98816000  0.27126900  0.05951200  1
  C  C86  1  0.75042900  0.62936400  0.72535300  1
  C  C87  1  0.77125000  0.96038000  0.85043500  1
  C  C88  1  0.74957100  0.12936400  0.72535300  1
  C  C89  1  0.27125000  0.96038000  0.14956500  1
  C  C90  1  0.98496600  0.17063300  0.63803200  1
  C  C91  1  0.50224700  0.91099900  0.85562600  1
  C  C92  1  0.54782400  0.99177500  0.28010700  1
  C  C93  1  0.76469800  0.85193200  0.08459200  1
  C  C94  1  0.04782400  0.99177500  0.71989300  1
  C  C95  1  0.09356900  0.14507200  0.84352600  1
  C  C96  1  0.56583800  0.30410100  0.72939600  1
  C  C97  1  0.84603600  0.18635100  0.21931000  1
  C  C98  1  0.43416200  0.80410100  0.27060400  1
  C  C99  1  0.57472900  0.09744600  0.85943500  1
  C  C100  1  0.84657600  0.32022000  0.73262100  1
  C  C101  1  0.23530200  0.35193200  0.91540800  1
  C  C102  1  0.48816000  0.27126900  0.94048800  1
  C  C103  1  0.48496600  0.17063300  0.36196800  1
  C  C104  1  0.27070600  0.61387600  0.61236700  1
  C  C105  1  0.65342400  0.82022000  0.73262100  1
  C  C106  1  0.34657600  0.32022000  0.26737900  1
  C  C107  1  0.23340900  0.74031400  0.44711800  1
  C  C108  1  0.95217600  0.49177500  0.28010700  1
  C  C109  1  0.34603600  0.18635100  0.78069000  1
  C  C110  1  0.07472900  0.09744600  0.14056500  1
  C  C111  1  0.73530200  0.35193200  0.08459200  1
  C  C112  1  0.65517800  0.30139200  0.27607600  1
  C  C113  1  0.59356900  0.14507200  0.15647400  1
  C  C114  1  0.25042900  0.62936400  0.27464700  1
  C  C115  1  0.15396400  0.68635100  0.78069000  1
  C  C116  1  0.90643100  0.64507200  0.15647400  1
  C  C117  1  0.49775300  0.41099900  0.14437400  1
  C  C118  1  0.93416200  0.80410100  0.72939600  1
  C  C119  1  0.00224700  0.91099900  0.14437400  1
