# generated using pymatgen
data_Cu4NiC7
_symmetry_space_group_name_H-M   'P 1'
_cell_length_a   6.17505800
_cell_length_b   8.43556200
_cell_length_c   11.02382700
_cell_angle_alpha   90.00000000
_cell_angle_beta   90.00000000
_cell_angle_gamma   90.00000000
_symmetry_Int_Tables_number   1
_chemical_formula_structural   Cu4NiC7
_chemical_formula_sum   'Cu16 Ni4 C28'
_cell_volume   574.23208118
_cell_formula_units_Z   4
loop_
 _symmetry_equiv_pos_site_id
 _symmetry_equiv_pos_as_xyz
  1  'x, y, z'
loop_
 _atom_site_type_symbol
 _atom_site_label
 _atom_site_symmetry_multiplicity
 _atom_site_fract_x
 _atom_site_fract_y
 _atom_site_fract_z
 _atom_site_occupancy
  C  C0  1  0.35923800  0.09182500  0.02619500  1
  C  C1  1  0.14076200  0.09182500  0.52619500  1
  C  C2  1  0.85923800  0.59182500  0.47380500  1
  C  C3  1  0.64076200  0.59182500  0.97380500  1
  Ni  Ni4  1  0.85429800  0.08762700  0.14264400  1
  Ni  Ni5  1  0.14570200  0.58762700  0.85735600  1
  Ni  Ni6  1  0.64570200  0.08762700  0.64264400  1
  Ni  Ni7  1  0.35429800  0.58762700  0.35735600  1
  Cu  Cu8  1  0.01288900  0.86500500  0.91609800  1
  Cu  Cu9  1  0.98711100  0.36500500  0.08390200  1
  Cu  Cu10  1  0.65715000  0.60797600  0.21791600  1
  Cu  Cu11  1  0.86594800  0.86593300  0.71739800  1
  Cu  Cu12  1  0.13405200  0.36593300  0.28260200  1
  Cu  Cu13  1  0.36594800  0.36593300  0.78260200  1
  Cu  Cu14  1  0.79293200  0.15496300  0.84545900  1
  Cu  Cu15  1  0.51288900  0.36500500  0.58390200  1
  Cu  Cu16  1  0.70706800  0.15496300  0.34545900  1
  Cu  Cu17  1  0.15715000  0.10797600  0.28208400  1
  Cu  Cu18  1  0.29293200  0.65496300  0.65454100  1
  Cu  Cu19  1  0.84285000  0.60797600  0.71791600  1
  Cu  Cu20  1  0.48711100  0.86500500  0.41609800  1
  Cu  Cu21  1  0.34285000  0.10797600  0.78208400  1
  Cu  Cu22  1  0.20706800  0.65496300  0.15454100  1
  Cu  Cu23  1  0.63405200  0.86593300  0.21739800  1
  C  C24  1  0.21013500  0.37992600  0.36185500  1
  C  C25  1  0.54955700  0.50654100  0.48243200  1
  C  C26  1  0.47575200  0.28720500  0.64991300  1
  C  C27  1  0.64161500  0.15421300  0.26353200  1
  C  C28  1  0.05368600  0.02010700  0.27394700  1
  C  C29  1  0.78986500  0.87992600  0.63814500  1
  C  C30  1  0.85838500  0.15421300  0.76353200  1
  C  C31  1  0.14161500  0.65421300  0.23646800  1
  C  C32  1  0.97575200  0.78720500  0.85008700  1
  C  C33  1  0.95044300  0.50654100  0.98243200  1
  C  C34  1  0.35838500  0.65421300  0.73646800  1
  C  C35  1  0.17071200  0.67424200  0.48361800  1
  C  C36  1  0.71013500  0.87992600  0.13814500  1
  C  C37  1  0.04955700  0.00654100  0.01756800  1
  C  C38  1  0.67071200  0.17424200  0.01638200  1
  C  C39  1  0.44631400  0.02010700  0.77394700  1
  C  C40  1  0.45044300  0.00654100  0.51756800  1
  C  C41  1  0.02424800  0.28720500  0.14991300  1
  C  C42  1  0.82928800  0.17424200  0.51638200  1
  C  C43  1  0.28986500  0.37992600  0.86185500  1
  C  C44  1  0.94631400  0.52010700  0.72605300  1
  C  C45  1  0.52424800  0.78720500  0.35008700  1
  C  C46  1  0.55368600  0.52010700  0.22605300  1
  C  C47  1  0.32928800  0.67424200  0.98361800  1
