# generated using pymatgen
data_CuNiC3
_symmetry_space_group_name_H-M   'P 1'
_cell_length_a   4.72399100
_cell_length_b   4.64222100
_cell_length_c   7.16066291
_cell_angle_alpha   88.85495443
_cell_angle_beta   90.00000000
_cell_angle_gamma   90.00000000
_symmetry_Int_Tables_number   1
_chemical_formula_structural   CuNiC3
_chemical_formula_sum   'Cu4 Ni4 C12'
_cell_volume   157.00062104
_cell_formula_units_Z   4
loop_
 _symmetry_equiv_pos_site_id
 _symmetry_equiv_pos_as_xyz
  1  'x, y, z'
loop_
 _atom_site_type_symbol
 _atom_site_label
 _atom_site_symmetry_multiplicity
 _atom_site_fract_x
 _atom_site_fract_y
 _atom_site_fract_z
 _atom_site_occupancy
  C  C0  1  0.44909300  0.15082700  0.60422800  1
  C  C1  1  0.20233500  0.65564600  0.51639500  1
  C  C2  1  0.72080600  0.71741100  0.80240100  1
  C  C3  1  0.94909300  0.84917300  0.39577200  1
  C  C4  1  0.70233500  0.34435400  0.48360500  1
  C  C5  1  0.22080600  0.28258900  0.19759900  1
  C  C6  1  0.76203500  0.85656100  0.02259100  1
  C  C7  1  0.26730500  0.78048600  0.29430400  1
  C  C8  1  0.52230100  0.35275500  0.07545700  1
  C  C9  1  0.26203500  0.14343900  0.97740900  1
  C  C10  1  0.76730500  0.21951400  0.70569600  1
  C  C11  1  0.02230100  0.64724500  0.92454300  1
  Ni  Ni12  1  0.60380100  0.30714100  0.61420400  1
  Ni  Ni13  1  0.10380100  0.69285900  0.38579600  1
  Ni  Ni14  1  0.37510400  0.19324700  0.10204100  1
  Ni  Ni15  1  0.87510400  0.80675300  0.89795900  1
  Cu  Cu16  1  0.48075300  0.56319600  0.68393800  1
  Cu  Cu17  1  0.98075300  0.43680400  0.31606200  1
  Cu  Cu18  1  0.51165700  0.94504000  0.17965400  1
  Cu  Cu19  1  0.01165700  0.05496000  0.82034600  1
