# generated using pymatgen
data_Cu4NiC7
_symmetry_space_group_name_H-M   'P 1'
_cell_length_a   13.38736900
_cell_length_b   16.54070400
_cell_length_c   19.40820500
_cell_angle_alpha   90.00000000
_cell_angle_beta   90.00000000
_cell_angle_gamma   90.00000000
_symmetry_Int_Tables_number   1
_chemical_formula_structural   Cu4NiC7
_chemical_formula_sum   'Cu64 Ni16 C112'
_cell_volume   4297.68514112
_cell_formula_units_Z   16
loop_
 _symmetry_equiv_pos_site_id
 _symmetry_equiv_pos_as_xyz
  1  'x, y, z'
loop_
 _atom_site_type_symbol
 _atom_site_label
 _atom_site_symmetry_multiplicity
 _atom_site_fract_x
 _atom_site_fract_y
 _atom_site_fract_z
 _atom_site_occupancy
  C  C0  1  0.21763700  0.86065400  0.70208700  1
  C  C1  1  0.27970600  0.25530000  0.03363500  1
  C  C2  1  0.71763700  0.63934600  0.70208700  1
  C  C3  1  0.77970600  0.75530000  0.46636500  1
  C  C4  1  0.28236300  0.63934600  0.20208700  1
  C  C5  1  0.22029400  0.24470000  0.53363500  1
  C  C6  1  0.77970600  0.24470000  0.03363500  1
  C  C7  1  0.21763700  0.13934600  0.79791300  1
  C  C8  1  0.28236300  0.36065400  0.29791300  1
  C  C9  1  0.27970600  0.74470000  0.46636500  1
  C  C10  1  0.71763700  0.36065400  0.79791300  1
  C  C11  1  0.22029400  0.75530000  0.96636500  1
  C  C12  1  0.72029400  0.74470000  0.96636500  1
  C  C13  1  0.78236300  0.13934600  0.29791300  1
  C  C14  1  0.78236300  0.86065400  0.20208700  1
  C  C15  1  0.72029400  0.25530000  0.53363500  1
  Ni  Ni16  1  0.47787800  0.40384800  0.64588000  1
  Ni  Ni17  1  0.93435400  0.41409400  0.63789300  1
  Ni  Ni18  1  0.97787800  0.90384800  0.85412000  1
  Ni  Ni19  1  0.06564600  0.41409400  0.13789300  1
  Ni  Ni20  1  0.97787800  0.09615200  0.64588000  1
  Ni  Ni21  1  0.43435400  0.91409500  0.86210700  1
  Ni  Ni22  1  0.56564600  0.08590600  0.13789300  1
  Ni  Ni23  1  0.43435400  0.08590600  0.63789300  1
  Ni  Ni24  1  0.93435400  0.58590500  0.86210700  1
  Ni  Ni25  1  0.06564600  0.58590500  0.36210700  1
  Ni  Ni26  1  0.56564600  0.91409500  0.36210700  1
  Ni  Ni27  1  0.02212200  0.09615200  0.14588000  1
  Ni  Ni28  1  0.02212200  0.90384800  0.35412000  1
  Ni  Ni29  1  0.52212200  0.59615200  0.35412000  1
  Ni  Ni30  1  0.52212200  0.40384800  0.14588000  1
  Ni  Ni31  1  0.47787800  0.59615200  0.85412000  1
  Cu  Cu32  1  0.11329800  0.23644400  0.96340200  1
  Cu  Cu33  1  0.61864600  0.20001400  0.35300800  1
  Cu  Cu34  1  0.36518600  0.22149700  0.26535600  1
  Cu  Cu35  1  0.36925300  0.39094500  0.41572700  1
  Cu  Cu36  1  0.34033500  0.38732600  0.97139300  1
  Cu  Cu37  1  0.75101900  0.87777800  0.70851000  1
  Cu  Cu38  1  0.11864600  0.29998600  0.35300800  1
  Cu  Cu39  1  0.74898100  0.37777800  0.29149000  1
  Cu  Cu40  1  0.84033500  0.88732600  0.52860700  1
  Cu  Cu41  1  0.74898100  0.62222200  0.20851000  1
  Cu  Cu42  1  0.15966500  0.11267400  0.47139300  1
  Cu  Cu43  1  0.11963800  0.35354200  0.46253200  1
  Cu  Cu44  1  0.25101900  0.62222200  0.70851000  1
  Cu  Cu45  1  0.13074700  0.89094500  0.58427300  1
  Cu  Cu46  1  0.11329800  0.76355600  0.53659800  1
  Cu  Cu47  1  0.63074700  0.60905500  0.58427300  1
  Cu  Cu48  1  0.88036200  0.64645800  0.53746800  1
  Cu  Cu49  1  0.70588000  0.07527100  0.90334700  1
  Cu  Cu50  1  0.38135400  0.79998600  0.64699200  1
  Cu  Cu51  1  0.13481400  0.72149700  0.73464400  1
  Cu  Cu52  1  0.11963800  0.64645800  0.03746800  1
  Cu  Cu53  1  0.63481400  0.22149700  0.76535600  1
  Cu  Cu54  1  0.13481400  0.27850300  0.76535600  1
  Cu  Cu55  1  0.63481400  0.77850300  0.73464400  1
  Cu  Cu56  1  0.88670200  0.23644400  0.46340200  1
  Cu  Cu57  1  0.20588000  0.57527100  0.59665300  1
  Cu  Cu58  1  0.61963800  0.14645800  0.46253200  1
  Cu  Cu59  1  0.34033500  0.61267400  0.52860700  1
  Cu  Cu60  1  0.86518600  0.27850300  0.26535600  1
  Cu  Cu61  1  0.11864600  0.70001400  0.14699200  1
  Cu  Cu62  1  0.86925300  0.10905500  0.41572700  1
  Cu  Cu63  1  0.20588000  0.42472900  0.90334700  1
  Cu  Cu64  1  0.88135400  0.70001400  0.64699200  1
  Cu  Cu65  1  0.61329800  0.73644400  0.53659800  1
  Cu  Cu66  1  0.88135400  0.29998600  0.85300800  1
  Cu  Cu67  1  0.38036200  0.14645800  0.96253200  1
  Cu  Cu68  1  0.75101900  0.12222200  0.79149000  1
  Cu  Cu69  1  0.38670200  0.26355600  0.46340200  1
  Cu  Cu70  1  0.24898100  0.87777800  0.20851000  1
  Cu  Cu71  1  0.61963800  0.85354200  0.03746800  1
  Cu  Cu72  1  0.79412000  0.57527100  0.09665300  1
  Cu  Cu73  1  0.38670200  0.73644400  0.03659800  1
  Cu  Cu74  1  0.84033500  0.11267400  0.97139300  1
  Cu  Cu75  1  0.38036200  0.85354200  0.53746800  1
  Cu  Cu76  1  0.79412000  0.42472900  0.40334700  1
  Cu  Cu77  1  0.61864600  0.79998600  0.14699200  1
  Cu  Cu78  1  0.15966500  0.88732600  0.02860700  1
  Cu  Cu79  1  0.65966500  0.61267400  0.02860700  1
  Cu  Cu80  1  0.24898100  0.12222200  0.29149000  1
  Cu  Cu81  1  0.88670200  0.76355600  0.03659800  1
  Cu  Cu82  1  0.65966500  0.38732600  0.47139300  1
  Cu  Cu83  1  0.36518600  0.77850300  0.23464400  1
  Cu  Cu84  1  0.88036200  0.35354200  0.96253200  1
  Cu  Cu85  1  0.36925300  0.60905500  0.08427300  1
  Cu  Cu86  1  0.38135400  0.20001400  0.85300800  1
  Cu  Cu87  1  0.29412000  0.07527100  0.40334700  1
  Cu  Cu88  1  0.63074700  0.39094500  0.91572700  1
  Cu  Cu89  1  0.29412000  0.92472900  0.09665300  1
  Cu  Cu90  1  0.25101900  0.37777800  0.79149000  1
  Cu  Cu91  1  0.86518600  0.72149700  0.23464400  1
  Cu  Cu92  1  0.13074700  0.10905500  0.91572700  1
  Cu  Cu93  1  0.70588000  0.92472900  0.59665300  1
  Cu  Cu94  1  0.61329800  0.26355600  0.96340200  1
  Cu  Cu95  1  0.86925300  0.89094500  0.08427300  1
  C  C96  1  0.54114600  0.31862800  0.61002100  1
  C  C97  1  0.13201300  0.67557500  0.33770300  1
  C  C98  1  0.32719000  0.02721300  0.65991300  1
  C  C99  1  0.13201300  0.32442500  0.16229700  1
  C  C100  1  0.04200700  0.35763500  0.61368300  1
  C  C101  1  0.90381200  0.04834100  0.15865300  1
  C  C102  1  0.04200700  0.64236500  0.88631700  1
  C  C103  1  0.36118500  0.35484100  0.63433600  1
  C  C104  1  0.54200700  0.14236500  0.61368300  1
  C  C105  1  0.45799300  0.14236500  0.11368300  1
  C  C106  1  0.40381200  0.45165900  0.15865300  1
  C  C107  1  0.67281000  0.97278700  0.34008700  1
  C  C108  1  0.95799300  0.35763500  0.11368300  1
  C  C109  1  0.51899400  0.07770900  0.22220800  1
  C  C110  1  0.63201300  0.17557500  0.16229700  1
  C  C111  1  0.09618800  0.04834100  0.65865300  1
  C  C112  1  0.58346300  0.51091800  0.32037800  1
  C  C113  1  0.82719000  0.52721300  0.84008700  1
  C  C114  1  0.01056100  0.14043400  0.22938900  1
  C  C115  1  0.47005400  0.44644200  0.56179300  1
  C  C116  1  0.91653700  0.01091800  0.67962200  1
  C  C117  1  0.63201300  0.82442500  0.33770300  1
  C  C118  1  0.86118500  0.85484100  0.86566400  1
  C  C119  1  0.45799300  0.85763500  0.38631700  1
  C  C120  1  0.09618800  0.95165900  0.84134700  1
  C  C121  1  0.95885400  0.18137200  0.11002100  1
  C  C122  1  0.63881500  0.64515900  0.36566400  1
  C  C123  1  0.48943900  0.64043400  0.77061100  1
  C  C124  1  0.38670100  0.90004900  0.94752500  1
  C  C125  1  0.11329900  0.59995100  0.44752500  1
  C  C126  1  0.45885400  0.31862800  0.11002100  1
  C  C127  1  0.38670100  0.09995100  0.55247500  1
  C  C128  1  0.08346300  0.01091800  0.17962200  1
  C  C129  1  0.86118500  0.14515900  0.63433600  1
  C  C130  1  0.41653700  0.48908200  0.67962200  1
  C  C131  1  0.95885400  0.81862800  0.38997900  1
  C  C132  1  0.99526100  0.50409500  0.61161200  1
  C  C133  1  0.52994600  0.44644200  0.06179300  1
  C  C134  1  0.97005400  0.94644200  0.93820700  1
  C  C135  1  0.48100600  0.07770900  0.72220800  1
  C  C136  1  0.36798700  0.82442500  0.83770300  1
  C  C137  1  0.00473900  0.50409500  0.11161200  1
  C  C138  1  0.13881500  0.85484100  0.36566400  1
  C  C139  1  0.95799300  0.64236500  0.38631700  1
  C  C140  1  0.97005400  0.05355800  0.56179300  1
  C  C141  1  0.59618800  0.54834100  0.84134700  1
  C  C142  1  0.50473900  0.00409500  0.38838800  1
  C  C143  1  0.01056100  0.85956600  0.27061100  1
  C  C144  1  0.32719000  0.97278700  0.84008700  1
  C  C145  1  0.41653700  0.51091800  0.82037800  1
  C  C146  1  0.61329900  0.09995100  0.05247500  1
  C  C147  1  0.98943900  0.14043400  0.72938900  1
  C  C148  1  0.98100600  0.57770900  0.77779200  1
  C  C149  1  0.36798700  0.17557500  0.66229700  1
  C  C150  1  0.01899400  0.42229100  0.22220800  1
  C  C151  1  0.67281000  0.02721300  0.15991300  1
  C  C152  1  0.90381200  0.95165900  0.34134700  1
  C  C153  1  0.86798700  0.32442500  0.66229700  1
  C  C154  1  0.47005400  0.55355800  0.93820700  1
  C  C155  1  0.51056100  0.35956600  0.22938900  1
  C  C156  1  0.88670100  0.40004900  0.55247500  1
  C  C157  1  0.63881500  0.35484100  0.13433600  1
  C  C158  1  0.08346300  0.98908200  0.32037800  1
  C  C159  1  0.59618800  0.45165900  0.65865300  1
  C  C160  1  0.88670100  0.59995100  0.94752500  1
  C  C161  1  0.50473900  0.99590500  0.11161200  1
  C  C162  1  0.54114600  0.68137200  0.88997900  1
  C  C163  1  0.17281000  0.47278700  0.15991300  1
  C  C164  1  0.01899400  0.57770900  0.27779200  1
  C  C165  1  0.45885400  0.68137200  0.38997900  1
  C  C166  1  0.61329900  0.90004900  0.44752500  1
  C  C167  1  0.98100600  0.42229100  0.72220800  1
  C  C168  1  0.99526100  0.49590500  0.88838800  1
  C  C169  1  0.86798700  0.67557500  0.83770300  1
  C  C170  1  0.02994600  0.94644200  0.43820700  1
  C  C171  1  0.82719000  0.47278700  0.65991300  1
  C  C172  1  0.48100600  0.92229100  0.77779200  1
  C  C173  1  0.04114600  0.18137200  0.61002100  1
  C  C174  1  0.11329900  0.40004900  0.05247500  1
  C  C175  1  0.49526100  0.00409500  0.88838800  1
  C  C176  1  0.40381200  0.54834100  0.34134700  1
  C  C177  1  0.13881500  0.14515900  0.13433600  1
  C  C178  1  0.91653700  0.98908200  0.82037800  1
  C  C179  1  0.02994600  0.05355800  0.06179300  1
  C  C180  1  0.51056100  0.64043400  0.27061100  1
  C  C181  1  0.17281000  0.52721300  0.34008700  1
  C  C182  1  0.51899400  0.92229100  0.27779200  1
  C  C183  1  0.98943900  0.85956600  0.77061100  1
  C  C184  1  0.04114600  0.81862800  0.88997900  1
  C  C185  1  0.48943900  0.35956600  0.72938900  1
  C  C186  1  0.36118500  0.64515900  0.86566400  1
  C  C187  1  0.49526100  0.99590500  0.61161200  1
  C  C188  1  0.58346300  0.48908200  0.17962200  1
  C  C189  1  0.00473900  0.49590500  0.38838800  1
  C  C190  1  0.52994600  0.55355800  0.43820700  1
  C  C191  1  0.54200700  0.85763500  0.88631700  1
