# generated using pymatgen
data_Cu16Ni2C23
_symmetry_space_group_name_H-M   'P 1'
_cell_length_a   7.02630700
_cell_length_b   7.02630700
_cell_length_c   17.68682000
_cell_angle_alpha   90.00000000
_cell_angle_beta   90.00000000
_cell_angle_gamma   90.00000000
_symmetry_Int_Tables_number   1
_chemical_formula_structural   Cu16Ni2C23
_chemical_formula_sum   'Cu32 Ni4 C46'
_cell_volume   873.18044074
_cell_formula_units_Z   2
loop_
 _symmetry_equiv_pos_site_id
 _symmetry_equiv_pos_as_xyz
  1  'x, y, z'
loop_
 _atom_site_type_symbol
 _atom_site_label
 _atom_site_symmetry_multiplicity
 _atom_site_fract_x
 _atom_site_fract_y
 _atom_site_fract_z
 _atom_site_occupancy
  C  C0  1  0.00000000  0.50000000  0.94838800  1
  C  C1  1  0.50000000  0.00000000  0.05161200  1
  C  C2  1  0.00000000  0.50000000  0.45053900  1
  C  C3  1  0.50000000  0.00000000  0.54946100  1
  C  C4  1  0.00000000  0.50000000  0.68760700  1
  C  C5  1  0.50000000  0.00000000  0.31239300  1
  Ni  Ni6  1  0.50000000  0.50000000  0.00000000  1
  Ni  Ni7  1  0.00000000  0.00000000  0.00000000  1
  Ni  Ni8  1  0.50000000  0.50000000  0.50000000  1
  Ni  Ni9  1  0.00000000  0.00000000  0.50000000  1
  Cu  Cu10  1  0.66912200  0.61792800  0.14202000  1
  Cu  Cu11  1  0.33087800  0.38207200  0.14202000  1
  Cu  Cu12  1  0.11792800  0.83087800  0.14202000  1
  Cu  Cu13  1  0.88207200  0.16912200  0.14202000  1
  Cu  Cu14  1  0.83087800  0.88207200  0.85798000  1
  Cu  Cu15  1  0.16912200  0.11792800  0.85798000  1
  Cu  Cu16  1  0.38207200  0.66912200  0.85798000  1
  Cu  Cu17  1  0.61792800  0.33087800  0.85798000  1
  Cu  Cu18  1  0.88883800  0.83048600  0.64551700  1
  Cu  Cu19  1  0.11116200  0.16951400  0.64551700  1
  Cu  Cu20  1  0.33048600  0.61116200  0.64551700  1
  Cu  Cu21  1  0.66951400  0.38883800  0.64551700  1
  Cu  Cu22  1  0.61116200  0.66951400  0.35448300  1
  Cu  Cu23  1  0.38883800  0.33048600  0.35448300  1
  Cu  Cu24  1  0.16951400  0.88883800  0.35448300  1
  Cu  Cu25  1  0.83048600  0.11116200  0.35448300  1
  Cu  Cu26  1  0.87652900  0.82628100  0.73637900  1
  Cu  Cu27  1  0.12347100  0.17371900  0.73637900  1
  Cu  Cu28  1  0.32628100  0.62347100  0.73637900  1
  Cu  Cu29  1  0.67371900  0.37652900  0.73637900  1
  Cu  Cu30  1  0.62347100  0.67371900  0.26362100  1
  Cu  Cu31  1  0.37652900  0.32628100  0.26362100  1
  Cu  Cu32  1  0.17371900  0.87652900  0.26362100  1
  Cu  Cu33  1  0.82628100  0.12347100  0.26362100  1
  Cu  Cu34  1  0.78172100  0.46310600  0.18978800  1
  Cu  Cu35  1  0.21827900  0.53689400  0.18978800  1
  Cu  Cu36  1  0.96310600  0.71827900  0.18978800  1
  Cu  Cu37  1  0.03689400  0.28172100  0.18978800  1
  Cu  Cu38  1  0.71827900  0.03689400  0.81021200  1
  Cu  Cu39  1  0.28172100  0.96310600  0.81021200  1
  Cu  Cu40  1  0.53689400  0.78172100  0.81021200  1
  Cu  Cu41  1  0.46310600  0.21827900  0.81021200  1
  C  C42  1  0.00000000  0.50000000  0.55413600  1
  C  C43  1  0.50000000  0.00000000  0.44586400  1
  C  C44  1  0.00000000  0.50000000  0.05022700  1
  C  C45  1  0.50000000  0.00000000  0.94977300  1
  C  C46  1  0.00000000  0.50000000  0.34822000  1
  C  C47  1  0.50000000  0.00000000  0.65178000  1
  C  C48  1  0.00000000  0.50000000  0.84527000  1
  C  C49  1  0.50000000  0.00000000  0.15473000  1
  C  C50  1  0.32682400  0.53687700  0.94738100  1
  C  C51  1  0.67317600  0.46312300  0.94738100  1
  C  C52  1  0.03687700  0.17317600  0.94738100  1
  C  C53  1  0.96312300  0.82682400  0.94738100  1
  C  C54  1  0.17317600  0.96312300  0.05261900  1
  C  C55  1  0.82682400  0.03687700  0.05261900  1
  C  C56  1  0.46312300  0.32682400  0.05261900  1
  C  C57  1  0.53687700  0.67317600  0.05261900  1
  C  C58  1  0.32646700  0.45610000  0.44822700  1
  C  C59  1  0.67353300  0.54390000  0.44822700  1
  C  C60  1  0.95610000  0.17353300  0.44822700  1
  C  C61  1  0.04390000  0.82646700  0.44822700  1
  C  C62  1  0.17353300  0.04390000  0.55177300  1
  C  C63  1  0.82646700  0.95610000  0.55177300  1
  C  C64  1  0.54390000  0.32646700  0.55177300  1
  C  C65  1  0.45610000  0.67353300  0.55177300  1
  C  C66  1  0.95107900  0.77891800  0.69117600  1
  C  C67  1  0.04892100  0.22108200  0.69117600  1
  C  C68  1  0.27891800  0.54892100  0.69117600  1
  C  C69  1  0.72108200  0.45107900  0.69117600  1
  C  C70  1  0.54892100  0.72108200  0.30882400  1
  C  C71  1  0.45107900  0.27891800  0.30882400  1
  C  C72  1  0.22108200  0.95107900  0.30882400  1
  C  C73  1  0.77891800  0.04892100  0.30882400  1
  C  C74  1  0.74034000  0.59915900  0.18956800  1
  C  C75  1  0.25966000  0.40084100  0.18956800  1
  C  C76  1  0.09915900  0.75966000  0.18956800  1
  C  C77  1  0.90084100  0.24034000  0.18956800  1
  C  C78  1  0.75966000  0.90084100  0.81043200  1
  C  C79  1  0.24034000  0.09915900  0.81043200  1
  C  C80  1  0.40084100  0.74034000  0.81043200  1
  C  C81  1  0.59915900  0.25966000  0.81043200  1
