# generated using pymatgen
data_CuNiC
_symmetry_space_group_name_H-M   'P 1'
_cell_length_a   4.05842200
_cell_length_b   7.33789000
_cell_length_c   16.64895400
_cell_angle_alpha   90.00000000
_cell_angle_beta   90.00000000
_cell_angle_gamma   90.00000000
_symmetry_Int_Tables_number   1
_chemical_formula_structural   CuNiC
_chemical_formula_sum   'Cu8 Ni8 C8'
_cell_volume   495.81008244
_cell_formula_units_Z   8
loop_
 _symmetry_equiv_pos_site_id
 _symmetry_equiv_pos_as_xyz
  1  'x, y, z'
loop_
 _atom_site_type_symbol
 _atom_site_label
 _atom_site_symmetry_multiplicity
 _atom_site_fract_x
 _atom_site_fract_y
 _atom_site_fract_z
 _atom_site_occupancy
  C  C0  1  0.75000000  0.45289500  0.21652600  1
  C  C1  1  0.75000000  0.95289500  0.28347400  1
  C  C2  1  0.75000000  0.83246100  0.06054400  1
  C  C3  1  0.25000000  0.04710500  0.71652600  1
  C  C4  1  0.25000000  0.16753900  0.93945600  1
  C  C5  1  0.25000000  0.54710500  0.78347400  1
  C  C6  1  0.75000000  0.33246100  0.43945600  1
  C  C7  1  0.25000000  0.66753900  0.56054400  1
  Ni  Ni8  1  0.25000000  0.99859600  0.43953400  1
  Ni  Ni9  1  0.75000000  0.50140400  0.93953400  1
  Ni  Ni10  1  0.75000000  0.00140400  0.56046600  1
  Ni  Ni11  1  0.25000000  0.62557700  0.34974100  1
  Ni  Ni12  1  0.75000000  0.37442300  0.65025900  1
  Ni  Ni13  1  0.75000000  0.87442300  0.84974100  1
  Ni  Ni14  1  0.25000000  0.49859600  0.06046600  1
  Ni  Ni15  1  0.25000000  0.12557700  0.15025900  1
  Cu  Cu16  1  0.25000000  0.24188500  0.56492400  1
  Cu  Cu17  1  0.75000000  0.25811500  0.06492400  1
  Cu  Cu18  1  0.25000000  0.24797200  0.31413900  1
  Cu  Cu19  1  0.75000000  0.25202800  0.81413900  1
  Cu  Cu20  1  0.25000000  0.74188500  0.93507600  1
  Cu  Cu21  1  0.75000000  0.75202800  0.68586100  1
  Cu  Cu22  1  0.75000000  0.75811500  0.43507600  1
  Cu  Cu23  1  0.25000000  0.74797200  0.18586100  1
