# generated using pymatgen
data_Cu2NiC
_symmetry_space_group_name_H-M   'P 1'
_cell_length_a   4.09641795
_cell_length_b   4.09641795
_cell_length_c   3.96779148
_cell_angle_alpha   83.81174850
_cell_angle_beta   83.81174850
_cell_angle_gamma   79.05710136
_symmetry_Int_Tables_number   1
_chemical_formula_structural   Cu2NiC
_chemical_formula_sum   'Cu2 Ni1 C1'
_cell_volume   64.72984452
_cell_formula_units_Z   1
loop_
 _symmetry_equiv_pos_site_id
 _symmetry_equiv_pos_as_xyz
  1  'x, y, z'
loop_
 _atom_site_type_symbol
 _atom_site_label
 _atom_site_symmetry_multiplicity
 _atom_site_fract_x
 _atom_site_fract_y
 _atom_site_fract_z
 _atom_site_occupancy
  C  C0  1  0.00582800  0.99417200  0.00000000  1
  Ni  Ni1  1  0.85275800  0.14724200  0.50000000  1
  Cu  Cu2  1  0.12281400  0.49040000  0.87576900  1
  Cu  Cu3  1  0.50960000  0.87718600  0.12423100  1
