# generated using pymatgen
data_Cu2NiC9
_symmetry_space_group_name_H-M   'P 1'
_cell_length_a   8.09718000
_cell_length_b   8.09718000
_cell_length_c   5.22654000
_cell_angle_alpha   90.00000000
_cell_angle_beta   90.00000000
_cell_angle_gamma   90.00000000
_symmetry_Int_Tables_number   1
_chemical_formula_structural   Cu2NiC9
_chemical_formula_sum   'Cu4 Ni2 C18'
_cell_volume   342.67456171
_cell_formula_units_Z   2
loop_
 _symmetry_equiv_pos_site_id
 _symmetry_equiv_pos_as_xyz
  1  'x, y, z'
loop_
 _atom_site_type_symbol
 _atom_site_label
 _atom_site_symmetry_multiplicity
 _atom_site_fract_x
 _atom_site_fract_y
 _atom_site_fract_z
 _atom_site_occupancy
  C  C0  1  0.66614400  0.16614400  0.50787900  1
  C  C1  1  0.83385600  0.66614400  0.49212100  1
  C  C2  1  0.16614400  0.33385600  0.49212100  1
  C  C3  1  0.33385600  0.83385600  0.50787900  1
  Ni  Ni4  1  0.00000000  0.00000000  0.00000000  1
  Ni  Ni5  1  0.50000000  0.50000000  0.00000000  1
  Cu  Cu6  1  0.86130200  0.36130200  0.94352300  1
  Cu  Cu7  1  0.13869800  0.63869800  0.94352300  1
  Cu  Cu8  1  0.63869800  0.86130200  0.05647700  1
  Cu  Cu9  1  0.36130200  0.13869800  0.05647700  1
  C  C10  1  0.68990400  0.42045000  0.80149600  1
  C  C11  1  0.31009600  0.57955000  0.80149600  1
  C  C12  1  0.42045000  0.31009600  0.19850400  1
  C  C13  1  0.57955000  0.68990400  0.19850400  1
  C  C14  1  0.92045000  0.18990400  0.80149600  1
  C  C15  1  0.81009600  0.92045000  0.19850400  1
  C  C16  1  0.18990400  0.07955000  0.19850400  1
  C  C17  1  0.07955000  0.81009600  0.80149600  1
  C  C18  1  0.85997100  0.35997100  0.25353600  1
  C  C19  1  0.64002900  0.85997100  0.74646400  1
  C  C20  1  0.50000000  0.00000000  0.16477200  1
  C  C21  1  0.00000000  0.50000000  0.83522800  1
  C  C22  1  0.14002900  0.64002900  0.25353600  1
  C  C23  1  0.35997100  0.14002900  0.74646400  1
