# generated using pymatgen
data_Cu(NiC2)2
_symmetry_space_group_name_H-M   'P 1'
_cell_length_a   6.32965400
_cell_length_b   12.13351100
_cell_length_c   15.88744700
_cell_angle_alpha   90.00000000
_cell_angle_beta   90.00000000
_cell_angle_gamma   90.00000000
_symmetry_Int_Tables_number   1
_chemical_formula_structural   Cu(NiC2)2
_chemical_formula_sum   'Cu12 Ni24 C48'
_cell_volume   1220.17064829
_cell_formula_units_Z   12
loop_
 _symmetry_equiv_pos_site_id
 _symmetry_equiv_pos_as_xyz
  1  'x, y, z'
loop_
 _atom_site_type_symbol
 _atom_site_label
 _atom_site_symmetry_multiplicity
 _atom_site_fract_x
 _atom_site_fract_y
 _atom_site_fract_z
 _atom_site_occupancy
  C  C0  1  0.00000000  0.50000000  0.74645100  1
  C  C1  1  0.50000000  0.00000000  0.75354900  1
  C  C2  1  0.00000000  0.50000000  0.25354900  1
  C  C3  1  0.50000000  0.00000000  0.24645100  1
  C  C4  1  0.50000000  0.50000000  0.87718900  1
  C  C5  1  0.00000000  0.00000000  0.62281100  1
  C  C6  1  0.50000000  0.50000000  0.12281100  1
  C  C7  1  0.00000000  0.00000000  0.37718900  1
  C  C8  1  0.67894400  0.30032100  0.78703300  1
  C  C9  1  0.32105600  0.69967900  0.78703300  1
  C  C10  1  0.17894400  0.19967900  0.71296700  1
  C  C11  1  0.82105600  0.80032100  0.71296700  1
  C  C12  1  0.32105600  0.69967900  0.21296700  1
  C  C13  1  0.67894400  0.30032100  0.21296700  1
  C  C14  1  0.82105600  0.80032100  0.28703300  1
  C  C15  1  0.17894400  0.19967900  0.28703300  1
  C  C16  1  0.56095100  0.38209100  0.72812000  1
  C  C17  1  0.43904900  0.61790900  0.72812000  1
  C  C18  1  0.06095100  0.11790900  0.77188000  1
  C  C19  1  0.93904900  0.88209100  0.77188000  1
  C  C20  1  0.43904900  0.61790900  0.27188000  1
  C  C21  1  0.56095100  0.38209100  0.27188000  1
  C  C22  1  0.93904900  0.88209100  0.22812000  1
  C  C23  1  0.06095100  0.11790900  0.22812000  1
  C  C24  1  0.99823000  0.21914900  0.00000000  1
  C  C25  1  0.00177000  0.78085100  0.00000000  1
  C  C26  1  0.49823000  0.28085100  0.50000000  1
  C  C27  1  0.50177000  0.71914900  0.50000000  1
  C  C28  1  0.74155700  0.32070000  0.00000000  1
  C  C29  1  0.25844300  0.67930000  0.00000000  1
  C  C30  1  0.24155700  0.17930000  0.50000000  1
  C  C31  1  0.75844300  0.82070000  0.50000000  1
  C  C32  1  0.11118500  0.32337000  0.09120200  1
  C  C33  1  0.88881500  0.67663000  0.09120200  1
  C  C34  1  0.61118500  0.17663000  0.40879800  1
  C  C35  1  0.38881500  0.82337000  0.40879800  1
  C  C36  1  0.88881500  0.67663000  0.90879800  1
  C  C37  1  0.11118500  0.32337000  0.90879800  1
  C  C38  1  0.38881500  0.82337000  0.59120200  1
  C  C39  1  0.61118500  0.17663000  0.59120200  1
  C  C40  1  0.83946100  0.13373500  0.90779000  1
  C  C41  1  0.16053900  0.86626500  0.90779000  1
  C  C42  1  0.33946100  0.36626500  0.59221000  1
  C  C43  1  0.66053900  0.63373500  0.59221000  1
  C  C44  1  0.16053900  0.86626500  0.09221000  1
  C  C45  1  0.83946100  0.13373500  0.09221000  1
  C  C46  1  0.66053900  0.63373500  0.40779000  1
  C  C47  1  0.33946100  0.36626500  0.40779000  1
  Ni  Ni48  1  0.23335000  0.13780200  0.00000000  1
  Ni  Ni49  1  0.76665000  0.86219800  0.00000000  1
  Ni  Ni50  1  0.73335000  0.36219800  0.50000000  1
  Ni  Ni51  1  0.26665000  0.63780200  0.50000000  1
  Ni  Ni52  1  0.59406700  0.37903000  0.00000000  1
  Ni  Ni53  1  0.40593300  0.62097000  0.00000000  1
  Ni  Ni54  1  0.09406700  0.12097000  0.50000000  1
  Ni  Ni55  1  0.90593300  0.87903000  0.50000000  1
  Ni  Ni56  1  0.17016500  0.38351800  0.14408800  1
  Ni  Ni57  1  0.82983500  0.61648200  0.14408800  1
  Ni  Ni58  1  0.67016500  0.11648200  0.35591200  1
  Ni  Ni59  1  0.32983500  0.88351800  0.35591200  1
  Ni  Ni60  1  0.82983500  0.61648200  0.85591200  1
  Ni  Ni61  1  0.17016500  0.38351800  0.85591200  1
  Ni  Ni62  1  0.32983500  0.88351800  0.64408800  1
  Ni  Ni63  1  0.67016500  0.11648200  0.64408800  1
  Ni  Ni64  1  0.74433200  0.09004200  0.85367500  1
  Ni  Ni65  1  0.25566800  0.90995800  0.85367500  1
  Ni  Ni66  1  0.24433100  0.40995800  0.64632500  1
  Ni  Ni67  1  0.75566800  0.59004200  0.64632500  1
  Ni  Ni68  1  0.25566800  0.90995800  0.14632500  1
  Ni  Ni69  1  0.74433200  0.09004200  0.14632500  1
  Ni  Ni70  1  0.75566800  0.59004200  0.35367500  1
  Ni  Ni71  1  0.24433100  0.40995800  0.35367500  1
  Cu  Cu72  1  0.39353800  0.09261700  0.00000000  1
  Cu  Cu73  1  0.60646200  0.90738300  0.00000000  1
  Cu  Cu74  1  0.89353800  0.40738300  0.50000000  1
  Cu  Cu75  1  0.10646200  0.59261700  0.50000000  1
  Cu  Cu76  1  0.67373000  0.37780700  0.77026500  1
  Cu  Cu77  1  0.32627000  0.62219300  0.77026500  1
  Cu  Cu78  1  0.17373000  0.12219300  0.72973500  1
  Cu  Cu79  1  0.82627000  0.87780700  0.72973500  1
  Cu  Cu80  1  0.32627000  0.62219300  0.22973500  1
  Cu  Cu81  1  0.67373000  0.37780700  0.22973500  1
  Cu  Cu82  1  0.82627000  0.87780700  0.27026500  1
  Cu  Cu83  1  0.17373000  0.12219300  0.27026500  1
