# generated using pymatgen
data_Cu11Ni2C15
_symmetry_space_group_name_H-M   'P 1'
_cell_length_a   6.90570300
_cell_length_b   15.90082000
_cell_length_c   17.49653000
_cell_angle_alpha   90.00000000
_cell_angle_beta   90.00000000
_cell_angle_gamma   90.00000000
_symmetry_Int_Tables_number   1
_chemical_formula_structural   Cu11Ni2C15
_chemical_formula_sum   'Cu44 Ni8 C60'
_cell_volume   1921.22992859
_cell_formula_units_Z   4
loop_
 _symmetry_equiv_pos_site_id
 _symmetry_equiv_pos_as_xyz
  1  'x, y, z'
loop_
 _atom_site_type_symbol
 _atom_site_label
 _atom_site_symmetry_multiplicity
 _atom_site_fract_x
 _atom_site_fract_y
 _atom_site_fract_z
 _atom_site_occupancy
  C  C0  1  0.18151700  0.32504900  0.15457700  1
  C  C1  1  0.32566200  0.33412700  0.80867400  1
  C  C2  1  0.17433800  0.16587300  0.80867400  1
  C  C3  1  0.31848300  0.32504900  0.65457700  1
  C  C4  1  0.18151700  0.17495100  0.65457700  1
  C  C5  1  0.82566200  0.83412700  0.19132600  1
  C  C6  1  0.81848300  0.67495100  0.84542300  1
  C  C7  1  0.17433800  0.33412700  0.30867400  1
  C  C8  1  0.81848300  0.82504900  0.34542300  1
  C  C9  1  0.31848300  0.17495100  0.15457700  1
  C  C10  1  0.67433800  0.66587300  0.19132600  1
  C  C11  1  0.82566200  0.66587300  0.69132600  1
  C  C12  1  0.32566200  0.16587300  0.30867400  1
  C  C13  1  0.68151700  0.82504900  0.84542300  1
  C  C14  1  0.68151700  0.67495100  0.34542300  1
  C  C15  1  0.67433800  0.83412700  0.69132600  1
  Ni  Ni16  1  0.48904100  0.20920100  0.73897600  1
  Ni  Ni17  1  0.51095900  0.70920100  0.76102400  1
  Ni  Ni18  1  0.48904100  0.29079900  0.23897600  1
  Ni  Ni19  1  0.01095900  0.20920100  0.23897600  1
  Ni  Ni20  1  0.51095900  0.79079900  0.26102400  1
  Ni  Ni21  1  0.01095900  0.29079900  0.73897600  1
  Ni  Ni22  1  0.98904100  0.70920100  0.26102400  1
  Ni  Ni23  1  0.98904100  0.79079900  0.76102400  1
  Cu  Cu24  1  0.70065200  0.58750400  0.89015800  1
  Cu  Cu25  1  0.45509900  0.64522900  0.38763500  1
  Cu  Cu26  1  0.47953900  0.83055000  0.62387900  1
  Cu  Cu27  1  0.20065200  0.41249600  0.60984200  1
  Cu  Cu28  1  0.97953900  0.33055000  0.37612100  1
  Cu  Cu29  1  0.59867500  0.57397500  0.24061300  1
  Cu  Cu30  1  0.04490100  0.64522900  0.88763500  1
  Cu  Cu31  1  0.95509900  0.14522900  0.61236500  1
  Cu  Cu32  1  0.82558000  0.61477500  0.12234000  1
  Cu  Cu33  1  0.02046100  0.83055000  0.12387900  1
  Cu  Cu34  1  0.79934800  0.91249600  0.89015800  1
  Cu  Cu35  1  0.90132500  0.57397500  0.74061300  1
  Cu  Cu36  1  0.40132500  0.42602500  0.75938700  1
  Cu  Cu37  1  0.54490100  0.14522900  0.11236500  1
  Cu  Cu38  1  0.59867500  0.92602500  0.74061300  1
  Cu  Cu39  1  0.09867500  0.07397500  0.75938700  1
  Cu  Cu40  1  0.32558000  0.11477500  0.87766000  1
  Cu  Cu41  1  0.02046100  0.66945000  0.62387900  1
  Cu  Cu42  1  0.29934800  0.41249600  0.10984200  1
  Cu  Cu43  1  0.75000000  0.75000000  0.42749000  1
  Cu  Cu44  1  0.67442000  0.61477500  0.62234000  1
  Cu  Cu45  1  0.17442000  0.11477500  0.37766000  1
  Cu  Cu46  1  0.17442000  0.38522500  0.87766000  1
  Cu  Cu47  1  0.25000000  0.25000000  0.57251000  1
  Cu  Cu48  1  0.54490100  0.35477100  0.61236500  1
  Cu  Cu49  1  0.32558000  0.38522500  0.37766000  1
  Cu  Cu50  1  0.52046100  0.16945000  0.37612100  1
  Cu  Cu51  1  0.45509900  0.85477100  0.88763500  1
  Cu  Cu52  1  0.04490100  0.85477100  0.38763500  1
  Cu  Cu53  1  0.97953900  0.16945000  0.87612100  1
  Cu  Cu54  1  0.20065200  0.08750400  0.10984200  1
  Cu  Cu55  1  0.40132500  0.07397500  0.25938700  1
  Cu  Cu56  1  0.90132500  0.92602500  0.24061300  1
  Cu  Cu57  1  0.47953900  0.66945000  0.12387900  1
  Cu  Cu58  1  0.82558000  0.88522500  0.62234000  1
  Cu  Cu59  1  0.70065200  0.91249600  0.39015800  1
  Cu  Cu60  1  0.67442000  0.88522500  0.12234000  1
  Cu  Cu61  1  0.29934800  0.08750400  0.60984200  1
  Cu  Cu62  1  0.79934800  0.58750400  0.39015800  1
  Cu  Cu63  1  0.25000000  0.25000000  0.07251000  1
  Cu  Cu64  1  0.75000000  0.75000000  0.92749000  1
  Cu  Cu65  1  0.52046100  0.33055000  0.87612100  1
  Cu  Cu66  1  0.09867500  0.42602500  0.25938700  1
  Cu  Cu67  1  0.95509900  0.35477100  0.11236500  1
  C  C68  1  0.30925200  0.62673000  0.41588900  1
  C  C69  1  0.19074800  0.87327000  0.41588900  1
  C  C70  1  0.64570400  0.16879800  0.42027800  1
  C  C71  1  0.75000000  0.75000000  0.49540700  1
  C  C72  1  0.85429600  0.16879800  0.92027800  1
  C  C73  1  0.25000000  0.25000000  0.00459300  1
  C  C74  1  0.87401400  0.96834000  0.92084200  1
  C  C75  1  0.54354100  0.99417900  0.75409800  1
  C  C76  1  0.91930600  0.58021200  0.07715200  1
  C  C77  1  0.95645900  0.99417900  0.25409800  1
  C  C78  1  0.37401400  0.46834000  0.07915800  1
  C  C79  1  0.85429600  0.33120200  0.42027800  1
  C  C80  1  0.91930600  0.91978800  0.57715200  1
  C  C81  1  0.45645900  0.00582100  0.24590200  1
  C  C82  1  0.87401400  0.53166000  0.42084200  1
  C  C83  1  0.37401400  0.03166000  0.57915800  1
  C  C84  1  0.41930600  0.41978800  0.42284800  1
  C  C85  1  0.08069400  0.41978800  0.92284800  1
  C  C86  1  0.25000000  0.25000000  0.50459300  1
  C  C87  1  0.69074800  0.37327000  0.58411100  1
  C  C88  1  0.35429600  0.83120200  0.57972200  1
  C  C89  1  0.35429600  0.66879800  0.07972200  1
  C  C90  1  0.04354100  0.49417900  0.24590200  1
  C  C91  1  0.95645900  0.50582100  0.75409800  1
  C  C92  1  0.62598600  0.53166000  0.92084200  1
  C  C93  1  0.58069400  0.58021200  0.57715200  1
  C  C94  1  0.41930600  0.08021200  0.92284800  1
  C  C95  1  0.80925200  0.12673000  0.58411100  1
  C  C96  1  0.54354100  0.50582100  0.25409800  1
  C  C97  1  0.80925200  0.37327000  0.08411100  1
  C  C98  1  0.14570400  0.83120200  0.07972200  1
  C  C99  1  0.04354100  0.00582100  0.74590200  1
  C  C100  1  0.58069400  0.91978800  0.07715200  1
  C  C101  1  0.45645900  0.49417900  0.74590200  1
  C  C102  1  0.64570400  0.33120200  0.92027800  1
  C  C103  1  0.12598600  0.03166000  0.07915800  1
  C  C104  1  0.62598600  0.96834000  0.42084200  1
  C  C105  1  0.08069400  0.08021200  0.42284800  1
  C  C106  1  0.69074800  0.12673000  0.08411100  1
  C  C107  1  0.19074800  0.62673000  0.91588900  1
  C  C108  1  0.12598600  0.46834000  0.57915800  1
  C  C109  1  0.14570400  0.66879800  0.57972200  1
  C  C110  1  0.30925200  0.87327000  0.91588900  1
  C  C111  1  0.75000000  0.75000000  0.99540700  1
