# generated using pymatgen
data_Cu(NiC2)2
_symmetry_space_group_name_H-M   'P 1'
_cell_length_a   6.06659277
_cell_length_b   6.06659252
_cell_length_c   23.59771934
_cell_angle_alpha   61.00515205
_cell_angle_beta   61.00515323
_cell_angle_gamma   58.81938126
_symmetry_Int_Tables_number   1
_chemical_formula_structural   Cu(NiC2)2
_chemical_formula_sum   'Cu8 Ni16 C32'
_cell_volume   617.36575348
_cell_formula_units_Z   8
loop_
 _symmetry_equiv_pos_site_id
 _symmetry_equiv_pos_as_xyz
  1  'x, y, z'
loop_
 _atom_site_type_symbol
 _atom_site_label
 _atom_site_symmetry_multiplicity
 _atom_site_fract_x
 _atom_site_fract_y
 _atom_site_fract_z
 _atom_site_occupancy
  Ni  Ni0  1  0.99948300  0.99948300  0.00080400  1
  Ni  Ni1  1  0.00819700  0.00819700  0.24791200  1
  Ni  Ni2  1  0.13001000  0.62113800  0.15682600  1
  Ni  Ni3  1  0.61912000  0.61912000  0.03475400  1
  Ni  Ni4  1  0.01967000  0.01967000  0.49419400  1
  Ni  Ni5  1  0.62113800  0.13001000  0.15682600  1
  Ni  Ni6  1  0.13166100  0.63411100  0.40504000  1
  Ni  Ni7  1  0.01174100  0.01174100  0.74742700  1
  Ni  Ni8  1  0.62721400  0.62721400  0.28140200  1
  Ni  Ni9  1  0.23597400  0.23597400  0.56617000  1
  Ni  Ni10  1  0.63411100  0.13166100  0.40504000  1
  Ni  Ni11  1  0.12746800  0.62651800  0.65505100  1
  Ni  Ni12  1  0.23274500  0.23274500  0.81517300  1
  Ni  Ni13  1  0.62651800  0.12746800  0.65505100  1
  Ni  Ni14  1  0.12291600  0.61407000  0.90670200  1
  Ni  Ni15  1  0.61407000  0.12291600  0.90670200  1
  Cu  Cu16  1  0.24377100  0.24377100  0.06402000  1
  Cu  Cu17  1  0.24633800  0.24633800  0.31502000  1
  Cu  Cu18  1  0.62022600  0.62022600  0.15745200  1
  Cu  Cu19  1  0.62999800  0.62999800  0.40408300  1
  Cu  Cu20  1  0.62757500  0.62757500  0.52961900  1
  Cu  Cu21  1  0.62519900  0.62519900  0.65684700  1
  Cu  Cu22  1  0.62255200  0.62255200  0.78181200  1
  Cu  Cu23  1  0.61715400  0.61715400  0.90749500  1
  C  C24  1  0.38638000  0.38638000  0.09525200  1
  C  C25  1  0.38031600  0.38031600  0.21334700  1
  C  C26  1  0.37286900  0.84168900  0.09848200  1
  C  C27  1  0.84168900  0.37286900  0.09848200  1
  C  C28  1  0.39856300  0.87636700  0.21656100  1
  C  C29  1  0.39535400  0.39535400  0.34355000  1
  C  C30  1  0.36265000  0.36265000  0.46865900  1
  C  C31  1  0.39125400  0.84672200  0.34734700  1
  C  C32  1  0.87084700  0.87084700  0.09854600  1
  C  C33  1  0.87636700  0.39856300  0.21656100  1
  C  C34  1  0.84672200  0.39125400  0.34734700  1
  C  C35  1  0.86531600  0.86531600  0.21946900  1
  C  C36  1  0.41711600  0.87696700  0.46157000  1
  C  C37  1  0.35889400  0.35889400  0.60165500  1
  C  C38  1  0.36267600  0.36267600  0.71729700  1
  C  C39  1  0.38227000  0.83965000  0.59642800  1
  C  C40  1  0.89483400  0.89483400  0.34397100  1
  C  C41  1  0.87696700  0.41711600  0.46157000  1
  C  C42  1  0.83965000  0.38227000  0.59642800  1
  C  C43  1  0.89577100  0.89577100  0.45984500  1
  C  C44  1  0.40671000  0.86744400  0.71606500  1
  C  C45  1  0.35754400  0.35754400  0.85071900  1
  C  C46  1  0.37229400  0.37229400  0.96300200  1
  C  C47  1  0.37121100  0.84038900  0.84753600  1
  C  C48  1  0.88944500  0.88944500  0.59333700  1
  C  C49  1  0.86744400  0.40671000  0.71606500  1
  C  C50  1  0.88761400  0.88761400  0.71131400  1
  C  C51  1  0.84038900  0.37121100  0.84753600  1
  C  C52  1  0.39477300  0.86457500  0.96737600  1
  C  C53  1  0.86457500  0.39477300  0.96737600  1
  C  C54  1  0.87632800  0.87632800  0.84668100  1
  C  C55  1  0.86032100  0.86032100  0.96920400  1
