# generated using pymatgen
data_Cu(NiC)2
_symmetry_space_group_name_H-M   'P 1'
_cell_length_a   7.11563400
_cell_length_b   7.11563400
_cell_length_c   3.90253300
_cell_angle_alpha   90.00000000
_cell_angle_beta   90.00000000
_cell_angle_gamma   90.00000000
_symmetry_Int_Tables_number   1
_chemical_formula_structural   Cu(NiC)2
_chemical_formula_sum   'Cu2 Ni4 C4'
_cell_volume   197.59401565
_cell_formula_units_Z   2
loop_
 _symmetry_equiv_pos_site_id
 _symmetry_equiv_pos_as_xyz
  1  'x, y, z'
loop_
 _atom_site_type_symbol
 _atom_site_label
 _atom_site_symmetry_multiplicity
 _atom_site_fract_x
 _atom_site_fract_y
 _atom_site_fract_z
 _atom_site_occupancy
  C  C0  1  0.17474700  0.32525300  0.50000000  1
  C  C1  1  0.67474700  0.17474700  0.50000000  1
  C  C2  1  0.82525300  0.67474700  0.50000000  1
  C  C3  1  0.32525300  0.82525300  0.50000000  1
  Ni  Ni4  1  0.12325300  0.62325300  0.00000000  1
  Ni  Ni5  1  0.62325300  0.87674700  0.00000000  1
  Ni  Ni6  1  0.37674700  0.12325300  0.00000000  1
  Ni  Ni7  1  0.87674700  0.37674700  0.00000000  1
  Cu  Cu8  1  0.00000000  0.00000000  0.00000000  1
  Cu  Cu9  1  0.50000000  0.50000000  0.00000000  1
