# generated using pymatgen
data_Cu3(NiC7)2
_symmetry_space_group_name_H-M   'P 1'
_cell_length_a   10.33603500
_cell_length_b   10.33922980
_cell_length_c   20.67359081
_cell_angle_alpha   89.97384793
_cell_angle_beta   89.97704133
_cell_angle_gamma   89.97752885
_symmetry_Int_Tables_number   1
_chemical_formula_structural   Cu3(NiC7)2
_chemical_formula_sum   'Cu24 Ni16 C112'
_cell_volume   2209.31663094
_cell_formula_units_Z   8
loop_
 _symmetry_equiv_pos_site_id
 _symmetry_equiv_pos_as_xyz
  1  'x, y, z'
loop_
 _atom_site_type_symbol
 _atom_site_label
 _atom_site_symmetry_multiplicity
 _atom_site_fract_x
 _atom_site_fract_y
 _atom_site_fract_z
 _atom_site_occupancy
  C  C0  1  0.95126400  0.95060600  0.97442200  1
  C  C1  1  0.94940100  0.94990700  0.47588000  1
  C  C2  1  0.68713800  0.81247800  0.65637200  1
  C  C3  1  0.31243800  0.68684200  0.90622000  1
  C  C4  1  0.04978900  0.54999500  0.22559500  1
  C  C5  1  0.55081300  0.45189700  0.52502400  1
  C  C6  1  0.81327600  0.31323800  0.84315700  1
  C  C7  1  0.45042000  0.04920100  0.27536300  1
  C  C8  1  0.68795900  0.81380100  0.15654300  1
  C  C9  1  0.31377500  0.68869500  0.40704200  1
  C  C10  1  0.04311400  0.54903900  0.72755600  1
  C  C11  1  0.54745100  0.45365600  0.02142900  1
  C  C12  1  0.81251600  0.31210600  0.34485100  1
  C  C13  1  0.18588200  0.18450800  0.59287700  1
  C  C14  1  0.18505000  0.18645700  0.09266500  1
  C  C15  1  0.45646900  0.04424600  0.77384500  1
  Ni  Ni16  1  0.09232700  0.90506600  0.79852600  1
  Ni  Ni17  1  0.09324700  0.90648000  0.29692300  1
  Ni  Ni18  1  0.33145400  0.82899300  0.58579900  1
  Ni  Ni19  1  0.32858000  0.82861200  0.08418600  1
  Ni  Ni20  1  0.67090500  0.66979800  0.83436200  1
  Ni  Ni21  1  0.67099500  0.67196800  0.33647100  1
  Ni  Ni22  1  0.90211400  0.59629800  0.54664100  1
  Ni  Ni23  1  0.90903100  0.59449300  0.04613500  1
  Ni  Ni24  1  0.40953600  0.40840900  0.70263400  1
  Ni  Ni25  1  0.40508800  0.40653000  0.20477000  1
  Ni  Ni26  1  0.16937200  0.33105100  0.91425300  1
  Ni  Ni27  1  0.17054800  0.32902300  0.41457900  1
  Ni  Ni28  1  0.82784800  0.16937100  0.66556200  1
  Ni  Ni29  1  0.82990900  0.17068500  0.16452900  1
  Ni  Ni30  1  0.59702000  0.09301300  0.95225600  1
  Ni  Ni31  1  0.59368800  0.09236500  0.45353100  1
  Cu  Cu32  1  0.78118900  0.98731400  0.81234900  1
  Cu  Cu33  1  0.78090300  0.98782400  0.31231700  1
  Cu  Cu34  1  0.01262800  0.87515300  0.64004500  1
  Cu  Cu35  1  0.01248300  0.87485600  0.14058100  1
  Cu  Cu36  1  0.62495600  0.78087400  0.99354300  1
  Cu  Cu37  1  0.62436100  0.78120600  0.49402400  1
  Cu  Cu38  1  0.37459200  0.71985200  0.74392700  1
  Cu  Cu39  1  0.37523900  0.71943200  0.24362800  1
  Cu  Cu40  1  0.98728400  0.62454600  0.89054700  1
  Cu  Cu41  1  0.98791200  0.62480700  0.39049400  1
  Cu  Cu42  1  0.21931400  0.51227300  0.06268500  1
  Cu  Cu43  1  0.21909200  0.51247600  0.56258500  1
  Cu  Cu44  1  0.71969500  0.48730700  0.68745500  1
  Cu  Cu45  1  0.71970900  0.48771900  0.18743200  1
  Cu  Cu46  1  0.48729900  0.37497200  0.85994800  1
  Cu  Cu47  1  0.48775800  0.37485000  0.35968300  1
  Cu  Cu48  1  0.87506000  0.28107900  0.50639400  1
  Cu  Cu49  1  0.87490500  0.28026500  0.00618700  1
  Cu  Cu50  1  0.12567900  0.21952700  0.75627500  1
  Cu  Cu51  1  0.12479800  0.21878800  0.25614700  1
  Cu  Cu52  1  0.51245200  0.12532100  0.60939100  1
  Cu  Cu53  1  0.51235800  0.12523700  0.10983800  1
  Cu  Cu54  1  0.28032100  0.01292500  0.93746700  1
  Cu  Cu55  1  0.28096600  0.01232200  0.43754600  1
  C  C56  1  0.92941800  0.99778600  0.63616300  1
  C  C57  1  0.92508800  0.99528800  0.13564800  1
  C  C58  1  0.92001100  0.98771200  0.84070100  1
  C  C59  1  0.92024400  0.98753700  0.34034500  1
  C  C60  1  0.18767400  0.95294000  0.88781200  1
  C  C61  1  0.18841500  0.94901500  0.38817100  1
  C  C62  1  0.27214900  0.92912400  0.99859200  1
  C  C63  1  0.27145000  0.92551400  0.49795200  1
  C  C64  1  0.68114600  0.91988500  0.99466100  1
  C  C65  1  0.68087300  0.92037300  0.49295300  1
  C  C66  1  0.15246800  0.91447600  0.61932200  1
  C  C67  1  0.15105500  0.91438200  0.11904200  1
  C  C68  1  0.73734300  0.84898700  0.79403600  1
  C  C69  1  0.73807200  0.84917200  0.29246600  1
  C  C70  1  0.01555800  0.81614200  0.70996800  1
  C  C71  1  0.01261800  0.81880400  0.21024400  1
  C  C72  1  0.27689500  0.81655800  0.77390000  1
  C  C73  1  0.27646800  0.81169900  0.27536800  1
  C  C74  1  0.95335100  0.77554700  0.59371900  1
  C  C75  1  0.94859100  0.77636300  0.09432500  1
  C  C76  1  0.50138900  0.77080200  0.53533300  1
  C  C77  1  0.50633500  0.76932100  0.03900400  1
  C  C78  1  0.41204200  0.76198400  0.67460900  1
  C  C79  1  0.41448700  0.76207900  0.17411800  1
  C  C80  1  0.58786100  0.73686300  0.92494200  1
  C  C81  1  0.58484500  0.73858500  0.42409100  1
  C  C82  1  0.49602400  0.72818600  0.28707600  1
  C  C83  1  0.49505600  0.72969400  0.78699500  1
  C  C84  1  0.04833500  0.72089400  0.84164900  1
  C  C85  1  0.05110500  0.72334900  0.34400000  1
  C  C86  1  0.72245100  0.68678600  0.52366700  1
  C  C87  1  0.72178300  0.68482700  0.02593700  1
  C  C88  1  0.98761700  0.68152500  0.96003200  1
  C  C89  1  0.98758900  0.68055500  0.46011800  1
  C  C90  1  0.26144900  0.65068800  0.54269800  1
  C  C91  1  0.26304000  0.64986700  0.04392300  1
  C  C92  1  0.84868200  0.58786000  0.86908900  1
  C  C93  1  0.84935900  0.58514500  0.36866300  1
  C  C94  1  0.31535600  0.58054200  0.74298500  1
  C  C95  1  0.31876500  0.58005000  0.24351300  1
  C  C96  1  0.73141600  0.57310500  0.74789400  1
  C  C97  1  0.72672300  0.57505700  0.24748600  1
  C  C98  1  0.81135300  0.55086000  0.13756900  1
  C  C99  1  0.81723000  0.54765400  0.63911100  1
  C  C100  1  0.08024300  0.51145600  0.09090600  1
  C  C101  1  0.07980600  0.51361700  0.59201700  1
  C  C102  1  0.07383200  0.50400400  0.88444400  1
  C  C103  1  0.07505400  0.50407600  0.38552700  1
  C  C104  1  0.57330800  0.49549900  0.86506100  1
  C  C105  1  0.57499500  0.49536100  0.36392000  1
  C  C106  1  0.58055800  0.48720700  0.65910800  1
  C  C107  1  0.58012400  0.48596500  0.15786100  1
  C  C108  1  0.31552900  0.44870100  0.11120900  1
  C  C109  1  0.31126200  0.44875100  0.61210900  1
  C  C110  1  0.22741500  0.42489800  0.50254300  1
  C  C111  1  0.23082800  0.42270200  0.00322600  1
  C  C112  1  0.81923000  0.42047300  0.50615300  1
  C  C113  1  0.81565500  0.41987400  0.00790600  1
  C  C114  1  0.34857500  0.41190200  0.88115700  1
  C  C115  1  0.34893900  0.41441800  0.38092000  1
  C  C116  1  0.76265100  0.34838800  0.70596300  1
  C  C117  1  0.76148300  0.34909200  0.20718100  1
  C  C118  1  0.48568500  0.31526300  0.79041900  1
  C  C119  1  0.48745700  0.31876000  0.28987400  1
  C  C120  1  0.22355500  0.31485300  0.72445900  1
  C  C121  1  0.22300900  0.31168900  0.22424500  1
  C  C122  1  0.54754200  0.27754800  0.90845100  1
  C  C123  1  0.55114300  0.27582800  0.40572800  1
  C  C124  1  0.99750800  0.27231300  0.96478000  1
  C  C125  1  0.99554900  0.27132400  0.46242400  1
  C  C126  1  0.08786200  0.26234100  0.82498400  1
  C  C127  1  0.08541200  0.26196600  0.32539400  1
  C  C128  1  0.91428000  0.23882500  0.07608800  1
  C  C129  1  0.91458400  0.23793400  0.57561900  1
  C  C130  1  0.00717300  0.22923100  0.71128700  1
  C  C131  1  0.00430600  0.22876500  0.21253300  1
  C  C132  1  0.44809000  0.22192900  0.65767500  1
  C  C133  1  0.44944500  0.22480800  0.15567800  1
  C  C134  1  0.77543400  0.18743100  0.97662500  1
  C  C135  1  0.77645600  0.18874900  0.47430400  1
  C  C136  1  0.51111000  0.18181800  0.53993900  1
  C  C137  1  0.51399800  0.18397800  0.04006100  1
  C  C138  1  0.23882900  0.15242200  0.95724300  1
  C  C139  1  0.23792400  0.15107800  0.45719500  1
  C  C140  1  0.64972600  0.08773500  0.63135800  1
  C  C141  1  0.65093900  0.08556800  0.13086900  1
  C  C142  1  0.18473100  0.08042600  0.75634900  1
  C  C143  1  0.18108900  0.07955700  0.25622500  1
  C  C144  1  0.76836000  0.07398100  0.75216800  1
  C  C145  1  0.77137800  0.07481700  0.25184200  1
  C  C146  1  0.68306700  0.04814100  0.86060700  1
  C  C147  1  0.68824000  0.05138900  0.36148700  1
  C  C148  1  0.42020900  0.01521300  0.90812600  1
  C  C149  1  0.42023800  0.01305500  0.40931200  1
  C  C150  1  0.42229200  0.00676900  0.61535500  1
  C  C151  1  0.42534200  0.00478300  0.11371000  1
