# generated using pymatgen
data_Cu6Ni2C19
_symmetry_space_group_name_H-M   'P 1'
_cell_length_a   8.44550700
_cell_length_b   8.44550700
_cell_length_c   12.66606200
_cell_angle_alpha   90.00000000
_cell_angle_beta   90.00000000
_cell_angle_gamma   90.00000000
_symmetry_Int_Tables_number   1
_chemical_formula_structural   Cu6Ni2C19
_chemical_formula_sum   'Cu12 Ni4 C38'
_cell_volume   903.42699203
_cell_formula_units_Z   2
loop_
 _symmetry_equiv_pos_site_id
 _symmetry_equiv_pos_as_xyz
  1  'x, y, z'
loop_
 _atom_site_type_symbol
 _atom_site_label
 _atom_site_symmetry_multiplicity
 _atom_site_fract_x
 _atom_site_fract_y
 _atom_site_fract_z
 _atom_site_occupancy
  Ni  Ni0  1  0.00000000  0.50000000  0.75000000  1
  Ni  Ni1  1  0.50000000  0.00000000  0.75000000  1
  Ni  Ni2  1  0.50000000  0.00000000  0.25000000  1
  Ni  Ni3  1  0.00000000  0.50000000  0.25000000  1
  C  C4  1  0.50000000  0.50000000  0.50000000  1
  C  C5  1  0.00000000  0.00000000  0.00000000  1
  Cu  Cu6  1  0.62893400  0.70127100  0.50000000  1
  Cu  Cu7  1  0.37106600  0.29872900  0.50000000  1
  Cu  Cu8  1  0.00000000  0.00000000  0.15898300  1
  Cu  Cu9  1  0.50000000  0.50000000  0.34101700  1
  Cu  Cu10  1  0.00000000  0.00000000  0.84101700  1
  Cu  Cu11  1  0.50000000  0.50000000  0.65898300  1
  Cu  Cu12  1  0.20127100  0.12893400  0.00000000  1
  Cu  Cu13  1  0.87106600  0.20127100  0.00000000  1
  Cu  Cu14  1  0.12893400  0.79872900  0.00000000  1
  Cu  Cu15  1  0.70127100  0.37106600  0.50000000  1
  Cu  Cu16  1  0.29872900  0.62893400  0.50000000  1
  Cu  Cu17  1  0.79872900  0.87106600  0.00000000  1
  C  C18  1  0.29971400  0.18461900  0.50000000  1
  C  C19  1  0.70028600  0.81538100  0.50000000  1
  C  C20  1  0.00000000  0.00000000  0.24879000  1
  C  C21  1  0.50000000  0.50000000  0.25121000  1
  C  C22  1  0.00000000  0.00000000  0.75121000  1
  C  C23  1  0.50000000  0.50000000  0.74879000  1
  C  C24  1  0.31538100  0.20028600  0.00000000  1
  C  C25  1  0.79971400  0.31538100  0.00000000  1
  C  C26  1  0.20028600  0.68461900  0.00000000  1
  C  C27  1  0.81538100  0.29971400  0.50000000  1
  C  C28  1  0.18461900  0.70028600  0.50000000  1
  C  C29  1  0.68461900  0.79971400  0.00000000  1
  C  C30  1  0.33959900  0.16040100  0.75000000  1
  C  C31  1  0.83959900  0.33959900  0.75000000  1
  C  C32  1  0.66040100  0.83959900  0.75000000  1
  C  C33  1  0.38087000  0.89301700  0.85814500  1
  C  C34  1  0.66040100  0.83959900  0.25000000  1
  C  C35  1  0.16040100  0.66040100  0.25000000  1
  C  C36  1  0.61913000  0.10698300  0.14185500  1
  C  C37  1  0.89301700  0.61913000  0.14185500  1
  C  C38  1  0.10698300  0.38087000  0.14185500  1
  C  C39  1  0.11913000  0.39301700  0.35814500  1
  C  C40  1  0.88087000  0.60698300  0.35814500  1
  C  C41  1  0.38087000  0.89301700  0.14185500  1
  C  C42  1  0.60698300  0.11913000  0.35814500  1
  C  C43  1  0.39301700  0.88087000  0.35814500  1
  C  C44  1  0.83959900  0.33959900  0.25000000  1
  C  C45  1  0.10698300  0.38087000  0.85814500  1
  C  C46  1  0.89301700  0.61913000  0.85814500  1
  C  C47  1  0.88087000  0.60698300  0.64185500  1
  C  C48  1  0.11913000  0.39301700  0.64185500  1
  C  C49  1  0.61913000  0.10698300  0.85814500  1
  C  C50  1  0.39301700  0.88087000  0.64185500  1
  C  C51  1  0.60698300  0.11913000  0.64185500  1
  C  C52  1  0.33959900  0.16040100  0.25000000  1
  C  C53  1  0.16040100  0.66040100  0.75000000  1
