# generated using pymatgen
data_CuNi5C18
_symmetry_space_group_name_H-M   'P 1'
_cell_length_a   12.01738900
_cell_length_b   8.03172900
_cell_length_c   9.93058630
_cell_angle_alpha   66.22297277
_cell_angle_beta   90.00000000
_cell_angle_gamma   90.00000000
_symmetry_Int_Tables_number   1
_chemical_formula_structural   CuNi5C18
_chemical_formula_sum   'Cu2 Ni10 C36'
_cell_volume   877.14777357
_cell_formula_units_Z   2
loop_
 _symmetry_equiv_pos_site_id
 _symmetry_equiv_pos_as_xyz
  1  'x, y, z'
loop_
 _atom_site_type_symbol
 _atom_site_label
 _atom_site_symmetry_multiplicity
 _atom_site_fract_x
 _atom_site_fract_y
 _atom_site_fract_z
 _atom_site_occupancy
  C  C0  1  0.08266000  0.31078100  0.12814200  1
  C  C1  1  0.41734000  0.31078100  0.12814200  1
  C  C2  1  0.75000000  0.32081300  0.13183000  1
  C  C3  1  0.07384100  0.80744300  0.13526500  1
  C  C4  1  0.42615900  0.80744300  0.13526500  1
  C  C5  1  0.75000000  0.79513300  0.13641400  1
  C  C6  1  0.25000000  0.67918700  0.86817000  1
  C  C7  1  0.58266000  0.68921900  0.87185800  1
  C  C8  1  0.91734000  0.68921900  0.87185800  1
  C  C9  1  0.25000000  0.20486700  0.86358600  1
  C  C10  1  0.57384100  0.19255700  0.86473500  1
  C  C11  1  0.92615900  0.19255700  0.86473500  1
  C  C12  1  0.08300300  0.37072100  0.49982900  1
  C  C13  1  0.41699700  0.37072100  0.49982900  1
  C  C14  1  0.75000000  0.37363000  0.50383900  1
  C  C15  1  0.25000000  0.62637000  0.49616100  1
  C  C16  1  0.58300300  0.62927900  0.50017100  1
  C  C17  1  0.91699700  0.62927900  0.50017100  1
  C  C18  1  0.08300100  0.87908200  0.49793000  1
  C  C19  1  0.41699900  0.87908200  0.49793000  1
  C  C20  1  0.75000000  0.87368200  0.50314400  1
  C  C21  1  0.25000000  0.12631800  0.49685600  1
  C  C22  1  0.58300100  0.12091800  0.50207000  1
  C  C23  1  0.91699900  0.12091800  0.50207000  1
  C  C24  1  0.25000000  0.46901600  0.31376900  1
  C  C25  1  0.58456100  0.46588700  0.31785600  1
  C  C26  1  0.91543900  0.46588700  0.31785600  1
  C  C27  1  0.08456100  0.53411300  0.68214400  1
  C  C28  1  0.41543900  0.53411300  0.68214400  1
  C  C29  1  0.75000000  0.53098400  0.68623100  1
  C  C30  1  0.25000000  0.96722600  0.31301400  1
  C  C31  1  0.58559700  0.96979800  0.31322300  1
  C  C32  1  0.91440300  0.96979800  0.31322300  1
  C  C33  1  0.08559700  0.03020200  0.68677700  1
  C  C34  1  0.41440300  0.03020200  0.68677700  1
  C  C35  1  0.75000000  0.03277400  0.68698600  1
  Ni  Ni36  1  0.25000000  0.37513100  0.99913800  1
  Ni  Ni37  1  0.58482700  0.37150800  0.99827600  1
  Ni  Ni38  1  0.91517300  0.37150800  0.99827600  1
  Ni  Ni39  1  0.08482700  0.62849200  0.00172400  1
  Ni  Ni40  1  0.41517300  0.62849200  0.00172400  1
  Ni  Ni41  1  0.75000000  0.62486900  0.00086200  1
  Ni  Ni42  1  0.58698600  0.87898200  0.00169700  1
  Ni  Ni43  1  0.91301400  0.87898200  0.00169700  1
  Ni  Ni44  1  0.08698600  0.12101800  0.99830300  1
  Ni  Ni45  1  0.41301400  0.12101800  0.99830300  1
  Cu  Cu46  1  0.25000000  0.87448000  0.00092100  1
  Cu  Cu47  1  0.75000000  0.12552000  0.99907900  1
