# generated using pymatgen
data_Cu6Ni2C5
_symmetry_space_group_name_H-M   'P 1'
_cell_length_a   9.53511400
_cell_length_b   9.53511400
_cell_length_c   9.53511400
_cell_angle_alpha   90.00000000
_cell_angle_beta   90.00000000
_cell_angle_gamma   90.00000000
_symmetry_Int_Tables_number   1
_chemical_formula_structural   Cu6Ni2C5
_chemical_formula_sum   'Cu24 Ni8 C20'
_cell_volume   866.91729910
_cell_formula_units_Z   4
loop_
 _symmetry_equiv_pos_site_id
 _symmetry_equiv_pos_as_xyz
  1  'x, y, z'
loop_
 _atom_site_type_symbol
 _atom_site_label
 _atom_site_symmetry_multiplicity
 _atom_site_fract_x
 _atom_site_fract_y
 _atom_site_fract_z
 _atom_site_occupancy
  C  C0  1  0.49268800  0.63096100  0.74469100  1
  C  C1  1  0.13096100  0.75530900  0.50731200  1
  C  C2  1  0.25530900  0.99268800  0.86903900  1
  C  C3  1  0.99268800  0.86903900  0.25530900  1
  C  C4  1  0.00731200  0.36903900  0.24469100  1
  C  C5  1  0.24469100  0.00731200  0.36903900  1
  C  C6  1  0.36903900  0.24469100  0.00731200  1
  C  C7  1  0.01273500  0.51273500  0.98726500  1
  C  C8  1  0.51273500  0.98726500  0.01273500  1
  C  C9  1  0.63096100  0.74469100  0.49268800  1
  C  C10  1  0.50731200  0.13096100  0.75530900  1
  C  C11  1  0.86903900  0.25530900  0.99268800  1
  C  C12  1  0.48726500  0.48726500  0.48726500  1
  C  C13  1  0.74469100  0.49268800  0.63096100  1
  C  C14  1  0.75530900  0.50731200  0.13096100  1
  C  C15  1  0.98726500  0.01273500  0.51273500  1
  C  C16  1  0.89593300  0.60406700  0.39593300  1
  C  C17  1  0.10406700  0.10406700  0.10406700  1
  C  C18  1  0.39593300  0.89593300  0.60406700  1
  C  C19  1  0.60406700  0.39593300  0.89593300  1
  Ni  Ni20  1  0.19286900  0.69286900  0.80713100  1
  Ni  Ni21  1  0.28019700  0.71980300  0.21980300  1
  Ni  Ni22  1  0.80713100  0.19286900  0.69286900  1
  Ni  Ni23  1  0.69286900  0.80713100  0.19286900  1
  Ni  Ni24  1  0.21980300  0.28019700  0.71980300  1
  Ni  Ni25  1  0.78019700  0.78019700  0.78019700  1
  Ni  Ni26  1  0.30713100  0.30713100  0.30713100  1
  Ni  Ni27  1  0.71980300  0.21980300  0.28019700  1
  Cu  Cu28  1  0.31551800  0.65395700  0.33038900  1
  Cu  Cu29  1  0.29751500  0.67602400  0.88821400  1
  Cu  Cu30  1  0.67602400  0.88821400  0.29751500  1
  Cu  Cu31  1  0.83038900  0.18448200  0.34604300  1
  Cu  Cu32  1  0.15395700  0.16961100  0.68448200  1
  Cu  Cu33  1  0.79751500  0.82397600  0.11178600  1
  Cu  Cu34  1  0.18448200  0.34604300  0.83038900  1
  Cu  Cu35  1  0.81551800  0.84604300  0.66961100  1
  Cu  Cu36  1  0.38821400  0.20248500  0.32397600  1
  Cu  Cu37  1  0.34604300  0.83038900  0.18448200  1
  Cu  Cu38  1  0.33038900  0.31551800  0.65395700  1
  Cu  Cu39  1  0.61178600  0.70248500  0.17602400  1
  Cu  Cu40  1  0.88821400  0.29751500  0.67602400  1
  Cu  Cu41  1  0.66961100  0.81551800  0.84604300  1
  Cu  Cu42  1  0.84604300  0.66961100  0.81551800  1
  Cu  Cu43  1  0.11178600  0.79751500  0.82397600  1
  Cu  Cu44  1  0.20248500  0.32397600  0.38821400  1
  Cu  Cu45  1  0.68448200  0.15395700  0.16961100  1
  Cu  Cu46  1  0.17602400  0.61178600  0.70248500  1
  Cu  Cu47  1  0.82397600  0.11178600  0.79751500  1
  Cu  Cu48  1  0.32397600  0.38821400  0.20248500  1
  Cu  Cu49  1  0.70248500  0.17602400  0.61178600  1
  Cu  Cu50  1  0.65395700  0.33038900  0.31551800  1
  Cu  Cu51  1  0.16961100  0.68448200  0.15395700  1
