# generated using pymatgen
data_Cu9Ni4C39
_symmetry_space_group_name_H-M   'P 1'
_cell_length_a   14.49174800
_cell_length_b   14.49174800
_cell_length_c   6.70941300
_cell_angle_alpha   90.00000000
_cell_angle_beta   90.00000000
_cell_angle_gamma   90.00000000
_symmetry_Int_Tables_number   1
_chemical_formula_structural   Cu9Ni4C39
_chemical_formula_sum   'Cu18 Ni8 C78'
_cell_volume   1409.04892392
_cell_formula_units_Z   2
loop_
 _symmetry_equiv_pos_site_id
 _symmetry_equiv_pos_as_xyz
  1  'x, y, z'
loop_
 _atom_site_type_symbol
 _atom_site_label
 _atom_site_symmetry_multiplicity
 _atom_site_fract_x
 _atom_site_fract_y
 _atom_site_fract_z
 _atom_site_occupancy
  C  C0  1  0.59084400  0.75900700  0.63584600  1
  C  C1  1  0.40915600  0.24099300  0.63584600  1
  C  C2  1  0.24099300  0.59084400  0.36415400  1
  C  C3  1  0.75900700  0.40915600  0.36415400  1
  C  C4  1  0.74099300  0.90915600  0.13584600  1
  C  C5  1  0.90915600  0.25900700  0.86415400  1
  C  C6  1  0.09084400  0.74099300  0.86415400  1
  C  C7  1  0.25900700  0.09084400  0.13584600  1
  C  C8  1  0.00000000  0.50000000  0.13356400  1
  C  C9  1  0.50000000  0.00000000  0.86643600  1
  C  C10  1  0.50000000  0.00000000  0.36643600  1
  C  C11  1  0.00000000  0.50000000  0.63356400  1
  C  C12  1  0.00000000  0.00000000  0.00000000  1
  C  C13  1  0.50000000  0.50000000  0.50000000  1
  Ni  Ni14  1  0.87949800  0.80413500  0.61176700  1
  Ni  Ni15  1  0.12050200  0.19586500  0.61176700  1
  Ni  Ni16  1  0.19586500  0.87949800  0.38823300  1
  Ni  Ni17  1  0.80413500  0.12050200  0.38823300  1
  Ni  Ni18  1  0.69586500  0.62050200  0.11176700  1
  Ni  Ni19  1  0.62050200  0.30413500  0.88823300  1
  Ni  Ni20  1  0.37949800  0.69586500  0.88823300  1
  Ni  Ni21  1  0.30413500  0.37949800  0.11176700  1
  Cu  Cu22  1  0.74843500  0.60479400  0.62646100  1
  Cu  Cu23  1  0.25156500  0.39520600  0.62646100  1
  Cu  Cu24  1  0.39520600  0.74843500  0.37353900  1
  Cu  Cu25  1  0.60479400  0.25156500  0.37353900  1
  Cu  Cu26  1  0.89520600  0.75156500  0.12646100  1
  Cu  Cu27  1  0.75156500  0.10479400  0.87353900  1
  Cu  Cu28  1  0.24843500  0.89520600  0.87353900  1
  Cu  Cu29  1  0.10479400  0.24843500  0.12646100  1
  Cu  Cu30  1  0.80451800  0.44038200  0.87870100  1
  Cu  Cu31  1  0.19548200  0.55961800  0.87870100  1
  Cu  Cu32  1  0.55961800  0.80451800  0.12129900  1
  Cu  Cu33  1  0.44038200  0.19548200  0.12129900  1
  Cu  Cu34  1  0.05961800  0.69548200  0.37870100  1
  Cu  Cu35  1  0.69548200  0.94038200  0.62129900  1
  Cu  Cu36  1  0.30451800  0.05961800  0.62129900  1
  Cu  Cu37  1  0.94038200  0.30451800  0.37870100  1
  Cu  Cu38  1  0.00000000  0.00000000  0.50000000  1
  Cu  Cu39  1  0.50000000  0.50000000  0.00000000  1
  C  C40  1  0.83846900  0.65827300  0.60957400  1
  C  C41  1  0.16153100  0.34172700  0.60957400  1
  C  C42  1  0.34172700  0.83846900  0.39042600  1
  C  C43  1  0.65827300  0.16153100  0.39042600  1
  C  C44  1  0.84172700  0.66153100  0.10957400  1
  C  C45  1  0.66153100  0.15827300  0.89042600  1
  C  C46  1  0.33846900  0.84172700  0.89042600  1
  C  C47  1  0.15827300  0.33846900  0.10957400  1
  C  C48  1  0.69463600  0.59219900  0.43174400  1
  C  C49  1  0.30536400  0.40780100  0.43174400  1
  C  C50  1  0.40780100  0.69463600  0.56825600  1
  C  C51  1  0.59219900  0.30536400  0.56825600  1
  C  C52  1  0.90780100  0.80536400  0.93174400  1
  C  C53  1  0.80536400  0.09219900  0.06825600  1
  C  C54  1  0.19463600  0.90780100  0.06825600  1
  C  C55  1  0.09219900  0.19463600  0.93174400  1
  C  C56  1  0.68283800  0.63940000  0.78982900  1
  C  C57  1  0.31716200  0.36060000  0.78982900  1
  C  C58  1  0.36060000  0.68283800  0.21017100  1
  C  C59  1  0.63940000  0.31716200  0.21017100  1
  C  C60  1  0.86060000  0.81716200  0.28982900  1
  C  C61  1  0.81716200  0.13940000  0.71017100  1
  C  C62  1  0.18283800  0.86060000  0.71017100  1
  C  C63  1  0.13940000  0.18283800  0.28982900  1
  C  C64  1  0.77659500  0.49821900  0.67774200  1
  C  C65  1  0.76251100  0.34406500  0.83874600  1
  C  C66  1  0.22340500  0.50178100  0.67774200  1
  C  C67  1  0.49821900  0.22340500  0.32225800  1
  C  C68  1  0.00178100  0.72340500  0.17774200  1
  C  C69  1  0.72340500  0.99821900  0.82225800  1
  C  C70  1  0.27659500  0.00178100  0.82225800  1
  C  C71  1  0.99821900  0.27659500  0.17774200  1
  C  C72  1  0.75979600  0.48666000  0.05969700  1
  C  C73  1  0.24020400  0.51334000  0.05969700  1
  C  C74  1  0.51334000  0.75979600  0.94030300  1
  C  C75  1  0.48666000  0.24020400  0.94030300  1
  C  C76  1  0.01334000  0.74020400  0.55969700  1
  C  C77  1  0.74020400  0.98666000  0.44030300  1
  C  C78  1  0.25979600  0.01334000  0.44030300  1
  C  C79  1  0.98666000  0.25979600  0.55969700  1
  C  C80  1  0.43786700  0.44232300  0.14296900  1
  C  C81  1  0.44232300  0.56213300  0.85703100  1
  C  C82  1  0.55767700  0.43786700  0.85703100  1
  C  C83  1  0.56213300  0.55767700  0.14296900  1
  C  C84  1  0.93786700  0.05767700  0.35703100  1
  C  C85  1  0.06213300  0.94232300  0.35703100  1
  C  C86  1  0.05767700  0.06213300  0.64296900  1
  C  C87  1  0.94232300  0.93786700  0.64296900  1
  C  C88  1  0.93397600  0.40870200  0.38501400  1
  C  C89  1  0.40870200  0.06602400  0.61498600  1
  C  C90  1  0.59129800  0.93397600  0.61498600  1
  C  C91  1  0.06602400  0.59129800  0.38501400  1
  C  C92  1  0.43397600  0.09129800  0.11498600  1
  C  C93  1  0.56602400  0.90870200  0.11498600  1
  C  C94  1  0.09129800  0.56602400  0.88501400  1
  C  C95  1  0.90870200  0.43397600  0.88501400  1
  C  C96  1  0.84406500  0.26251100  0.33874600  1
  C  C97  1  0.26251100  0.15593500  0.66125400  1
  C  C98  1  0.73748900  0.84406500  0.66125400  1
  C  C99  1  0.15593500  0.73748900  0.33874600  1
  C  C100  1  0.34406500  0.23748900  0.16125400  1
  C  C101  1  0.65593500  0.76251100  0.16125400  1
  C  C102  1  0.23748900  0.65593500  0.83874600  1
  C  C103  1  0.50178100  0.77659500  0.32225800  1
