# generated using pymatgen
data_Cu3NiC
_symmetry_space_group_name_H-M   'P 1'
_cell_length_a   5.30128400
_cell_length_b   6.63415100
_cell_length_c   8.25831701
_cell_angle_alpha   74.04878222
_cell_angle_beta   90.00000000
_cell_angle_gamma   90.00000000
_symmetry_Int_Tables_number   1
_chemical_formula_structural   Cu3NiC
_chemical_formula_sum   'Cu12 Ni4 C4'
_cell_volume   279.25789975
_cell_formula_units_Z   4
loop_
 _symmetry_equiv_pos_site_id
 _symmetry_equiv_pos_as_xyz
  1  'x, y, z'
loop_
 _atom_site_type_symbol
 _atom_site_label
 _atom_site_symmetry_multiplicity
 _atom_site_fract_x
 _atom_site_fract_y
 _atom_site_fract_z
 _atom_site_occupancy
  C  C0  1  0.75000000  0.28616400  0.85496700  1
  C  C1  1  0.25000000  0.71383600  0.14503300  1
  C  C2  1  0.25000000  0.80114600  0.62207600  1
  C  C3  1  0.75000000  0.19885400  0.37792400  1
  Ni  Ni4  1  0.25000000  0.25207900  0.61516000  1
  Ni  Ni5  1  0.75000000  0.74792100  0.38484000  1
  Ni  Ni6  1  0.75000000  0.75082600  0.89492800  1
  Ni  Ni7  1  0.25000000  0.24917400  0.10507200  1
  Cu  Cu8  1  0.96051800  0.84747300  0.39423400  1
  Cu  Cu9  1  0.46051800  0.15252700  0.60576600  1
  Cu  Cu10  1  0.53948200  0.84747300  0.39423400  1
  Cu  Cu11  1  0.03948200  0.15252700  0.60576600  1
  Cu  Cu12  1  0.25000000  0.14041300  0.99716500  1
  Cu  Cu13  1  0.75000000  0.85958700  0.00283500  1
  Cu  Cu14  1  0.46310800  0.30988800  0.15573400  1
  Cu  Cu15  1  0.96310800  0.69011200  0.84426600  1
  Cu  Cu16  1  0.03689200  0.30988800  0.15573400  1
  Cu  Cu17  1  0.53689200  0.69011200  0.84426600  1
  Cu  Cu18  1  0.75000000  0.56575100  0.36070800  1
  Cu  Cu19  1  0.25000000  0.43424900  0.63929200  1
