# generated using pymatgen
data_Cu16NiC20
_symmetry_space_group_name_H-M   'P 1'
_cell_length_a   19.98846000
_cell_length_b   11.05433700
_cell_length_c   12.05704406
_cell_angle_alpha   89.28642669
_cell_angle_beta   90.00000000
_cell_angle_gamma   90.00000000
_symmetry_Int_Tables_number   1
_chemical_formula_structural   Cu16NiC20
_chemical_formula_sum   'Cu64 Ni4 C80'
_cell_volume   2663.90787365
_cell_formula_units_Z   4
loop_
 _symmetry_equiv_pos_site_id
 _symmetry_equiv_pos_as_xyz
  1  'x, y, z'
loop_
 _atom_site_type_symbol
 _atom_site_label
 _atom_site_symmetry_multiplicity
 _atom_site_fract_x
 _atom_site_fract_y
 _atom_site_fract_z
 _atom_site_occupancy
  C  C0  1  0.34996000  0.46180300  0.13977600  1
  C  C1  1  0.33912900  0.43312700  0.37953900  1
  C  C2  1  0.83912900  0.56687300  0.12046100  1
  C  C3  1  0.39575300  0.03460800  0.22952900  1
  C  C4  1  0.65004000  0.53819700  0.86022400  1
  C  C5  1  0.66087100  0.56687300  0.62046100  1
  C  C6  1  0.15004000  0.46180300  0.63977600  1
  C  C7  1  0.10424700  0.03460800  0.72952900  1
  C  C8  1  0.60424700  0.96539200  0.77047100  1
  C  C9  1  0.16087100  0.43312700  0.87953900  1
  C  C10  1  0.97783600  0.17168300  0.77044500  1
  C  C11  1  0.52216400  0.17168300  0.27044500  1
  C  C12  1  0.02216400  0.82831700  0.22955500  1
  C  C13  1  0.47783600  0.82831700  0.72955500  1
  C  C14  1  0.84996000  0.53819700  0.36022400  1
  C  C15  1  0.89575300  0.96539200  0.27047100  1
  Ni  Ni16  1  0.40097400  0.27260600  0.25012800  1
  Ni  Ni17  1  0.90097400  0.72739400  0.24987200  1
  Ni  Ni18  1  0.09902600  0.27260600  0.75012800  1
  Ni  Ni19  1  0.59902600  0.72739400  0.74987200  1
  Cu  Cu20  1  0.12533600  0.03360100  0.87544800  1
  Cu  Cu21  1  0.18917300  0.60726900  0.64627700  1
  Cu  Cu22  1  0.28824400  0.56462600  0.40170500  1
  Cu  Cu23  1  0.31082700  0.60726900  0.14627700  1
  Cu  Cu24  1  0.06214600  0.89157600  0.73556000  1
  Cu  Cu25  1  0.93572000  0.48663200  0.35749400  1
  Cu  Cu26  1  0.18988000  0.00691100  0.69755900  1
  Cu  Cu27  1  0.91727700  0.48501400  0.12057300  1
  Cu  Cu28  1  0.64007200  0.56634200  0.00337400  1
  Cu  Cu29  1  0.77127700  0.67529400  0.12948300  1
  Cu  Cu30  1  0.35992800  0.43365800  0.99662600  1
  Cu  Cu31  1  0.56214600  0.10842400  0.76444000  1
  Cu  Cu32  1  0.49737700  0.84787900  0.58379800  1
  Cu  Cu33  1  0.63136400  0.63045900  0.49339700  1
  Cu  Cu34  1  0.21175600  0.56462600  0.90170500  1
  Cu  Cu35  1  0.72872300  0.67529400  0.62948300  1
  Cu  Cu36  1  0.99737700  0.15212100  0.91620200  1
  Cu  Cu37  1  0.53264800  0.20787400  0.12486400  1
  Cu  Cu38  1  0.96735200  0.20787400  0.62486400  1
  Cu  Cu39  1  0.50262300  0.15212100  0.41620200  1
  Cu  Cu40  1  0.42775000  0.70235300  0.69542000  1
  Cu  Cu41  1  0.13136400  0.36954100  0.00660300  1
  Cu  Cu42  1  0.87466400  0.96639900  0.12455200  1
  Cu  Cu43  1  0.27127700  0.32470600  0.37051700  1
  Cu  Cu44  1  0.00262300  0.84787900  0.08379800  1
  Cu  Cu45  1  0.43785400  0.89157600  0.23556000  1
  Cu  Cu46  1  0.57225000  0.29764700  0.30458000  1
  Cu  Cu47  1  0.86863600  0.63045900  0.99339700  1
  Cu  Cu48  1  0.08642600  0.06167400  0.58395300  1
  Cu  Cu49  1  0.43572000  0.51336800  0.14250600  1
  Cu  Cu50  1  0.81012000  0.99308900  0.30244100  1
  Cu  Cu51  1  0.57790700  0.04396400  0.26587900  1
  Cu  Cu52  1  0.62533600  0.96639900  0.62455200  1
  Cu  Cu53  1  0.07225000  0.70235300  0.19542000  1
  Cu  Cu54  1  0.78824400  0.43537400  0.09829500  1
  Cu  Cu55  1  0.46735200  0.79212600  0.87513600  1
  Cu  Cu56  1  0.92209300  0.04396400  0.76587900  1
  Cu  Cu57  1  0.92775000  0.29764700  0.80458000  1
  Cu  Cu58  1  0.08272300  0.51498600  0.87942700  1
  Cu  Cu59  1  0.91357400  0.93832600  0.41604700  1
  Cu  Cu60  1  0.31012000  0.00691100  0.19755900  1
  Cu  Cu61  1  0.68917300  0.39273100  0.85372300  1
  Cu  Cu62  1  0.22872300  0.32470600  0.87051700  1
  Cu  Cu63  1  0.42209300  0.95603600  0.73412100  1
  Cu  Cu64  1  0.93785400  0.10842400  0.26444000  1
  Cu  Cu65  1  0.22296200  0.36630200  0.64304600  1
  Cu  Cu66  1  0.27703800  0.36630200  0.14304600  1
  Cu  Cu67  1  0.36863600  0.36954100  0.50660300  1
  Cu  Cu68  1  0.72296200  0.63369800  0.85695400  1
  Cu  Cu69  1  0.41727700  0.51498600  0.37942700  1
  Cu  Cu70  1  0.68988000  0.99308900  0.80244100  1
  Cu  Cu71  1  0.37466400  0.03360100  0.37544800  1
  Cu  Cu72  1  0.56428000  0.48663200  0.85749400  1
  Cu  Cu73  1  0.81082700  0.39273100  0.35372300  1
  Cu  Cu74  1  0.03264800  0.79212600  0.37513600  1
  Cu  Cu75  1  0.07790700  0.95603600  0.23412100  1
  Cu  Cu76  1  0.41357400  0.06167400  0.08395300  1
  Cu  Cu77  1  0.77703800  0.63369800  0.35695400  1
  Cu  Cu78  1  0.71175600  0.43537400  0.59829500  1
  Cu  Cu79  1  0.14007200  0.43365800  0.49662600  1
  Cu  Cu80  1  0.58272300  0.48501400  0.62057300  1
  Cu  Cu81  1  0.06428000  0.51336800  0.64250600  1
  Cu  Cu82  1  0.85992800  0.56634200  0.50337400  1
  Cu  Cu83  1  0.58642600  0.93832600  0.91604700  1
  C  C84  1  0.53678200  0.20274400  0.76015300  1
  C  C85  1  0.46845200  0.56295700  0.39156900  1
  C  C86  1  0.96845200  0.43704300  0.10843100  1
  C  C87  1  0.36580900  0.41887300  0.90192200  1
  C  C88  1  0.46321800  0.79725600  0.23984700  1
  C  C89  1  0.27065500  0.25192200  0.87000400  1
  C  C90  1  0.89225000  0.66853700  0.91228200  1
  C  C91  1  0.78592300  0.29773700  0.35287700  1
  C  C92  1  0.71407700  0.29773700  0.85287700  1
  C  C93  1  0.24375900  0.65086500  0.91586600  1
  C  C94  1  0.24556600  0.98714500  0.67726100  1
  C  C95  1  0.76703500  0.70206500  0.86243400  1
  C  C96  1  0.50440200  0.85471100  0.48821900  1
  C  C97  1  0.64242000  0.97244100  0.53237900  1
  C  C98  1  0.74556600  0.01285500  0.82273900  1
  C  C99  1  0.92136700  0.92575000  0.51104800  1
  C  C100  1  0.39225000  0.33146300  0.58771800  1
  C  C101  1  0.23296500  0.29793500  0.13756600  1
  C  C102  1  0.26703500  0.29793500  0.63756600  1
  C  C103  1  0.61587100  0.96505200  0.26273600  1
  C  C104  1  0.63419100  0.58112700  0.09807800  1
  C  C105  1  0.10665700  0.62194600  0.17148700  1
  C  C106  1  0.60665700  0.37805400  0.32851300  1
  C  C107  1  0.38412900  0.03494800  0.73726400  1
  C  C108  1  0.22934500  0.25192200  0.37000400  1
  C  C109  1  0.45489200  0.76485000  0.96627500  1
  C  C110  1  0.99559800  0.85471100  0.98821900  1
  C  C111  1  0.53154800  0.43704300  0.60843100  1
  C  C112  1  0.50896800  0.45511800  0.86420500  1
  C  C113  1  0.75624100  0.34913500  0.08413400  1
  C  C114  1  0.85758000  0.97244100  0.03237900  1
  C  C115  1  0.88412900  0.96505200  0.76273600  1
  C  C116  1  0.77065500  0.74807800  0.62999600  1
  C  C117  1  0.60775000  0.66853700  0.41228200  1
  C  C118  1  0.49103200  0.54488200  0.13579500  1
  C  C119  1  0.03154800  0.56295700  0.89156900  1
  C  C120  1  0.04510800  0.76485000  0.46627500  1
  C  C121  1  0.03678200  0.79725600  0.73984700  1
  C  C122  1  0.89334300  0.37805400  0.82851300  1
  C  C123  1  0.39334300  0.62194600  0.67148700  1
  C  C124  1  0.86580900  0.58112700  0.59807800  1
  C  C125  1  0.96321800  0.20274400  0.26015300  1
  C  C126  1  0.00440200  0.14528900  0.01178100  1
  C  C127  1  0.25443400  0.98714500  0.17726100  1
  C  C128  1  0.49559800  0.14528900  0.51178100  1
  C  C129  1  0.42136700  0.07425000  0.98895200  1
  C  C130  1  0.11587100  0.03494800  0.23726400  1
  C  C131  1  0.74375900  0.34913500  0.58413400  1
  C  C132  1  0.00896800  0.54488200  0.63579500  1
  C  C133  1  0.28592300  0.70226300  0.14712300  1
  C  C134  1  0.07863300  0.07425000  0.48895200  1
  C  C135  1  0.14242000  0.02755900  0.96762100  1
  C  C136  1  0.13419100  0.41887300  0.40192200  1
  C  C137  1  0.73296500  0.70206500  0.36243400  1
  C  C138  1  0.54510800  0.23515000  0.03372500  1
  C  C139  1  0.75443400  0.01285500  0.32273900  1
  C  C140  1  0.25624100  0.65086500  0.41586600  1
  C  C141  1  0.72934500  0.74807800  0.12999600  1
  C  C142  1  0.57863300  0.92575000  0.01104800  1
  C  C143  1  0.21407700  0.70226300  0.64712300  1
  C  C144  1  0.10775000  0.33146300  0.08771800  1
  C  C145  1  0.99103200  0.45511800  0.36420500  1
  C  C146  1  0.95489200  0.23515000  0.53372500  1
  C  C147  1  0.35758000  0.02755900  0.46762100  1
