# generated using pymatgen
data_Cu4Ni2C
_symmetry_space_group_name_H-M   'P 1'
_cell_length_a   6.82667730
_cell_length_b   6.82667730
_cell_length_c   11.90829900
_cell_angle_alpha   90.00000000
_cell_angle_beta   90.00000000
_cell_angle_gamma   120.20520744
_symmetry_Int_Tables_number   1
_chemical_formula_structural   Cu4Ni2C
_chemical_formula_sum   'Cu8 Ni4 C2'
_cell_volume   479.62007760
_cell_formula_units_Z   2
loop_
 _symmetry_equiv_pos_site_id
 _symmetry_equiv_pos_as_xyz
  1  'x, y, z'
loop_
 _atom_site_type_symbol
 _atom_site_label
 _atom_site_symmetry_multiplicity
 _atom_site_fract_x
 _atom_site_fract_y
 _atom_site_fract_z
 _atom_site_occupancy
  C  C0  1  0.50000000  0.50000000  0.25000000  1
  C  C1  1  0.50000000  0.50000000  0.75000000  1
  Ni  Ni2  1  0.24161400  0.76133900  0.50000000  1
  Ni  Ni3  1  0.75838600  0.23866100  0.50000000  1
  Ni  Ni4  1  0.23866100  0.75838600  0.00000000  1
  Ni  Ni5  1  0.76133900  0.24161400  0.00000000  1
  Cu  Cu6  1  0.65642400  0.80969000  0.00000000  1
  Cu  Cu7  1  0.34357600  0.19031000  0.00000000  1
  Cu  Cu8  1  0.80969000  0.65642400  0.50000000  1
  Cu  Cu9  1  0.19031000  0.34357600  0.50000000  1
  Cu  Cu10  1  0.50000000  0.00000000  0.67366600  1
  Cu  Cu11  1  0.00000000  0.50000000  0.82633400  1
  Cu  Cu12  1  0.50000000  0.00000000  0.32633400  1
  Cu  Cu13  1  0.00000000  0.50000000  0.17366600  1
