# generated using pymatgen
data_CuNiC12
_symmetry_space_group_name_H-M   'P 1'
_cell_length_a   7.81923000
_cell_length_b   9.07638000
_cell_length_c   15.41868700
_cell_angle_alpha   90.00000000
_cell_angle_beta   90.00000000
_cell_angle_gamma   90.00000000
_symmetry_Int_Tables_number   1
_chemical_formula_structural   CuNiC12
_chemical_formula_sum   'Cu4 Ni4 C48'
_cell_volume   1094.26888497
_cell_formula_units_Z   4
loop_
 _symmetry_equiv_pos_site_id
 _symmetry_equiv_pos_as_xyz
  1  'x, y, z'
loop_
 _atom_site_type_symbol
 _atom_site_label
 _atom_site_symmetry_multiplicity
 _atom_site_fract_x
 _atom_site_fract_y
 _atom_site_fract_z
 _atom_site_occupancy
  Ni  Ni0  1  0.00000000  0.00000000  0.00000000  1
  Ni  Ni1  1  0.50000000  0.50000000  0.50000000  1
  Ni  Ni2  1  0.50000000  0.50000000  0.00000000  1
  Ni  Ni3  1  0.00000000  0.00000000  0.50000000  1
  Cu  Cu4  1  0.54855000  0.00000000  0.75000000  1
  Cu  Cu5  1  0.95145000  0.50000000  0.25000000  1
  Cu  Cu6  1  0.04855000  0.50000000  0.75000000  1
  Cu  Cu7  1  0.45145000  0.00000000  0.25000000  1
  C  C8  1  0.40383200  0.81776000  0.43247700  1
  C  C9  1  0.20023600  0.85963600  0.65517100  1
  C  C10  1  0.09616800  0.68224000  0.93247700  1
  C  C11  1  0.90383200  0.31776000  0.06752300  1
  C  C12  1  0.79976400  0.85963600  0.15517100  1
  C  C13  1  0.40383200  0.18224000  0.06752300  1
  C  C14  1  0.70023600  0.64036400  0.65517100  1
  C  C15  1  0.79976400  0.14036400  0.34482900  1
  C  C16  1  0.20023600  0.14036400  0.84482900  1
  C  C17  1  0.90383200  0.68224000  0.43247700  1
  C  C18  1  0.29976400  0.64036400  0.15517100  1
  C  C19  1  0.59616800  0.81776000  0.93247700  1
  C  C20  1  0.70023600  0.35963600  0.84482900  1
  C  C21  1  0.09616800  0.31776000  0.56752300  1
  C  C22  1  0.59616800  0.18224000  0.56752300  1
  C  C23  1  0.29976400  0.35963600  0.34482900  1
  C  C24  1  0.19323400  0.71447200  0.23486500  1
  C  C25  1  0.80676600  0.71447200  0.73486500  1
  C  C26  1  0.30676600  0.21447200  0.76513500  1
  C  C27  1  0.69323400  0.21447200  0.26513500  1
  C  C28  1  0.65482800  0.01439100  0.59239700  1
  C  C29  1  0.80676600  0.28552800  0.76513500  1
  C  C30  1  0.15482800  0.51439100  0.90760300  1
  C  C31  1  0.15482800  0.48560900  0.59239700  1
  C  C32  1  0.34517200  0.98560900  0.40760300  1
  C  C33  1  0.84517200  0.51439100  0.40760300  1
  C  C34  1  0.65482800  0.98560900  0.90760300  1
  C  C35  1  0.34517200  0.01439100  0.09239700  1
  C  C36  1  0.30676600  0.78552800  0.73486500  1
  C  C37  1  0.69323400  0.78552800  0.23486500  1
  C  C38  1  0.84517200  0.48560900  0.09239700  1
  C  C39  1  0.19323400  0.28552800  0.26513500  1
  C  C40  1  0.05534900  0.19807000  0.54707100  1
  C  C41  1  0.55534900  0.30193000  0.54707100  1
  C  C42  1  0.55534900  0.69807000  0.95292900  1
  C  C43  1  0.44465100  0.30193000  0.04707100  1
  C  C44  1  0.44465100  0.69807000  0.45292900  1
  C  C45  1  0.38235800  0.40788200  0.40210100  1
  C  C46  1  0.38235800  0.59211800  0.09789900  1
  C  C47  1  0.11764200  0.09211800  0.90210100  1
  C  C48  1  0.05534900  0.80193000  0.95292900  1
  C  C49  1  0.94465100  0.80193000  0.45292900  1
  C  C50  1  0.88235800  0.09211800  0.40210100  1
  C  C51  1  0.88235800  0.90788200  0.09789900  1
  C  C52  1  0.94465100  0.19807000  0.04707100  1
  C  C53  1  0.11764200  0.90788200  0.59789900  1
  C  C54  1  0.61764200  0.59211800  0.59789900  1
  C  C55  1  0.61764200  0.40788200  0.90210100  1
