# generated using pymatgen
data_Cu4NiC9
_symmetry_space_group_name_H-M   'P 1'
_cell_length_a   12.05327800
_cell_length_b   6.88955500
_cell_length_c   7.48493153
_cell_angle_alpha   70.50071044
_cell_angle_beta   90.00000000
_cell_angle_gamma   90.00000000
_symmetry_Int_Tables_number   1
_chemical_formula_structural   Cu4NiC9
_chemical_formula_sum   'Cu16 Ni4 C36'
_cell_volume   585.91232729
_cell_formula_units_Z   4
loop_
 _symmetry_equiv_pos_site_id
 _symmetry_equiv_pos_as_xyz
  1  'x, y, z'
loop_
 _atom_site_type_symbol
 _atom_site_label
 _atom_site_symmetry_multiplicity
 _atom_site_fract_x
 _atom_site_fract_y
 _atom_site_fract_z
 _atom_site_occupancy
  C  C0  1  0.67178600  0.67478500  0.99807500  1
  C  C1  1  0.74242400  0.88620700  0.02281100  1
  C  C2  1  0.24242400  0.11379300  0.97718900  1
  C  C3  1  0.17178600  0.32521500  0.00192500  1
  C  C4  1  0.82449700  0.02382500  0.14973700  1
  C  C5  1  0.74627400  0.17287500  0.98713200  1
  C  C6  1  0.32449700  0.97617500  0.85026300  1
  C  C7  1  0.24627400  0.82712500  0.01286800  1
  C  C8  1  0.81680100  0.46337900  0.80672500  1
  C  C9  1  0.74879000  0.35674800  0.68838800  1
  C  C10  1  0.31680100  0.53662100  0.19327500  1
  C  C11  1  0.24879000  0.64325200  0.31161200  1
  C  C12  1  0.69056900  0.29894600  0.37615500  1
  C  C13  1  0.81234800  0.38524200  0.35785800  1
  C  C14  1  0.19056900  0.70105400  0.62384500  1
  C  C15  1  0.31234800  0.61475800  0.64214200  1
  C  C16  1  0.81819800  0.96361300  0.54642300  1
  C  C17  1  0.71285900  0.82188600  0.55132800  1
  C  C18  1  0.75800700  0.79973700  0.82015300  1
  C  C19  1  0.31819800  0.03638700  0.45357700  1
  C  C20  1  0.21285900  0.17811400  0.44867200  1
  C  C21  1  0.25800700  0.20026300  0.17984700  1
  C  C22  1  0.55789500  0.80346500  0.35262400  1
  C  C23  1  0.64330100  0.60747400  0.42214200  1
  C  C24  1  0.14330100  0.39252600  0.57785800  1
  C  C25  1  0.05789500  0.19653500  0.64737600  1
  C  C26  1  0.49559400  0.49109600  0.84993500  1
  C  C27  1  0.47707400  0.34684800  0.71475200  1
  C  C28  1  0.53077500  0.59173700  0.60933500  1
  C  C29  1  0.99559400  0.50890400  0.15006500  1
  C  C30  1  0.97707400  0.65315200  0.28524800  1
  C  C31  1  0.03077500  0.40826300  0.39066500  1
  C  C32  1  0.49413800  0.95240700  0.07244500  1
  C  C33  1  0.50635100  0.10459400  0.18571500  1
  C  C34  1  0.99413800  0.04759300  0.92755500  1
  C  C35  1  0.00635100  0.89540600  0.81428500  1
  Ni  Ni36  1  0.49309100  0.04884600  0.72338400  1
  Ni  Ni37  1  0.99309100  0.95115400  0.27661600  1
  Ni  Ni38  1  0.52910200  0.46255500  0.13062900  1
  Ni  Ni39  1  0.02910200  0.53744500  0.86937100  1
  Cu  Cu40  1  0.74312200  0.75240800  0.96768500  1
  Cu  Cu41  1  0.24312200  0.24759200  0.03231500  1
  Cu  Cu42  1  0.74794500  0.03617000  0.09610300  1
  Cu  Cu43  1  0.24794500  0.96383000  0.90389700  1
  Cu  Cu44  1  0.74872200  0.38446500  0.80940700  1
  Cu  Cu45  1  0.24872200  0.61553500  0.19059300  1
  Cu  Cu46  1  0.74940700  0.34227800  0.44472900  1
  Cu  Cu47  1  0.24940700  0.65772200  0.55527100  1
  Cu  Cu48  1  0.78034900  0.83775300  0.62062600  1
  Cu  Cu49  1  0.28034900  0.16224700  0.37937400  1
  Cu  Cu50  1  0.60117600  0.70426600  0.46689800  1
  Cu  Cu51  1  0.10117600  0.29573400  0.53310200  1
  Cu  Cu52  1  0.47232500  0.49686100  0.71631500  1
  Cu  Cu53  1  0.97232500  0.50313900  0.28368500  1
  Cu  Cu54  1  0.48756400  0.95996100  0.20099900  1
  Cu  Cu55  1  0.98756400  0.04003900  0.79900100  1
