# generated using pymatgen
data_CuNi7C6
_symmetry_space_group_name_H-M   'P 1'
_cell_length_a   14.57065000
_cell_length_b   3.80966800
_cell_length_c   10.17085067
_cell_angle_alpha   88.47220012
_cell_angle_beta   90.00000000
_cell_angle_gamma   90.00000000
_symmetry_Int_Tables_number   1
_chemical_formula_structural   CuNi7C6
_chemical_formula_sum   'Cu4 Ni28 C24'
_cell_volume   564.37649476
_cell_formula_units_Z   4
loop_
 _symmetry_equiv_pos_site_id
 _symmetry_equiv_pos_as_xyz
  1  'x, y, z'
loop_
 _atom_site_type_symbol
 _atom_site_label
 _atom_site_symmetry_multiplicity
 _atom_site_fract_x
 _atom_site_fract_y
 _atom_site_fract_z
 _atom_site_occupancy
  Ni  Ni0  1  0.37909000  0.31731200  0.28726200  1
  Ni  Ni1  1  0.31877300  0.04502200  0.21145800  1
  Ni  Ni2  1  0.71862400  0.57008000  0.31687000  1
  Ni  Ni3  1  0.65920700  0.79694400  0.21333900  1
  Ni  Ni4  1  0.21862400  0.42992000  0.68313000  1
  Ni  Ni5  1  0.15920700  0.20305600  0.78666100  1
  Ni  Ni6  1  0.87909000  0.68268800  0.71273800  1
  Ni  Ni7  1  0.81877300  0.95497800  0.78854200  1
  Ni  Ni8  1  0.10507700  0.17559600  0.24945200  1
  Ni  Ni9  1  0.02750200  0.15956200  0.35498800  1
  Ni  Ni10  1  0.99890400  0.56967400  0.21203400  1
  Ni  Ni11  1  0.99606300  0.88421000  0.10034200  1
  Ni  Ni12  1  0.90660500  0.55926100  0.08694100  1
  Ni  Ni13  1  0.49606300  0.11579000  0.89965800  1
  Ni  Ni14  1  0.40660500  0.44073900  0.91305900  1
  Ni  Ni15  1  0.60507700  0.82440400  0.75054800  1
  Ni  Ni16  1  0.49890400  0.43032600  0.78796600  1
  Ni  Ni17  1  0.52750200  0.84043800  0.64501200  1
  Ni  Ni18  1  0.17843000  0.76978300  0.48945700  1
  Ni  Ni19  1  0.10055000  0.66446500  0.59903600  1
  Ni  Ni20  1  0.13650900  0.06627300  0.60319600  1
  Ni  Ni21  1  0.80460500  0.29266000  0.03488300  1
  Ni  Ni22  1  0.85987000  0.54508200  0.92203600  1
  Ni  Ni23  1  0.30460500  0.70734000  0.96511700  1
  Ni  Ni24  1  0.35987000  0.45491800  0.07796400  1
  Ni  Ni25  1  0.67843000  0.23021700  0.51054300  1
  Ni  Ni26  1  0.60055000  0.33553500  0.40096400  1
  Ni  Ni27  1  0.63650900  0.93372700  0.39680400  1
  Cu  Cu28  1  0.15171600  0.98651500  0.01549300  1
  Cu  Cu29  1  0.82718600  0.42830300  0.49532900  1
  Cu  Cu30  1  0.32718600  0.57169700  0.50467100  1
  Cu  Cu31  1  0.65171600  0.01348500  0.98450700  1
  C  C32  1  0.17731900  0.90545100  0.13108600  1
  C  C33  1  0.81783600  0.39545000  0.37237200  1
  C  C34  1  0.31783600  0.60455000  0.62762800  1
  C  C35  1  0.67731900  0.09454900  0.86891400  1
  C  C36  1  0.20729500  0.94765700  0.91873600  1
  C  C37  1  0.75779800  0.36880900  0.57288900  1
  C  C38  1  0.25779800  0.63119100  0.42711100  1
  C  C39  1  0.70729500  0.05234300  0.08126400  1
  C  C40  1  0.07260900  0.10548100  0.99185300  1
  C  C41  1  0.90161100  0.51827300  0.54451100  1
  C  C42  1  0.40161100  0.48172700  0.45548900  1
  C  C43  1  0.57260900  0.89451900  0.00814700  1
  C  C44  1  0.37023400  0.20697900  0.20130800  1
  C  C45  1  0.65618400  0.67482100  0.30149300  1
  C  C46  1  0.15618400  0.32517900  0.69850700  1
  C  C47  1  0.87023400  0.79302100  0.79869200  1
  C  C48  1  0.06457500  0.32388200  0.30242500  1
  C  C49  1  0.95679600  0.73172000  0.15827700  1
  C  C50  1  0.45679600  0.26828000  0.84172300  1
  C  C51  1  0.56457500  0.67611800  0.69757500  1
  C  C52  1  0.11737900  0.86245400  0.53811000  1
  C  C53  1  0.86425000  0.40010900  0.00826200  1
  C  C54  1  0.36425000  0.59989100  0.99173800  1
  C  C55  1  0.61737900  0.13754600  0.46189000  1
