# generated using pymatgen
data_CuNi3C7
_symmetry_space_group_name_H-M   'P 1'
_cell_length_a   6.75347932
_cell_length_b   6.75347932
_cell_length_c   6.75347927
_cell_angle_alpha   92.27915680
_cell_angle_beta   92.27915680
_cell_angle_gamma   92.27916466
_symmetry_Int_Tables_number   1
_chemical_formula_structural   CuNi3C7
_chemical_formula_sum   'Cu2 Ni6 C14'
_cell_volume   307.27169272
_cell_formula_units_Z   2
loop_
 _symmetry_equiv_pos_site_id
 _symmetry_equiv_pos_as_xyz
  1  'x, y, z'
loop_
 _atom_site_type_symbol
 _atom_site_label
 _atom_site_symmetry_multiplicity
 _atom_site_fract_x
 _atom_site_fract_y
 _atom_site_fract_z
 _atom_site_occupancy
  Ni  Ni0  1  0.89169500  0.60830500  0.25000000  1
  Ni  Ni1  1  0.60830500  0.25000000  0.89169500  1
  Ni  Ni2  1  0.75000000  0.10830500  0.39169500  1
  Ni  Ni3  1  0.39169500  0.75000000  0.10830500  1
  Ni  Ni4  1  0.10830500  0.39169500  0.75000000  1
  Ni  Ni5  1  0.25000000  0.89169500  0.60830500  1
  Cu  Cu6  1  0.25000000  0.25000000  0.25000000  1
  Cu  Cu7  1  0.75000000  0.75000000  0.75000000  1
  C  C8  1  0.00000000  0.00000000  0.00000000  1
  C  C9  1  0.50000000  0.50000000  0.50000000  1
  C  C10  1  0.78031600  0.45252900  0.58263100  1
  C  C11  1  0.91736900  0.04747100  0.71968400  1
  C  C12  1  0.71968400  0.91736900  0.04747100  1
  C  C13  1  0.04747100  0.71968400  0.91736900  1
  C  C14  1  0.58263100  0.78031600  0.45252900  1
  C  C15  1  0.45252900  0.58263100  0.78031600  1
  C  C16  1  0.41736900  0.21968400  0.54747100  1
  C  C17  1  0.54747100  0.41736900  0.21968400  1
  C  C18  1  0.95252900  0.28031600  0.08263100  1
  C  C19  1  0.28031600  0.08263100  0.95252900  1
  C  C20  1  0.08263100  0.95252900  0.28031600  1
  C  C21  1  0.21968400  0.54747100  0.41736900  1
