# generated using pymatgen
data_Cu3Ni2C11
_symmetry_space_group_name_H-M   'P 1'
_cell_length_a   10.96803027
_cell_length_b   10.96803027
_cell_length_c   10.96803027
_cell_angle_alpha   114.14810074
_cell_angle_beta   114.14810074
_cell_angle_gamma   100.47501203
_symmetry_Int_Tables_number   1
_chemical_formula_structural   Cu3Ni2C11
_chemical_formula_sum   'Cu12 Ni8 C44'
_cell_volume   997.34480258
_cell_formula_units_Z   4
loop_
 _symmetry_equiv_pos_site_id
 _symmetry_equiv_pos_as_xyz
  1  'x, y, z'
loop_
 _atom_site_type_symbol
 _atom_site_label
 _atom_site_symmetry_multiplicity
 _atom_site_fract_x
 _atom_site_fract_y
 _atom_site_fract_z
 _atom_site_occupancy
  C  C0  1  0.42172700  0.92172700  0.84345500  1
  C  C1  1  0.67172700  0.32827300  0.00000000  1
  C  C2  1  0.32827300  0.67172700  0.00000000  1
  C  C3  1  0.07827300  0.57827300  0.15654500  1
  C  C4  1  0.32827300  0.32827300  0.65654500  1
  C  C5  1  0.07827300  0.92172700  0.50000000  1
  C  C6  1  0.42172700  0.57827300  0.50000000  1
  C  C7  1  0.67172700  0.67172700  0.34345500  1
  C  C8  1  0.03237000  0.79597800  0.76360800  1
  C  C9  1  0.03237000  0.26876200  0.23639200  1
  C  C10  1  0.20402200  0.96763000  0.23639200  1
  C  C11  1  0.01876200  0.28237000  0.73639200  1
  C  C12  1  0.54597800  0.28237000  0.26360800  1
  C  C13  1  0.71763000  0.98123800  0.26360800  1
  C  C14  1  0.71763000  0.45402200  0.73639200  1
  C  C15  1  0.73123800  0.96763000  0.76360800  1
  Ni  Ni16  1  0.27789600  0.40246300  0.12456700  1
  Ni  Ni17  1  0.27789600  0.15332900  0.87543300  1
  Ni  Ni18  1  0.59753700  0.72210400  0.87543300  1
  Ni  Ni19  1  0.90332900  0.52789600  0.37543300  1
  Ni  Ni20  1  0.15246300  0.52789600  0.62456700  1
  Ni  Ni21  1  0.47210400  0.09667100  0.62456700  1
  Ni  Ni22  1  0.47210400  0.84753700  0.37543300  1
  Ni  Ni23  1  0.84667100  0.72210400  0.12456700  1
  Cu  Cu24  1  0.50000000  0.50000000  0.00000000  1
  Cu  Cu25  1  0.25000000  0.75000000  0.50000000  1
  Cu  Cu26  1  0.75000000  0.25000000  0.50000000  1
  Cu  Cu27  1  0.00000000  0.00000000  0.00000000  1
  Cu  Cu28  1  0.87500000  0.97722700  0.60222700  1
  Cu  Cu29  1  0.72722700  0.62500000  0.60222700  1
  Cu  Cu30  1  0.02277300  0.12500000  0.39777300  1
  Cu  Cu31  1  0.37500000  0.27277300  0.39777300  1
  Cu  Cu32  1  0.87500000  0.27277300  0.89777300  1
  Cu  Cu33  1  0.02277300  0.62500000  0.89777300  1
  Cu  Cu34  1  0.72722700  0.12500000  0.10222700  1
  Cu  Cu35  1  0.37500000  0.97722700  0.10222700  1
  C  C36  1  0.77263600  0.77263600  0.00000000  1
  C  C37  1  0.52263600  0.02263600  0.50000000  1
  C  C38  1  0.97736400  0.47736400  0.50000000  1
  C  C39  1  0.22736400  0.22736400  0.00000000  1
  C  C40  1  0.20047500  0.97110900  0.77063400  1
  C  C41  1  0.20047500  0.42984200  0.22936600  1
  C  C42  1  0.02889100  0.79952500  0.22936600  1
  C  C43  1  0.17984200  0.45047500  0.72936600  1
  C  C44  1  0.72110900  0.45047500  0.27063400  1
  C  C45  1  0.54952500  0.82015800  0.27063400  1
  C  C46  1  0.54952500  0.27889100  0.72936600  1
  C  C47  1  0.57015800  0.79952500  0.77063400  1
  C  C48  1  0.29705500  0.05877100  0.52008300  1
  C  C49  1  0.53868800  0.77697200  0.47991700  1
  C  C50  1  0.94122900  0.70294500  0.47991700  1
  C  C51  1  0.52697200  0.54705500  0.73828400  1
  C  C52  1  0.80877100  0.78868800  0.26171600  1
  C  C53  1  0.45294500  0.47302800  0.26171600  1
  C  C54  1  0.21131200  0.19122900  0.73828400  1
  C  C55  1  0.22302800  0.46131200  0.52008300  1
  C  C56  1  0.45294500  0.19122900  0.97991700  1
  C  C57  1  0.21131200  0.47302800  0.02008300  1
  C  C58  1  0.80877100  0.54705500  0.02008300  1
  C  C59  1  0.22302800  0.70294500  0.76171600  1
  C  C60  1  0.94122900  0.46131200  0.23828400  1
  C  C61  1  0.29705500  0.77697200  0.23828400  1
  C  C62  1  0.53868800  0.05877100  0.76171600  1
  C  C63  1  0.52697200  0.78868800  0.97991700  1
