# generated using pymatgen
data_Cu10NiC22
_symmetry_space_group_name_H-M   'P 1'
_cell_length_a   12.67262200
_cell_length_b   6.17880100
_cell_length_c   10.90674014
_cell_angle_alpha   67.53181420
_cell_angle_beta   90.00000000
_cell_angle_gamma   90.00000000
_symmetry_Int_Tables_number   1
_chemical_formula_structural   Cu10NiC22
_chemical_formula_sum   'Cu20 Ni2 C44'
_cell_volume   789.18861074
_cell_formula_units_Z   2
loop_
 _symmetry_equiv_pos_site_id
 _symmetry_equiv_pos_as_xyz
  1  'x, y, z'
loop_
 _atom_site_type_symbol
 _atom_site_label
 _atom_site_symmetry_multiplicity
 _atom_site_fract_x
 _atom_site_fract_y
 _atom_site_fract_z
 _atom_site_occupancy
  C  C0  1  0.72435100  0.87584100  0.23067800  1
  C  C1  1  0.27564900  0.12415900  0.76932200  1
  C  C2  1  0.96900500  0.37688100  0.14814000  1
  C  C3  1  0.53099500  0.37688100  0.64814000  1
  C  C4  1  0.22435100  0.12415900  0.26932200  1
  C  C5  1  0.77564900  0.87584100  0.73067800  1
  C  C6  1  0.46900500  0.62311900  0.35186000  1
  C  C7  1  0.03099500  0.62311900  0.85186000  1
  Ni  Ni8  1  0.00000000  0.00000000  0.50000000  1
  Ni  Ni9  1  0.50000000  0.00000000  0.00000000  1
  Cu  Cu10  1  0.12327400  0.99795400  0.01743500  1
  Cu  Cu11  1  0.37672600  0.99795400  0.51743500  1
  Cu  Cu12  1  0.62327400  0.00204600  0.48256500  1
  Cu  Cu13  1  0.62897900  0.87660300  0.86521000  1
  Cu  Cu14  1  0.87672600  0.00204600  0.98256500  1
  Cu  Cu15  1  0.45289900  0.74377300  0.73127800  1
  Cu  Cu16  1  0.04710100  0.74377300  0.23127800  1
  Cu  Cu17  1  0.93219600  0.67783800  0.25418200  1
  Cu  Cu18  1  0.12897900  0.12339700  0.63479000  1
  Cu  Cu19  1  0.87102100  0.87660300  0.36521000  1
  Cu  Cu20  1  0.75616000  0.04810100  0.94805300  1
  Cu  Cu21  1  0.56780400  0.67783800  0.75418200  1
  Cu  Cu22  1  0.37102100  0.12339700  0.13479000  1
  Cu  Cu23  1  0.54710100  0.25622700  0.26872200  1
  Cu  Cu24  1  0.95289900  0.25622700  0.76872200  1
  Cu  Cu25  1  0.43219600  0.32216200  0.24581800  1
  Cu  Cu26  1  0.24384000  0.95189900  0.05194700  1
  Cu  Cu27  1  0.06780400  0.32216200  0.74581800  1
  Cu  Cu28  1  0.74384000  0.04810100  0.44805300  1
  Cu  Cu29  1  0.25616000  0.95189900  0.55194700  1
  C  C30  1  0.70995600  0.43612000  0.02595700  1
  C  C31  1  0.29004400  0.56388000  0.97404300  1
  C  C32  1  0.79004400  0.43612000  0.52595700  1
  C  C33  1  0.20995600  0.56388000  0.47404300  1
  C  C34  1  0.84115800  0.59073700  0.37605600  1
  C  C35  1  0.11423800  0.79940900  0.40747700  1
  C  C36  1  0.43810100  0.33104600  0.86281800  1
  C  C37  1  0.15884200  0.40926300  0.62394400  1
  C  C38  1  0.98287100  0.74828300  0.17998300  1
  C  C39  1  0.88576200  0.20059100  0.59252300  1
  C  C40  1  0.63247200  0.66582900  0.44483000  1
  C  C41  1  0.51712900  0.74828300  0.67998300  1
  C  C42  1  0.67214300  0.62267800  0.12753100  1
  C  C43  1  0.32785700  0.37732200  0.87246900  1
  C  C44  1  0.36752800  0.33417100  0.55517000  1
  C  C45  1  0.81390500  0.07481900  0.00180600  1
  C  C46  1  0.13247200  0.33417100  0.05517000  1
  C  C47  1  0.18609500  0.92518100  0.99819400  1
  C  C48  1  0.01712900  0.25171700  0.82001700  1
  C  C49  1  0.82785700  0.62267800  0.62753100  1
  C  C50  1  0.34115800  0.40926300  0.12394400  1
  C  C51  1  0.48287100  0.25171700  0.32001700  1
  C  C52  1  0.87754100  0.04362600  0.35496600  1
  C  C53  1  0.38576200  0.79940900  0.90747700  1
  C  C54  1  0.65884200  0.59073700  0.87605600  1
  C  C55  1  0.56189900  0.66895400  0.13718200  1
  C  C56  1  0.12245900  0.95637400  0.64503400  1
  C  C57  1  0.37754100  0.95637400  0.14503400  1
  C  C58  1  0.86752800  0.66582900  0.94483000  1
  C  C59  1  0.31390500  0.92518100  0.49819400  1
  C  C60  1  0.62245900  0.04362600  0.85496600  1
  C  C61  1  0.06189900  0.33104600  0.36281800  1
  C  C62  1  0.17214300  0.37732200  0.37246900  1
  C  C63  1  0.68609500  0.07481900  0.50180600  1
  C  C64  1  0.61423800  0.20059100  0.09252300  1
  C  C65  1  0.93810100  0.66895400  0.63718200  1
