# generated using pymatgen
data_Cu3Ni3C26
_symmetry_space_group_name_H-M   'P 1'
_cell_length_a   10.83126750
_cell_length_b   10.83126750
_cell_length_c   12.47372522
_cell_angle_alpha   54.91839360
_cell_angle_beta   54.91839360
_cell_angle_gamma   70.42618625
_symmetry_Int_Tables_number   1
_chemical_formula_structural   Cu3Ni3C26
_chemical_formula_sum   'Cu6 Ni6 C52'
_cell_volume   979.95369119
_cell_formula_units_Z   2
loop_
 _symmetry_equiv_pos_site_id
 _symmetry_equiv_pos_as_xyz
  1  'x, y, z'
loop_
 _atom_site_type_symbol
 _atom_site_label
 _atom_site_symmetry_multiplicity
 _atom_site_fract_x
 _atom_site_fract_y
 _atom_site_fract_z
 _atom_site_occupancy
  C  C0  1  0.65890300  0.34109700  0.00000000  1
  C  C1  1  0.50000000  0.00000000  0.50000000  1
  C  C2  1  0.00000000  0.50000000  0.50000000  1
  C  C3  1  0.50000000  0.00000000  0.00000000  1
  C  C4  1  0.00591200  0.00591200  0.32550500  1
  C  C5  1  0.34821500  0.34821500  0.65679500  1
  C  C6  1  0.65178500  0.65178500  0.34320500  1
  C  C7  1  0.99408800  0.99408800  0.67449500  1
  C  C8  1  0.00000000  0.50000000  0.00000000  1
  C  C9  1  0.34109700  0.65890300  0.00000000  1
  C  C10  1  0.69554900  0.69554900  0.67292500  1
  C  C11  1  0.64526700  0.35394400  0.30019500  1
  C  C12  1  0.70085700  0.70085700  0.95109200  1
  C  C13  1  0.35394400  0.64526700  0.30019500  1
  C  C14  1  0.66793500  0.06155200  0.63363100  1
  C  C15  1  0.06155200  0.66793500  0.63363100  1
  C  C16  1  0.93844800  0.33206500  0.36636900  1
  C  C17  1  0.33206500  0.93844800  0.36636900  1
  C  C18  1  0.64605600  0.35473300  0.69980500  1
  C  C19  1  0.29914300  0.29914300  0.04890800  1
  C  C20  1  0.35473300  0.64605600  0.69980500  1
  C  C21  1  0.30445100  0.30445100  0.32707500  1
  Ni  Ni22  1  0.81372100  0.18384200  0.20600800  1
  Ni  Ni23  1  0.18384200  0.81372100  0.20600800  1
  Ni  Ni24  1  0.79390900  0.79390900  0.02187400  1
  Ni  Ni25  1  0.20609100  0.20609100  0.97812600  1
  Ni  Ni26  1  0.81615800  0.18627900  0.79399200  1
  Ni  Ni27  1  0.18627900  0.81615800  0.79399200  1
  Cu  Cu28  1  0.97634800  0.38503800  0.81843700  1
  Cu  Cu29  1  0.20457100  0.20457100  0.61748500  1
  Cu  Cu30  1  0.38503800  0.97634800  0.81843700  1
  Cu  Cu31  1  0.61496200  0.02365200  0.18156300  1
  Cu  Cu32  1  0.79542900  0.79542900  0.38251500  1
  Cu  Cu33  1  0.02365200  0.61496200  0.18156300  1
  C  C34  1  0.49821400  0.27625100  0.29868400  1
  C  C35  1  0.92494700  0.70326700  0.57248300  1
  C  C36  1  0.62728100  0.62728100  0.87336400  1
  C  C37  1  0.72125000  0.49582400  0.07483200  1
  C  C38  1  0.27625100  0.49821400  0.29868400  1
  C  C39  1  0.70326700  0.92494700  0.57248300  1
  C  C40  1  0.92576500  0.70083100  0.79553300  1
  C  C41  1  0.50029600  0.50029600  0.36938900  1
  C  C42  1  0.49582400  0.72125000  0.07483200  1
  C  C43  1  0.20104400  0.56710000  0.50726100  1
  C  C44  1  0.70083100  0.92576500  0.79553300  1
  C  C45  1  0.56710000  0.20104400  0.50726100  1
  C  C46  1  0.87110600  0.12889400  0.50000000  1
  C  C47  1  0.20293500  0.56956600  0.72144700  1
  C  C48  1  0.43043400  0.79706500  0.27855300  1
  C  C49  1  0.56956600  0.20293500  0.72144700  1
  C  C50  1  0.79706500  0.43043400  0.27855300  1
  C  C51  1  0.12889400  0.87110600  0.50000000  1
  C  C52  1  0.43290000  0.79895600  0.49273900  1
  C  C53  1  0.29916900  0.07423500  0.20446700  1
  C  C54  1  0.79895600  0.43290000  0.49273900  1
  C  C55  1  0.50417600  0.27875000  0.92516800  1
  C  C56  1  0.49970400  0.49970400  0.63061100  1
  C  C57  1  0.07423500  0.29916900  0.20446700  1
  C  C58  1  0.29673300  0.07505300  0.42751700  1
  C  C59  1  0.72374900  0.50178600  0.70131600  1
  C  C60  1  0.27875000  0.50417600  0.92516800  1
  C  C61  1  0.37271900  0.37271900  0.12663600  1
  C  C62  1  0.07505300  0.29673300  0.42751700  1
  C  C63  1  0.50178600  0.72374900  0.70131600  1
