# generated using pymatgen
data_Cu27Ni9C5
_symmetry_space_group_name_H-M   'P 1'
_cell_length_a   13.71011600
_cell_length_b   13.71011600
_cell_length_c   13.71011600
_cell_angle_alpha   90.00000000
_cell_angle_beta   90.00000000
_cell_angle_gamma   90.00000000
_symmetry_Int_Tables_number   1
_chemical_formula_structural   Cu27Ni9C5
_chemical_formula_sum   'Cu108 Ni36 C20'
_cell_volume   2577.05322306
_cell_formula_units_Z   4
loop_
 _symmetry_equiv_pos_site_id
 _symmetry_equiv_pos_as_xyz
  1  'x, y, z'
loop_
 _atom_site_type_symbol
 _atom_site_label
 _atom_site_symmetry_multiplicity
 _atom_site_fract_x
 _atom_site_fract_y
 _atom_site_fract_z
 _atom_site_occupancy
  C  C0  1  0.87500000  0.81181600  0.56181600  1
  C  C1  1  0.43818400  0.37500000  0.68818400  1
  C  C2  1  0.37500000  0.68818400  0.43818400  1
  C  C3  1  0.31181600  0.93818400  0.12500000  1
  C  C4  1  0.56181600  0.87500000  0.81181600  1
  C  C5  1  0.18818400  0.06181600  0.62500000  1
  C  C6  1  0.06181600  0.62500000  0.18818400  1
  C  C7  1  0.12500000  0.31181600  0.93818400  1
  C  C8  1  0.68818400  0.43818400  0.37500000  1
  C  C9  1  0.62500000  0.18818400  0.06181600  1
  C  C10  1  0.81181600  0.56181600  0.87500000  1
  C  C11  1  0.93818400  0.12500000  0.31181600  1
  C  C12  1  0.05010800  0.44989200  0.55010800  1
  C  C13  1  0.55010800  0.05010800  0.44989200  1
  C  C14  1  0.44989200  0.55010800  0.05010800  1
  C  C15  1  0.30010800  0.30010800  0.30010800  1
  C  C16  1  0.94989200  0.94989200  0.94989200  1
  C  C17  1  0.80010800  0.19989200  0.69989200  1
  C  C18  1  0.19989200  0.69989200  0.80010800  1
  C  C19  1  0.69989200  0.80010800  0.19989200  1
  Ni  Ni20  1  0.09863500  0.08668100  0.86115600  1
  Ni  Ni21  1  0.40136500  0.91331900  0.36115600  1
  Ni  Ni22  1  0.90136500  0.58668100  0.63884400  1
  Ni  Ni23  1  0.41331900  0.13884400  0.59863500  1
  Ni  Ni24  1  0.48615400  0.76384600  0.12500000  1
  Ni  Ni25  1  0.87500000  0.98615400  0.73615400  1
  Ni  Ni26  1  0.11115600  0.83668100  0.65136500  1
  Ni  Ni27  1  0.38884400  0.16331900  0.15136500  1
  Ni  Ni28  1  0.65136500  0.11115600  0.83668100  1
  Ni  Ni29  1  0.16331900  0.15136500  0.38884400  1
  Ni  Ni30  1  0.61115600  0.66331900  0.34863500  1
  Ni  Ni31  1  0.83668100  0.65136500  0.11115600  1
  Ni  Ni32  1  0.73615400  0.87500000  0.98615400  1
  Ni  Ni33  1  0.08668100  0.86115600  0.09863500  1
  Ni  Ni34  1  0.37500000  0.51384600  0.26384600  1
  Ni  Ni35  1  0.98615400  0.73615400  0.87500000  1
  Ni  Ni36  1  0.26384600  0.37500000  0.51384600  1
  Ni  Ni37  1  0.36115600  0.40136500  0.91331900  1
  Ni  Ni38  1  0.91331900  0.36115600  0.40136500  1
  Ni  Ni39  1  0.88884400  0.33668100  0.84863500  1
  Ni  Ni40  1  0.23615400  0.62500000  0.01384600  1
  Ni  Ni41  1  0.76384600  0.12500000  0.48615400  1
  Ni  Ni42  1  0.59863500  0.41331900  0.13884400  1
  Ni  Ni43  1  0.62500000  0.01384600  0.23615400  1
  Ni  Ni44  1  0.51384600  0.26384600  0.37500000  1
  Ni  Ni45  1  0.86115600  0.09863500  0.08668100  1
  Ni  Ni46  1  0.01384600  0.23615400  0.62500000  1
  Ni  Ni47  1  0.12500000  0.48615400  0.76384600  1
  Ni  Ni48  1  0.13884400  0.59863500  0.41331900  1
  Ni  Ni49  1  0.33668100  0.84863500  0.88884400  1
  Ni  Ni50  1  0.63884400  0.90136500  0.58668100  1
  Ni  Ni51  1  0.84863500  0.88884400  0.33668100  1
  Ni  Ni52  1  0.66331900  0.34863500  0.61115600  1
  Ni  Ni53  1  0.34863500  0.61115600  0.66331900  1
  Ni  Ni54  1  0.15136500  0.38884400  0.16331900  1
  Ni  Ni55  1  0.58668100  0.63884400  0.90136500  1
  Cu  Cu56  1  0.50256300  0.67507800  0.91882200  1
  Cu  Cu57  1  0.99254800  0.15310100  0.65690600  1
  Cu  Cu58  1  0.19721600  0.37500000  0.44721600  1
  Cu  Cu59  1  0.14040300  0.19782300  0.31099800  1
  Cu  Cu60  1  0.40802900  0.57252600  0.60628700  1
  Cu  Cu61  1  0.09197100  0.42747400  0.10628700  1
  Cu  Cu62  1  0.84689900  0.15690600  0.50745200  1
  Cu  Cu63  1  0.59689900  0.24254800  0.40690600  1
  Cu  Cu64  1  0.94782300  0.60959700  0.56099800  1
  Cu  Cu65  1  0.31099800  0.14040300  0.19782300  1
  Cu  Cu66  1  0.06099800  0.55217700  0.39040300  1
  Cu  Cu67  1  0.33117800  0.57492200  0.74743700  1
  Cu  Cu68  1  0.17747400  0.65802900  0.35628700  1
  Cu  Cu69  1  0.81099800  0.35959700  0.80217700  1
  Cu  Cu70  1  0.05217700  0.10959700  0.93900200  1
  Cu  Cu71  1  0.17507800  0.58117800  0.49743700  1
  Cu  Cu72  1  0.80217700  0.81099800  0.35959700  1
  Cu  Cu73  1  0.49254800  0.34689900  0.34309400  1
  Cu  Cu74  1  0.84309400  0.00745200  0.65310100  1
  Cu  Cu75  1  0.84197100  0.64371300  0.67747400  1
  Cu  Cu76  1  0.05278400  0.80278400  0.87500000  1
  Cu  Cu77  1  0.15802900  0.14371300  0.82252600  1
  Cu  Cu78  1  0.30278400  0.62500000  0.94721600  1
  Cu  Cu79  1  0.82252600  0.15802900  0.14371300  1
  Cu  Cu80  1  0.68900200  0.64040300  0.30217700  1
  Cu  Cu81  1  0.60959700  0.56099800  0.94782300  1
  Cu  Cu82  1  0.56099800  0.94782300  0.60959700  1
  Cu  Cu83  1  0.83117800  0.92507800  0.25256300  1
  Cu  Cu84  1  0.80278400  0.87500000  0.05278400  1
  Cu  Cu85  1  0.92747400  0.39371300  0.90802900  1
  Cu  Cu86  1  0.50745200  0.84689900  0.15690600  1
  Cu  Cu87  1  0.89371300  0.59197100  0.07252600  1
  Cu  Cu88  1  0.49743700  0.17507800  0.58117800  1
  Cu  Cu89  1  0.44721600  0.19721600  0.37500000  1
  Cu  Cu90  1  0.57252600  0.60628700  0.40802900  1
  Cu  Cu91  1  0.74254800  0.09309400  0.40310100  1
  Cu  Cu92  1  0.10628700  0.09197100  0.42747400  1
  Cu  Cu93  1  0.25745200  0.59309400  0.09689900  1
  Cu  Cu94  1  0.91882200  0.50256300  0.67507800  1
  Cu  Cu95  1  0.59309400  0.09689900  0.25745200  1
  Cu  Cu96  1  0.69782300  0.18900200  0.85959700  1
  Cu  Cu97  1  0.94721600  0.30278400  0.62500000  1
  Cu  Cu98  1  0.34689900  0.34309400  0.49254800  1
  Cu  Cu99  1  0.55278400  0.69721600  0.12500000  1
  Cu  Cu100  1  0.92507800  0.25256300  0.83117800  1
  Cu  Cu101  1  0.09689900  0.25745200  0.59309400  1
  Cu  Cu102  1  0.90690600  0.90310100  0.75745200  1
  Cu  Cu103  1  0.40690600  0.59689900  0.24254800  1
  Cu  Cu104  1  0.32252600  0.34197100  0.85628700  1
  Cu  Cu105  1  0.64040300  0.30217700  0.68900200  1
  Cu  Cu106  1  0.75256300  0.66882200  0.07492200  1
  Cu  Cu107  1  0.62500000  0.94721600  0.30278400  1
  Cu  Cu108  1  0.24254800  0.40690600  0.59689900  1
  Cu  Cu109  1  0.08117800  0.00256300  0.82492200  1
  Cu  Cu110  1  0.15310100  0.65690600  0.99254800  1
  Cu  Cu111  1  0.14371300  0.82252600  0.15802900  1
  Cu  Cu112  1  0.85628700  0.32252600  0.34197100  1
  Cu  Cu113  1  0.15690600  0.50745200  0.84689900  1
  Cu  Cu114  1  0.59197100  0.07252600  0.89371300  1
  Cu  Cu115  1  0.07252600  0.89371300  0.59197100  1
  Cu  Cu116  1  0.65802900  0.35628700  0.17747400  1
  Cu  Cu117  1  0.40310100  0.74254800  0.09309400  1
  Cu  Cu118  1  0.66882200  0.07492200  0.75256300  1
  Cu  Cu119  1  0.25256300  0.83117800  0.92507800  1
  Cu  Cu120  1  0.19782300  0.31099800  0.14040300  1
  Cu  Cu121  1  0.93900200  0.05217700  0.10959700  1
  Cu  Cu122  1  0.30217700  0.68900200  0.64040300  1
  Cu  Cu123  1  0.44782300  0.89040300  0.43900200  1
  Cu  Cu124  1  0.07492200  0.75256300  0.66882200  1
  Cu  Cu125  1  0.35959700  0.80217700  0.81099800  1
  Cu  Cu126  1  0.82492200  0.08117800  0.00256300  1
  Cu  Cu127  1  0.34197100  0.85628700  0.32252600  1
  Cu  Cu128  1  0.60628700  0.40802900  0.57252600  1
  Cu  Cu129  1  0.58117800  0.49743700  0.17507800  1
  Cu  Cu130  1  0.39040300  0.06099800  0.55217700  1
  Cu  Cu131  1  0.64371300  0.67747400  0.84197100  1
  Cu  Cu132  1  0.12500000  0.55278400  0.69721600  1
  Cu  Cu133  1  0.39371300  0.90802900  0.92747400  1
  Cu  Cu134  1  0.42507800  0.24743700  0.16882200  1
  Cu  Cu135  1  0.41882200  0.99743700  0.32492200  1
  Cu  Cu136  1  0.65690600  0.99254800  0.15310100  1
  Cu  Cu137  1  0.10959700  0.93900200  0.05217700  1
  Cu  Cu138  1  0.90802900  0.92747400  0.39371300  1
  Cu  Cu139  1  0.75745200  0.90690600  0.90310100  1
  Cu  Cu140  1  0.57492200  0.74743700  0.33117800  1
  Cu  Cu141  1  0.99743700  0.32492200  0.41882200  1
  Cu  Cu142  1  0.32492200  0.41882200  0.99743700  1
  Cu  Cu143  1  0.90310100  0.75745200  0.90690600  1
  Cu  Cu144  1  0.67747400  0.84197100  0.64371300  1
  Cu  Cu145  1  0.42747400  0.10628700  0.09197100  1
  Cu  Cu146  1  0.00745200  0.65310100  0.84309400  1
  Cu  Cu147  1  0.00256300  0.82492200  0.08117800  1
  Cu  Cu148  1  0.67507800  0.91882200  0.50256300  1
  Cu  Cu149  1  0.16882200  0.42507800  0.24743700  1
  Cu  Cu150  1  0.34309400  0.49254800  0.34689900  1
  Cu  Cu151  1  0.65310100  0.84309400  0.00745200  1
  Cu  Cu152  1  0.24743700  0.16882200  0.42507800  1
  Cu  Cu153  1  0.37500000  0.44721600  0.19721600  1
  Cu  Cu154  1  0.18900200  0.85959700  0.69782300  1
  Cu  Cu155  1  0.87500000  0.05278400  0.80278400  1
  Cu  Cu156  1  0.55217700  0.39040300  0.06099800  1
  Cu  Cu157  1  0.89040300  0.43900200  0.44782300  1
  Cu  Cu158  1  0.43900200  0.44782300  0.89040300  1
  Cu  Cu159  1  0.09309400  0.40310100  0.74254800  1
  Cu  Cu160  1  0.69721600  0.12500000  0.55278400  1
  Cu  Cu161  1  0.74743700  0.33117800  0.57492200  1
  Cu  Cu162  1  0.35628700  0.17747400  0.65802900  1
  Cu  Cu163  1  0.85959700  0.69782300  0.18900200  1
