# generated using pymatgen
data_Cu12Ni3C4
_symmetry_space_group_name_H-M   'P 1'
_cell_length_a   11.64352156
_cell_length_b   11.64352156
_cell_length_c   11.64352216
_cell_angle_alpha   114.70262374
_cell_angle_beta   114.70262374
_cell_angle_gamma   114.70261738
_symmetry_Int_Tables_number   1
_chemical_formula_structural   Cu12Ni3C4
_chemical_formula_sum   'Cu24 Ni6 C8'
_cell_volume   906.91177806
_cell_formula_units_Z   2
loop_
 _symmetry_equiv_pos_site_id
 _symmetry_equiv_pos_as_xyz
  1  'x, y, z'
loop_
 _atom_site_type_symbol
 _atom_site_label
 _atom_site_symmetry_multiplicity
 _atom_site_fract_x
 _atom_site_fract_y
 _atom_site_fract_z
 _atom_site_occupancy
  C  C0  1  0.56937100  0.02796800  0.79420300  1
  C  C1  1  0.06937100  0.29420300  0.52796800  1
  C  C2  1  0.29420300  0.52796800  0.06937100  1
  C  C3  1  0.52796800  0.06937100  0.29420300  1
  C  C4  1  0.99993600  0.99993600  0.99993600  1
  C  C5  1  0.02796800  0.79420300  0.56937100  1
  C  C6  1  0.79420300  0.56937100  0.02796800  1
  C  C7  1  0.49993600  0.49993600  0.49993600  1
  Ni  Ni8  1  0.86032600  0.03530200  0.64740800  1
  Ni  Ni9  1  0.36032600  0.14740800  0.53530200  1
  Ni  Ni10  1  0.64740800  0.86032600  0.03530200  1
  Ni  Ni11  1  0.14740800  0.53530200  0.36032600  1
  Ni  Ni12  1  0.03530200  0.64740800  0.86032600  1
  Ni  Ni13  1  0.53530200  0.36032600  0.14740800  1
  Cu  Cu14  1  0.30906200  0.12445000  0.31231800  1
  Cu  Cu15  1  0.12445000  0.31231800  0.30906200  1
  Cu  Cu16  1  0.65407200  0.92175900  0.37656700  1
  Cu  Cu17  1  0.31231800  0.30906200  0.12445000  1
  Cu  Cu18  1  0.91687900  0.20387700  0.88912700  1
  Cu  Cu19  1  0.62445000  0.80906200  0.81231800  1
  Cu  Cu20  1  0.15407200  0.87656700  0.42175900  1
  Cu  Cu21  1  0.11482100  0.18386800  0.71738600  1
  Cu  Cu22  1  0.87656700  0.42175900  0.15407200  1
  Cu  Cu23  1  0.21738600  0.68386800  0.61482100  1
  Cu  Cu24  1  0.88912700  0.91687900  0.20387700  1
  Cu  Cu25  1  0.18386800  0.71738600  0.11482100  1
  Cu  Cu26  1  0.80906200  0.81231800  0.62445000  1
  Cu  Cu27  1  0.38912700  0.70387700  0.41687900  1
  Cu  Cu28  1  0.41687900  0.38912700  0.70387700  1
  Cu  Cu29  1  0.20387700  0.88912700  0.91687900  1
  Cu  Cu30  1  0.71738600  0.11482100  0.18386800  1
  Cu  Cu31  1  0.81231800  0.62445000  0.80906200  1
  Cu  Cu32  1  0.70387700  0.41687900  0.38912700  1
  Cu  Cu33  1  0.61482100  0.21738600  0.68386800  1
  Cu  Cu34  1  0.92175900  0.37656700  0.65407200  1
  Cu  Cu35  1  0.42175900  0.15407200  0.87656700  1
  Cu  Cu36  1  0.68386800  0.61482100  0.21738600  1
  Cu  Cu37  1  0.37656700  0.65407200  0.92175900  1
