# generated using pymatgen
data_Cu10Ni13C2
_symmetry_space_group_name_H-M   'P 1'
_cell_length_a   13.55591600
_cell_length_b   11.46085900
_cell_length_c   13.22152805
_cell_angle_alpha   78.02107097
_cell_angle_beta   90.00000000
_cell_angle_gamma   90.00000000
_symmetry_Int_Tables_number   1
_chemical_formula_structural   Cu10Ni13C2
_chemical_formula_sum   'Cu80 Ni104 C16'
_cell_volume   2009.39816425
_cell_formula_units_Z   8
loop_
 _symmetry_equiv_pos_site_id
 _symmetry_equiv_pos_as_xyz
  1  'x, y, z'
loop_
 _atom_site_type_symbol
 _atom_site_label
 _atom_site_symmetry_multiplicity
 _atom_site_fract_x
 _atom_site_fract_y
 _atom_site_fract_z
 _atom_site_occupancy
  Ni  Ni0  1  0.03654900  0.48678500  0.18349600  1
  Ni  Ni1  1  0.41080300  0.01680500  0.54005400  1
  Ni  Ni2  1  0.60342400  0.38224200  0.64758200  1
  Ni  Ni3  1  0.15269400  0.12900300  0.08772500  1
  Ni  Ni4  1  0.92603200  0.37965000  0.50370900  1
  Ni  Ni5  1  0.12122200  0.99203400  0.17209400  1
  Ni  Ni6  1  0.83536100  0.87703400  0.63892100  1
  Ni  Ni7  1  0.34671600  0.51656100  0.62279400  1
  Ni  Ni8  1  0.18763900  0.79756600  0.48617700  1
  Ni  Ni9  1  0.52584900  0.63089600  0.79430100  1
  Ni  Ni10  1  0.81236100  0.20243400  0.51382300  1
  Ni  Ni11  1  0.39559200  0.05934000  0.03251500  1
  Ni  Ni12  1  0.94754700  0.70614500  0.89259100  1
  Ni  Ni13  1  0.84730600  0.87099700  0.91227500  1
  Ni  Ni14  1  0.75841500  0.48195400  0.07281000  1
  Ni  Ni15  1  0.25044900  0.81587000  0.10072700  1
  Ni  Ni16  1  0.06179500  0.52171600  0.61924600  1
  Ni  Ni17  1  0.15328400  0.51656100  0.12279400  1
  Ni  Ni18  1  0.24158500  0.51804600  0.92719000  1
  Ni  Ni19  1  0.37877800  0.99203400  0.67209400  1
  Ni  Ni20  1  0.10342400  0.61775800  0.85241800  1
  Ni  Ni21  1  0.39657600  0.61775800  0.35241800  1
  Ni  Ni22  1  0.89559200  0.94066000  0.46748500  1
  Ni  Ni23  1  0.31625700  0.36923900  0.06501500  1
  Ni  Ni24  1  0.25992400  0.96437600  0.30267600  1
  Ni  Ni25  1  0.42603200  0.62035000  0.99629100  1
  Ni  Ni26  1  0.33226200  0.11810100  0.12780600  1
  Ni  Ni27  1  0.37922300  0.84451100  0.08736000  1
  Ni  Ni28  1  0.62077700  0.15548900  0.91264000  1
  Ni  Ni29  1  0.44948500  0.60901400  0.57630600  1
  Ni  Ni30  1  0.25841500  0.51804600  0.42719000  1
  Ni  Ni31  1  0.55057600  0.82539600  0.91508300  1
  Ni  Ni32  1  0.55515700  0.24817200  0.19430500  1
  Ni  Ni33  1  0.08327700  0.05136100  0.84248600  1
  Ni  Ni34  1  0.89657600  0.38224200  0.14758200  1
  Ni  Ni35  1  0.65269400  0.87099700  0.41227500  1
  Ni  Ni36  1  0.02584900  0.36910400  0.70569900  1
  Ni  Ni37  1  0.56179500  0.47828400  0.88075400  1
  Ni  Ni38  1  0.05057600  0.17460400  0.58491700  1
  Ni  Ni39  1  0.51089800  0.75250200  0.68827400  1
  Ni  Ni40  1  0.24955100  0.81587000  0.60072700  1
  Ni  Ni41  1  0.84671600  0.48343900  0.87720600  1
  Ni  Ni42  1  0.55051500  0.39098600  0.42369400  1
  Ni  Ni43  1  0.53654900  0.51321500  0.31650400  1
  Ni  Ni44  1  0.94484300  0.24817200  0.69430500  1
  Ni  Ni45  1  0.75992400  0.03562400  0.19732400  1
  Ni  Ni46  1  0.66773800  0.88189900  0.87219400  1
  Ni  Ni47  1  0.62122200  0.00796600  0.32790600  1
  Ni  Ni48  1  0.18374300  0.36923900  0.56501500  1
  Ni  Ni49  1  0.49426800  0.66577500  0.09740400  1
  Ni  Ni50  1  0.50573200  0.33422500  0.90259600  1
  Ni  Ni51  1  0.97415100  0.63089600  0.29430100  1
  Ni  Ni52  1  0.48910200  0.24749800  0.31172600  1
  Ni  Ni53  1  0.25477000  0.26860800  0.72362900  1
  Ni  Ni54  1  0.98910200  0.75250200  0.18827400  1
  Ni  Ni55  1  0.08919700  0.01680500  0.04005400  1
  Ni  Ni56  1  0.75044900  0.18413000  0.39927300  1
  Ni  Ni57  1  0.07396800  0.62035000  0.49629100  1
  Ni  Ni58  1  0.57396800  0.37965000  0.00370900  1
  Ni  Ni59  1  0.87877800  0.00796600  0.82790600  1
  Ni  Ni60  1  0.74007600  0.03562400  0.69732400  1
  Ni  Ni61  1  0.75477000  0.73139200  0.77637100  1
  Ni  Ni62  1  0.74158500  0.48195400  0.57281000  1
  Ni  Ni63  1  0.47415100  0.36910400  0.20569900  1
  Ni  Ni64  1  0.05051500  0.60901400  0.07630600  1
  Ni  Ni65  1  0.05515700  0.75182800  0.30569500  1
  Ni  Ni66  1  0.00573200  0.66577500  0.59740400  1
  Ni  Ni67  1  0.34730600  0.12900300  0.58772500  1
  Ni  Ni68  1  0.94948500  0.39098600  0.92369400  1
  Ni  Ni69  1  0.24523000  0.26860800  0.22362900  1
  Ni  Ni70  1  0.93820500  0.47828400  0.38075400  1
  Ni  Ni71  1  0.44942400  0.17460400  0.08491700  1
  Ni  Ni72  1  0.16463900  0.12296600  0.36107900  1
  Ni  Ni73  1  0.10440800  0.05934000  0.53251500  1
  Ni  Ni74  1  0.74523000  0.73139200  0.27637100  1
  Ni  Ni75  1  0.43820500  0.52171600  0.11924600  1
  Ni  Ni76  1  0.41672300  0.05136100  0.34248600  1
  Ni  Ni77  1  0.44484300  0.75182800  0.80569500  1
  Ni  Ni78  1  0.01089800  0.24749800  0.81172600  1
  Ni  Ni79  1  0.58919700  0.98319500  0.45994600  1
  Ni  Ni80  1  0.91080300  0.98319500  0.95994600  1
  Ni  Ni81  1  0.44754700  0.29385500  0.60740900  1
  Ni  Ni82  1  0.91672300  0.94863900  0.15751400  1
  Ni  Ni83  1  0.68374300  0.63076100  0.93498500  1
  Ni  Ni84  1  0.96345100  0.51321500  0.81650400  1
  Ni  Ni85  1  0.12077700  0.84451100  0.58736000  1
  Ni  Ni86  1  0.66463900  0.87703400  0.13892100  1
  Ni  Ni87  1  0.60440800  0.94066000  0.96748500  1
  Ni  Ni88  1  0.68763900  0.20243400  0.01382300  1
  Ni  Ni89  1  0.87922300  0.15548900  0.41264000  1
  Ni  Ni90  1  0.31236100  0.79756600  0.98617700  1
  Ni  Ni91  1  0.55245300  0.70614500  0.39259100  1
  Ni  Ni92  1  0.46345100  0.48678500  0.68349600  1
  Ni  Ni93  1  0.65328400  0.48343900  0.37720600  1
  Ni  Ni94  1  0.33536100  0.12296600  0.86107900  1
  Ni  Ni95  1  0.05245300  0.29385500  0.10740900  1
  Ni  Ni96  1  0.81625700  0.63076100  0.43498500  1
  Ni  Ni97  1  0.94942400  0.82539600  0.41508300  1
  Ni  Ni98  1  0.99426800  0.33422500  0.40259600  1
  Ni  Ni99  1  0.24007600  0.96437600  0.80267600  1
  Ni  Ni100  1  0.58327700  0.94863900  0.65751400  1
  Ni  Ni101  1  0.74955100  0.18413000  0.89927300  1
  Ni  Ni102  1  0.16773800  0.11810100  0.62780600  1
  Ni  Ni103  1  0.83226200  0.88189900  0.37219400  1
  Cu  Cu104  1  0.81918600  0.21344000  0.42943800  1
  Cu  Cu105  1  0.16830300  0.23338800  0.47444600  1
  Cu  Cu106  1  0.82416700  0.09330700  0.17860700  1
  Cu  Cu107  1  0.74218100  0.59307700  0.68738900  1
  Cu  Cu108  1  0.47214300  0.69606200  0.75391600  1
  Cu  Cu109  1  0.33169700  0.23338800  0.97444600  1
  Cu  Cu110  1  0.31506100  0.78403400  0.32024900  1
  Cu  Cu111  1  0.26856700  0.29233400  0.79808100  1
  Cu  Cu112  1  0.18081400  0.78656000  0.57056200  1
  Cu  Cu113  1  0.81356500  0.79079700  0.62337200  1
  Cu  Cu114  1  0.90496600  0.93934800  0.89354200  1
  Cu  Cu115  1  0.02785700  0.69606200  0.25391600  1
  Cu  Cu116  1  0.71322800  0.40352900  0.80318700  1
  Cu  Cu117  1  0.18643500  0.20920300  0.37662800  1
  Cu  Cu118  1  0.20564000  0.66372500  0.24025300  1
  Cu  Cu119  1  0.66830300  0.76661200  0.02555400  1
  Cu  Cu120  1  0.08660700  0.95583900  0.84430600  1
  Cu  Cu121  1  0.70564000  0.33627500  0.25974700  1
  Cu  Cu122  1  0.69613900  0.65382200  0.01010900  1
  Cu  Cu123  1  0.41339300  0.95583900  0.34430600  1
  Cu  Cu124  1  0.76856700  0.70766600  0.70191900  1
  Cu  Cu125  1  0.52785700  0.30393800  0.24608400  1
  Cu  Cu126  1  0.39964500  0.71344200  0.34846500  1
  Cu  Cu127  1  0.49829200  0.88587300  0.36964300  1
  Cu  Cu128  1  0.41314200  0.55817600  0.64633400  1
  Cu  Cu129  1  0.91339300  0.04416100  0.15569400  1
  Cu  Cu130  1  0.28677200  0.59647100  0.19681300  1
  Cu  Cu131  1  0.83169700  0.76661200  0.52555400  1
  Cu  Cu132  1  0.08685800  0.55817600  0.14633400  1
  Cu  Cu133  1  0.99829200  0.11412700  0.13035700  1
  Cu  Cu134  1  0.07031300  0.61489100  0.58030200  1
  Cu  Cu135  1  0.32416700  0.90669300  0.32139300  1
  Cu  Cu136  1  0.67583300  0.09330700  0.67860700  1
  Cu  Cu137  1  0.30386100  0.34617800  0.98989100  1
  Cu  Cu138  1  0.76090900  0.56857700  0.58880000  1
  Cu  Cu139  1  0.21322800  0.59647100  0.69681300  1
  Cu  Cu140  1  0.58660700  0.04416100  0.65569400  1
  Cu  Cu141  1  0.79436000  0.33627500  0.75974700  1
  Cu  Cu142  1  0.62056800  0.85792000  0.94112000  1
  Cu  Cu143  1  0.37943200  0.14208000  0.05888000  1
  Cu  Cu144  1  0.01151900  0.76387400  0.87208400  1
  Cu  Cu145  1  0.18493900  0.78403400  0.82024900  1
  Cu  Cu146  1  0.60035500  0.28655800  0.65153500  1
  Cu  Cu147  1  0.00170800  0.88587300  0.86964300  1
  Cu  Cu148  1  0.23909100  0.43142300  0.41120000  1
  Cu  Cu149  1  0.75781900  0.59307700  0.18738900  1
  Cu  Cu150  1  0.78677200  0.40352900  0.30318700  1
  Cu  Cu151  1  0.10035500  0.71344200  0.84846500  1
  Cu  Cu152  1  0.50170800  0.11412700  0.63035700  1
  Cu  Cu153  1  0.24218100  0.40692300  0.81261100  1
  Cu  Cu154  1  0.23143300  0.29233400  0.29808100  1
  Cu  Cu155  1  0.51151900  0.23612600  0.62791600  1
  Cu  Cu156  1  0.92968700  0.38510900  0.41969800  1
  Cu  Cu157  1  0.29436000  0.66372500  0.74025300  1
  Cu  Cu158  1  0.57031300  0.38510900  0.91969800  1
  Cu  Cu159  1  0.31356500  0.20920300  0.87662800  1
  Cu  Cu160  1  0.17583300  0.90669300  0.82139300  1
  Cu  Cu161  1  0.31918600  0.78656000  0.07056200  1
  Cu  Cu162  1  0.42968700  0.61489100  0.08030200  1
  Cu  Cu163  1  0.98848100  0.23612600  0.12791600  1
  Cu  Cu164  1  0.59503400  0.93934800  0.39354200  1
  Cu  Cu165  1  0.26090900  0.43142300  0.91120000  1
  Cu  Cu166  1  0.40496600  0.06065200  0.60645800  1
  Cu  Cu167  1  0.58685800  0.44182400  0.35366600  1
  Cu  Cu168  1  0.73143300  0.70766600  0.20191900  1
  Cu  Cu169  1  0.12056800  0.14208000  0.55888000  1
  Cu  Cu170  1  0.81506100  0.21596600  0.17975100  1
  Cu  Cu171  1  0.48848100  0.76387400  0.37208400  1
  Cu  Cu172  1  0.89964500  0.28655800  0.15153500  1
  Cu  Cu173  1  0.87943200  0.85792000  0.44112000  1
  Cu  Cu174  1  0.09503400  0.06065200  0.10645800  1
  Cu  Cu175  1  0.97214300  0.30393800  0.74608400  1
  Cu  Cu176  1  0.91314200  0.44182400  0.85366600  1
  Cu  Cu177  1  0.73909100  0.56857700  0.08880000  1
  Cu  Cu178  1  0.25781900  0.40692300  0.31261100  1
  Cu  Cu179  1  0.19613900  0.34617800  0.48989100  1
  Cu  Cu180  1  0.68081400  0.21344000  0.92943800  1
  Cu  Cu181  1  0.68493900  0.21596600  0.67975100  1
  Cu  Cu182  1  0.80386100  0.65382200  0.51010900  1
  Cu  Cu183  1  0.68643500  0.79079700  0.12337200  1
  C  C184  1  0.84025100  0.33757400  0.38260000  1
  C  C185  1  0.77752500  0.25645700  0.70450200  1
  C  C186  1  0.72247500  0.25645700  0.20450200  1
  C  C187  1  0.30575700  0.48378400  0.23136700  1
  C  C188  1  0.80575700  0.51621600  0.26863300  1
  C  C189  1  0.15974900  0.66242600  0.61740000  1
  C  C190  1  0.69424300  0.51621600  0.76863300  1
  C  C191  1  0.34025100  0.66242600  0.11740000  1
  C  C192  1  0.11107500  0.63578400  0.21743600  1
  C  C193  1  0.88892500  0.36421600  0.78256400  1
  C  C194  1  0.38892500  0.63578400  0.71743600  1
  C  C195  1  0.19424300  0.48378400  0.73136700  1
  C  C196  1  0.27752500  0.74354300  0.79549800  1
  C  C197  1  0.65974900  0.33757400  0.88260000  1
  C  C198  1  0.22247500  0.74354300  0.29549800  1
  C  C199  1  0.61107500  0.36421600  0.28256400  1
