# generated using pymatgen
data_Cu4Ni2C9
_symmetry_space_group_name_H-M   'P 1'
_cell_length_a   5.12253300
_cell_length_b   8.81251500
_cell_length_c   14.49088200
_cell_angle_alpha   90.00000000
_cell_angle_beta   90.00000000
_cell_angle_gamma   90.00000000
_symmetry_Int_Tables_number   1
_chemical_formula_structural   Cu4Ni2C9
_chemical_formula_sum   'Cu16 Ni8 C36'
_cell_volume   654.15317566
_cell_formula_units_Z   4
loop_
 _symmetry_equiv_pos_site_id
 _symmetry_equiv_pos_as_xyz
  1  'x, y, z'
loop_
 _atom_site_type_symbol
 _atom_site_label
 _atom_site_symmetry_multiplicity
 _atom_site_fract_x
 _atom_site_fract_y
 _atom_site_fract_z
 _atom_site_occupancy
  Ni  Ni0  1  0.49831000  0.53084900  0.35531500  1
  Ni  Ni1  1  0.99831000  0.96915100  0.35531500  1
  Ni  Ni2  1  0.00169000  0.96915100  0.85531500  1
  Ni  Ni3  1  0.50169000  0.53084900  0.85531500  1
  Ni  Ni4  1  0.49831000  0.46915100  0.14468500  1
  Ni  Ni5  1  0.99831000  0.03084900  0.14468500  1
  Ni  Ni6  1  0.50169000  0.46915100  0.64468500  1
  Ni  Ni7  1  0.00169000  0.03084900  0.64468500  1
  Cu  Cu8  1  0.99453000  0.66471700  0.00293300  1
  Cu  Cu9  1  0.50102800  0.83724300  0.18674800  1
  Cu  Cu10  1  0.50547000  0.16471700  0.99706700  1
  Cu  Cu11  1  0.99897200  0.33724300  0.81325200  1
  Cu  Cu12  1  0.49453000  0.83528300  0.00293300  1
  Cu  Cu13  1  0.49897200  0.16275700  0.81325200  1
  Cu  Cu14  1  0.50547000  0.83528300  0.50293300  1
  Cu  Cu15  1  0.50102800  0.16275700  0.31325200  1
  Cu  Cu16  1  0.00102800  0.33724300  0.31325200  1
  Cu  Cu17  1  0.00102800  0.66275700  0.18674800  1
  Cu  Cu18  1  0.49453000  0.16471700  0.49706700  1
  Cu  Cu19  1  0.00547000  0.33528300  0.99706700  1
  Cu  Cu20  1  0.99453000  0.33528300  0.49706700  1
  Cu  Cu21  1  0.99897200  0.66275700  0.68674800  1
  Cu  Cu22  1  0.49897200  0.83724300  0.68674800  1
  Cu  Cu23  1  0.00547000  0.66471700  0.50293300  1
  C  C24  1  0.64700000  0.35045400  0.74917800  1
  C  C25  1  0.82731200  0.83500500  0.59705800  1
  C  C26  1  0.67268800  0.33500500  0.40294200  1
  C  C27  1  0.32731200  0.66499500  0.59705800  1
  C  C28  1  0.20969500  0.50000000  0.75000000  1
  C  C29  1  0.17045300  0.17097100  0.07105200  1
  C  C30  1  0.32954700  0.32902900  0.57105200  1
  C  C31  1  0.83446600  0.50380300  0.58517800  1
  C  C32  1  0.82954700  0.17097100  0.57105200  1
  C  C33  1  0.67045300  0.32902900  0.07105200  1
  C  C34  1  0.32731200  0.33500500  0.90294200  1
  C  C35  1  0.17268800  0.16499500  0.40294200  1
  C  C36  1  0.66553400  0.99619700  0.08517800  1
  C  C37  1  0.35300000  0.35045400  0.24917800  1
  C  C38  1  0.33446600  0.99619700  0.58517800  1
  C  C39  1  0.14700000  0.85045400  0.75082200  1
  C  C40  1  0.67268800  0.66499500  0.09705800  1
  C  C41  1  0.16553400  0.49619700  0.41482200  1
  C  C42  1  0.32954700  0.67097100  0.92894800  1
  C  C43  1  0.79030500  0.50000000  0.25000000  1
  C  C44  1  0.85300000  0.14954600  0.24917800  1
  C  C45  1  0.85300000  0.85045400  0.25082200  1
  C  C46  1  0.64700000  0.64954600  0.75082200  1
  C  C47  1  0.83446600  0.49619700  0.91482200  1
  C  C48  1  0.29030500  0.00000000  0.25000000  1
  C  C49  1  0.16553400  0.50380300  0.08517800  1
  C  C50  1  0.17268800  0.83500500  0.09705800  1
  C  C51  1  0.66553400  0.00380300  0.41482200  1
  C  C52  1  0.70969500  0.00000000  0.75000000  1
  C  C53  1  0.17045300  0.82902900  0.42894800  1
  C  C54  1  0.67045300  0.67097100  0.42894800  1
  C  C55  1  0.33446600  0.00380300  0.91482200  1
  C  C56  1  0.14700000  0.14954600  0.74917800  1
  C  C57  1  0.82954700  0.82902900  0.92894800  1
  C  C58  1  0.35300000  0.64954600  0.25082200  1
  C  C59  1  0.82731200  0.16499500  0.90294200  1
