# generated using pymatgen
data_CuNi3C17
_symmetry_space_group_name_H-M   'P 1'
_cell_length_a   9.96865794
_cell_length_b   9.96865794
_cell_length_c   7.20470600
_cell_angle_alpha   90.00000000
_cell_angle_beta   90.00000000
_cell_angle_gamma   119.99999960
_symmetry_Int_Tables_number   1
_chemical_formula_structural   CuNi3C17
_chemical_formula_sum   'Cu2 Ni6 C34'
_cell_volume   620.04082431
_cell_formula_units_Z   2
loop_
 _symmetry_equiv_pos_site_id
 _symmetry_equiv_pos_as_xyz
  1  'x, y, z'
loop_
 _atom_site_type_symbol
 _atom_site_label
 _atom_site_symmetry_multiplicity
 _atom_site_fract_x
 _atom_site_fract_y
 _atom_site_fract_z
 _atom_site_occupancy
  C  C0  1  0.33333300  0.66666700  0.99853100  1
  C  C1  1  0.74585500  0.75454300  0.75000000  1
  C  C2  1  0.25414500  0.24545700  0.25000000  1
  C  C3  1  0.99131200  0.74585500  0.25000000  1
  C  C4  1  0.75454300  0.00868800  0.25000000  1
  C  C5  1  0.66666700  0.33333300  0.00146900  1
  C  C6  1  0.24545700  0.99131200  0.75000000  1
  C  C7  1  0.00868800  0.25414500  0.75000000  1
  C  C8  1  0.33333300  0.66666700  0.50146900  1
  C  C9  1  0.66666700  0.33333300  0.49853100  1
  Ni  Ni10  1  0.37208900  0.96464900  0.25000000  1
  Ni  Ni11  1  0.40744000  0.37208900  0.75000000  1
  Ni  Ni12  1  0.03535100  0.40744000  0.25000000  1
  Ni  Ni13  1  0.59256000  0.62791100  0.25000000  1
  Ni  Ni14  1  0.62791100  0.03535100  0.75000000  1
  Ni  Ni15  1  0.96464900  0.59256000  0.75000000  1
  Cu  Cu16  1  0.00000000  0.00000000  0.00000000  1
  Cu  Cu17  1  0.00000000  0.00000000  0.50000000  1
  C  C18  1  0.26604700  0.90845200  0.42478900  1
  C  C19  1  0.26604700  0.90845200  0.07521100  1
  C  C20  1  0.11797800  0.58808400  0.25000000  1
  C  C21  1  0.47866600  0.14419900  0.25000000  1
  C  C22  1  0.64240500  0.73395300  0.07521100  1
  C  C23  1  0.85580100  0.33446700  0.25000000  1
  C  C24  1  0.14419900  0.66553300  0.75000000  1
  C  C25  1  0.58808400  0.47010600  0.75000000  1
  C  C26  1  0.73395300  0.09154800  0.92478900  1
  C  C27  1  0.52989400  0.11797800  0.75000000  1
  C  C28  1  0.47010600  0.88202200  0.25000000  1
  C  C29  1  0.90845200  0.64240500  0.92478900  1
  C  C30  1  0.35759500  0.26604700  0.92478900  1
  C  C31  1  0.09154800  0.35759500  0.07521100  1
  C  C32  1  0.52133400  0.85580100  0.75000000  1
  C  C33  1  0.35759500  0.26604700  0.57521100  1
  C  C34  1  0.41191600  0.52989400  0.25000000  1
  C  C35  1  0.33446700  0.47866600  0.75000000  1
  C  C36  1  0.73395300  0.09154800  0.57521100  1
  C  C37  1  0.90845200  0.64240500  0.57521100  1
  C  C38  1  0.64240500  0.73395300  0.42478900  1
  C  C39  1  0.66553300  0.52133400  0.25000000  1
  C  C40  1  0.88202200  0.41191600  0.75000000  1
  C  C41  1  0.09154800  0.35759500  0.42478900  1
