# generated using pymatgen
data_Cu4Ni4C45
_symmetry_space_group_name_H-M   'P 1'
_cell_length_a   10.34812800
_cell_length_b   10.50800224
_cell_length_c   11.20390655
_cell_angle_alpha   88.16426688
_cell_angle_beta   89.70156615
_cell_angle_gamma   88.93911163
_symmetry_Int_Tables_number   1
_chemical_formula_structural   Cu4Ni4C45
_chemical_formula_sum   'Cu8 Ni8 C90'
_cell_volume   1217.44512630
_cell_formula_units_Z   2
loop_
 _symmetry_equiv_pos_site_id
 _symmetry_equiv_pos_as_xyz
  1  'x, y, z'
loop_
 _atom_site_type_symbol
 _atom_site_label
 _atom_site_symmetry_multiplicity
 _atom_site_fract_x
 _atom_site_fract_y
 _atom_site_fract_z
 _atom_site_occupancy
  C  C0  1  0.29100900  0.60188100  0.14045500  1
  C  C1  1  0.68479200  0.03386200  0.35063000  1
  C  C2  1  0.30394300  0.91424200  0.69543300  1
  C  C3  1  0.10968100  0.59738800  0.60315900  1
  Ni  Ni4  1  0.59606300  0.88321100  0.11056400  1
  Ni  Ni5  1  0.13722100  0.08823600  0.14995400  1
  Ni  Ni6  1  0.90425600  0.60593200  0.29406400  1
  Ni  Ni7  1  0.39402100  0.37491600  0.34115300  1
  Ni  Ni8  1  0.58129200  0.66343000  0.65774800  1
  Ni  Ni9  1  0.15317300  0.35514900  0.73636300  1
  Ni  Ni10  1  0.84719500  0.01762000  0.73131200  1
  Ni  Ni11  1  0.30101900  0.18610500  0.91350900  1
  Cu  Cu12  1  0.90030600  0.89691500  0.21736100  1
  Cu  Cu13  1  0.46095500  0.14803200  0.14677400  1
  Cu  Cu14  1  0.56886900  0.63990800  0.28247200  1
  Cu  Cu15  1  0.08588100  0.35451400  0.28946300  1
  Cu  Cu16  1  0.82608300  0.63472900  0.66123500  1
  Cu  Cu17  1  0.42288700  0.42922400  0.61732500  1
  Cu  Cu18  1  0.57910200  0.89636100  0.81286200  1
  Cu  Cu19  1  0.07441900  0.09672100  0.85564300  1
  C  C20  1  0.05220000  0.66995400  0.01004500  1
  C  C21  1  0.60360400  0.27961300  0.02538800  1
  C  C22  1  0.02625300  0.23789400  0.00818700  1
  C  C23  1  0.71629200  0.51740200  0.20005200  1
  C  C24  1  0.95131300  0.38880800  0.08821200  1
  C  C25  1  0.54214400  0.50741800  0.05828500  1
  C  C26  1  0.75137500  0.22960200  0.20676900  1
  C  C27  1  0.32174000  0.94241300  0.34345400  1
  C  C28  1  0.14167500  0.86056600  0.46705900  1
  C  C29  1  0.27031300  0.61130600  0.37106700  1
  C  C30  1  0.25188300  0.09644800  0.32540800  1
  C  C31  1  0.96364600  0.73142100  0.44221400  1
  C  C32  1  0.50283800  0.79195200  0.40655400  1
  C  C33  1  0.85089200  0.24495600  0.45017700  1
  C  C34  1  0.03958200  0.88785800  0.57167700  1
  C  C35  1  0.54311100  0.17948500  0.52305300  1
  C  C36  1  0.04309600  0.33085800  0.54261300  1
  C  C37  1  0.73528800  0.82849800  0.63741900  1
  C  C38  1  0.72631200  0.39321500  0.57025200  1
  C  C39  1  0.91131500  0.01004800  0.52317800  1
  C  C40  1  0.02313100  0.18253300  0.39191000  1
  C  C41  1  0.52859300  0.05919900  0.68662300  1
  C  C42  1  0.69105400  0.19488400  0.73944500  1
  C  C43  1  0.76837300  0.18755600  0.56008200  1
  C  C44  1  0.98131200  0.48383300  0.79971500  1
  C  C45  1  0.45790900  0.05184100  0.51345100  1
  C  C46  1  0.92795700  0.72505500  0.82071000  1
  C  C47  1  0.29329700  0.76074600  0.37606600  1
  C  C48  1  0.60564100  0.45542700  0.90994700  1
  C  C49  1  0.88959700  0.74866700  0.04047800  1
  C  C50  1  0.10937100  0.55264900  0.94310600  1
  C  C51  1  0.25510200  0.86550500  0.97797000  1
  C  C52  1  0.46884500  0.33630000  0.79022600  1
  C  C53  1  0.93572200  0.85905500  0.95040100  1
  C  C54  1  0.46921100  0.69117800  0.96537400  1
  C  C55  1  0.95414600  0.39536500  0.94791800  1
  C  C56  1  0.92319300  0.76592000  0.95890600  1
  C  C57  1  0.93592500  0.33824500  0.01663300  1
  C  C58  1  0.41783300  0.51310600  0.00223800  1
  C  C59  1  0.32398700  0.13104100  0.06916200  1
  C  C60  1  0.64291100  0.48917300  0.07239900  1
  C  C61  1  0.75406800  0.91527000  0.15561700  1
  C  C62  1  0.93057600  0.74149700  0.20612500  1
  C  C63  1  0.01343300  0.97358700  0.14333900  1
  C  C64  1  0.53506100  0.73138900  0.16632700  1
  C  C65  1  0.22533200  0.02418700  0.27957400  1
  C  C66  1  0.51463100  0.00597700  0.19272500  1
  C  C67  1  0.46924200  0.52120100  0.28724000  1
  C  C68  1  0.72344100  0.57242900  0.27251800  1
  C  C69  1  0.44020900  0.24044700  0.25951200  1
  C  C70  1  0.97923400  0.46385900  0.24991400  1
  C  C71  1  0.10195000  0.24369300  0.19609900  1
  C  C72  1  0.22725000  0.42220800  0.31135500  1
  C  C73  1  0.37075600  0.89425100  0.41462200  1
  C  C74  1  0.47642300  0.57155200  0.58306000  1
  C  C75  1  0.88018500  0.94381700  0.35355000  1
  C  C76  1  0.95391500  0.63877100  0.44262100  1
  C  C77  1  0.11938600  0.82785700  0.54733700  1
  C  C78  1  0.77612400  0.19180800  0.46886500  1
  C  C79  1  0.07576900  0.39524500  0.59549900  1
  C  C80  1  0.34090400  0.98389800  0.51008900  1
  C  C81  1  0.41722300  0.34878000  0.49456300  1
  C  C82  1  0.55211000  0.08668800  0.52539600  1
  C  C83  1  0.76850100  0.16315700  0.70084600  1
  C  C84  1  0.70584600  0.57469900  0.73728100  1
  C  C85  1  0.57619300  0.19358500  0.05448500  1
  C  C86  1  0.94201800  0.70833000  0.73235100  1
  C  C87  1  0.07335000  0.48272600  0.81818200  1
  C  C88  1  0.50265800  0.78611000  0.73683800  1
  C  C89  1  0.28534800  0.45584200  0.68520300  1
  C  C90  1  0.72851300  0.74948100  0.58746900  1
  C  C91  1  0.49409700  0.02600200  0.76533100  1
  C  C92  1  0.72569100  0.90375700  0.76157600  1
  C  C93  1  0.51674100  0.34889200  0.71526100  1
  C  C94  1  0.95854400  0.99739400  0.84938100  1
  C  C95  1  0.05791500  0.21706400  0.76522400  1
  C  C96  1  0.02093900  0.27325900  0.40849900  1
  C  C97  1  0.22347600  0.03731600  0.84348600  1
  C  C98  1  0.57609800  0.73035800  0.39882500  1
  C  C99  1  0.93901700  0.97910700  0.60266400  1
  C  C100  1  0.24628600  0.69361400  0.33337600  1
  C  C101  1  0.38908300  0.64408100  0.95292700  1
  C  C102  1  0.56346900  0.87359100  0.95589700  1
  C  C103  1  0.66884400  0.41476800  0.96568000  1
  C  C104  1  0.11319100  0.59672600  0.02147500  1
  C  C105  1  0.09090600  0.15765900  0.99219600  1
