# generated using pymatgen
data_Cu18Ni3C2
_symmetry_space_group_name_H-M   'P 1'
_cell_length_a   10.44024778
_cell_length_b   10.44024778
_cell_length_c   10.44024778
_cell_angle_alpha   60.00000000
_cell_angle_beta   60.00000000
_cell_angle_gamma   60.00000000
_symmetry_Int_Tables_number   1
_chemical_formula_structural   Cu18Ni3C2
_chemical_formula_sum   'Cu36 Ni6 C4'
_cell_volume   804.66927651
_cell_formula_units_Z   2
loop_
 _symmetry_equiv_pos_site_id
 _symmetry_equiv_pos_as_xyz
  1  'x, y, z'
loop_
 _atom_site_type_symbol
 _atom_site_label
 _atom_site_symmetry_multiplicity
 _atom_site_fract_x
 _atom_site_fract_y
 _atom_site_fract_z
 _atom_site_occupancy
  Ni  Ni0  1  0.25000000  0.25000000  0.25000000  1
  Ni  Ni1  1  0.62500000  0.12500000  0.12500000  1
  Ni  Ni2  1  0.12500000  0.62500000  0.12500000  1
  Ni  Ni3  1  0.00000000  0.00000000  0.00000000  1
  Ni  Ni4  1  0.12500000  0.12500000  0.12500000  1
  Ni  Ni5  1  0.12500000  0.12500000  0.62500000  1
  C  C6  1  0.62500000  0.12500000  0.62500000  1
  C  C7  1  0.62500000  0.62500000  0.12500000  1
  C  C8  1  0.62500000  0.62500000  0.62500000  1
  C  C9  1  0.12500000  0.62500000  0.62500000  1
  Cu  Cu10  1  0.44977300  0.18207200  0.44977300  1
  Cu  Cu11  1  0.88879000  0.88879000  0.61121000  1
  Cu  Cu12  1  0.88879000  0.61121000  0.61121000  1
  Cu  Cu13  1  0.18207200  0.44977300  0.44977300  1
  Cu  Cu14  1  0.36121000  0.63879000  0.36121000  1
  Cu  Cu15  1  0.33161800  0.80022700  0.06792800  1
  Cu  Cu16  1  0.91838200  0.18207200  0.44977300  1
  Cu  Cu17  1  0.44977300  0.91838200  0.44977300  1
  Cu  Cu18  1  0.80022700  0.06792800  0.33161800  1
  Cu  Cu19  1  0.63879000  0.36121000  0.36121000  1
  Cu  Cu20  1  0.63879000  0.36121000  0.63879000  1
  Cu  Cu21  1  0.33161800  0.80022700  0.80022700  1
  Cu  Cu22  1  0.80022700  0.33161800  0.06792800  1
  Cu  Cu23  1  0.80022700  0.33161800  0.80022700  1
  Cu  Cu24  1  0.44977300  0.91838200  0.18207200  1
  Cu  Cu25  1  0.63879000  0.63879000  0.36121000  1
  Cu  Cu26  1  0.91838200  0.44977300  0.44977300  1
  Cu  Cu27  1  0.06792800  0.33161800  0.80022700  1
  Cu  Cu28  1  0.36121000  0.63879000  0.63879000  1
  Cu  Cu29  1  0.44977300  0.18207200  0.91838200  1
  Cu  Cu30  1  0.33161800  0.06792800  0.80022700  1
  Cu  Cu31  1  0.18207200  0.91838200  0.44977300  1
  Cu  Cu32  1  0.18207200  0.44977300  0.91838200  1
  Cu  Cu33  1  0.61121000  0.88879000  0.61121000  1
  Cu  Cu34  1  0.06792800  0.80022700  0.33161800  1
  Cu  Cu35  1  0.80022700  0.80022700  0.06792800  1
  Cu  Cu36  1  0.91838200  0.44977300  0.18207200  1
  Cu  Cu37  1  0.61121000  0.88879000  0.88879000  1
  Cu  Cu38  1  0.88879000  0.61121000  0.88879000  1
  Cu  Cu39  1  0.44977300  0.44977300  0.18207200  1
  Cu  Cu40  1  0.61121000  0.61121000  0.88879000  1
  Cu  Cu41  1  0.44977300  0.44977300  0.91838200  1
  Cu  Cu42  1  0.06792800  0.80022700  0.80022700  1
  Cu  Cu43  1  0.36121000  0.36121000  0.63879000  1
  Cu  Cu44  1  0.80022700  0.80022700  0.33161800  1
  Cu  Cu45  1  0.80022700  0.06792800  0.80022700  1
