# generated using pymatgen
data_Cu24NiC14
_symmetry_space_group_name_H-M   'P 1'
_cell_length_a   9.94712500
_cell_length_b   9.94712500
_cell_length_c   20.79878100
_cell_angle_alpha   90.00000000
_cell_angle_beta   90.00000000
_cell_angle_gamma   90.00000000
_symmetry_Int_Tables_number   1
_chemical_formula_structural   Cu24NiC14
_chemical_formula_sum   'Cu96 Ni4 C56'
_cell_volume   2057.94153761
_cell_formula_units_Z   4
loop_
 _symmetry_equiv_pos_site_id
 _symmetry_equiv_pos_as_xyz
  1  'x, y, z'
loop_
 _atom_site_type_symbol
 _atom_site_label
 _atom_site_symmetry_multiplicity
 _atom_site_fract_x
 _atom_site_fract_y
 _atom_site_fract_z
 _atom_site_occupancy
  C  C0  1  0.50000000  0.50000000  0.75000000  1
  C  C1  1  0.50000000  0.50000000  0.25000000  1
  C  C2  1  0.00000000  0.00000000  0.75000000  1
  C  C3  1  0.00000000  0.00000000  0.25000000  1
  C  C4  1  0.76626500  0.47609700  0.10491400  1
  C  C5  1  0.00000000  0.50000000  0.80079200  1
  C  C6  1  0.47609700  0.23373500  0.89508600  1
  C  C7  1  0.25000000  0.75000000  0.00000000  1
  C  C8  1  0.52390300  0.76626500  0.89508600  1
  C  C9  1  0.00000000  0.50000000  0.30079200  1
  C  C10  1  0.50000000  0.00000000  0.69920800  1
  C  C11  1  0.23373500  0.52390300  0.10491400  1
  C  C12  1  0.75000000  0.25000000  0.50000000  1
  C  C13  1  0.47609700  0.76626500  0.39508600  1
  C  C14  1  0.25000000  0.25000000  0.50000000  1
  C  C15  1  0.02390300  0.26626500  0.10491400  1
  C  C16  1  0.26626500  0.02390300  0.39508600  1
  C  C17  1  0.23373500  0.47609700  0.60491400  1
  C  C18  1  0.75000000  0.75000000  0.00000000  1
  C  C19  1  0.73373500  0.97609700  0.39508600  1
  C  C20  1  0.25000000  0.75000000  0.50000000  1
  C  C21  1  0.52390300  0.23373500  0.39508600  1
  C  C22  1  0.02390300  0.73373500  0.60491400  1
  C  C23  1  0.75000000  0.25000000  0.00000000  1
  C  C24  1  0.26626500  0.97609700  0.89508600  1
  C  C25  1  0.50000000  0.00000000  0.19920800  1
  C  C26  1  0.75000000  0.75000000  0.50000000  1
  C  C27  1  0.25000000  0.25000000  0.00000000  1
  C  C28  1  0.97609700  0.73373500  0.10491400  1
  C  C29  1  0.97609700  0.26626500  0.60491400  1
  C  C30  1  0.76626500  0.52390300  0.60491400  1
  C  C31  1  0.73373500  0.02390300  0.89508600  1
  C  C32  1  0.00000000  0.50000000  0.00242300  1
  C  C33  1  0.00000000  0.50000000  0.50242300  1
  C  C34  1  0.50000000  0.00000000  0.99757700  1
  C  C35  1  0.50000000  0.00000000  0.49757700  1
  C  C36  1  0.81725100  0.25660800  0.35273600  1
  C  C37  1  0.68274900  0.24339200  0.64726400  1
  C  C38  1  0.24339200  0.31725100  0.35273600  1
  C  C39  1  0.74339200  0.81725100  0.64726400  1
  C  C40  1  0.75660800  0.31725100  0.85273600  1
  C  C41  1  0.75660800  0.68274900  0.35273600  1
  C  C42  1  0.25660800  0.81725100  0.14726400  1
  C  C43  1  0.50000000  0.50000000  0.00000000  1
  C  C44  1  0.24339200  0.68274900  0.85273600  1
  C  C45  1  0.31725100  0.75660800  0.64726400  1
  C  C46  1  0.50000000  0.50000000  0.50000000  1
  C  C47  1  0.74339200  0.18274900  0.14726400  1
  C  C48  1  0.18274900  0.25660800  0.85273600  1
  C  C49  1  0.25660800  0.18274900  0.64726400  1
  C  C50  1  0.00000000  0.00000000  0.00000000  1
  C  C51  1  0.68274900  0.75660800  0.14726400  1
  C  C52  1  0.00000000  0.00000000  0.50000000  1
  C  C53  1  0.18274900  0.74339200  0.35273600  1
  C  C54  1  0.81725100  0.74339200  0.85273600  1
  C  C55  1  0.31725100  0.24339200  0.14726400  1
  Ni  Ni56  1  0.50000000  0.00000000  0.82256500  1
  Ni  Ni57  1  0.50000000  0.00000000  0.32256500  1
  Ni  Ni58  1  0.00000000  0.50000000  0.17743500  1
  Ni  Ni59  1  0.00000000  0.50000000  0.67743500  1
  Cu  Cu60  1  0.85317000  0.29526500  0.42056100  1
  Cu  Cu61  1  0.66511000  0.60822300  0.15618600  1
  Cu  Cu62  1  0.33489000  0.39177700  0.15618600  1
  Cu  Cu63  1  0.59510300  0.42101100  0.04043600  1
  Cu  Cu64  1  0.41318800  0.82012200  0.69233500  1
  Cu  Cu65  1  0.29526500  0.14683000  0.57943900  1
  Cu  Cu66  1  0.17683800  0.20324900  0.16213300  1
  Cu  Cu67  1  0.58681200  0.82012200  0.19233500  1
  Cu  Cu68  1  0.67683800  0.29675100  0.33786700  1
  Cu  Cu69  1  0.35317000  0.20473500  0.07943900  1
  Cu  Cu70  1  0.16511000  0.89177700  0.34381400  1
  Cu  Cu71  1  0.09510300  0.92101100  0.95956400  1
  Cu  Cu72  1  0.83489000  0.89177700  0.84381400  1
  Cu  Cu73  1  0.70473500  0.14683000  0.07943900  1
  Cu  Cu74  1  0.17683800  0.79675100  0.66213300  1
  Cu  Cu75  1  0.17987800  0.58681200  0.80766500  1
  Cu  Cu76  1  0.70473500  0.85317000  0.57943900  1
  Cu  Cu77  1  0.82316200  0.79675100  0.16213300  1
  Cu  Cu78  1  0.85910600  0.61494300  0.04940900  1
  Cu  Cu79  1  0.90489700  0.07898900  0.95956400  1
  Cu  Cu80  1  0.35910600  0.11494300  0.95059100  1
  Cu  Cu81  1  0.29675100  0.67683800  0.16213300  1
  Cu  Cu82  1  0.14089400  0.61494300  0.54940900  1
  Cu  Cu83  1  0.64683000  0.20473500  0.57943900  1
  Cu  Cu84  1  0.61494300  0.14089400  0.95059100  1
  Cu  Cu85  1  0.08681200  0.67987800  0.30766500  1
  Cu  Cu86  1  0.40489700  0.42101100  0.54043600  1
  Cu  Cu87  1  0.89177700  0.16511000  0.15618600  1
  Cu  Cu88  1  0.32012200  0.08681200  0.69233500  1
  Cu  Cu89  1  0.16511000  0.10822300  0.84381400  1
  Cu  Cu90  1  0.39177700  0.66511000  0.84381400  1
  Cu  Cu91  1  0.70324900  0.67683800  0.66213300  1
  Cu  Cu92  1  0.79526500  0.35317000  0.92056100  1
  Cu  Cu93  1  0.07898900  0.90489700  0.54043600  1
  Cu  Cu94  1  0.33489000  0.60822300  0.65618600  1
  Cu  Cu95  1  0.20473500  0.64683000  0.92056100  1
  Cu  Cu96  1  0.82012200  0.41318800  0.80766500  1
  Cu  Cu97  1  0.08681200  0.32012200  0.80766500  1
  Cu  Cu98  1  0.79675100  0.82316200  0.33786700  1
  Cu  Cu99  1  0.10822300  0.83489000  0.15618600  1
  Cu  Cu100  1  0.82012200  0.58681200  0.30766500  1
  Cu  Cu101  1  0.20473500  0.35317000  0.42056100  1
  Cu  Cu102  1  0.88505700  0.35910600  0.04940900  1
  Cu  Cu103  1  0.32316200  0.29675100  0.83786700  1
  Cu  Cu104  1  0.79675100  0.17683800  0.83786700  1
  Cu  Cu105  1  0.11494300  0.64089400  0.04940900  1
  Cu  Cu106  1  0.67987800  0.08681200  0.19233500  1
  Cu  Cu107  1  0.58681200  0.17987800  0.69233500  1
  Cu  Cu108  1  0.29526500  0.85317000  0.07943900  1
  Cu  Cu109  1  0.61494300  0.85910600  0.45059100  1
  Cu  Cu110  1  0.79526500  0.64683000  0.42056100  1
  Cu  Cu111  1  0.40489700  0.57898900  0.04043600  1
  Cu  Cu112  1  0.35910600  0.88505700  0.45059100  1
  Cu  Cu113  1  0.64683000  0.79526500  0.07943900  1
  Cu  Cu114  1  0.10822300  0.16511000  0.65618600  1
  Cu  Cu115  1  0.38505700  0.14089400  0.45059100  1
  Cu  Cu116  1  0.67987800  0.91318800  0.69233500  1
  Cu  Cu117  1  0.14683000  0.70473500  0.42056100  1
  Cu  Cu118  1  0.17987800  0.41318800  0.30766500  1
  Cu  Cu119  1  0.14683000  0.29526500  0.92056100  1
  Cu  Cu120  1  0.60822300  0.33489000  0.84381400  1
  Cu  Cu121  1  0.85910600  0.38505700  0.54940900  1
  Cu  Cu122  1  0.11494300  0.35910600  0.54940900  1
  Cu  Cu123  1  0.38505700  0.85910600  0.95059100  1
  Cu  Cu124  1  0.64089400  0.11494300  0.45059100  1
  Cu  Cu125  1  0.60822300  0.66511000  0.34381400  1
  Cu  Cu126  1  0.14089400  0.38505700  0.04940900  1
  Cu  Cu127  1  0.20324900  0.82316200  0.83786700  1
  Cu  Cu128  1  0.90489700  0.92101100  0.45956400  1
  Cu  Cu129  1  0.20324900  0.17683800  0.33786700  1
  Cu  Cu130  1  0.32316200  0.70324900  0.33786700  1
  Cu  Cu131  1  0.39177700  0.33489000  0.34381400  1
  Cu  Cu132  1  0.57898900  0.59510300  0.95956400  1
  Cu  Cu133  1  0.59510300  0.57898900  0.54043600  1
  Cu  Cu134  1  0.83489000  0.10822300  0.34381400  1
  Cu  Cu135  1  0.42101100  0.40489700  0.95956400  1
  Cu  Cu136  1  0.82316200  0.20324900  0.66213300  1
  Cu  Cu137  1  0.64089400  0.88505700  0.95059100  1
  Cu  Cu138  1  0.91318800  0.67987800  0.80766500  1
  Cu  Cu139  1  0.89177700  0.83489000  0.65618600  1
  Cu  Cu140  1  0.57898900  0.40489700  0.45956400  1
  Cu  Cu141  1  0.35317000  0.79526500  0.57943900  1
  Cu  Cu142  1  0.42101100  0.59510300  0.45956400  1
  Cu  Cu143  1  0.91318800  0.32012200  0.30766500  1
  Cu  Cu144  1  0.67683800  0.70324900  0.83786700  1
  Cu  Cu145  1  0.70324900  0.32316200  0.16213300  1
  Cu  Cu146  1  0.92101100  0.90489700  0.04043600  1
  Cu  Cu147  1  0.92101100  0.09510300  0.54043600  1
  Cu  Cu148  1  0.41318800  0.17987800  0.19233500  1
  Cu  Cu149  1  0.29675100  0.32316200  0.66213300  1
  Cu  Cu150  1  0.85317000  0.70473500  0.92056100  1
  Cu  Cu151  1  0.66511000  0.39177700  0.65618600  1
  Cu  Cu152  1  0.32012200  0.91318800  0.19233500  1
  Cu  Cu153  1  0.88505700  0.64089400  0.54940900  1
  Cu  Cu154  1  0.09510300  0.07898900  0.45956400  1
  Cu  Cu155  1  0.07898900  0.09510300  0.04043600  1
