# generated using pymatgen
data_Cu2Ni2C3
_symmetry_space_group_name_H-M   'P 1'
_cell_length_a   6.54920900
_cell_length_b   7.73549000
_cell_length_c   11.29915600
_cell_angle_alpha   90.00000000
_cell_angle_beta   90.00000000
_cell_angle_gamma   90.00000000
_symmetry_Int_Tables_number   1
_chemical_formula_structural   Cu2Ni2C3
_chemical_formula_sum   'Cu8 Ni8 C12'
_cell_volume   572.43039205
_cell_formula_units_Z   4
loop_
 _symmetry_equiv_pos_site_id
 _symmetry_equiv_pos_as_xyz
  1  'x, y, z'
loop_
 _atom_site_type_symbol
 _atom_site_label
 _atom_site_symmetry_multiplicity
 _atom_site_fract_x
 _atom_site_fract_y
 _atom_site_fract_z
 _atom_site_occupancy
  C  C0  1  0.68403000  0.00000000  0.50000000  1
  C  C1  1  0.31597000  0.50000000  0.00000000  1
  C  C2  1  0.92558000  0.00000000  0.00000000  1
  C  C3  1  0.07442000  0.50000000  0.50000000  1
  Ni  Ni4  1  0.56297800  0.53466800  0.63137600  1
  Ni  Ni5  1  0.11646100  0.79409700  0.74190200  1
  Ni  Ni6  1  0.56297800  0.46533200  0.36862400  1
  Ni  Ni7  1  0.43702200  0.03466800  0.86862400  1
  Ni  Ni8  1  0.11646100  0.20590300  0.25809800  1
  Ni  Ni9  1  0.43702200  0.96533200  0.13137600  1
  Ni  Ni10  1  0.88353900  0.70590300  0.24190200  1
  Ni  Ni11  1  0.88353900  0.29409700  0.75809800  1
  Cu  Cu12  1  0.37844000  0.39633900  0.66195000  1
  Cu  Cu13  1  0.17093200  0.16397500  0.39651100  1
  Cu  Cu14  1  0.17093200  0.83602500  0.60348900  1
  Cu  Cu15  1  0.62156000  0.89633900  0.83805000  1
  Cu  Cu16  1  0.82906800  0.33602500  0.89651100  1
  Cu  Cu17  1  0.82906800  0.66397500  0.10348900  1
  Cu  Cu18  1  0.37844000  0.60366100  0.33805000  1
  Cu  Cu19  1  0.62156000  0.10366100  0.16195000  1
  C  C20  1  0.92227300  0.73062800  0.34291800  1
  C  C21  1  0.69941500  0.37043500  0.38887300  1
  C  C22  1  0.69941500  0.62956500  0.61112700  1
  C  C23  1  0.30058500  0.12956500  0.88887300  1
  C  C24  1  0.92227300  0.26937200  0.65708200  1
  C  C25  1  0.07772700  0.23062800  0.15708200  1
  C  C26  1  0.07772700  0.76937200  0.84291800  1
  C  C27  1  0.30058500  0.87043500  0.11112700  1
