# generated using pymatgen
data_Cu4Ni3C13
_symmetry_space_group_name_H-M   'P 1'
_cell_length_a   8.06729800
_cell_length_b   10.30034420
_cell_length_c   10.98627471
_cell_angle_alpha   82.76124116
_cell_angle_beta   78.12744594
_cell_angle_gamma   79.73863085
_symmetry_Int_Tables_number   1
_chemical_formula_structural   Cu4Ni3C13
_chemical_formula_sum   'Cu16 Ni12 C52'
_cell_volume   875.30324962
_cell_formula_units_Z   4
loop_
 _symmetry_equiv_pos_site_id
 _symmetry_equiv_pos_as_xyz
  1  'x, y, z'
loop_
 _atom_site_type_symbol
 _atom_site_label
 _atom_site_symmetry_multiplicity
 _atom_site_fract_x
 _atom_site_fract_y
 _atom_site_fract_z
 _atom_site_occupancy
  C  C0  1  0.75518000  0.27730200  0.22881000  1
  C  C1  1  0.49651800  0.22115200  0.54449300  1
  C  C2  1  0.24482000  0.72269800  0.77119000  1
  C  C3  1  0.50348200  0.77884800  0.45550700  1
  Ni  Ni4  1  0.87852400  0.73727400  0.70485400  1
  Ni  Ni5  1  0.09925200  0.75966200  0.03928700  1
  Ni  Ni6  1  0.44674600  0.84834300  0.13781100  1
  Ni  Ni7  1  0.12147600  0.26272600  0.29514600  1
  Ni  Ni8  1  0.81665200  0.00453000  0.47804800  1
  Ni  Ni9  1  0.18334800  0.99547000  0.52195200  1
  Ni  Ni10  1  0.55325400  0.15165700  0.86218900  1
  Ni  Ni11  1  0.90074800  0.24033800  0.96071300  1
  Ni  Ni12  1  0.89570000  0.27667900  0.67559100  1
  Ni  Ni13  1  0.42581700  0.30857600  0.07143800  1
  Ni  Ni14  1  0.57418300  0.69142400  0.92856200  1
  Ni  Ni15  1  0.10430000  0.72332100  0.32440900  1
  Cu  Cu16  1  0.19363300  0.08776400  0.03500700  1
  Cu  Cu17  1  0.52121700  0.93696700  0.69700400  1
  Cu  Cu18  1  0.86527900  0.01065100  0.71085600  1
  Cu  Cu19  1  0.22365000  0.09578800  0.74250600  1
  Cu  Cu20  1  0.77635000  0.90421200  0.25749400  1
  Cu  Cu21  1  0.13472100  0.98934900  0.28914400  1
  Cu  Cu22  1  0.74077600  0.52355500  0.56291700  1
  Cu  Cu23  1  0.47878300  0.06303300  0.30299600  1
  Cu  Cu24  1  0.02906200  0.48066400  0.11483000  1
  Cu  Cu25  1  0.80636700  0.91223600  0.96499300  1
  Cu  Cu26  1  0.47729400  0.56591400  0.18768300  1
  Cu  Cu27  1  0.79299400  0.59801600  0.28824800  1
  Cu  Cu28  1  0.20700600  0.40198400  0.71175200  1
  Cu  Cu29  1  0.52270600  0.43408600  0.81231700  1
  Cu  Cu30  1  0.97093800  0.51933600  0.88517000  1
  Cu  Cu31  1  0.25922400  0.47644500  0.43708300  1
  C  C32  1  0.75909800  0.65643400  0.60861900  1
  C  C33  1  0.13816700  0.09066100  0.89539300  1
  C  C34  1  0.21258800  0.93144300  0.10613100  1
  C  C35  1  0.98472700  0.83780000  0.88611200  1
  C  C36  1  0.86183300  0.90933900  0.10460700  1
  C  C37  1  0.00323800  0.63151900  0.19222000  1
  C  C38  1  0.38174100  0.08703600  0.44155400  1
  C  C39  1  0.64379200  0.63457600  0.19857300  1
  C  C40  1  0.36979300  0.14896500  0.00292800  1
  C  C41  1  0.02203100  0.09798900  0.39395900  1
  C  C42  1  0.24176600  0.86046600  0.36528700  1
  C  C43  1  0.30055300  0.94990000  0.67306200  1
  C  C44  1  0.69944700  0.05010000  0.32693800  1
  C  C45  1  0.75823400  0.13953400  0.63471300  1
  C  C46  1  0.97796900  0.90201100  0.60604100  1
  C  C47  1  0.63020700  0.85103500  0.99707200  1
  C  C48  1  0.28813900  0.08751400  0.23860600  1
  C  C49  1  0.35620800  0.36542400  0.80142700  1
  C  C50  1  0.77980500  0.75034200  0.33689000  1
  C  C51  1  0.65597800  0.41654300  0.67337300  1
  C  C52  1  0.61825900  0.91296400  0.55844600  1
  C  C53  1  0.99676200  0.36848100  0.80778000  1
  C  C54  1  0.01527300  0.16220000  0.11388800  1
  C  C55  1  0.32388200  0.46083400  0.56930700  1
  C  C56  1  0.22019500  0.24965800  0.66311000  1
  C  C57  1  0.44200000  0.08636100  0.74892300  1
  C  C58  1  0.80524600  0.62367800  0.86123200  1
  C  C59  1  0.78741200  0.06855700  0.89386900  1
  C  C60  1  0.02909400  0.09662200  0.70057700  1
  C  C61  1  0.24090200  0.34356600  0.39138100  1
  C  C62  1  0.10881800  0.56090600  0.74160700  1
  C  C63  1  0.46700600  0.58040000  0.84613500  1
  C  C64  1  0.61767200  0.31991900  0.90674000  1
  C  C65  1  0.90592100  0.42376500  0.02582000  1
  C  C66  1  0.09407900  0.57623500  0.97418000  1
  C  C67  1  0.38232800  0.68008100  0.09326000  1
  C  C68  1  0.53299400  0.41960000  0.15386500  1
  C  C69  1  0.89118200  0.43909400  0.25839300  1
  C  C70  1  0.97090600  0.90337800  0.29942300  1
  C  C71  1  0.19475400  0.37632200  0.13876800  1
  C  C72  1  0.55800000  0.91363900  0.25107700  1
  C  C73  1  0.67611800  0.53916600  0.43069300  1
  C  C74  1  0.34402200  0.58345700  0.32662700  1
  C  C75  1  0.71186100  0.91248600  0.76139400  1
  C  C76  1  0.45000600  0.82661900  0.81945200  1
  C  C77  1  0.54999400  0.17338100  0.18054800  1
  C  C78  1  0.92185800  0.40898300  0.53333400  1
  C  C79  1  0.07814200  0.59101700  0.46666600  1
