# generated using pymatgen
data_Cu2NiC12
_symmetry_space_group_name_H-M   'P 1'
_cell_length_a   15.60949402
_cell_length_b   17.59037016
_cell_length_c   17.69492763
_cell_angle_alpha   90.00000000
_cell_angle_beta   90.00000000
_cell_angle_gamma   90.00000000
_symmetry_Int_Tables_number   1
_chemical_formula_structural   Cu2NiC12
_chemical_formula_sum   'Cu32 Ni16 C192'
_cell_volume   4858.61621244
_cell_formula_units_Z   16
loop_
 _symmetry_equiv_pos_site_id
 _symmetry_equiv_pos_as_xyz
  1  'x, y, z'
loop_
 _atom_site_type_symbol
 _atom_site_label
 _atom_site_symmetry_multiplicity
 _atom_site_fract_x
 _atom_site_fract_y
 _atom_site_fract_z
 _atom_site_occupancy
  C  C0  1  0.22398372  0.96561522  0.40411017  1
  C  C1  1  0.72398372  0.53438478  0.59588983  1
  C  C2  1  0.77601628  0.46561522  0.09588983  1
  C  C3  1  0.27601628  0.03438478  0.90411017  1
  C  C4  1  0.77601628  0.03438478  0.59588983  1
  C  C5  1  0.27601628  0.46561522  0.40411017  1
  C  C6  1  0.22398372  0.53438478  0.90411017  1
  C  C7  1  0.72398372  0.96561522  0.09588983  1
  C  C8  1  0.23489605  0.97107477  0.18213243  1
  C  C9  1  0.73489605  0.52892523  0.81786757  1
  C  C10  1  0.76510395  0.47107477  0.31786757  1
  C  C11  1  0.26510395  0.02892523  0.68213243  1
  C  C12  1  0.76510395  0.02892523  0.81786757  1
  C  C13  1  0.26510395  0.47107477  0.18213243  1
  C  C14  1  0.23489605  0.52892523  0.68213243  1
  C  C15  1  0.73489605  0.97107477  0.31786757  1
  C  C16  1  0.24909668  0.86174118  0.29028001  1
  C  C17  1  0.74909668  0.63825882  0.70971999  1
  C  C18  1  0.75090332  0.36174118  0.20971999  1
  C  C19  1  0.25090332  0.13825882  0.79028001  1
  C  C20  1  0.75090332  0.13825882  0.70971999  1
  C  C21  1  0.25090332  0.36174118  0.29028001  1
  C  C22  1  0.24909668  0.63825882  0.79028001  1
  C  C23  1  0.74909668  0.86174118  0.20971999  1
  C  C24  1  0.34863812  0.98778396  0.29368617  1
  C  C25  1  0.84863812  0.51221604  0.70631383  1
  C  C26  1  0.65136188  0.48778396  0.20631383  1
  C  C27  1  0.15136188  0.01221604  0.79368617  1
  C  C28  1  0.65136188  0.01221604  0.70631383  1
  C  C29  1  0.15136188  0.48778396  0.29368617  1
  C  C30  1  0.34863812  0.51221604  0.79368617  1
  C  C31  1  0.84863812  0.98778396  0.20631383  1
  C  C32  1  0.10846991  0.94962583  0.28158991  1
  C  C33  1  0.60846991  0.55037417  0.71841009  1
  C  C34  1  0.89153009  0.44962583  0.21841009  1
  C  C35  1  0.39153009  0.05037417  0.78158991  1
  C  C36  1  0.89153009  0.05037417  0.71841009  1
  C  C37  1  0.39153009  0.44962583  0.28158991  1
  C  C38  1  0.10846991  0.55037417  0.78158991  1
  C  C39  1  0.60846991  0.94962583  0.21841009  1
  C  C40  1  0.20418302  0.07508748  0.29479832  1
  C  C41  1  0.70418302  0.42491252  0.70520168  1
  C  C42  1  0.79581698  0.57508748  0.20520168  1
  C  C43  1  0.29581698  0.92491252  0.79479832  1
  C  C44  1  0.79581698  0.92491252  0.70520168  1
  C  C45  1  0.29581698  0.57508748  0.29479832  1
  C  C46  1  0.20418302  0.42491252  0.79479832  1
  C  C47  1  0.70418302  0.07508748  0.20520168  1
  C  C48  1  0.33314770  0.09482034  0.14479831  1
  C  C49  1  0.83314770  0.40517966  0.85520169  1
  C  C50  1  0.66685230  0.59482034  0.35520169  1
  C  C51  1  0.16685230  0.90517966  0.64479831  1
  C  C52  1  0.66685230  0.90517966  0.85520169  1
  C  C53  1  0.16685230  0.59482034  0.14479831  1
  C  C54  1  0.33314770  0.40517966  0.64479831  1
  C  C55  1  0.83314770  0.09482034  0.35520169  1
  C  C56  1  0.15652506  0.10776299  0.13730091  1
  C  C57  1  0.65652506  0.39223701  0.86269909  1
  C  C58  1  0.84347494  0.60776299  0.36269909  1
  C  C59  1  0.34347494  0.89223701  0.63730091  1
  C  C60  1  0.84347494  0.89223701  0.86269909  1
  C  C61  1  0.34347494  0.60776299  0.13730091  1
  C  C62  1  0.15652506  0.39223701  0.63730091  1
  C  C63  1  0.65652506  0.10776299  0.36269909  1
  C  C64  1  0.26395962  0.38246013  0.03852229  1
  C  C65  1  0.76395962  0.11753987  0.96147771  1
  C  C66  1  0.73604038  0.88246013  0.46147771  1
  C  C67  1  0.23604038  0.61753987  0.53852229  1
  C  C68  1  0.73604038  0.61753987  0.96147771  1
  C  C69  1  0.23604038  0.88246013  0.03852229  1
  C  C70  1  0.26395962  0.11753987  0.53852229  1
  C  C71  1  0.76395962  0.38246013  0.46147771  1
  C  C72  1  0.25882419  0.16172274  0.01976897  1
  C  C73  1  0.75882419  0.33827726  0.98023103  1
  C  C74  1  0.74117581  0.66172274  0.48023103  1
  C  C75  1  0.24117581  0.83827726  0.51976897  1
  C  C76  1  0.74117581  0.83827726  0.98023103  1
  C  C77  1  0.24117581  0.66172274  0.01976897  1
  C  C78  1  0.25882419  0.33827726  0.51976897  1
  C  C79  1  0.75882419  0.16172274  0.48023103  1
  C  C80  1  0.25525383  0.27812388  0.92350573  1
  C  C81  1  0.75525383  0.22187612  0.07649427  1
  C  C82  1  0.74474617  0.77812388  0.57649427  1
  C  C83  1  0.24474617  0.72187612  0.42350573  1
  C  C84  1  0.74474617  0.72187612  0.07649427  1
  C  C85  1  0.24474617  0.77812388  0.92350573  1
  C  C86  1  0.25525383  0.22187612  0.42350573  1
  C  C87  1  0.75525383  0.27812388  0.57649427  1
  C  C88  1  0.26741742  0.26206342  0.13785127  1
  C  C89  1  0.76741742  0.23793658  0.86214873  1
  C  C90  1  0.73258258  0.76206342  0.36214873  1
  C  C91  1  0.23258258  0.73793658  0.63785127  1
  C  C92  1  0.73258258  0.73793658  0.86214873  1
  C  C93  1  0.23258258  0.76206342  0.13785127  1
  C  C94  1  0.26741742  0.23793658  0.63785127  1
  C  C95  1  0.76741742  0.26206342  0.36214873  1
  C  C96  1  0.38491232  0.26892301  0.02477880  1
  C  C97  1  0.88491232  0.23107699  0.97522120  1
  C  C98  1  0.61508768  0.76892301  0.47522120  1
  C  C99  1  0.11508768  0.73107699  0.52477880  1
  C  C100  1  0.61508768  0.73107699  0.97522120  1
  C  C101  1  0.11508768  0.76892301  0.02477880  1
  C  C102  1  0.38491232  0.23107699  0.52477880  1
  C  C103  1  0.88491232  0.26892301  0.47522120  1
  C  C104  1  0.13880270  0.27195971  0.03654291  1
  C  C105  1  0.63880270  0.22804029  0.96345709  1
  C  C106  1  0.86119730  0.77195971  0.46345709  1
  C  C107  1  0.36119730  0.72804029  0.53654291  1
  C  C108  1  0.86119730  0.72804029  0.96345709  1
  C  C109  1  0.36119730  0.77195971  0.03654291  1
  C  C110  1  0.13880270  0.22804029  0.53654291  1
  C  C111  1  0.63880270  0.27195971  0.46345709  1
  C  C112  1  0.05418723  0.92883008  0.93242855  1
  C  C113  1  0.55418723  0.57116992  0.06757145  1
  C  C114  1  0.94581277  0.42883008  0.56757145  1
  C  C115  1  0.44581277  0.07116992  0.43242855  1
  C  C116  1  0.94581277  0.07116992  0.06757145  1
  C  C117  1  0.44581277  0.42883008  0.93242855  1
  C  C118  1  0.05418723  0.57116992  0.43242855  1
  C  C119  1  0.55418723  0.92883008  0.56757145  1
  C  C120  1  0.91233384  0.92601259  0.02059692  1
  C  C121  1  0.41233384  0.57398741  0.97940308  1
  C  C122  1  0.08766616  0.42601259  0.47940308  1
  C  C123  1  0.58766616  0.07398741  0.52059692  1
  C  C124  1  0.08766616  0.07398741  0.97940308  1
  C  C125  1  0.58766616  0.42601259  0.02059692  1
  C  C126  1  0.91233384  0.57398741  0.52059692  1
  C  C127  1  0.41233384  0.92601259  0.47940308  1
  C  C128  1  0.93094391  0.03675368  0.91765661  1
  C  C129  1  0.43094391  0.46324632  0.08234339  1
  C  C130  1  0.06905609  0.53675368  0.58234339  1
  C  C131  1  0.56905609  0.96324632  0.41765661  1
  C  C132  1  0.06905609  0.96324632  0.08234339  1
  C  C133  1  0.56905609  0.53675368  0.91765661  1
  C  C134  1  0.93094391  0.46324632  0.41765661  1
  C  C135  1  0.43094391  0.03675368  0.58234339  1
  C  C136  1  0.89284871  0.97198025  0.45231705  1
  C  C137  1  0.39284871  0.52801975  0.54768295  1
  C  C138  1  0.10715129  0.47198025  0.04768295  1
  C  C139  1  0.60715129  0.02801975  0.95231705  1
  C  C140  1  0.10715129  0.02801975  0.54768295  1
  C  C141  1  0.60715129  0.47198025  0.45231705  1
  C  C142  1  0.89284871  0.52801975  0.95231705  1
  C  C143  1  0.39284871  0.97198025  0.04768295  1
  C  C144  1  0.03846083  0.04224643  0.40556403  1
  C  C145  1  0.53846083  0.45775357  0.59443597  1
  C  C146  1  0.96153917  0.54224643  0.09443597  1
  C  C147  1  0.46153917  0.95775357  0.90556403  1
  C  C148  1  0.96153917  0.95775357  0.59443597  1
  C  C149  1  0.46153917  0.54224643  0.40556403  1
  C  C150  1  0.03846083  0.45775357  0.90556403  1
  C  C151  1  0.53846083  0.04224643  0.09443597  1
  C  C152  1  0.95276461  0.09680071  0.52635677  1
  C  C153  1  0.45276461  0.40319929  0.47364323  1
  C  C154  1  0.04723539  0.59680071  0.97364323  1
  C  C155  1  0.54723539  0.90319929  0.02635677  1
  C  C156  1  0.04723539  0.90319929  0.47364323  1
  C  C157  1  0.54723539  0.59680071  0.52635677  1
  C  C158  1  0.95276461  0.40319929  0.02635677  1
  C  C159  1  0.45276461  0.09680071  0.97364323  1
  Cu  Cu160  1  0.86825897  0.20474645  0.21902223  1
  Cu  Cu161  1  0.36825897  0.29525355  0.78097777  1
  Cu  Cu162  1  0.13174103  0.70474645  0.28097777  1
  Cu  Cu163  1  0.63174103  0.79525355  0.71902223  1
  Cu  Cu164  1  0.13174103  0.79525355  0.78097777  1
  Cu  Cu165  1  0.63174103  0.70474645  0.21902223  1
  Cu  Cu166  1  0.86825897  0.29525355  0.71902223  1
  Cu  Cu167  1  0.36825897  0.20474645  0.28097777  1
  Cu  Cu168  1  0.00135222  0.32346591  0.31388680  1
  Cu  Cu169  1  0.50135222  0.17653409  0.68611320  1
  Cu  Cu170  1  0.99864778  0.82346591  0.18611320  1
  Cu  Cu171  1  0.49864778  0.67653409  0.81388680  1
  Cu  Cu172  1  0.99864778  0.67653409  0.68611320  1
  Cu  Cu173  1  0.49864778  0.82346591  0.31388680  1
  Cu  Cu174  1  0.00135222  0.17653409  0.81388680  1
  Cu  Cu175  1  0.50135222  0.32346591  0.18611320  1
  Cu  Cu176  1  0.07347331  0.21312107  0.34687626  1
  Cu  Cu177  1  0.57347331  0.28687893  0.65312374  1
  Cu  Cu178  1  0.92652669  0.71312107  0.15312374  1
  Cu  Cu179  1  0.42652669  0.78687893  0.84687626  1
  Cu  Cu180  1  0.92652669  0.78687893  0.65312374  1
  Cu  Cu181  1  0.42652669  0.71312107  0.34687626  1
  Cu  Cu182  1  0.07347331  0.28687893  0.84687626  1
  Cu  Cu183  1  0.57347331  0.21312107  0.15312374  1
  Cu  Cu184  1  0.06628634  0.33851047  0.19606901  1
  Cu  Cu185  1  0.56628634  0.16148953  0.80393099  1
  Cu  Cu186  1  0.93371366  0.83851047  0.30393099  1
  Cu  Cu187  1  0.43371366  0.66148953  0.69606901  1
  Cu  Cu188  1  0.93371366  0.66148953  0.80393099  1
  Cu  Cu189  1  0.43371366  0.83851047  0.19606901  1
  Cu  Cu190  1  0.06628634  0.16148953  0.69606901  1
  Cu  Cu191  1  0.56628634  0.33851047  0.30393099  1
  C  C192  1  0.22799626  0.96836760  0.29670476  1
  C  C193  1  0.72799626  0.53163240  0.70329524  1
  C  C194  1  0.77200374  0.46836760  0.20329524  1
  C  C195  1  0.27200374  0.03163240  0.79670476  1
  C  C196  1  0.77200374  0.03163240  0.70329524  1
  C  C197  1  0.27200374  0.46836760  0.29670476  1
  C  C198  1  0.22799626  0.53163240  0.79670476  1
  C  C199  1  0.72799626  0.96836760  0.20329524  1
  C  C200  1  0.24322238  0.04975679  0.08344705  1
  C  C201  1  0.74322238  0.45024321  0.91655295  1
  C  C202  1  0.75677762  0.54975679  0.41655295  1
  C  C203  1  0.25677762  0.95024321  0.58344705  1
  C  C204  1  0.75677762  0.95024321  0.91655295  1
  C  C205  1  0.25677762  0.54975679  0.08344705  1
  C  C206  1  0.24322238  0.45024321  0.58344705  1
  C  C207  1  0.74322238  0.04975679  0.41655295  1
  C  C208  1  0.26252629  0.27449214  0.03109772  1
  C  C209  1  0.76252629  0.22550786  0.96890228  1
  C  C210  1  0.73747371  0.77449214  0.46890228  1
  C  C211  1  0.23747371  0.72550786  0.53109772  1
  C  C212  1  0.73747371  0.72550786  0.96890228  1
  C  C213  1  0.23747371  0.77449214  0.03109772  1
  C  C214  1  0.26252629  0.22550786  0.53109772  1
  C  C215  1  0.76252629  0.27449214  0.46890228  1
  C  C216  1  0.50000000  0.00000000  0.50000000  1
  C  C217  1  0.00000000  0.50000000  0.50000000  1
  C  C218  1  0.50000000  0.50000000  0.00000000  1
  C  C219  1  0.00000000  0.00000000  0.00000000  1
  C  C220  1  0.00000000  0.50000000  0.00000000  1
  C  C221  1  0.50000000  0.00000000  0.00000000  1
  C  C222  1  0.00000000  0.00000000  0.50000000  1
  C  C223  1  0.50000000  0.50000000  0.50000000  1
  Ni  Ni224  1  0.99464564  0.12219938  0.25429867  1
  Ni  Ni225  1  0.49464564  0.37780062  0.74570133  1
  Ni  Ni226  1  0.00535436  0.62219938  0.24570133  1
  Ni  Ni227  1  0.50535436  0.87780062  0.75429867  1
  Ni  Ni228  1  0.00535436  0.87780062  0.74570133  1
  Ni  Ni229  1  0.50535436  0.62219938  0.25429867  1
  Ni  Ni230  1  0.99464564  0.37780062  0.75429867  1
  Ni  Ni231  1  0.49464564  0.12219938  0.24570133  1
  Ni  Ni232  1  0.99269630  0.22613913  0.12833894  1
  Ni  Ni233  1  0.49269630  0.27386087  0.87166106  1
  Ni  Ni234  1  0.00730370  0.72613913  0.37166106  1
  Ni  Ni235  1  0.50730370  0.77386087  0.62833894  1
  Ni  Ni236  1  0.00730370  0.77386087  0.87166106  1
  Ni  Ni237  1  0.50730370  0.72613913  0.12833894  1
  Ni  Ni238  1  0.99269630  0.27386087  0.62833894  1
  Ni  Ni239  1  0.49269630  0.22613913  0.37166106  1
