# generated using pymatgen
data_Cu6NiC7
_symmetry_space_group_name_H-M   'P 1'
_cell_length_a   15.69749500
_cell_length_b   3.75082600
_cell_length_c   9.70352130
_cell_angle_alpha   89.09879701
_cell_angle_beta   90.00000000
_cell_angle_gamma   90.00000000
_symmetry_Int_Tables_number   1
_chemical_formula_structural   Cu6NiC7
_chemical_formula_sum   'Cu24 Ni4 C28'
_cell_volume   571.25880926
_cell_formula_units_Z   4
loop_
 _symmetry_equiv_pos_site_id
 _symmetry_equiv_pos_as_xyz
  1  'x, y, z'
loop_
 _atom_site_type_symbol
 _atom_site_label
 _atom_site_symmetry_multiplicity
 _atom_site_fract_x
 _atom_site_fract_y
 _atom_site_fract_z
 _atom_site_occupancy
  C  C0  1  0.38331900  0.95762000  0.66306400  1
  C  C1  1  0.33839300  0.18728300  0.77883400  1
  C  C2  1  0.35468400  0.43577700  0.58768200  1
  C  C3  1  0.65131900  0.50340800  0.81230600  1
  C  C4  1  0.66201200  0.83370100  0.70863300  1
  C  C5  1  0.15131900  0.49659200  0.18769400  1
  C  C6  1  0.16201200  0.16629900  0.29136700  1
  C  C7  1  0.83839300  0.81271700  0.22116600  1
  C  C8  1  0.88331900  0.04238000  0.33693600  1
  C  C9  1  0.85468400  0.56422300  0.41231800  1
  C  C10  1  0.07131600  0.10710600  0.72050400  1
  C  C11  1  0.99776500  0.11381200  0.83125700  1
  C  C12  1  0.91779000  0.62156500  0.77811400  1
  C  C13  1  0.99616700  0.59590900  0.67913000  1
  C  C14  1  0.41779000  0.37843500  0.22188600  1
  C  C15  1  0.49616700  0.40409100  0.32087000  1
  C  C16  1  0.57131600  0.89289400  0.27949600  1
  C  C17  1  0.49776500  0.88618800  0.16874300  1
  C  C18  1  0.14582200  0.04119600  0.08706600  1
  C  C19  1  0.20294900  0.78412200  0.96860000  1
  C  C20  1  0.10940100  0.98817800  0.92021900  1
  C  C21  1  0.79735600  0.28032800  0.52481400  1
  C  C22  1  0.88915000  0.49277600  0.58027900  1
  C  C23  1  0.38915000  0.50722400  0.41972100  1
  C  C24  1  0.29735600  0.71967200  0.47518600  1
  C  C25  1  0.60940100  0.01182200  0.07978100  1
  C  C26  1  0.70294900  0.21587800  0.03140000  1
  C  C27  1  0.64582200  0.95880400  0.91293400  1
  Ni  Ni28  1  0.16274500  0.91613000  0.54132700  1
  Ni  Ni29  1  0.83431900  0.41009500  0.96113800  1
  Ni  Ni30  1  0.33431900  0.58990500  0.03886200  1
  Ni  Ni31  1  0.66274500  0.08387000  0.45867300  1
  Cu  Cu32  1  0.18976000  0.75598900  0.64646300  1
  Cu  Cu33  1  0.80576600  0.25327400  0.85715100  1
  Cu  Cu34  1  0.30576600  0.74672600  0.14284900  1
  Cu  Cu35  1  0.68976000  0.24401100  0.35353700  1
  Cu  Cu36  1  0.20940800  0.92284600  0.43065300  1
  Cu  Cu37  1  0.79093500  0.40742200  0.07379600  1
  Cu  Cu38  1  0.29093500  0.59257800  0.92620400  1
  Cu  Cu39  1  0.70940800  0.07715400  0.56934700  1
  Cu  Cu40  1  0.09147900  0.07286500  0.53934400  1
  Cu  Cu41  1  0.90501100  0.57215500  0.95663800  1
  Cu  Cu42  1  0.40501100  0.42784500  0.04336200  1
  Cu  Cu43  1  0.59147900  0.92713500  0.46065600  1
  Cu  Cu44  1  0.37593100  0.19876200  0.69862800  1
  Cu  Cu45  1  0.63384900  0.74941400  0.79492800  1
  Cu  Cu46  1  0.13384900  0.25058600  0.20507200  1
  Cu  Cu47  1  0.87593100  0.80123800  0.30137200  1
  Cu  Cu48  1  0.05728100  0.18059600  0.81621800  1
  Cu  Cu49  1  0.93685900  0.67601800  0.68144200  1
  Cu  Cu50  1  0.43685900  0.32398200  0.31855800  1
  Cu  Cu51  1  0.55728100  0.81940400  0.18378200  1
  Cu  Cu52  1  0.14417100  0.86774400  0.00029800  1
  Cu  Cu53  1  0.85585500  0.37557600  0.49621200  1
  Cu  Cu54  1  0.35585500  0.62442400  0.50378800  1
  Cu  Cu55  1  0.64417100  0.13225600  0.99970200  1
