# generated using pymatgen
data_CuNi7C6
_symmetry_space_group_name_H-M   'P 1'
_cell_length_a   15.23077300
_cell_length_b   3.65103700
_cell_length_c   9.63917926
_cell_angle_alpha   87.64787849
_cell_angle_beta   90.00000000
_cell_angle_gamma   90.00000000
_symmetry_Int_Tables_number   1
_chemical_formula_structural   CuNi7C6
_chemical_formula_sum   'Cu4 Ni28 C24'
_cell_volume   535.56498817
_cell_formula_units_Z   4
loop_
 _symmetry_equiv_pos_site_id
 _symmetry_equiv_pos_as_xyz
  1  'x, y, z'
loop_
 _atom_site_type_symbol
 _atom_site_label
 _atom_site_symmetry_multiplicity
 _atom_site_fract_x
 _atom_site_fract_y
 _atom_site_fract_z
 _atom_site_occupancy
  Ni  Ni0  1  0.69653300  0.10187300  0.60073800  1
  Ni  Ni1  1  0.68258900  0.46676500  0.45351700  1
  Ni  Ni2  1  0.33181600  0.87073400  0.99709100  1
  Ni  Ni3  1  0.40983200  0.57669000  0.95197900  1
  Ni  Ni4  1  0.83181600  0.12926600  0.00290900  1
  Ni  Ni5  1  0.90983200  0.42331000  0.04802100  1
  Ni  Ni6  1  0.18258900  0.53323500  0.54648300  1
  Ni  Ni7  1  0.19653300  0.89812700  0.39926200  1
  Ni  Ni8  1  0.95404100  0.15140900  0.58682700  1
  Ni  Ni9  1  0.00459500  0.44205000  0.49175000  1
  Ni  Ni10  1  0.04425200  0.56284000  0.04383700  1
  Ni  Ni11  1  0.99535000  0.72991500  0.91084900  1
  Ni  Ni12  1  0.54425200  0.43716000  0.95616300  1
  Ni  Ni13  1  0.49535000  0.27008500  0.08915100  1
  Ni  Ni14  1  0.50459500  0.55795000  0.50825000  1
  Ni  Ni15  1  0.45404100  0.84859100  0.41317300  1
  Ni  Ni16  1  0.83429100  0.78655600  0.33077700  1
  Ni  Ni17  1  0.86981800  0.10354200  0.17410900  1
  Ni  Ni18  1  0.91829200  0.03136400  0.36938500  1
  Ni  Ni19  1  0.08293500  0.14200700  0.20397700  1
  Ni  Ni20  1  0.14190400  0.56491100  0.34346300  1
  Ni  Ni21  1  0.17672500  0.26460400  0.15586100  1
  Ni  Ni22  1  0.58293500  0.85799300  0.79602300  1
  Ni  Ni23  1  0.67672500  0.73539600  0.84413900  1
  Ni  Ni24  1  0.64190400  0.43508900  0.65653700  1
  Ni  Ni25  1  0.36981800  0.89645800  0.82589100  1
  Ni  Ni26  1  0.33429100  0.21344400  0.66922300  1
  Ni  Ni27  1  0.41829200  0.96863600  0.63061500  1
  Cu  Cu28  1  0.82975900  0.94326700  0.75247000  1
  Cu  Cu29  1  0.15947400  0.41712700  0.74921300  1
  Cu  Cu30  1  0.65947400  0.58287300  0.25078700  1
  Cu  Cu31  1  0.32975900  0.05673300  0.24753000  1
  C  C32  1  0.79477300  0.85298800  0.64023900  1
  C  C33  1  0.18543000  0.25686800  0.85564100  1
  C  C34  1  0.68543000  0.74313200  0.14435900  1
  C  C35  1  0.29477300  0.14701200  0.35976100  1
  C  C36  1  0.78363800  0.93351800  0.86477700  1
  C  C37  1  0.21399400  0.39230600  0.63577000  1
  C  C38  1  0.71399400  0.60769400  0.36423000  1
  C  C39  1  0.28363800  0.06648200  0.13522300  1
  C  C40  1  0.90891200  0.04260900  0.75719000  1
  C  C41  1  0.09123800  0.59454900  0.73275000  1
  C  C42  1  0.59123800  0.40545100  0.26725000  1
  C  C43  1  0.40891200  0.95739100  0.24281000  1
  C  C44  1  0.65055300  0.28329100  0.57419500  1
  C  C45  1  0.35494400  0.72436200  0.91878000  1
  C  C46  1  0.85494400  0.27563800  0.08122000  1
  C  C47  1  0.15055300  0.71670900  0.42580500  1
  C  C48  1  0.97685300  0.20151200  0.49189200  1
  C  C49  1  0.98860800  0.67269800  0.01033500  1
  C  C50  1  0.48860800  0.32730200  0.98966500  1
  C  C51  1  0.47685300  0.79848800  0.50810800  1
  C  C52  1  0.88850100  0.89614400  0.29260100  1
  C  C53  1  0.11834300  0.36041300  0.18399500  1
  C  C54  1  0.61834300  0.63958700  0.81600500  1
  C  C55  1  0.38850100  0.10385600  0.70739900  1
