# generated using pymatgen
data_Cu6Ni3C4
_symmetry_space_group_name_H-M   'P 1'
_cell_length_a   6.37768276
_cell_length_b   6.37768276
_cell_length_c   6.37768222
_cell_angle_alpha   115.50245983
_cell_angle_beta   115.50245983
_cell_angle_gamma   115.50246652
_symmetry_Int_Tables_number   1
_chemical_formula_structural   Cu6Ni3C4
_chemical_formula_sum   'Cu6 Ni3 C4'
_cell_volume   138.30669408
_cell_formula_units_Z   1
loop_
 _symmetry_equiv_pos_site_id
 _symmetry_equiv_pos_as_xyz
  1  'x, y, z'
loop_
 _atom_site_type_symbol
 _atom_site_label
 _atom_site_symmetry_multiplicity
 _atom_site_fract_x
 _atom_site_fract_y
 _atom_site_fract_z
 _atom_site_occupancy
  C  C0  1  0.99927500  0.99927500  0.99927500  1
  C  C1  1  0.37275000  0.86005100  0.37275000  1
  C  C2  1  0.37275000  0.37275000  0.86005100  1
  C  C3  1  0.86005100  0.37275000  0.37275000  1
  Ni  Ni4  1  0.60983800  0.15237200  0.60983800  1
  Ni  Ni5  1  0.60983800  0.60983800  0.15237200  1
  Ni  Ni6  1  0.15237200  0.60983800  0.60983800  1
  Cu  Cu7  1  0.88070500  0.28561100  0.88070500  1
  Cu  Cu8  1  0.88070500  0.88070500  0.28561100  1
  Cu  Cu9  1  0.28561100  0.88070500  0.88070500  1
  Cu  Cu10  1  0.58629500  0.33251300  0.58629500  1
  Cu  Cu11  1  0.58629500  0.58629500  0.33251300  1
  Cu  Cu12  1  0.33251300  0.58629500  0.58629500  1
