# generated using pymatgen
data_Cu(Ni2C13)2
_symmetry_space_group_name_H-M   'P 1'
_cell_length_a   7.41572951
_cell_length_b   7.41572951
_cell_length_c   18.16612600
_cell_angle_alpha   90.00000000
_cell_angle_beta   90.00000000
_cell_angle_gamma   119.99999561
_symmetry_Int_Tables_number   1
_chemical_formula_structural   Cu(Ni2C13)2
_chemical_formula_sum   'Cu1 Ni4 C26'
_cell_volume   865.16856965
_cell_formula_units_Z   1
loop_
 _symmetry_equiv_pos_site_id
 _symmetry_equiv_pos_as_xyz
  1  'x, y, z'
loop_
 _atom_site_type_symbol
 _atom_site_label
 _atom_site_symmetry_multiplicity
 _atom_site_fract_x
 _atom_site_fract_y
 _atom_site_fract_z
 _atom_site_occupancy
  C  C0  1  0.66666700  0.33333300  0.91679300  1
  C  C1  1  0.33333300  0.66666700  0.58332000  1
  C  C2  1  0.00000000  0.00000000  0.74998700  1
  C  C3  1  0.00000000  0.00000000  0.24989300  1
  C  C4  1  0.66666700  0.33333300  0.41666300  1
  C  C5  1  0.00000000  0.00000000  0.00044500  1
  C  C6  1  0.66666700  0.33333300  0.66665800  1
  C  C7  1  0.33333300  0.66666700  0.33288800  1
  Ni  Ni8  1  0.18149500  0.59074800  0.10231400  1
  Ni  Ni9  1  0.33333300  0.66666700  0.02633100  1
  Ni  Ni10  1  0.40925200  0.59074800  0.10231400  1
  Ni  Ni11  1  0.40925200  0.81850500  0.10231400  1
  Cu  Cu12  1  0.33333300  0.66666700  0.08341600  1
  C  C13  1  0.99281300  0.49640600  0.74819700  1
  C  C14  1  0.16303900  0.32607800  0.91854800  1
  C  C15  1  0.16303900  0.83696100  0.91854800  1
  C  C16  1  0.50359400  0.49640600  0.74819700  1
  C  C17  1  0.65912800  0.82956400  0.41469800  1
  C  C18  1  0.82974400  0.65948800  0.58512600  1
  C  C19  1  0.50359400  0.00718700  0.74819700  1
  C  C20  1  0.67392200  0.83696100  0.91854800  1
  C  C21  1  0.17043600  0.82956400  0.41469800  1
  C  C22  1  0.82974400  0.17025600  0.58512600  1
  C  C23  1  0.32711100  0.16355500  0.08186500  1
  C  C24  1  0.49674100  0.99348200  0.25156400  1
  C  C25  1  0.17043600  0.34087200  0.41469800  1
  C  C26  1  0.34051200  0.17025600  0.58512600  1
  C  C27  1  0.83644500  0.16355500  0.08186500  1
  C  C28  1  0.49674100  0.50325900  0.25156400  1
  C  C29  1  0.83644500  0.67288900  0.08186500  1
  C  C30  1  0.00651800  0.50325900  0.25156400  1
