# generated using pymatgen
data_Cu4Ni6C17
_symmetry_space_group_name_H-M   'P 1'
_cell_length_a   3.90451819
_cell_length_b   3.90451854
_cell_length_c   39.88361598
_cell_angle_alpha   60.69300924
_cell_angle_beta   60.69300689
_cell_angle_gamma   59.99999427
_symmetry_Int_Tables_number   1
_chemical_formula_structural   Cu4Ni6C17
_chemical_formula_sum   'Cu4 Ni6 C17'
_cell_volume   434.39523771
_cell_formula_units_Z   1
loop_
 _symmetry_equiv_pos_site_id
 _symmetry_equiv_pos_as_xyz
  1  'x, y, z'
loop_
 _atom_site_type_symbol
 _atom_site_label
 _atom_site_symmetry_multiplicity
 _atom_site_fract_x
 _atom_site_fract_y
 _atom_site_fract_z
 _atom_site_occupancy
  Ni  Ni0  1  0.98599100  0.98599100  0.50420300  1
  Ni  Ni1  1  0.00710800  0.00710800  0.39786800  1
  Ni  Ni2  1  0.00909600  0.00909600  0.59727100  1
  Ni  Ni3  1  0.98645000  0.98645000  0.70406500  1
  Ni  Ni4  1  0.00953700  0.00953700  0.79713900  1
  Ni  Ni5  1  0.98899300  0.98899300  0.90330200  1
  Cu  Cu6  1  0.00726400  0.00726400  0.99782100  1
  Cu  Cu7  1  0.00633800  0.00633800  0.09809900  1
  Cu  Cu8  1  0.00519900  0.00519900  0.29844000  1
  Cu  Cu9  1  0.00526900  0.00526900  0.19841900  1
  C  C10  1  0.24787500  0.24787500  0.02563800  1
  C  C11  1  0.24704600  0.24704600  0.12588600  1
  C  C12  1  0.74839400  0.74839400  0.07548200  1
  C  C13  1  0.24537200  0.24537200  0.22638800  1
  C  C14  1  0.74769800  0.74769800  0.17569000  1
  C  C15  1  0.24965900  0.24965900  0.32510200  1
  C  C16  1  0.74798900  0.74798900  0.27560300  1
  C  C17  1  0.71781200  0.71781200  0.38465600  1
  C  C18  1  0.24894300  0.24894300  0.52531700  1
  C  C19  1  0.78234300  0.78234300  0.46529700  1
  C  C20  1  0.72128600  0.72128600  0.58361400  1
  C  C21  1  0.24928000  0.24928000  0.72521600  1
  C  C22  1  0.78343700  0.78343700  0.66496900  1
  C  C23  1  0.72111200  0.72111200  0.78366600  1
  C  C24  1  0.24754400  0.24754400  0.92573700  1
  C  C25  1  0.78432900  0.78432900  0.86470100  1
  C  C26  1  0.74863500  0.74863500  0.97541000  1
