# generated using pymatgen
data_Cu2Ni4C13
_symmetry_space_group_name_H-M   'P 1'
_cell_length_a   13.20658600
_cell_length_b   5.64887100
_cell_length_c   5.97151904
_cell_angle_alpha   73.99723228
_cell_angle_beta   90.00000000
_cell_angle_gamma   90.00000000
_symmetry_Int_Tables_number   1
_chemical_formula_structural   Cu2Ni4C13
_chemical_formula_sum   'Cu4 Ni8 C26'
_cell_volume   428.22563587
_cell_formula_units_Z   2
loop_
 _symmetry_equiv_pos_site_id
 _symmetry_equiv_pos_as_xyz
  1  'x, y, z'
loop_
 _atom_site_type_symbol
 _atom_site_label
 _atom_site_symmetry_multiplicity
 _atom_site_fract_x
 _atom_site_fract_y
 _atom_site_fract_z
 _atom_site_occupancy
  C  C0  1  0.61747100  0.23621600  0.57900600  1
  C  C1  1  0.11747100  0.26378400  0.42099400  1
  C  C2  1  0.38252900  0.76378400  0.42099400  1
  C  C3  1  0.88252900  0.73621600  0.57900600  1
  C  C4  1  0.50000000  0.50000000  0.00000000  1
  C  C5  1  0.00000000  0.00000000  0.00000000  1
  Ni  Ni6  1  0.70988500  0.48234100  0.90528800  1
  Ni  Ni7  1  0.20988500  0.01765900  0.09471200  1
  Ni  Ni8  1  0.29011500  0.51765900  0.09471200  1
  Ni  Ni9  1  0.79011500  0.98234100  0.90528800  1
  Ni  Ni10  1  0.65958700  0.67545800  0.68587400  1
  Ni  Ni11  1  0.15958700  0.82454200  0.31412600  1
  Ni  Ni12  1  0.34041300  0.32454200  0.31412600  1
  Ni  Ni13  1  0.84041300  0.17545800  0.68587400  1
  Cu  Cu14  1  0.61839000  0.91874900  0.23813000  1
  Cu  Cu15  1  0.11839000  0.58125100  0.76187000  1
  Cu  Cu16  1  0.38161000  0.08125100  0.76187000  1
  Cu  Cu17  1  0.88161000  0.41874900  0.23813000  1
  C  C18  1  0.66721000  0.97455100  0.00645900  1
  C  C19  1  0.16721000  0.52544900  0.99354100  1
  C  C20  1  0.33279000  0.02544900  0.99354100  1
  C  C21  1  0.83279000  0.47455100  0.00645900  1
  C  C22  1  0.56131400  0.67815600  0.28731000  1
  C  C23  1  0.06131400  0.82184400  0.71269000  1
  C  C24  1  0.43868600  0.32184400  0.71269000  1
  C  C25  1  0.93868600  0.17815600  0.28731000  1
  C  C26  1  0.54265100  0.11654100  0.24644600  1
  C  C27  1  0.04265100  0.38345900  0.75355400  1
  C  C28  1  0.45734900  0.88345900  0.75355400  1
  C  C29  1  0.95734900  0.61654100  0.24644600  1
  C  C30  1  0.69265700  0.90405400  0.42864100  1
  C  C31  1  0.19265700  0.59594600  0.57135900  1
  C  C32  1  0.30734300  0.09594600  0.57135900  1
  C  C33  1  0.80734300  0.40405400  0.42864100  1
  C  C34  1  0.64867000  0.51385200  0.80281500  1
  C  C35  1  0.14867000  0.98614800  0.19718500  1
  C  C36  1  0.35133000  0.48614800  0.19718500  1
  C  C37  1  0.85133000  0.01385200  0.80281500  1
