# generated using pymatgen
data_Cu2NiC3
_symmetry_space_group_name_H-M   'P 1'
_cell_length_a   6.91661660
_cell_length_b   6.91661660
_cell_length_c   3.82146300
_cell_angle_alpha   90.00000000
_cell_angle_beta   90.00000000
_cell_angle_gamma   112.93586476
_symmetry_Int_Tables_number   1
_chemical_formula_structural   Cu2NiC3
_chemical_formula_sum   'Cu4 Ni2 C6'
_cell_volume   168.36397838
_cell_formula_units_Z   2
loop_
 _symmetry_equiv_pos_site_id
 _symmetry_equiv_pos_as_xyz
  1  'x, y, z'
loop_
 _atom_site_type_symbol
 _atom_site_label
 _atom_site_symmetry_multiplicity
 _atom_site_fract_x
 _atom_site_fract_y
 _atom_site_fract_z
 _atom_site_occupancy
  C  C0  1  0.25000000  0.75000000  0.54769200  1
  C  C1  1  0.75000000  0.25000000  0.45230800  1
  C  C2  1  0.89559500  0.39559500  0.21520400  1
  C  C3  1  0.39559500  0.89559500  0.78479600  1
  C  C4  1  0.10440500  0.60440500  0.78479600  1
  C  C5  1  0.60440500  0.10440500  0.21520400  1
  Ni  Ni6  1  0.25000000  0.25000000  0.00000000  1
  Ni  Ni7  1  0.75000000  0.75000000  0.00000000  1
  Cu  Cu8  1  0.36671200  0.63328800  0.36167600  1
  Cu  Cu9  1  0.63328800  0.36671200  0.63832400  1
  Cu  Cu10  1  0.86671200  0.13328800  0.63832400  1
  Cu  Cu11  1  0.13328800  0.86671200  0.36167600  1
