# generated using pymatgen
data_CuNiC5
_symmetry_space_group_name_H-M   'P 1'
_cell_length_a   5.13905459
_cell_length_b   5.13905459
_cell_length_c   8.74568500
_cell_angle_alpha   90.00000000
_cell_angle_beta   90.00000000
_cell_angle_gamma   120.00000763
_symmetry_Int_Tables_number   1
_chemical_formula_structural   CuNiC5
_chemical_formula_sum   'Cu2 Ni2 C10'
_cell_volume   200.02804569
_cell_formula_units_Z   2
loop_
 _symmetry_equiv_pos_site_id
 _symmetry_equiv_pos_as_xyz
  1  'x, y, z'
loop_
 _atom_site_type_symbol
 _atom_site_label
 _atom_site_symmetry_multiplicity
 _atom_site_fract_x
 _atom_site_fract_y
 _atom_site_fract_z
 _atom_site_occupancy
  Ni  Ni0  1  0.00000000  0.00000000  0.49815700  1
  Ni  Ni1  1  0.00000000  0.00000000  0.99815700  1
  Cu  Cu2  1  0.66666700  0.33333300  0.30320200  1
  Cu  Cu3  1  0.33333300  0.66666700  0.80320200  1
  C  C4  1  0.33333300  0.66666700  0.19549400  1
  C  C5  1  0.66666700  0.33333300  0.69549400  1
  C  C6  1  0.62064000  0.66256500  0.25098700  1
  C  C7  1  0.66256500  0.04192500  0.75098700  1
  C  C8  1  0.33333300  0.66666700  0.01618700  1
  C  C9  1  0.66666700  0.33333300  0.51618700  1
  C  C10  1  0.33743500  0.95807500  0.25098700  1
  C  C11  1  0.37936000  0.33743500  0.75098700  1
  C  C12  1  0.95807500  0.62064000  0.75098700  1
  C  C13  1  0.04192500  0.37936000  0.25098700  1
