# generated using pymatgen
data_Cu3Ni3C
_symmetry_space_group_name_H-M   'P 1'
_cell_length_a   6.87290900
_cell_length_b   16.71896100
_cell_length_c   19.60039491
_cell_angle_alpha   62.15711862
_cell_angle_beta   90.00000000
_cell_angle_gamma   90.00000000
_symmetry_Int_Tables_number   1
_chemical_formula_structural   Cu3Ni3C
_chemical_formula_sum   'Cu48 Ni48 C16'
_cell_volume   1991.50209534
_cell_formula_units_Z   16
loop_
 _symmetry_equiv_pos_site_id
 _symmetry_equiv_pos_as_xyz
  1  'x, y, z'
loop_
 _atom_site_type_symbol
 _atom_site_label
 _atom_site_symmetry_multiplicity
 _atom_site_fract_x
 _atom_site_fract_y
 _atom_site_fract_z
 _atom_site_occupancy
  C  C0  1  0.85746200  0.22949300  0.78252200  1
  C  C1  1  0.35746200  0.77050700  0.71747800  1
  C  C2  1  0.64253800  0.22949300  0.28252200  1
  C  C3  1  0.14253800  0.77050700  0.21747800  1
  C  C4  1  0.28005500  0.93593400  0.14322700  1
  C  C5  1  0.68856500  0.32490000  0.13232100  1
  C  C6  1  0.81143500  0.32490000  0.63232100  1
  C  C7  1  0.49227700  0.30812200  0.35911300  1
  C  C8  1  0.21994500  0.93593400  0.64322700  1
  C  C9  1  0.50772300  0.69187800  0.64088700  1
  C  C10  1  0.18856500  0.67510000  0.36767900  1
  C  C11  1  0.31143500  0.67510000  0.86767900  1
  C  C12  1  0.71994500  0.06406600  0.85677300  1
  C  C13  1  0.99227700  0.69187800  0.14088700  1
  C  C14  1  0.78005500  0.06406600  0.35677300  1
  C  C15  1  0.00772300  0.30812200  0.85911300  1
  Ni  Ni16  1  0.56886600  0.67827000  0.86430600  1
  Ni  Ni17  1  0.30050700  0.76842100  0.37259900  1
  Ni  Ni18  1  0.55860200  0.59732000  0.73191000  1
  Ni  Ni19  1  0.99432500  0.11862200  0.30789200  1
  Ni  Ni20  1  0.76510200  0.06730000  0.94492400  1
  Ni  Ni21  1  0.29304800  0.59436100  0.96570800  1
  Ni  Ni22  1  0.83624100  0.38216700  0.16906700  1
  Ni  Ni23  1  0.19949300  0.76842100  0.87259900  1
  Ni  Ni24  1  0.63951800  0.95096600  0.89385800  1
  Ni  Ni25  1  0.93113400  0.67827000  0.36430600  1
  Ni  Ni26  1  0.61031100  0.64805400  0.58288900  1
  Ni  Ni27  1  0.50567500  0.11862200  0.80789200  1
  Ni  Ni28  1  0.80050700  0.23157900  0.12740100  1
  Ni  Ni29  1  0.05860200  0.40268000  0.76809000  1
  Ni  Ni30  1  0.94139800  0.59732000  0.23191000  1
  Ni  Ni31  1  0.08698200  0.94900800  0.19612600  1
  Ni  Ni32  1  0.86048200  0.95096600  0.39385800  1
  Ni  Ni33  1  0.76289500  0.29956700  0.88909300  1
  Ni  Ni34  1  0.73489800  0.06730000  0.44492400  1
  Ni  Ni35  1  0.84700000  0.79005100  0.10166300  1
  Ni  Ni36  1  0.91301800  0.05099200  0.80387400  1
  Ni  Ni37  1  0.66375900  0.38216700  0.66906700  1
  Ni  Ni38  1  0.23489800  0.93270000  0.05507600  1
  Ni  Ni39  1  0.26510200  0.93270000  0.55507600  1
  Ni  Ni40  1  0.23710500  0.70043300  0.11090700  1
  Ni  Ni41  1  0.69949300  0.23157900  0.62740100  1
  Ni  Ni42  1  0.11031100  0.35194600  0.91711100  1
  Ni  Ni43  1  0.88968900  0.64805400  0.08288900  1
  Ni  Ni44  1  0.34700000  0.20994900  0.39833700  1
  Ni  Ni45  1  0.16375900  0.61783300  0.83093300  1
  Ni  Ni46  1  0.43113400  0.32173000  0.13569400  1
  Ni  Ni47  1  0.65300000  0.79005100  0.60166300  1
  Ni  Ni48  1  0.73710500  0.29956700  0.38909300  1
  Ni  Ni49  1  0.33624100  0.61783300  0.33093300  1
  Ni  Ni50  1  0.79304800  0.40563900  0.53429200  1
  Ni  Ni51  1  0.49432500  0.88137800  0.19210800  1
  Ni  Ni52  1  0.20695200  0.59436100  0.46570800  1
  Ni  Ni53  1  0.36048200  0.04903400  0.10614200  1
  Ni  Ni54  1  0.00567500  0.88137800  0.69210800  1
  Ni  Ni55  1  0.38968900  0.35194600  0.41711100  1
  Ni  Ni56  1  0.13951800  0.04903400  0.60614200  1
  Ni  Ni57  1  0.41301800  0.94900800  0.69612600  1
  Ni  Ni58  1  0.26289500  0.70043300  0.61090700  1
  Ni  Ni59  1  0.58698200  0.05099200  0.30387400  1
  Ni  Ni60  1  0.15300000  0.20994900  0.89833700  1
  Ni  Ni61  1  0.44139800  0.40268000  0.26809000  1
  Ni  Ni62  1  0.70695200  0.40563900  0.03429200  1
  Ni  Ni63  1  0.06886600  0.32173000  0.63569400  1
  Cu  Cu64  1  0.36085200  0.15087900  0.77610700  1
  Cu  Cu65  1  0.68042800  0.62033700  0.54459100  1
  Cu  Cu66  1  0.75324500  0.85281600  0.57023400  1
  Cu  Cu67  1  0.91004800  0.87689600  0.41647400  1
  Cu  Cu68  1  0.90889700  0.53216000  0.28857400  1
  Cu  Cu69  1  0.28895400  0.93318500  0.49632600  1
  Cu  Cu70  1  0.24675500  0.14718400  0.42976600  1
  Cu  Cu71  1  0.23796400  0.32179600  0.63289200  1
  Cu  Cu72  1  0.39494300  0.70440700  0.08808000  1
  Cu  Cu73  1  0.46599700  0.03624800  0.26966700  1
  Cu  Cu74  1  0.87699000  0.17507800  0.11908800  1
  Cu  Cu75  1  0.09110300  0.46784000  0.71142600  1
  Cu  Cu76  1  0.59110300  0.53216000  0.78857400  1
  Cu  Cu77  1  0.25324500  0.14718400  0.92976600  1
  Cu  Cu78  1  0.60505700  0.29559300  0.91192000  1
  Cu  Cu79  1  0.21104600  0.93318500  0.99632600  1
  Cu  Cu80  1  0.89494300  0.29559300  0.41192000  1
  Cu  Cu81  1  0.12301000  0.82492200  0.88091200  1
  Cu  Cu82  1  0.73796400  0.67820400  0.86710800  1
  Cu  Cu83  1  0.96599700  0.96375200  0.23033300  1
  Cu  Cu84  1  0.58995200  0.87689600  0.91647400  1
  Cu  Cu85  1  0.40889700  0.46784000  0.21142600  1
  Cu  Cu86  1  0.93689600  0.42304200  0.18946600  1
  Cu  Cu87  1  0.56310400  0.42304200  0.68946600  1
  Cu  Cu88  1  0.86085200  0.84912100  0.72389300  1
  Cu  Cu89  1  0.78174500  0.45828900  0.46997500  1
  Cu  Cu90  1  0.74675500  0.85281600  0.07023400  1
  Cu  Cu91  1  0.41004800  0.12310400  0.08352600  1
  Cu  Cu92  1  0.26203600  0.32179600  0.13289200  1
  Cu  Cu93  1  0.71104600  0.06681500  0.50367400  1
  Cu  Cu94  1  0.10505700  0.70440700  0.58808000  1
  Cu  Cu95  1  0.81957200  0.62033700  0.04459100  1
  Cu  Cu96  1  0.53400300  0.96375200  0.73033300  1
  Cu  Cu97  1  0.37699000  0.82492200  0.38091200  1
  Cu  Cu98  1  0.28174500  0.54171100  0.03002500  1
  Cu  Cu99  1  0.63914800  0.84912100  0.22389300  1
  Cu  Cu100  1  0.03400300  0.03624800  0.76966700  1
  Cu  Cu101  1  0.08995200  0.12310400  0.58352600  1
  Cu  Cu102  1  0.78895400  0.06681500  0.00367400  1
  Cu  Cu103  1  0.31957200  0.37966300  0.45540900  1
  Cu  Cu104  1  0.18042800  0.37966300  0.95540900  1
  Cu  Cu105  1  0.71825500  0.45828900  0.96997500  1
  Cu  Cu106  1  0.13914800  0.15087900  0.27610700  1
  Cu  Cu107  1  0.43689600  0.57695800  0.31053400  1
  Cu  Cu108  1  0.62301000  0.17507800  0.61908800  1
  Cu  Cu109  1  0.06310400  0.57695800  0.81053400  1
  Cu  Cu110  1  0.21825500  0.54171100  0.53002500  1
  Cu  Cu111  1  0.76203600  0.67820400  0.36710800  1
