# generated using pymatgen
data_CuNi4C15
_symmetry_space_group_name_H-M   'P 1'
_cell_length_a   10.43888838
_cell_length_b   10.43888838
_cell_length_c   10.43888764
_cell_angle_alpha   33.13082028
_cell_angle_beta   33.13082028
_cell_angle_gamma   33.13081960
_symmetry_Int_Tables_number   1
_chemical_formula_structural   CuNi4C15
_chemical_formula_sum   'Cu1 Ni4 C15'
_cell_volume   302.45906761
_cell_formula_units_Z   1
loop_
 _symmetry_equiv_pos_site_id
 _symmetry_equiv_pos_as_xyz
  1  'x, y, z'
loop_
 _atom_site_type_symbol
 _atom_site_label
 _atom_site_symmetry_multiplicity
 _atom_site_fract_x
 _atom_site_fract_y
 _atom_site_fract_z
 _atom_site_occupancy
  Ni  Ni0  1  0.71496700  0.71496700  0.71496700  1
  Ni  Ni1  1  0.87073600  0.87073600  0.87073600  1
  Ni  Ni2  1  0.28503300  0.28503300  0.28503300  1
  Ni  Ni3  1  0.12926400  0.12926400  0.12926400  1
  Cu  Cu4  1  0.00000000  0.00000000  0.00000000  1
  C  C5  1  0.58636600  0.58636600  0.58636600  1
  C  C6  1  0.41363400  0.41363400  0.41363400  1
  C  C7  1  0.50000000  0.50000000  0.50000000  1
  C  C8  1  0.21976800  0.21976800  0.69204900  1
  C  C9  1  0.69204900  0.21976800  0.21976800  1
  C  C10  1  0.21976800  0.69204900  0.21976800  1
  C  C11  1  0.78023200  0.30795100  0.78023200  1
  C  C12  1  0.78023200  0.78023200  0.30795100  1
  C  C13  1  0.30795100  0.78023200  0.78023200  1
  C  C14  1  0.38720600  0.38720600  0.85235500  1
  C  C15  1  0.85235500  0.38720600  0.38720600  1
  C  C16  1  0.14764500  0.61279400  0.61279400  1
  C  C17  1  0.61279400  0.61279400  0.14764500  1
  C  C18  1  0.61279400  0.14764500  0.61279400  1
  C  C19  1  0.38720600  0.85235500  0.38720600  1
