# generated using pymatgen
data_Cu2Ni4C
_symmetry_space_group_name_H-M   'P 1'
_cell_length_a   7.83626000
_cell_length_b   8.26515200
_cell_length_c   12.68295177
_cell_angle_alpha   53.05338451
_cell_angle_beta   90.00000000
_cell_angle_gamma   90.00000000
_symmetry_Int_Tables_number   1
_chemical_formula_structural   Cu2Ni4C
_chemical_formula_sum   'Cu16 Ni32 C8'
_cell_volume   656.49778896
_cell_formula_units_Z   8
loop_
 _symmetry_equiv_pos_site_id
 _symmetry_equiv_pos_as_xyz
  1  'x, y, z'
loop_
 _atom_site_type_symbol
 _atom_site_label
 _atom_site_symmetry_multiplicity
 _atom_site_fract_x
 _atom_site_fract_y
 _atom_site_fract_z
 _atom_site_occupancy
  C  C0  1  0.09315900  0.13300000  0.62173600  1
  C  C1  1  0.40684100  0.13300000  0.12173600  1
  C  C2  1  0.90684100  0.86700000  0.37826400  1
  C  C3  1  0.59315900  0.86700000  0.87826400  1
  C  C4  1  0.27060000  0.16252600  0.36465000  1
  C  C5  1  0.22940000  0.16252600  0.86465000  1
  C  C6  1  0.72940000  0.83747400  0.63535000  1
  C  C7  1  0.77060000  0.83747400  0.13535000  1
  Ni  Ni8  1  0.78565200  0.61622400  0.07044200  1
  Ni  Ni9  1  0.71434800  0.61622400  0.57044200  1
  Ni  Ni10  1  0.21434800  0.38377600  0.92955800  1
  Ni  Ni11  1  0.28565200  0.38377600  0.42955800  1
  Ni  Ni12  1  0.89579400  0.81622100  0.96801800  1
  Ni  Ni13  1  0.60420600  0.81622100  0.46801800  1
  Ni  Ni14  1  0.10420600  0.18377900  0.03198200  1
  Ni  Ni15  1  0.39579400  0.18377900  0.53198200  1
  Ni  Ni16  1  0.12862000  0.61526400  0.94485700  1
  Ni  Ni17  1  0.37138000  0.61526400  0.44485700  1
  Ni  Ni18  1  0.87138000  0.38473600  0.05514300  1
  Ni  Ni19  1  0.62862000  0.38473600  0.55514300  1
  Ni  Ni20  1  0.85700900  0.39053600  0.29165000  1
  Ni  Ni21  1  0.64299100  0.39053600  0.79165000  1
  Ni  Ni22  1  0.14299100  0.60946400  0.70835000  1
  Ni  Ni23  1  0.35700900  0.60946400  0.20835000  1
  Ni  Ni24  1  0.26586700  0.59434200  0.19620600  1
  Ni  Ni25  1  0.23413300  0.59434200  0.69620600  1
  Ni  Ni26  1  0.73413300  0.40565800  0.80379400  1
  Ni  Ni27  1  0.76586700  0.40565800  0.30379400  1
  Ni  Ni28  1  0.05849200  0.68612400  0.90214900  1
  Ni  Ni29  1  0.44150800  0.68612400  0.40214900  1
  Ni  Ni30  1  0.94150800  0.31387600  0.09785100  1
  Ni  Ni31  1  0.55849200  0.31387600  0.59785100  1
  Ni  Ni32  1  0.94466400  0.19747200  0.76840100  1
  Ni  Ni33  1  0.55533600  0.19747200  0.26840100  1
  Ni  Ni34  1  0.05533600  0.80252800  0.23159900  1
  Ni  Ni35  1  0.44466400  0.80252800  0.73159900  1
  Ni  Ni36  1  0.06213000  0.39307000  0.66651600  1
  Ni  Ni37  1  0.43787000  0.39307000  0.16651600  1
  Ni  Ni38  1  0.93787000  0.60693000  0.33348400  1
  Ni  Ni39  1  0.56213000  0.60693000  0.83348400  1
  Cu  Cu40  1  0.78294400  0.77048500  0.01924600  1
  Cu  Cu41  1  0.71705600  0.77048500  0.51924600  1
  Cu  Cu42  1  0.21705600  0.22951500  0.98075400  1
  Cu  Cu43  1  0.28294400  0.22951500  0.48075400  1
  Cu  Cu44  1  0.13473900  0.93787700  0.41424600  1
  Cu  Cu45  1  0.36526100  0.93787700  0.91424600  1
  Cu  Cu46  1  0.86526100  0.06212300  0.58575400  1
  Cu  Cu47  1  0.63473900  0.06212300  0.08575400  1
  Cu  Cu48  1  0.44658400  0.10129400  0.83166800  1
  Cu  Cu49  1  0.05341600  0.10129400  0.33166800  1
  Cu  Cu50  1  0.55341600  0.89870600  0.16833200  1
  Cu  Cu51  1  0.94658400  0.89870600  0.66833200  1
  Cu  Cu52  1  0.06734300  0.23899500  0.73500800  1
  Cu  Cu53  1  0.43265700  0.23899500  0.23500800  1
  Cu  Cu54  1  0.93265700  0.76100500  0.26499200  1
  Cu  Cu55  1  0.56734300  0.76100500  0.76499200  1
