# generated using pymatgen
data_Cu2Ni2C11
_symmetry_space_group_name_H-M   'P 1'
_cell_length_a   9.31997925
_cell_length_b   9.31997925
_cell_length_c   7.14402800
_cell_angle_alpha   90.00000000
_cell_angle_beta   90.00000000
_cell_angle_gamma   110.50808048
_symmetry_Int_Tables_number   1
_chemical_formula_structural   Cu2Ni2C11
_chemical_formula_sum   'Cu4 Ni4 C22'
_cell_volume   581.21626605
_cell_formula_units_Z   2
loop_
 _symmetry_equiv_pos_site_id
 _symmetry_equiv_pos_as_xyz
  1  'x, y, z'
loop_
 _atom_site_type_symbol
 _atom_site_label
 _atom_site_symmetry_multiplicity
 _atom_site_fract_x
 _atom_site_fract_y
 _atom_site_fract_z
 _atom_site_occupancy
  C  C0  1  0.41850000  0.86361700  0.09527300  1
  C  C1  1  0.86361700  0.41850000  0.09527300  1
  C  C2  1  0.58150000  0.13638300  0.59527300  1
  C  C3  1  0.13638300  0.58150000  0.59527300  1
  C  C4  1  0.87888200  0.87888200  0.27317600  1
  C  C5  1  0.12111800  0.12111800  0.77317600  1
  C  C6  1  0.51124700  0.51124700  0.52177200  1
  C  C7  1  0.48875300  0.48875300  0.02177200  1
  C  C8  1  0.75198300  0.75198300  0.74997200  1
  C  C9  1  0.24801700  0.24801700  0.24997200  1
  Ni  Ni10  1  0.53903500  0.75724200  0.59194600  1
  Ni  Ni11  1  0.75724200  0.53903500  0.59194600  1
  Ni  Ni12  1  0.46096500  0.24275800  0.09194600  1
  Ni  Ni13  1  0.24275800  0.46096500  0.09194600  1
  Cu  Cu14  1  0.76896200  0.99101600  0.89917500  1
  Cu  Cu15  1  0.99101600  0.76896200  0.89917500  1
  Cu  Cu16  1  0.23103800  0.00898400  0.39917500  1
  Cu  Cu17  1  0.00898400  0.23103800  0.39917500  1
  C  C18  1  0.43726800  0.81670100  0.70250900  1
  C  C19  1  0.81670100  0.43726800  0.70250900  1
  C  C20  1  0.56273200  0.18329900  0.20250900  1
  C  C21  1  0.18329900  0.56273200  0.20250900  1
  C  C22  1  0.59740000  0.85422000  0.42274900  1
  C  C23  1  0.85422000  0.59740000  0.42274900  1
  C  C24  1  0.40260000  0.14578000  0.92274900  1
  C  C25  1  0.14578000  0.40260000  0.92274900  1
  C  C26  1  0.43766400  0.59467300  0.52803800  1
  C  C27  1  0.59467300  0.43766400  0.52803800  1
  C  C28  1  0.56233600  0.40532700  0.02803800  1
  C  C29  1  0.40532700  0.56233600  0.02803800  1
