# generated using pymatgen
data_CuNiC3
_symmetry_space_group_name_H-M   'P 1'
_cell_length_a   9.22187632
_cell_length_b   9.22187632
_cell_length_c   9.22187632
_cell_angle_alpha   110.24810445
_cell_angle_beta   110.13849821
_cell_angle_gamma   108.03653438
_symmetry_Int_Tables_number   1
_chemical_formula_structural   CuNiC3
_chemical_formula_sum   'Cu8 Ni8 C24'
_cell_volume   603.43699434
_cell_formula_units_Z   8
loop_
 _symmetry_equiv_pos_site_id
 _symmetry_equiv_pos_as_xyz
  1  'x, y, z'
loop_
 _atom_site_type_symbol
 _atom_site_label
 _atom_site_symmetry_multiplicity
 _atom_site_fract_x
 _atom_site_fract_y
 _atom_site_fract_z
 _atom_site_occupancy
  Ni  Ni0  1  0.21517900  0.25000000  0.46517900  1
  Ni  Ni1  1  0.50000000  0.00000000  0.50000000  1
  Ni  Ni2  1  0.28482100  0.75000000  0.03482100  1
  Ni  Ni3  1  0.50000000  0.50000000  0.00000000  1
  Ni  Ni4  1  0.71517900  0.25000000  0.96517900  1
  Ni  Ni5  1  0.00000000  0.00000000  0.00000000  1
  Ni  Ni6  1  0.78482100  0.75000000  0.53482100  1
  Ni  Ni7  1  0.00000000  0.50000000  0.50000000  1
  Cu  Cu8  1  0.75000000  0.03700600  0.28700600  1
  Cu  Cu9  1  0.03528200  0.78528200  0.25000000  1
  Cu  Cu10  1  0.53528200  0.28528200  0.25000000  1
  Cu  Cu11  1  0.25000000  0.46299400  0.21299400  1
  Cu  Cu12  1  0.75000000  0.53700600  0.78700600  1
  Cu  Cu13  1  0.96471800  0.21471800  0.75000000  1
  Cu  Cu14  1  0.46471800  0.71471800  0.75000000  1
  Cu  Cu15  1  0.25000000  0.96299400  0.71299400  1
  C  C16  1  0.24456300  0.51329600  0.46281500  1
  C  C17  1  0.50043800  0.04666900  0.26666200  1
  C  C18  1  0.28000700  0.23377600  0.23333800  1
  C  C19  1  0.25543700  0.71825200  0.26873300  1
  C  C20  1  0.73392200  0.96338600  0.49296200  1
  C  C21  1  0.52957600  0.53661400  0.27053600  1
  C  C22  1  0.76607800  0.25904000  0.22946400  1
  C  C23  1  0.00043800  0.73377600  0.45376900  1
  C  C24  1  0.05048100  0.01329600  0.76873300  1
  C  C25  1  0.44951900  0.21825200  0.96281500  1
  C  C26  1  0.21999300  0.45333100  0.95376900  1
  C  C27  1  0.02957600  0.75904000  0.99296200  1
  C  C28  1  0.97042400  0.24096000  0.00703800  1
  C  C29  1  0.78000700  0.54666900  0.04623100  1
  C  C30  1  0.55048100  0.78174800  0.03718500  1
  C  C31  1  0.94951900  0.98670400  0.23126700  1
  C  C32  1  0.23392200  0.74096000  0.77053600  1
  C  C33  1  0.99956200  0.26622400  0.54623100  1
  C  C34  1  0.47042400  0.46338600  0.72946400  1
  C  C35  1  0.26607800  0.03661400  0.50703800  1
  C  C36  1  0.74456300  0.28174800  0.73126700  1
  C  C37  1  0.71999300  0.76622400  0.76666200  1
  C  C38  1  0.49956200  0.95333100  0.73333800  1
  C  C39  1  0.75543700  0.48670400  0.53718500  1
