# generated using pymatgen
data_Cu6Ni2C5
_symmetry_space_group_name_H-M   'P 1'
_cell_length_a   7.84958500
_cell_length_b   8.17656700
_cell_length_c   9.33779700
_cell_angle_alpha   90.00000000
_cell_angle_beta   90.00000000
_cell_angle_gamma   90.00000000
_symmetry_Int_Tables_number   1
_chemical_formula_structural   Cu6Ni2C5
_chemical_formula_sum   'Cu24 Ni8 C20'
_cell_volume   599.32462829
_cell_formula_units_Z   4
loop_
 _symmetry_equiv_pos_site_id
 _symmetry_equiv_pos_as_xyz
  1  'x, y, z'
loop_
 _atom_site_type_symbol
 _atom_site_label
 _atom_site_symmetry_multiplicity
 _atom_site_fract_x
 _atom_site_fract_y
 _atom_site_fract_z
 _atom_site_occupancy
  C  C0  1  0.34895700  0.05173300  0.17876500  1
  C  C1  1  0.15114700  0.31265300  0.41355700  1
  C  C2  1  0.15104300  0.05173300  0.17876500  1
  C  C3  1  0.34895700  0.44826700  0.67876500  1
  C  C4  1  0.84885300  0.68734700  0.58644300  1
  C  C5  1  0.84895700  0.55173300  0.32123500  1
  C  C6  1  0.65104300  0.55173300  0.32123500  1
  C  C7  1  0.84895700  0.94826700  0.82123500  1
  C  C8  1  0.65114700  0.81265300  0.08644300  1
  C  C9  1  0.15104300  0.44826700  0.67876500  1
  C  C10  1  0.15114700  0.18734700  0.91355700  1
  C  C11  1  0.34885300  0.18734700  0.91355700  1
  C  C12  1  0.65104300  0.94826700  0.82123500  1
  C  C13  1  0.34885300  0.31265300  0.41355700  1
  C  C14  1  0.84885300  0.81265300  0.08644300  1
  C  C15  1  0.65114700  0.68734700  0.58644300  1
  C  C16  1  0.25000000  0.47786100  0.10489900  1
  C  C17  1  0.75000000  0.52213900  0.89510100  1
  C  C18  1  0.75000000  0.97786100  0.39510100  1
  C  C19  1  0.25000000  0.02213900  0.60489900  1
  Ni  Ni20  1  0.65085800  0.26019600  0.64309300  1
  Ni  Ni21  1  0.84914200  0.23980400  0.14309300  1
  Ni  Ni22  1  0.65085800  0.23980400  0.14309300  1
  Ni  Ni23  1  0.15085800  0.76019600  0.85690700  1
  Ni  Ni24  1  0.34914200  0.73980400  0.35690700  1
  Ni  Ni25  1  0.34914200  0.76019600  0.85690700  1
  Ni  Ni26  1  0.15085800  0.73980400  0.35690700  1
  Ni  Ni27  1  0.84914200  0.26019600  0.64309300  1
  Cu  Cu28  1  0.57565400  0.15917200  0.56153600  1
  Cu  Cu29  1  0.75000000  0.76775600  0.13660900  1
  Cu  Cu30  1  0.25000000  0.26775600  0.36339100  1
  Cu  Cu31  1  0.57589500  0.36286100  0.72305700  1
  Cu  Cu32  1  0.75000000  0.73224400  0.63660900  1
  Cu  Cu33  1  0.07589500  0.63713900  0.27694300  1
  Cu  Cu34  1  0.75000000  0.50067100  0.36767900  1
  Cu  Cu35  1  0.25000000  0.49932900  0.63232100  1
  Cu  Cu36  1  0.57565400  0.34082800  0.06153600  1
  Cu  Cu37  1  0.75000000  0.99932900  0.86767900  1
  Cu  Cu38  1  0.57589500  0.13713900  0.22305700  1
  Cu  Cu39  1  0.07565400  0.84082800  0.43846400  1
  Cu  Cu40  1  0.42410500  0.86286100  0.77694300  1
  Cu  Cu41  1  0.07589500  0.86286100  0.77694300  1
  Cu  Cu42  1  0.92434600  0.34082800  0.06153600  1
  Cu  Cu43  1  0.25000000  0.23224400  0.86339100  1
  Cu  Cu44  1  0.42410500  0.63713900  0.27694300  1
  Cu  Cu45  1  0.07565400  0.65917200  0.93846400  1
  Cu  Cu46  1  0.42434600  0.65917200  0.93846400  1
  Cu  Cu47  1  0.25000000  0.00067100  0.13232100  1
  Cu  Cu48  1  0.92410500  0.36286100  0.72305700  1
  Cu  Cu49  1  0.92410500  0.13713900  0.22305700  1
  Cu  Cu50  1  0.42434600  0.84082800  0.43846400  1
  Cu  Cu51  1  0.92434600  0.15917200  0.56153600  1
