# generated using pymatgen
data_CuNiC18
_symmetry_space_group_name_H-M   'P 1'
_cell_length_a   10.10342246
_cell_length_b   10.10342246
_cell_length_c   10.10342246
_cell_angle_alpha   132.09728127
_cell_angle_beta   132.09728127
_cell_angle_gamma   70.07542503
_symmetry_Int_Tables_number   1
_chemical_formula_structural   CuNiC18
_chemical_formula_sum   'Cu2 Ni2 C36'
_cell_volume   556.67058678
_cell_formula_units_Z   2
loop_
 _symmetry_equiv_pos_site_id
 _symmetry_equiv_pos_as_xyz
  1  'x, y, z'
loop_
 _atom_site_type_symbol
 _atom_site_label
 _atom_site_symmetry_multiplicity
 _atom_site_fract_x
 _atom_site_fract_y
 _atom_site_fract_z
 _atom_site_occupancy
  C  C0  1  0.37500000  0.88076000  0.00576000  1
  C  C1  1  0.87500000  0.88076000  0.50576000  1
  C  C2  1  0.87500000  0.36924000  0.99424000  1
  C  C3  1  0.37500000  0.36924000  0.49424000  1
  C  C4  1  0.11924000  0.62500000  0.99424000  1
  C  C5  1  0.63076000  0.62500000  0.50576000  1
  C  C6  1  0.11924000  0.12500000  0.49424000  1
  C  C7  1  0.63076000  0.12500000  0.00576000  1
  C  C8  1  0.25105900  0.25105900  0.00000000  1
  C  C9  1  0.74894100  0.74894100  0.00000000  1
  C  C10  1  0.49894100  0.99894100  0.50000000  1
  C  C11  1  0.00105900  0.50105900  0.50000000  1
  Ni  Ni12  1  0.25000000  0.75000000  0.50000000  1
  Ni  Ni13  1  0.50000000  0.50000000  0.00000000  1
  Cu  Cu14  1  0.75000000  0.25000000  0.50000000  1
  Cu  Cu15  1  0.00000000  0.00000000  0.00000000  1
  C  C16  1  0.61594900  0.11594900  0.50000000  1
  C  C17  1  0.13405100  0.13405100  0.00000000  1
  C  C18  1  0.01520900  0.25526700  0.75994200  1
  C  C19  1  0.49532400  0.25526700  0.24005800  1
  C  C20  1  0.74473300  0.50467600  0.75994200  1
  C  C21  1  0.25337400  0.50477700  0.25140300  1
  C  C22  1  0.49662600  0.74522300  0.24859700  1
  C  C23  1  0.00526700  0.74532400  0.74005800  1
  C  C24  1  0.61963600  0.61963600  0.00000000  1
  C  C25  1  0.13036400  0.63036400  0.50000000  1
  C  C26  1  0.36963600  0.86963600  0.50000000  1
  C  C27  1  0.86594900  0.86594900  0.00000000  1
  C  C28  1  0.99802800  0.74662600  0.25140300  1
  C  C29  1  0.25467600  0.99473300  0.25994200  1
  C  C30  1  0.49522300  0.74662600  0.74859700  1
  C  C31  1  0.73479100  0.99473300  0.74005800  1
  C  C32  1  0.74473300  0.98479100  0.24005800  1
  C  C33  1  0.25337400  0.00197200  0.74859700  1
  C  C34  1  0.49662600  0.24802800  0.75140300  1
  C  C35  1  0.00526700  0.26520900  0.25994200  1
  C  C36  1  0.38036400  0.38036400  0.00000000  1
  C  C37  1  0.88405100  0.38405100  0.50000000  1
  C  C38  1  0.25477700  0.50337400  0.75140300  1
  C  C39  1  0.75197200  0.50337400  0.24859700  1
