# generated using pymatgen
data_CuNiC8
_symmetry_space_group_name_H-M   'P 1'
_cell_length_a   10.93049170
_cell_length_b   10.93049170
_cell_length_c   10.93049170
_cell_angle_alpha   109.06183599
_cell_angle_beta   109.06183599
_cell_angle_gamma   110.29312953
_symmetry_Int_Tables_number   1
_chemical_formula_structural   CuNiC8
_chemical_formula_sum   'Cu8 Ni8 C64'
_cell_volume   1005.14811640
_cell_formula_units_Z   8
loop_
 _symmetry_equiv_pos_site_id
 _symmetry_equiv_pos_as_xyz
  1  'x, y, z'
loop_
 _atom_site_type_symbol
 _atom_site_label
 _atom_site_symmetry_multiplicity
 _atom_site_fract_x
 _atom_site_fract_y
 _atom_site_fract_z
 _atom_site_occupancy
  C  C0  1  0.75000000  0.75000000  0.00000000  1
  C  C1  1  0.87500000  0.24955800  0.87455800  1
  C  C2  1  0.49955800  0.12500000  0.87455800  1
  C  C3  1  0.25000000  0.25000000  0.00000000  1
  C  C4  1  0.87500000  0.74955800  0.37455800  1
  C  C5  1  0.25044200  0.62500000  0.12544200  1
  C  C6  1  0.99955800  0.12500000  0.37455800  1
  C  C7  1  0.00000000  0.50000000  0.50000000  1
  C  C8  1  0.37500000  0.00044200  0.12544200  1
  C  C9  1  0.75044200  0.62500000  0.62544200  1
  C  C10  1  0.37500000  0.50044200  0.62544200  1
  C  C11  1  0.50000000  0.00000000  0.50000000  1
  Ni  Ni12  1  0.00066200  0.62500000  0.87566200  1
  Ni  Ni13  1  0.37500000  0.75066200  0.87566200  1
  Ni  Ni14  1  0.87500000  0.49933800  0.12433800  1
  Ni  Ni15  1  0.74933800  0.12500000  0.12433800  1
  Ni  Ni16  1  0.50066200  0.62500000  0.37566200  1
  Ni  Ni17  1  0.37500000  0.25066200  0.37566200  1
  Ni  Ni18  1  0.87500000  0.99933800  0.62433800  1
  Ni  Ni19  1  0.24933800  0.12500000  0.62433800  1
  C  C20  1  0.00000000  0.00000000  0.00000000  1
  C  C21  1  0.50000000  0.50000000  0.00000000  1
  C  C22  1  0.25000000  0.75000000  0.50000000  1
  C  C23  1  0.75000000  0.25000000  0.50000000  1
  Cu  Cu24  1  0.12500000  0.37500000  0.75000000  1
  Cu  Cu25  1  0.62500000  0.87500000  0.25000000  1
  Cu  Cu26  1  0.12500000  0.87500000  0.75000000  1
  Cu  Cu27  1  0.62500000  0.37500000  0.25000000  1
  Cu  Cu28  1  0.12500000  0.37500000  0.25000000  1
  Cu  Cu29  1  0.12500000  0.87500000  0.25000000  1
  Cu  Cu30  1  0.62500000  0.87500000  0.75000000  1
  Cu  Cu31  1  0.62500000  0.37500000  0.75000000  1
  C  C32  1  0.82598400  0.87112100  0.86170900  1
  C  C33  1  0.02948700  0.19446300  0.77789900  1
  C  C34  1  0.04640100  0.47466800  0.87499400  1
  C  C35  1  0.80553700  0.58343600  0.83502400  1
  C  C36  1  0.52948700  0.75158800  0.83502400  1
  C  C37  1  0.53572500  0.49058800  0.86170900  1
  C  C38  1  0.72466800  0.34967400  0.92826800  1
  C  C39  1  0.91656400  0.69446300  0.16497600  1
  C  C40  1  0.02533200  0.45359900  0.12500600  1
  C  C41  1  0.03572500  0.17401600  0.04513700  1
  C  C42  1  0.42140600  0.79640100  0.07173200  1
  C  C43  1  0.24841200  0.08343600  0.77789900  1
  C  C44  1  0.70359900  0.07859400  0.92826800  1
  C  C45  1  0.32598400  0.46427500  0.95486300  1
  C  C46  1  0.62887900  0.67401600  0.13829100  1
  C  C47  1  0.50941200  0.37112100  0.04513700  1
  C  C48  1  0.15032600  0.77533200  0.07173200  1
  C  C49  1  0.32859400  0.90032600  0.87499400  1
  C  C50  1  0.00941200  0.96427500  0.13829100  1
  C  C51  1  0.83343600  0.49841200  0.27789900  1
  C  C52  1  0.94446300  0.27948700  0.27789900  1
  C  C53  1  0.59967400  0.17140600  0.12500600  1
  C  C54  1  0.50158800  0.77948700  0.33502400  1
  C  C55  1  0.12887900  0.99058800  0.95486300  1
  C  C56  1  0.12112100  0.75941200  0.54513700  1
  C  C57  1  0.74841200  0.97051300  0.16497600  1
  C  C58  1  0.65032600  0.57859400  0.37499400  1
  C  C59  1  0.30553700  0.47051300  0.22210100  1
  C  C60  1  0.41656400  0.25158800  0.22210100  1
  C  C61  1  0.24058800  0.78572500  0.36170900  1
  C  C62  1  0.92140600  0.84967400  0.62500600  1
  C  C63  1  0.09967400  0.97466800  0.42826800  1
  C  C64  1  0.74058800  0.37887900  0.45486300  1
  C  C65  1  0.62112100  0.07598400  0.36170900  1
  C  C66  1  0.92401600  0.28572500  0.54513700  1
  C  C67  1  0.54640100  0.67140600  0.57173200  1
  C  C68  1  0.00158800  0.66656400  0.72210100  1
  C  C69  1  0.82859400  0.95359900  0.42826800  1
  C  C70  1  0.22466800  0.29640100  0.37499400  1
  C  C71  1  0.21427500  0.57598400  0.45486300  1
  C  C72  1  0.33343600  0.05553700  0.33502400  1
  C  C73  1  0.52533200  0.40032600  0.57173200  1
  C  C74  1  0.71427500  0.25941200  0.63829100  1
  C  C75  1  0.72051300  0.99841200  0.66497600  1
  C  C76  1  0.44446300  0.16656400  0.66497600  1
  C  C77  1  0.20359900  0.27533200  0.62500600  1
  C  C78  1  0.22051300  0.55553700  0.72210100  1
  C  C79  1  0.42401600  0.87887900  0.63829100  1
