# generated using pymatgen
data_Cu(NiC13)2
_symmetry_space_group_name_H-M   'P 1'
_cell_length_a   11.90796458
_cell_length_b   11.90796458
_cell_length_c   19.58686600
_cell_angle_alpha   90.00000000
_cell_angle_beta   90.00000000
_cell_angle_gamma   120.00000322
_symmetry_Int_Tables_number   1
_chemical_formula_structural   Cu(NiC13)2
_chemical_formula_sum   'Cu6 Ni12 C156'
_cell_volume   2405.30768073
_cell_formula_units_Z   6
loop_
 _symmetry_equiv_pos_site_id
 _symmetry_equiv_pos_as_xyz
  1  'x, y, z'
loop_
 _atom_site_type_symbol
 _atom_site_label
 _atom_site_symmetry_multiplicity
 _atom_site_fract_x
 _atom_site_fract_y
 _atom_site_fract_z
 _atom_site_occupancy
  Ni  Ni0  1  0.66267900  0.99829800  0.53934900  1
  Ni  Ni1  1  0.00170200  0.66438200  0.53934900  1
  Ni  Ni2  1  0.99829800  0.33561800  0.46065100  1
  Ni  Ni3  1  0.66438200  0.66267900  0.46065100  1
  Ni  Ni4  1  0.33561800  0.99829800  0.03934900  1
  Ni  Ni5  1  0.00170200  0.33732100  0.03934900  1
  Ni  Ni6  1  0.33732100  0.33561800  0.96065100  1
  Ni  Ni7  1  0.66267900  0.66438200  0.03934900  1
  Ni  Ni8  1  0.66438200  0.00170200  0.96065100  1
  Ni  Ni9  1  0.33561800  0.33732100  0.53934900  1
  Ni  Ni10  1  0.33732100  0.00170200  0.46065100  1
  Ni  Ni11  1  0.99829800  0.66267900  0.96065100  1
  Cu  Cu12  1  0.33513400  0.00000000  0.25000000  1
  Cu  Cu13  1  0.66486600  0.00000000  0.75000000  1
  Cu  Cu14  1  0.66486600  0.66486600  0.25000000  1
  Cu  Cu15  1  0.33513400  0.33513400  0.75000000  1
  Cu  Cu16  1  0.00000000  0.33513400  0.25000000  1
  Cu  Cu17  1  0.00000000  0.66486600  0.75000000  1
  C  C18  1  0.14481700  0.66155200  0.14924100  1
  C  C19  1  0.33844800  0.85518300  0.64924100  1
  C  C20  1  0.66155200  0.51673500  0.85075900  1
  C  C21  1  0.15484900  0.66641900  0.39126400  1
  C  C22  1  0.17780700  0.00360500  0.87267500  1
  C  C23  1  0.00360500  0.82579800  0.12732500  1
  C  C24  1  0.17420200  0.17780700  0.12732500  1
  C  C25  1  0.00360500  0.17780700  0.62732500  1
  C  C26  1  0.17780700  0.17420200  0.37267500  1
  C  C27  1  0.33333300  0.66666700  0.02223100  1
  C  C28  1  0.84515100  0.33358100  0.60873600  1
  C  C29  1  0.33358100  0.48843000  0.39126400  1
  C  C30  1  0.66641900  0.51157000  0.60873600  1
  C  C31  1  0.66641900  0.15484900  0.10873600  1
  C  C32  1  0.48843000  0.33358100  0.10873600  1
  C  C33  1  0.99639500  0.82219300  0.37267500  1
  C  C34  1  0.66666700  0.33333300  0.72794500  1
  C  C35  1  0.82219300  0.82579800  0.62732500  1
  C  C36  1  0.17420200  0.99639500  0.62732500  1
  C  C37  1  0.33844800  0.48326500  0.14924100  1
  C  C38  1  0.33333300  0.66666700  0.52223100  1
  C  C39  1  0.33358100  0.84515100  0.89126400  1
  C  C40  1  0.48326500  0.14481700  0.85075900  1
  C  C41  1  0.51673500  0.85518300  0.14924100  1
  C  C42  1  0.00000000  0.00000000  0.25000000  1
  C  C43  1  0.48326500  0.33844800  0.35075900  1
  C  C44  1  0.14481700  0.48326500  0.64924100  1
  C  C45  1  0.33333300  0.66666700  0.27205500  1
  C  C46  1  0.82579800  0.82219300  0.87267500  1
  C  C47  1  0.82219300  0.99639500  0.12732500  1
  C  C48  1  0.15484900  0.48843000  0.89126400  1
  C  C49  1  0.66666700  0.33333300  0.47776900  1
  C  C50  1  0.48843000  0.15484900  0.60873600  1
  C  C51  1  0.00000000  0.00000000  0.00000000  1
  C  C52  1  0.00000000  0.00000000  0.50000000  1
  C  C53  1  0.85518300  0.33844800  0.85075900  1
  C  C54  1  0.66666700  0.33333300  0.22794500  1
  C  C55  1  0.84515100  0.51157000  0.10873600  1
  C  C56  1  0.33333300  0.66666700  0.77205500  1
  C  C57  1  0.66666700  0.33333300  0.97776900  1
  C  C58  1  0.51157000  0.84515100  0.39126400  1
  C  C59  1  0.00000000  0.00000000  0.75000000  1
  C  C60  1  0.51157000  0.66641900  0.89126400  1
  C  C61  1  0.82579800  0.00360500  0.37267500  1
  C  C62  1  0.51673500  0.66155200  0.64924100  1
  C  C63  1  0.85518300  0.51673500  0.35075900  1
  C  C64  1  0.99639500  0.17420200  0.87267500  1
  C  C65  1  0.66155200  0.14481700  0.35075900  1
  C  C66  1  0.15152500  0.06764000  0.44142100  1
  C  C67  1  0.99117800  0.51561500  0.13591400  1
  C  C68  1  0.12067600  0.32548400  0.67251300  1
  C  C69  1  0.78296700  0.10723700  0.08452900  1
  C  C70  1  0.58960300  0.40664800  0.78259000  1
  C  C71  1  0.39509400  0.81882200  0.96725500  1
  C  C72  1  0.48438500  0.47556300  0.13591400  1
  C  C73  1  0.75695700  0.27352500  0.17091000  1
  C  C74  1  0.67573000  0.89276300  0.41547100  1
  C  C75  1  0.15152500  0.08388600  0.94142100  1
  C  C76  1  0.08388600  0.15152500  0.55857900  1
  C  C77  1  0.48438500  0.00882200  0.63591400  1
  C  C78  1  0.79519200  0.67451600  0.82748700  1
  C  C79  1  0.06764000  0.91611400  0.55857900  1
  C  C80  1  0.06764000  0.15152500  0.05857900  1
  C  C81  1  0.18117800  0.60490600  0.46725500  1
  C  C82  1  0.81704500  0.41039700  0.78259000  1
  C  C83  1  0.51328300  0.24078900  0.92363800  1
  C  C84  1  0.12067600  0.79519200  0.17251300  1
  C  C85  1  0.27352500  0.75695700  0.32909000  1
  C  C86  1  0.51328300  0.27249400  0.42363800  1
  C  C87  1  0.93676400  0.84888800  0.69193800  1
  C  C88  1  0.18295500  0.59335200  0.71741000  1
  C  C89  1  0.79519200  0.12067600  0.32748700  1
  C  C90  1  0.93676400  0.08787600  0.19193800  1
  C  C91  1  0.32548400  0.20480800  0.32748700  1
  C  C92  1  0.81882200  0.42372800  0.03274500  1
  C  C93  1  0.57627200  0.18117800  0.53274500  1
  C  C94  1  0.24078900  0.51328300  0.57636200  1
  C  C95  1  0.21703300  0.32427000  0.41547100  1
  C  C96  1  0.75695700  0.48343100  0.67091000  1
  C  C97  1  0.57627200  0.39509400  0.03274500  1
  C  C98  1  0.51561500  0.52443700  0.86408600  1
  C  C99  1  0.32427000  0.21703300  0.08452900  1
  C  C100  1  0.15111200  0.08787600  0.69193800  1
  C  C101  1  0.72750600  0.48671700  0.92363800  1
  C  C102  1  0.41039700  0.81704500  0.71741000  1
  C  C103  1  0.72750600  0.24078900  0.42363800  1
  C  C104  1  0.67573000  0.78296700  0.91547100  1
  C  C105  1  0.15111200  0.06323600  0.19193800  1
  C  C106  1  0.47556300  0.99117800  0.86408600  1
  C  C107  1  0.87932400  0.20480800  0.82748700  1
  C  C108  1  0.08388600  0.93236000  0.05857900  1
  C  C109  1  0.48343100  0.72647500  0.32909000  1
  C  C110  1  0.81704500  0.40664800  0.28259000  1
  C  C111  1  0.84847500  0.93236000  0.55857900  1
  C  C112  1  0.40664800  0.58960300  0.71741000  1
  C  C113  1  0.93236000  0.84847500  0.94142100  1
  C  C114  1  0.59335200  0.41039700  0.28259000  1
  C  C115  1  0.60490600  0.18117800  0.03274500  1
  C  C116  1  0.72647500  0.48343100  0.17091000  1
  C  C117  1  0.24304300  0.72647500  0.82909000  1
  C  C118  1  0.24304300  0.51656900  0.32909000  1
  C  C119  1  0.59335200  0.18295500  0.78259000  1
  C  C120  1  0.20480800  0.87932400  0.67251300  1
  C  C121  1  0.52443700  0.51561500  0.63591400  1
  C  C122  1  0.40664800  0.81704500  0.21741000  1
  C  C123  1  0.27249400  0.75921100  0.57636200  1
  C  C124  1  0.67451600  0.79519200  0.67251300  1
  C  C125  1  0.20480800  0.32548400  0.17251300  1
  C  C126  1  0.99117800  0.47556300  0.63591400  1
  C  C127  1  0.81882200  0.39509400  0.53274500  1
  C  C128  1  0.75921100  0.27249400  0.92363800  1
  C  C129  1  0.32427000  0.10723700  0.58452900  1
  C  C130  1  0.84888800  0.91212400  0.30806200  1
  C  C131  1  0.60490600  0.42372800  0.53274500  1
  C  C132  1  0.93236000  0.08388600  0.44142100  1
  C  C133  1  0.89276300  0.67573000  0.08452900  1
  C  C134  1  0.08787600  0.15111200  0.80806200  1
  C  C135  1  0.51656900  0.27352500  0.67091000  1
  C  C136  1  0.00882200  0.48438500  0.86408600  1
  C  C137  1  0.18117800  0.57627200  0.96725500  1
  C  C138  1  0.08787600  0.93676400  0.30806200  1
  C  C139  1  0.47556300  0.48438500  0.36408600  1
  C  C140  1  0.06323600  0.91212400  0.80806200  1
  C  C141  1  0.32548400  0.12067600  0.82748700  1
  C  C142  1  0.91611400  0.84847500  0.44142100  1
  C  C143  1  0.91212400  0.06323600  0.69193800  1
  C  C144  1  0.84847500  0.91611400  0.05857900  1
  C  C145  1  0.42372800  0.60490600  0.96725500  1
  C  C146  1  0.51561500  0.99117800  0.36408600  1
  C  C147  1  0.91212400  0.84888800  0.19193800  1
  C  C148  1  0.21703300  0.89276300  0.91547100  1
  C  C149  1  0.27249400  0.51328300  0.07636200  1
  C  C150  1  0.58960300  0.18295500  0.28259000  1
  C  C151  1  0.10723700  0.78296700  0.41547100  1
  C  C152  1  0.41039700  0.59335200  0.21741000  1
  C  C153  1  0.06323600  0.15111200  0.30806200  1
  C  C154  1  0.48343100  0.75695700  0.82909000  1
  C  C155  1  0.42372800  0.81882200  0.46725500  1
  C  C156  1  0.48671700  0.75921100  0.07636200  1
  C  C157  1  0.51656900  0.24304300  0.17091000  1
  C  C158  1  0.89276300  0.21703300  0.58452900  1
  C  C159  1  0.72647500  0.24304300  0.67091000  1
  C  C160  1  0.87932400  0.67451600  0.32748700  1
  C  C161  1  0.91611400  0.06764000  0.94142100  1
  C  C162  1  0.39509400  0.57627200  0.46725500  1
  C  C163  1  0.78296700  0.67573000  0.58452900  1
  C  C164  1  0.27352500  0.51656900  0.82909000  1
  C  C165  1  0.24078900  0.72750600  0.07636200  1
  C  C166  1  0.67451600  0.87932400  0.17251300  1
  C  C167  1  0.75921100  0.48671700  0.42363800  1
  C  C168  1  0.10723700  0.32427000  0.91547100  1
  C  C169  1  0.84888800  0.93676400  0.80806200  1
  C  C170  1  0.52443700  0.00882200  0.13591400  1
  C  C171  1  0.00882200  0.52443700  0.36408600  1
  C  C172  1  0.18295500  0.58960300  0.21741000  1
  C  C173  1  0.48671700  0.72750600  0.57636200  1
