# generated using pymatgen
data_CuNi2C7
_symmetry_space_group_name_H-M   'P 1'
_cell_length_a   6.06618386
_cell_length_b   6.06618386
_cell_length_c   6.06618386
_cell_angle_alpha   120.27453788
_cell_angle_beta   120.27453788
_cell_angle_gamma   89.52514056
_symmetry_Int_Tables_number   1
_chemical_formula_structural   CuNi2C7
_chemical_formula_sum   'Cu1 Ni2 C7'
_cell_volume   157.18446771
_cell_formula_units_Z   1
loop_
 _symmetry_equiv_pos_site_id
 _symmetry_equiv_pos_as_xyz
  1  'x, y, z'
loop_
 _atom_site_type_symbol
 _atom_site_label
 _atom_site_symmetry_multiplicity
 _atom_site_fract_x
 _atom_site_fract_y
 _atom_site_fract_z
 _atom_site_occupancy
  Ni  Ni0  1  0.25000000  0.75000000  0.50000000  1
  Ni  Ni1  1  0.75000000  0.25000000  0.50000000  1
  Cu  Cu2  1  0.00000000  0.00000000  0.00000000  1
  C  C3  1  0.50000000  0.50000000  0.00000000  1
  C  C4  1  0.70287800  0.76825100  0.47112800  1
  C  C5  1  0.76825100  0.29712200  0.06537300  1
  C  C6  1  0.23174900  0.70287800  0.93462700  1
  C  C7  1  0.29712200  0.23174900  0.52887200  1
  C  C8  1  0.26392300  0.26392300  0.00000000  1
  C  C9  1  0.73607700  0.73607700  0.00000000  1
