# generated using pymatgen
data_Cu4Ni3C4
_symmetry_space_group_name_H-M   'P 1'
_cell_length_a   12.39284100
_cell_length_b   8.47781900
_cell_length_c   14.19902593
_cell_angle_alpha   57.24626501
_cell_angle_beta   90.00000000
_cell_angle_gamma   90.00000000
_symmetry_Int_Tables_number   1
_chemical_formula_structural   Cu4Ni3C4
_chemical_formula_sum   'Cu32 Ni24 C32'
_cell_volume   1254.61796110
_cell_formula_units_Z   8
loop_
 _symmetry_equiv_pos_site_id
 _symmetry_equiv_pos_as_xyz
  1  'x, y, z'
loop_
 _atom_site_type_symbol
 _atom_site_label
 _atom_site_symmetry_multiplicity
 _atom_site_fract_x
 _atom_site_fract_y
 _atom_site_fract_z
 _atom_site_occupancy
  C  C0  1  0.96238400  0.70753700  0.83133700  1
  C  C1  1  0.46238400  0.29246300  0.66866300  1
  C  C2  1  0.03761600  0.29246300  0.16866300  1
  C  C3  1  0.53761600  0.70753700  0.33133700  1
  C  C4  1  0.95398000  0.91765700  0.83203900  1
  C  C5  1  0.45398000  0.08234300  0.66796100  1
  C  C6  1  0.04602000  0.08234300  0.16796100  1
  C  C7  1  0.54602000  0.91765700  0.33203900  1
  C  C8  1  0.87822800  0.09680400  0.94890700  1
  C  C9  1  0.37822800  0.90319600  0.55109300  1
  C  C10  1  0.12177200  0.90319600  0.05109300  1
  C  C11  1  0.62177200  0.09680400  0.44890700  1
  C  C12  1  0.88859300  0.31067500  0.94451300  1
  C  C13  1  0.38859300  0.68932500  0.55548700  1
  C  C14  1  0.11140700  0.68932500  0.05548700  1
  C  C15  1  0.61140700  0.31067500  0.44451300  1
  Ni  Ni16  1  0.86700900  0.69256300  0.95203200  1
  Ni  Ni17  1  0.36700900  0.30743700  0.54796800  1
  Ni  Ni18  1  0.13299100  0.30743700  0.04796800  1
  Ni  Ni19  1  0.63299100  0.69256300  0.45203200  1
  Ni  Ni20  1  0.77790600  0.43137000  0.08208400  1
  Ni  Ni21  1  0.27790600  0.56863000  0.41791600  1
  Ni  Ni22  1  0.22209400  0.56863000  0.91791600  1
  Ni  Ni23  1  0.72209400  0.43137000  0.58208400  1
  Ni  Ni24  1  0.76331200  0.68976000  0.08356600  1
  Ni  Ni25  1  0.26331200  0.31024000  0.41643400  1
  Ni  Ni26  1  0.23668800  0.31024000  0.91643400  1
  Ni  Ni27  1  0.73668800  0.68976000  0.58356600  1
  Ni  Ni28  1  0.96727400  0.30546200  0.82072700  1
  Ni  Ni29  1  0.46727400  0.69453800  0.67927300  1
  Ni  Ni30  1  0.03272600  0.69453800  0.17927300  1
  Ni  Ni31  1  0.53272600  0.30546200  0.32072700  1
  Ni  Ni32  1  0.05824500  0.55282200  0.68072500  1
  Ni  Ni33  1  0.55824500  0.44717800  0.81927500  1
  Ni  Ni34  1  0.94175500  0.44717800  0.31927500  1
  Ni  Ni35  1  0.44175500  0.55282200  0.18072500  1
  Ni  Ni36  1  0.04304000  0.29381100  0.68011000  1
  Ni  Ni37  1  0.54304000  0.70618900  0.81989000  1
  Ni  Ni38  1  0.95696000  0.70618900  0.31989000  1
  Ni  Ni39  1  0.45696000  0.29381100  0.18011000  1
  Cu  Cu40  1  0.82843400  0.78914200  0.99685700  1
  Cu  Cu41  1  0.32843400  0.21085800  0.50314300  1
  Cu  Cu42  1  0.17156600  0.21085800  0.00314300  1
  Cu  Cu43  1  0.67156600  0.78914200  0.49685700  1
  Cu  Cu44  1  0.84389700  0.50821500  0.99485700  1
  Cu  Cu45  1  0.34389700  0.49178500  0.50514300  1
  Cu  Cu46  1  0.15610300  0.49178500  0.00514300  1
  Cu  Cu47  1  0.65610300  0.50821500  0.49485700  1
  Cu  Cu48  1  0.73236400  0.51157000  0.13130600  1
  Cu  Cu49  1  0.23236400  0.48843000  0.36869400  1
  Cu  Cu50  1  0.26763600  0.48843000  0.86869400  1
  Cu  Cu51  1  0.76763600  0.51157000  0.63130600  1
  Cu  Cu52  1  0.98880600  0.20191900  0.77560700  1
  Cu  Cu53  1  0.48880600  0.79808100  0.72439300  1
  Cu  Cu54  1  0.01119400  0.79808100  0.22439300  1
  Cu  Cu55  1  0.51119400  0.20191900  0.27560700  1
  Cu  Cu56  1  0.00448000  0.48435200  0.77568100  1
  Cu  Cu57  1  0.50448000  0.51564800  0.72431900  1
  Cu  Cu58  1  0.99552000  0.51564800  0.22431900  1
  Cu  Cu59  1  0.49552000  0.48435200  0.27568100  1
  Cu  Cu60  1  0.08036300  0.46927800  0.62568900  1
  Cu  Cu61  1  0.58036300  0.53072200  0.87431100  1
  Cu  Cu62  1  0.91963700  0.53072200  0.37431100  1
  Cu  Cu63  1  0.41963700  0.46927800  0.12568900  1
  Cu  Cu64  1  0.93090500  0.78173300  0.86248900  1
  Cu  Cu65  1  0.43090500  0.21826700  0.63751100  1
  Cu  Cu66  1  0.06909500  0.21826700  0.13751100  1
  Cu  Cu67  1  0.56909500  0.78173300  0.36248900  1
  Cu  Cu68  1  0.90881300  0.22926400  0.91411300  1
  Cu  Cu69  1  0.40881300  0.77073600  0.58588700  1
  Cu  Cu70  1  0.09118700  0.77073600  0.08588700  1
  Cu  Cu71  1  0.59118700  0.22926400  0.41411300  1
  C  C72  1  0.74880300  0.19753000  0.14147800  1
  C  C73  1  0.24880300  0.80247000  0.35852200  1
  C  C74  1  0.25119700  0.80247000  0.85852200  1
  C  C75  1  0.75119700  0.19753000  0.64147800  1
  C  C76  1  0.71151200  0.80383400  0.14433700  1
  C  C77  1  0.21151200  0.19616600  0.35566300  1
  C  C78  1  0.28848800  0.19616600  0.85566300  1
  C  C79  1  0.78848800  0.80383400  0.64433700  1
  C  C80  1  0.10701600  0.77840600  0.61877400  1
  C  C81  1  0.60701600  0.22159400  0.88122600  1
  C  C82  1  0.89298400  0.22159400  0.38122600  1
  C  C83  1  0.39298400  0.77840600  0.11877400  1
  C  C84  1  0.06932000  0.16997300  0.61833200  1
  C  C85  1  0.56932000  0.83002700  0.88166800  1
  C  C86  1  0.93068000  0.83002700  0.38166800  1
  C  C87  1  0.43068000  0.16997300  0.11833200  1
