# generated using pymatgen
data_Cu4NiC44
_symmetry_space_group_name_H-M   'P 1'
_cell_length_a   7.56758400
_cell_length_b   9.75495604
_cell_length_c   9.76121517
_cell_angle_alpha   62.96598273
_cell_angle_beta   85.89257298
_cell_angle_gamma   84.77140006
_symmetry_Int_Tables_number   1
_chemical_formula_structural   Cu4NiC44
_chemical_formula_sum   'Cu4 Ni1 C44'
_cell_volume   638.81197262
_cell_formula_units_Z   1
loop_
 _symmetry_equiv_pos_site_id
 _symmetry_equiv_pos_as_xyz
  1  'x, y, z'
loop_
 _atom_site_type_symbol
 _atom_site_label
 _atom_site_symmetry_multiplicity
 _atom_site_fract_x
 _atom_site_fract_y
 _atom_site_fract_z
 _atom_site_occupancy
  Ni  Ni0  1  0.00000000  0.00000000  0.00000000  1
  Cu  Cu1  1  0.42665700  0.73469200  0.06434300  1
  Cu  Cu2  1  0.43590000  0.26556600  0.38478400  1
  Cu  Cu3  1  0.56410000  0.73443400  0.61521600  1
  Cu  Cu4  1  0.57334300  0.26530800  0.93565700  1
  C  C5  1  0.57481100  0.89318900  0.27038000  1
  C  C6  1  0.42518900  0.10681100  0.72962000  1
  C  C7  1  0.81624700  0.39832900  0.16410500  1
  C  C8  1  0.89652400  0.41059700  0.64714400  1
  C  C9  1  0.82834000  0.05500300  0.29369200  1
  C  C10  1  0.77351800  0.09842400  0.68730400  1
  C  C11  1  0.71449100  0.62276300  0.29968200  1
  C  C12  1  0.28550900  0.37723700  0.70031800  1
  C  C13  1  0.22648200  0.90157600  0.31269600  1
  C  C14  1  0.17166000  0.94499700  0.70630800  1
  C  C15  1  0.10347600  0.58940300  0.35285600  1
  C  C16  1  0.18375300  0.60167100  0.83589500  1
  C  C17  1  0.86014200  0.45781900  0.85546300  1
  C  C18  1  0.13985800  0.54218100  0.14453700  1
  C  C19  1  0.02077400  0.42766300  0.16206100  1
  C  C20  1  0.95391200  0.97608700  0.73221200  1
  C  C21  1  0.88610100  0.54905900  0.41908900  1
  C  C22  1  0.74077900  0.90061100  0.41950800  1
  C  C23  1  0.84683500  0.27113300  0.61107900  1
  C  C24  1  0.79184100  0.21986200  0.30054500  1
  C  C25  1  0.75595900  0.51916900  0.70471100  1
  C  C26  1  0.94703700  0.32081500  0.84039500  1
  C  C27  1  0.74693100  0.41842400  0.99858300  1
  C  C28  1  0.68042300  0.50348800  0.22761600  1
  C  C29  1  0.64939000  0.07425000  0.84323700  1
  C  C30  1  0.71347800  0.07622800  0.14583900  1
  C  C31  1  0.72059600  0.79725400  0.15659600  1
  C  C32  1  0.55779300  0.66592300  0.39978300  1
  C  C33  1  0.61939400  0.07242400  0.59547100  1
  C  C34  1  0.38060600  0.92757600  0.40452900  1
  C  C35  1  0.44220700  0.33407700  0.60021700  1
  C  C36  1  0.27940400  0.20274600  0.84340400  1
  C  C37  1  0.28652200  0.92377200  0.85416100  1
  C  C38  1  0.35061000  0.92575000  0.15676300  1
  C  C39  1  0.31957700  0.49651200  0.77238400  1
  C  C40  1  0.25306900  0.58157600  0.00141700  1
  C  C41  1  0.05296300  0.67918500  0.15960500  1
  C  C42  1  0.24404100  0.48083100  0.29528900  1
  C  C43  1  0.20815900  0.78013800  0.69945500  1
  C  C44  1  0.15316500  0.72886700  0.38892100  1
  C  C45  1  0.25922100  0.09938900  0.58049200  1
  C  C46  1  0.11389900  0.45094100  0.58091100  1
  C  C47  1  0.04608800  0.02391300  0.26778800  1
  C  C48  1  0.97922600  0.57233700  0.83793900  1
