# generated using pymatgen
data_CuNiC4
_symmetry_space_group_name_H-M   'P 1'
_cell_length_a   8.75528412
_cell_length_b   8.75528412
_cell_length_c   8.75528377
_cell_angle_alpha   108.62250501
_cell_angle_beta   108.62250501
_cell_angle_gamma   108.62249925
_symmetry_Int_Tables_number   1
_chemical_formula_structural   CuNiC4
_chemical_formula_sum   'Cu6 Ni6 C24'
_cell_volume   532.25633982
_cell_formula_units_Z   6
loop_
 _symmetry_equiv_pos_site_id
 _symmetry_equiv_pos_as_xyz
  1  'x, y, z'
loop_
 _atom_site_type_symbol
 _atom_site_label
 _atom_site_symmetry_multiplicity
 _atom_site_fract_x
 _atom_site_fract_y
 _atom_site_fract_z
 _atom_site_occupancy
  Ni  Ni0  1  0.47276500  0.24190000  0.05625700  1
  Ni  Ni1  1  0.24190000  0.05625700  0.47276500  1
  Ni  Ni2  1  0.05625700  0.47276500  0.24190000  1
  Ni  Ni3  1  0.76764800  0.96395500  0.54708800  1
  Ni  Ni4  1  0.54708800  0.76764800  0.96395500  1
  Ni  Ni5  1  0.96395500  0.54708800  0.76764800  1
  Cu  Cu6  1  0.71647600  0.11999200  0.90616400  1
  Cu  Cu7  1  0.20814700  0.42999100  0.60987600  1
  Cu  Cu8  1  0.42999100  0.60987600  0.20814700  1
  Cu  Cu9  1  0.60987600  0.20814700  0.42999100  1
  Cu  Cu10  1  0.11999200  0.90616400  0.71647600  1
  Cu  Cu11  1  0.90616400  0.71647600  0.11999200  1
  C  C12  1  0.29736900  0.61867900  0.28686600  1
  C  C13  1  0.70033200  0.08117300  0.40810700  1
  C  C14  1  0.40810700  0.70033200  0.08117300  1
  C  C15  1  0.41123500  0.09195500  0.38201900  1
  C  C16  1  0.65959800  0.00520600  0.70466800  1
  C  C17  1  0.00244000  0.91838900  0.26772800  1
  C  C18  1  0.61867900  0.28686600  0.29736900  1
  C  C19  1  0.36653300  0.62694500  0.71153100  1
  C  C20  1  0.00520600  0.70466800  0.65959800  1
  C  C21  1  0.62694500  0.71153100  0.36653300  1
  C  C22  1  0.21586200  0.91428700  0.59482300  1
  C  C23  1  0.91838900  0.26772800  0.00244000  1
  C  C24  1  0.00134600  0.00216100  0.69262400  1
  C  C25  1  0.91428700  0.59482300  0.21586200  1
  C  C26  1  0.70466800  0.65959800  0.00520600  1
  C  C27  1  0.00216100  0.69262400  0.00134600  1
  C  C28  1  0.09195500  0.38201900  0.41123500  1
  C  C29  1  0.59482300  0.21586200  0.91428700  1
  C  C30  1  0.28686600  0.29736900  0.61867900  1
  C  C31  1  0.08117300  0.40810700  0.70033200  1
  C  C32  1  0.26772800  0.00244000  0.91838900  1
  C  C33  1  0.69262400  0.00134600  0.00216100  1
  C  C34  1  0.38201900  0.41123500  0.09195500  1
  C  C35  1  0.71153100  0.36653300  0.62694500  1
