# generated using pymatgen
data_Cu(NiC)4
_symmetry_space_group_name_H-M   'P 1'
_cell_length_a   12.64147900
_cell_length_b   12.64147900
_cell_length_c   12.64147900
_cell_angle_alpha   90.00000000
_cell_angle_beta   90.00000000
_cell_angle_gamma   90.00000000
_symmetry_Int_Tables_number   1
_chemical_formula_structural   Cu(NiC)4
_chemical_formula_sum   'Cu8 Ni32 C32'
_cell_volume   2020.19672467
_cell_formula_units_Z   8
loop_
 _symmetry_equiv_pos_site_id
 _symmetry_equiv_pos_as_xyz
  1  'x, y, z'
loop_
 _atom_site_type_symbol
 _atom_site_label
 _atom_site_symmetry_multiplicity
 _atom_site_fract_x
 _atom_site_fract_y
 _atom_site_fract_z
 _atom_site_occupancy
  Ni  Ni0  1  0.76879300  0.02589700  0.43266800  1
  Ni  Ni1  1  0.52589700  0.43266800  0.73120700  1
  Ni  Ni2  1  0.23120700  0.97410300  0.56733200  1
  Ni  Ni3  1  0.22983900  0.72983900  0.77016100  1
  Ni  Ni4  1  0.56733200  0.26879300  0.47410300  1
  Ni  Ni5  1  0.76879300  0.47410300  0.93266800  1
  Ni  Ni6  1  0.22983900  0.77016100  0.27016100  1
  Ni  Ni7  1  0.43266800  0.76879300  0.02589700  1
  Ni  Ni8  1  0.93266800  0.76879300  0.47410300  1
  Ni  Ni9  1  0.47410300  0.56733200  0.26879300  1
  Ni  Ni10  1  0.26879300  0.02589700  0.06733200  1
  Ni  Ni11  1  0.93266800  0.73120700  0.97410300  1
  Ni  Ni12  1  0.77016100  0.27016100  0.22983900  1
  Ni  Ni13  1  0.02589700  0.43266800  0.76879300  1
  Ni  Ni14  1  0.56733200  0.23120700  0.97410300  1
  Ni  Ni15  1  0.26879300  0.47410300  0.56733200  1
  Ni  Ni16  1  0.73120700  0.52589700  0.43266800  1
  Ni  Ni17  1  0.72983900  0.72983900  0.72983900  1
  Ni  Ni18  1  0.23120700  0.52589700  0.06733200  1
  Ni  Ni19  1  0.02589700  0.06733200  0.26879300  1
  Ni  Ni20  1  0.52589700  0.06733200  0.23120700  1
  Ni  Ni21  1  0.97410300  0.93266800  0.73120700  1
  Ni  Ni22  1  0.27016100  0.22983900  0.77016100  1
  Ni  Ni23  1  0.43266800  0.73120700  0.52589700  1
  Ni  Ni24  1  0.72983900  0.77016100  0.22983900  1
  Ni  Ni25  1  0.47410300  0.93266800  0.76879300  1
  Ni  Ni26  1  0.73120700  0.97410300  0.93266800  1
  Ni  Ni27  1  0.77016100  0.22983900  0.72983900  1
  Ni  Ni28  1  0.06733200  0.23120700  0.52589700  1
  Ni  Ni29  1  0.97410300  0.56733200  0.23120700  1
  Ni  Ni30  1  0.06733200  0.26879300  0.02589700  1
  Ni  Ni31  1  0.27016100  0.27016100  0.27016100  1
  Cu  Cu32  1  0.60040000  0.89960000  0.10040000  1
  Cu  Cu33  1  0.60040000  0.60040000  0.60040000  1
  Cu  Cu34  1  0.39960000  0.10040000  0.89960000  1
  Cu  Cu35  1  0.89960000  0.10040000  0.60040000  1
  Cu  Cu36  1  0.89960000  0.39960000  0.10040000  1
  Cu  Cu37  1  0.10040000  0.89960000  0.39960000  1
  Cu  Cu38  1  0.10040000  0.60040000  0.89960000  1
  Cu  Cu39  1  0.39960000  0.39960000  0.39960000  1
  C  C40  1  0.07421400  0.25600000  0.32435600  1
  C  C41  1  0.42578600  0.75600000  0.32435600  1
  C  C42  1  0.75600000  0.17564400  0.92578600  1
  C  C43  1  0.25600000  0.32435600  0.07421400  1
  C  C44  1  0.92578600  0.75600000  0.17564400  1
  C  C45  1  0.57509100  0.42490900  0.92490900  1
  C  C46  1  0.74400000  0.82435600  0.42578600  1
  C  C47  1  0.92578600  0.74400000  0.67564400  1
  C  C48  1  0.67564400  0.92578600  0.74400000  1
  C  C49  1  0.42578600  0.74400000  0.82435600  1
  C  C50  1  0.17564400  0.92578600  0.75600000  1
  C  C51  1  0.57421400  0.25600000  0.17564400  1
  C  C52  1  0.07421400  0.24400000  0.82435600  1
  C  C53  1  0.75600000  0.32435600  0.42578600  1
  C  C54  1  0.82435600  0.07421400  0.24400000  1
  C  C55  1  0.07509100  0.42490900  0.57509100  1
  C  C56  1  0.17564400  0.57421400  0.25600000  1
  C  C57  1  0.82435600  0.42578600  0.74400000  1
  C  C58  1  0.57509100  0.07509100  0.42490900  1
  C  C59  1  0.07509100  0.07509100  0.07509100  1
  C  C60  1  0.25600000  0.17564400  0.57421400  1
  C  C61  1  0.67564400  0.57421400  0.24400000  1
  C  C62  1  0.42490900  0.57509100  0.07509100  1
  C  C63  1  0.24400000  0.67564400  0.57421400  1
  C  C64  1  0.74400000  0.67564400  0.92578600  1
  C  C65  1  0.32435600  0.42578600  0.75600000  1
  C  C66  1  0.32435600  0.07421400  0.25600000  1
  C  C67  1  0.24400000  0.82435600  0.07421400  1
  C  C68  1  0.42490900  0.92490900  0.57509100  1
  C  C69  1  0.92490900  0.92490900  0.92490900  1
  C  C70  1  0.57421400  0.24400000  0.67564400  1
  C  C71  1  0.92490900  0.57509100  0.42490900  1
