# generated using pymatgen
data_Cu6Ni6C
_symmetry_space_group_name_H-M   'P 1'
_cell_length_a   18.25704477
_cell_length_b   18.25704477
_cell_length_c   18.25704438
_cell_angle_alpha   34.30081863
_cell_angle_beta   34.30081863
_cell_angle_gamma   34.30081915
_symmetry_Int_Tables_number   1
_chemical_formula_structural   Cu6Ni6C
_chemical_formula_sum   'Cu24 Ni24 C4'
_cell_volume   1723.52236144
_cell_formula_units_Z   4
loop_
 _symmetry_equiv_pos_site_id
 _symmetry_equiv_pos_as_xyz
  1  'x, y, z'
loop_
 _atom_site_type_symbol
 _atom_site_label
 _atom_site_symmetry_multiplicity
 _atom_site_fract_x
 _atom_site_fract_y
 _atom_site_fract_z
 _atom_site_occupancy
  C  C0  1  0.21000600  0.21000600  0.21000600  1
  C  C1  1  0.62683300  0.62683300  0.62683300  1
  C  C2  1  0.78999400  0.78999400  0.78999400  1
  C  C3  1  0.37316700  0.37316700  0.37316700  1
  Ni  Ni4  1  0.44957900  0.63453300  0.49472300  1
  Ni  Ni5  1  0.82573000  0.13106900  0.02436400  1
  Ni  Ni6  1  0.17427000  0.86893100  0.97563600  1
  Ni  Ni7  1  0.36546700  0.50527700  0.55042100  1
  Ni  Ni8  1  0.50527700  0.55042100  0.36546700  1
  Ni  Ni9  1  0.88786200  0.95486500  0.07803800  1
  Ni  Ni10  1  0.49472300  0.44957900  0.63453300  1
  Ni  Ni11  1  0.33112400  0.55711500  0.63048400  1
  Ni  Ni12  1  0.95486500  0.07803800  0.88786200  1
  Ni  Ni13  1  0.63048400  0.33112400  0.55711500  1
  Ni  Ni14  1  0.86893100  0.97563600  0.17427000  1
  Ni  Ni15  1  0.92196200  0.11213800  0.04513500  1
  Ni  Ni16  1  0.44288500  0.36951600  0.66887600  1
  Ni  Ni17  1  0.36951600  0.66887600  0.44288500  1
  Ni  Ni18  1  0.63453300  0.49472300  0.44957900  1
  Ni  Ni19  1  0.02436400  0.82573000  0.13106900  1
  Ni  Ni20  1  0.07803800  0.88786200  0.95486500  1
  Ni  Ni21  1  0.55711500  0.63048400  0.33112400  1
  Ni  Ni22  1  0.04513500  0.92196200  0.11213800  1
  Ni  Ni23  1  0.97563600  0.17427000  0.86893100  1
  Ni  Ni24  1  0.11213800  0.04513500  0.92196200  1
  Ni  Ni25  1  0.13106900  0.02436400  0.82573000  1
  Ni  Ni26  1  0.55042100  0.36546700  0.50527700  1
  Ni  Ni27  1  0.66887600  0.44288500  0.36951600  1
  Cu  Cu28  1  0.89901600  0.17707300  0.74377900  1
  Cu  Cu29  1  0.50956300  0.61603200  0.19420500  1
  Cu  Cu30  1  0.29769400  0.05497800  0.60180200  1
  Cu  Cu31  1  0.11804800  0.62852600  0.79914900  1
  Cu  Cu32  1  0.38396800  0.80579500  0.49043700  1
  Cu  Cu33  1  0.94502200  0.39819800  0.70230600  1
  Cu  Cu34  1  0.10098400  0.82292700  0.25622100  1
  Cu  Cu35  1  0.25622100  0.10098400  0.82292700  1
  Cu  Cu36  1  0.70230600  0.94502200  0.39819800  1
  Cu  Cu37  1  0.74377900  0.89901600  0.17707300  1
  Cu  Cu38  1  0.88195200  0.37147400  0.20085100  1
  Cu  Cu39  1  0.05497800  0.60180200  0.29769400  1
  Cu  Cu40  1  0.60180200  0.29769400  0.05497800  1
  Cu  Cu41  1  0.49043700  0.38396800  0.80579500  1
  Cu  Cu42  1  0.17707300  0.74377900  0.89901600  1
  Cu  Cu43  1  0.82292700  0.25622100  0.10098400  1
  Cu  Cu44  1  0.79914900  0.11804800  0.62852600  1
  Cu  Cu45  1  0.19420500  0.50956300  0.61603200  1
  Cu  Cu46  1  0.80579500  0.49043700  0.38396800  1
  Cu  Cu47  1  0.62852600  0.79914900  0.11804800  1
  Cu  Cu48  1  0.20085100  0.88195200  0.37147400  1
  Cu  Cu49  1  0.37147400  0.20085100  0.88195200  1
  Cu  Cu50  1  0.39819800  0.70230600  0.94502200  1
  Cu  Cu51  1  0.61603200  0.19420500  0.50956300  1
