# generated using pymatgen
data_Cu6Ni4C15
_symmetry_space_group_name_H-M   'P 1'
_cell_length_a   12.14721775
_cell_length_b   12.14721775
_cell_length_c   15.49811815
_cell_angle_alpha   67.57240135
_cell_angle_beta   67.57240135
_cell_angle_gamma   89.57692021
_symmetry_Int_Tables_number   1
_chemical_formula_structural   Cu6Ni4C15
_chemical_formula_sum   'Cu48 Ni32 C120'
_cell_volume   1928.24988791
_cell_formula_units_Z   8
loop_
 _symmetry_equiv_pos_site_id
 _symmetry_equiv_pos_as_xyz
  1  'x, y, z'
loop_
 _atom_site_type_symbol
 _atom_site_label
 _atom_site_symmetry_multiplicity
 _atom_site_fract_x
 _atom_site_fract_y
 _atom_site_fract_z
 _atom_site_occupancy
  C  C0  1  0.25058800  0.24171600  0.99673100  1
  C  C1  1  0.75828400  0.74941200  0.50326900  1
  C  C2  1  0.74941200  0.75828400  0.00326900  1
  C  C3  1  0.24171600  0.25058800  0.49673100  1
  C  C4  1  0.25165300  0.74340900  0.99739500  1
  C  C5  1  0.25659100  0.74834700  0.50260500  1
  C  C6  1  0.74834700  0.25659100  0.00260500  1
  C  C7  1  0.74340900  0.25165300  0.49739500  1
  C  C8  1  0.54653300  0.35211300  0.67016200  1
  C  C9  1  0.64788700  0.45346700  0.82983800  1
  C  C10  1  0.45346700  0.64788700  0.32983800  1
  C  C11  1  0.35211300  0.54653300  0.17016200  1
  C  C12  1  0.49867300  0.48381200  0.60777700  1
  C  C13  1  0.51618800  0.50132700  0.89222300  1
  C  C14  1  0.50132700  0.51618800  0.39222300  1
  C  C15  1  0.48381200  0.49867300  0.10777700  1
  C  C16  1  0.24391900  0.46464000  0.82267100  1
  C  C17  1  0.53536000  0.75608100  0.67732900  1
  C  C18  1  0.75608100  0.53536000  0.17732900  1
  C  C19  1  0.46464000  0.24391900  0.32267100  1
  C  C20  1  0.33511800  0.54751200  0.69116000  1
  C  C21  1  0.45248800  0.66488200  0.80884000  1
  C  C22  1  0.66488200  0.45248800  0.30884000  1
  C  C23  1  0.54751200  0.33511800  0.19116000  1
  C  C24  1  0.97070500  0.01422600  0.32729900  1
  C  C25  1  0.98577400  0.02929500  0.17270100  1
  C  C26  1  0.02929500  0.98577400  0.67270100  1
  C  C27  1  0.01422600  0.97070500  0.82729900  1
  C  C28  1  0.01080400  0.09052700  0.38962600  1
  C  C29  1  0.90947300  0.98919600  0.11037400  1
  C  C30  1  0.98919600  0.90947300  0.61037400  1
  C  C31  1  0.09052700  0.01080400  0.88962600  1
  C  C32  1  0.17045200  0.24116700  0.30595200  1
  C  C33  1  0.75883300  0.82954800  0.19404800  1
  C  C34  1  0.82954800  0.75883300  0.69404800  1
  C  C35  1  0.24116700  0.17045200  0.80595200  1
  C  C36  1  0.25014600  0.29610300  0.17264400  1
  C  C37  1  0.70389700  0.74985400  0.32735600  1
  C  C38  1  0.74985400  0.70389700  0.82735600  1
  C  C39  1  0.29610300  0.25014600  0.67264400  1
  C  C40  1  0.28092900  0.97540000  0.04272400  1
  C  C41  1  0.02460000  0.71907100  0.45727600  1
  C  C42  1  0.71907100  0.02460000  0.95727600  1
  C  C43  1  0.97540000  0.28092900  0.54272400  1
  C  C44  1  0.50368400  0.30535300  0.98553400  1
  C  C45  1  0.69464700  0.49631600  0.51446600  1
  C  C46  1  0.49631600  0.69464700  0.01446600  1
  C  C47  1  0.30535300  0.50368400  0.48553400  1
  C  C48  1  0.41914400  0.95427900  0.60173000  1
  C  C49  1  0.04572100  0.58085600  0.89827000  1
  C  C50  1  0.58085600  0.04572100  0.39827000  1
  C  C51  1  0.95427900  0.41914400  0.10173000  1
  C  C52  1  0.29759000  0.83460300  0.66601700  1
  C  C53  1  0.16539700  0.70241000  0.83398300  1
  C  C54  1  0.70241000  0.16539700  0.33398300  1
  C  C55  1  0.83460300  0.29759000  0.16601700  1
  C  C56  1  0.50441900  0.01339300  0.68612300  1
  C  C57  1  0.98660700  0.49558100  0.81387700  1
  C  C58  1  0.49558100  0.98660700  0.31387700  1
  C  C59  1  0.01339300  0.50441900  0.18612300  1
  C  C60  1  0.44366900  0.94805400  0.82110600  1
  C  C61  1  0.05194600  0.55633100  0.67889400  1
  C  C62  1  0.55633100  0.05194600  0.17889400  1
  C  C63  1  0.94805400  0.44366900  0.32110600  1
  C  C64  1  0.06206800  0.55254500  0.39153300  1
  C  C65  1  0.44745500  0.93793200  0.10846700  1
  C  C66  1  0.93793200  0.44745500  0.60846700  1
  C  C67  1  0.55254500  0.06206800  0.89153300  1
  C  C68  1  0.19355800  0.50325100  0.32960000  1
  C  C69  1  0.49674900  0.80644200  0.17040000  1
  C  C70  1  0.80644200  0.49674900  0.67040000  1
  C  C71  1  0.50325100  0.19355800  0.82960100  1
  C  C72  1  0.06480800  0.78640400  0.17154200  1
  C  C73  1  0.21359600  0.93519200  0.32845800  1
  C  C74  1  0.93519200  0.21359600  0.82845800  1
  C  C75  1  0.78640400  0.06480800  0.67154200  1
  C  C76  1  0.99217500  0.70853000  0.30622200  1
  C  C77  1  0.29147000  0.00782500  0.19377800  1
  C  C78  1  0.00782500  0.29147000  0.69377800  1
  C  C79  1  0.70853000  0.99217500  0.80622200  1
  C  C80  1  0.99643600  0.19334100  0.00256000  1
  C  C81  1  0.80665900  0.00356400  0.49744000  1
  C  C82  1  0.00356400  0.80665900  0.99744000  1
  C  C83  1  0.19334100  0.99643600  0.50256000  1
  C  C84  1  0.17639200  0.48304700  0.03419300  1
  C  C85  1  0.51695300  0.82360800  0.46580700  1
  C  C86  1  0.82360800  0.51695300  0.96580700  1
  C  C87  1  0.48304700  0.17639200  0.53419300  1
  C  C88  1  0.35344300  0.88528200  0.75800400  1
  C  C89  1  0.11471800  0.64655700  0.74199600  1
  C  C90  1  0.64655700  0.11471800  0.24199600  1
  C  C91  1  0.88528200  0.35344300  0.25800400  1
  C  C92  1  0.14416800  0.64771800  0.23565300  1
  C  C93  1  0.35228200  0.85583200  0.26434700  1
  C  C94  1  0.85583200  0.35228200  0.76434700  1
  C  C95  1  0.64771800  0.14416800  0.73565300  1
  C  C96  1  0.01351000  0.29253800  0.97346600  1
  C  C97  1  0.70746200  0.98649000  0.52653400  1
  C  C98  1  0.98649000  0.70746200  0.02653400  1
  C  C99  1  0.29253800  0.01351000  0.47346600  1
  C  C100  1  0.27584700  0.49254100  0.00339800  1
  C  C101  1  0.50745900  0.72415300  0.49660200  1
  C  C102  1  0.72415300  0.50745900  0.99660200  1
  C  C103  1  0.49254100  0.27584700  0.50339800  1
  C  C104  1  0.39059900  0.39086800  0.76057400  1
  C  C105  1  0.60913200  0.60940100  0.73942600  1
  C  C106  1  0.60940100  0.60913200  0.23942600  1
  C  C107  1  0.39086800  0.39059900  0.26057400  1
  C  C108  1  0.11400100  0.15476900  0.23497100  1
  C  C109  1  0.84523100  0.88599900  0.26502900  1
  C  C110  1  0.88599900  0.84523100  0.76502900  1
  C  C111  1  0.15476900  0.11400100  0.73497100  1
  C  C112  1  0.21538400  0.98922400  0.00738900  1
  C  C113  1  0.01077600  0.78461600  0.49261100  1
  C  C114  1  0.78461600  0.01077600  0.99261100  1
  C  C115  1  0.98922400  0.21538400  0.50738900  1
  C  C116  1  0.49000200  0.20604300  0.02238200  1
  C  C117  1  0.79395700  0.50999800  0.47761800  1
  C  C118  1  0.50999800  0.79395700  0.97761800  1
  C  C119  1  0.20604300  0.49000200  0.52238200  1
  Ni  Ni120  1  0.48164600  0.40639600  0.67110300  1
  Ni  Ni121  1  0.59360400  0.51835400  0.82889700  1
  Ni  Ni122  1  0.51835400  0.59360400  0.32889700  1
  Ni  Ni123  1  0.40639600  0.48164600  0.17110300  1
  Ni  Ni124  1  0.31782500  0.47556500  0.75836000  1
  Ni  Ni125  1  0.52443500  0.68217500  0.74164000  1
  Ni  Ni126  1  0.68217500  0.52443500  0.24164000  1
  Ni  Ni127  1  0.47556500  0.31782500  0.25836000  1
  Ni  Ni128  1  0.02841100  0.07747400  0.32477800  1
  Ni  Ni129  1  0.92252600  0.97158900  0.17522200  1
  Ni  Ni130  1  0.97158900  0.92252600  0.67522200  1
  Ni  Ni131  1  0.07747400  0.02841100  0.82477800  1
  Ni  Ni132  1  0.18727100  0.23417600  0.23871900  1
  Ni  Ni133  1  0.76582400  0.81272900  0.26128100  1
  Ni  Ni134  1  0.81272900  0.76582400  0.76128100  1
  Ni  Ni135  1  0.23417600  0.18727100  0.73871900  1
  Ni  Ni136  1  0.35488700  0.89401500  0.66834900  1
  Ni  Ni137  1  0.10598500  0.64511300  0.83165100  1
  Ni  Ni138  1  0.64511300  0.10598500  0.33165100  1
  Ni  Ni139  1  0.89401500  0.35488700  0.16834900  1
  Ni  Ni140  1  0.43504900  0.96277100  0.75473000  1
  Ni  Ni141  1  0.03722900  0.56495100  0.74527000  1
  Ni  Ni142  1  0.56495100  0.03722900  0.24527000  1
  Ni  Ni143  1  0.96277100  0.43504900  0.25473000  1
  Ni  Ni144  1  0.13480300  0.56388700  0.32660300  1
  Ni  Ni145  1  0.43611300  0.86519700  0.17339700  1
  Ni  Ni146  1  0.86519700  0.43611300  0.67339700  1
  Ni  Ni147  1  0.56388700  0.13480300  0.82660300  1
  Ni  Ni148  1  0.05966600  0.72022700  0.23783900  1
  Ni  Ni149  1  0.27977300  0.94033400  0.26216100  1
  Ni  Ni150  1  0.94033400  0.27977300  0.76216100  1
  Ni  Ni151  1  0.72022700  0.05966600  0.73783900  1
  Cu  Cu152  1  0.37455100  0.29812000  0.84171800  1
  Cu  Cu153  1  0.70188000  0.62544900  0.65828200  1
  Cu  Cu154  1  0.62544900  0.70188000  0.15828200  1
  Cu  Cu155  1  0.29812000  0.37455100  0.34171800  1
  Cu  Cu156  1  0.12625800  0.14822600  0.15160000  1
  Cu  Cu157  1  0.85177400  0.87374200  0.34840000  1
  Cu  Cu158  1  0.87374200  0.85177400  0.84840000  1
  Cu  Cu159  1  0.14822600  0.12625800  0.65160000  1
  Cu  Cu160  1  0.18914100  0.09415000  0.97384900  1
  Cu  Cu161  1  0.90585000  0.81085900  0.52615100  1
  Cu  Cu162  1  0.81085900  0.90585000  0.02615100  1
  Cu  Cu163  1  0.09415000  0.18914100  0.47384900  1
  Cu  Cu164  1  0.38962600  0.14850400  0.04300700  1
  Cu  Cu165  1  0.85149600  0.61037400  0.45699300  1
  Cu  Cu166  1  0.61037400  0.85149600  0.95699300  1
  Cu  Cu167  1  0.14850400  0.38962600  0.54300700  1
  Cu  Cu168  1  0.11519200  0.34259500  0.95753200  1
  Cu  Cu169  1  0.65740500  0.88480800  0.54246800  1
  Cu  Cu170  1  0.88480800  0.65740500  0.04246800  1
  Cu  Cu171  1  0.34259500  0.11519200  0.45753200  1
  Cu  Cu172  1  0.32477500  0.40055000  0.99944700  1
  Cu  Cu173  1  0.59945000  0.67522500  0.50055300  1
  Cu  Cu174  1  0.67522500  0.59945000  0.00055300  1
  Cu  Cu175  1  0.40055000  0.32477500  0.49944700  1
  Cu  Cu176  1  0.22966500  0.65586400  0.15275400  1
  Cu  Cu177  1  0.34413600  0.77033500  0.34724600  1
  Cu  Cu178  1  0.77033500  0.34413600  0.84724600  1
  Cu  Cu179  1  0.65586400  0.22966500  0.65275400  1
  Cu  Cu180  1  0.27555500  0.80581700  0.84191500  1
  Cu  Cu181  1  0.19418300  0.72444500  0.65808500  1
  Cu  Cu182  1  0.72444500  0.19418300  0.15808500  1
  Cu  Cu183  1  0.80581700  0.27555500  0.34191500  1
  Cu  Cu184  1  0.93003500  0.34993000  0.95746500  1
  Cu  Cu185  1  0.65007000  0.06996500  0.54253500  1
  Cu  Cu186  1  0.06996500  0.65007000  0.04253500  1
  Cu  Cu187  1  0.34993000  0.93003500  0.45746500  1
  Cu  Cu188  1  0.33540300  0.59553200  0.97314500  1
  Cu  Cu189  1  0.40446800  0.66459700  0.52685500  1
  Cu  Cu190  1  0.66459700  0.40446800  0.02685500  1
  Cu  Cu191  1  0.59553200  0.33540300  0.47314500  1
  Cu  Cu192  1  0.17027400  0.89906500  0.00207500  1
  Cu  Cu193  1  0.10093500  0.82972600  0.49792500  1
  Cu  Cu194  1  0.82972600  0.10093500  0.99792500  1
  Cu  Cu195  1  0.89906500  0.17027400  0.50207500  1
  Cu  Cu196  1  0.57503000  0.15618600  0.04234200  1
  Cu  Cu197  1  0.84381400  0.42497000  0.45765800  1
  Cu  Cu198  1  0.42497000  0.84381400  0.95765800  1
  Cu  Cu199  1  0.15618600  0.57503000  0.54234200  1
