# generated using pymatgen
data_Cu16Ni6C7
_symmetry_space_group_name_H-M   'P 1'
_cell_length_a   8.06112903
_cell_length_b   8.06112903
_cell_length_c   8.06112903
_cell_angle_alpha   60.00000000
_cell_angle_beta   60.00000000
_cell_angle_gamma   60.00000000
_symmetry_Int_Tables_number   1
_chemical_formula_structural   Cu16Ni6C7
_chemical_formula_sum   'Cu16 Ni6 C7'
_cell_volume   370.40140047
_cell_formula_units_Z   1
loop_
 _symmetry_equiv_pos_site_id
 _symmetry_equiv_pos_as_xyz
  1  'x, y, z'
loop_
 _atom_site_type_symbol
 _atom_site_label
 _atom_site_symmetry_multiplicity
 _atom_site_fract_x
 _atom_site_fract_y
 _atom_site_fract_z
 _atom_site_occupancy
  Ni  Ni0  1  0.29528400  0.70471600  0.70471600  1
  Ni  Ni1  1  0.70471600  0.70471600  0.29528400  1
  Ni  Ni2  1  0.29528400  0.29528400  0.70471600  1
  Ni  Ni3  1  0.70471600  0.29528400  0.29528400  1
  Ni  Ni4  1  0.70471600  0.29528400  0.70471600  1
  Ni  Ni5  1  0.29528400  0.70471600  0.29528400  1
  Cu  Cu6  1  0.87895700  0.87895700  0.87895700  1
  Cu  Cu7  1  0.02648100  0.32450600  0.32450600  1
  Cu  Cu8  1  0.12104300  0.12104300  0.63687000  1
  Cu  Cu9  1  0.32450600  0.02648100  0.32450600  1
  Cu  Cu10  1  0.32450600  0.32450600  0.32450600  1
  Cu  Cu11  1  0.67549400  0.67549400  0.97351900  1
  Cu  Cu12  1  0.87895700  0.87895700  0.36313000  1
  Cu  Cu13  1  0.67549400  0.67549400  0.67549400  1
  Cu  Cu14  1  0.67549400  0.97351900  0.67549400  1
  Cu  Cu15  1  0.32450600  0.32450600  0.02648100  1
  Cu  Cu16  1  0.87895700  0.36313000  0.87895700  1
  Cu  Cu17  1  0.63687000  0.12104300  0.12104300  1
  Cu  Cu18  1  0.12104300  0.63687000  0.12104300  1
  Cu  Cu19  1  0.12104300  0.12104300  0.12104300  1
  Cu  Cu20  1  0.97351900  0.67549400  0.67549400  1
  Cu  Cu21  1  0.36313000  0.87895700  0.87895700  1
  C  C22  1  0.00000000  0.00000000  0.50000000  1
  C  C23  1  0.00000000  0.50000000  0.00000000  1
  C  C24  1  0.00000000  0.00000000  0.00000000  1
  C  C25  1  0.50000000  0.00000000  0.50000000  1
  C  C26  1  0.00000000  0.50000000  0.50000000  1
  C  C27  1  0.50000000  0.00000000  0.00000000  1
  C  C28  1  0.50000000  0.50000000  0.00000000  1
