# generated using pymatgen
data_Cu(Ni7C4)3
_symmetry_space_group_name_H-M   'P 1'
_cell_length_a   11.71366000
_cell_length_b   13.86182100
_cell_length_c   15.52193500
_cell_angle_alpha   90.00000000
_cell_angle_beta   90.00000000
_cell_angle_gamma   90.00000000
_symmetry_Int_Tables_number   1
_chemical_formula_structural   Cu(Ni7C4)3
_chemical_formula_sum   'Cu2 Ni42 C24'
_cell_volume   2520.33784597
_cell_formula_units_Z   2
loop_
 _symmetry_equiv_pos_site_id
 _symmetry_equiv_pos_as_xyz
  1  'x, y, z'
loop_
 _atom_site_type_symbol
 _atom_site_label
 _atom_site_symmetry_multiplicity
 _atom_site_fract_x
 _atom_site_fract_y
 _atom_site_fract_z
 _atom_site_occupancy
  C  C0  1  0.81851100  0.62098200  0.29881600  1
  C  C1  1  0.81851100  0.12098200  0.70118400  1
  C  C2  1  0.85080600  0.52053900  0.14210600  1
  C  C3  1  0.85080600  0.02053900  0.85789400  1
  C  C4  1  0.87970700  0.92035100  0.70078500  1
  C  C5  1  0.87970700  0.42035100  0.29921500  1
  C  C6  1  0.12029300  0.92035100  0.29921500  1
  C  C7  1  0.12029300  0.42035100  0.70078500  1
  C  C8  1  0.14919400  0.02053900  0.14210600  1
  C  C9  1  0.14919400  0.52053900  0.85789400  1
  C  C10  1  0.18148900  0.62098200  0.70118400  1
  C  C11  1  0.18148900  0.12098200  0.29881600  1
  C  C12  1  0.31548800  0.87771500  0.19642600  1
  C  C13  1  0.31548800  0.37771500  0.80357400  1
  C  C14  1  0.34609200  0.47709700  0.64752400  1
  C  C15  1  0.34609200  0.97709700  0.35247600  1
  C  C16  1  0.37530700  0.57867300  0.80391400  1
  C  C17  1  0.37530700  0.07867300  0.19608600  1
  C  C18  1  0.62469300  0.57867300  0.19608600  1
  C  C19  1  0.62469300  0.07867300  0.80391400  1
  C  C20  1  0.65390800  0.97709700  0.64752400  1
  C  C21  1  0.65390800  0.47709700  0.35247600  1
  C  C22  1  0.68451200  0.87771500  0.80357400  1
  C  C23  1  0.68451200  0.37771500  0.19642600  1
  Ni  Ni24  1  0.78351900  0.72140900  0.13577800  1
  Ni  Ni25  1  0.78351900  0.22140900  0.86422200  1
  Ni  Ni26  1  0.84395200  0.52175100  0.46282300  1
  Ni  Ni27  1  0.84395200  0.02175100  0.53717700  1
  Ni  Ni28  1  0.90668900  0.31859700  0.13631400  1
  Ni  Ni29  1  0.90668900  0.81859700  0.86368600  1
  Ni  Ni30  1  0.92459800  0.80260000  0.36904300  1
  Ni  Ni31  1  0.92459800  0.30260000  0.63095700  1
  Ni  Ni32  1  0.95403000  0.06350600  0.25086600  1
  Ni  Ni33  1  0.95403000  0.56350600  0.74913400  1
  Ni  Ni34  1  0.04597000  0.56350600  0.25086600  1
  Ni  Ni35  1  0.04597000  0.06350600  0.74913400  1
  Ni  Ni36  1  0.07540200  0.80260000  0.63095700  1
  Ni  Ni37  1  0.07540200  0.30260000  0.36904300  1
  Ni  Ni38  1  0.09331100  0.81859700  0.13631400  1
  Ni  Ni39  1  0.09331100  0.31859700  0.86368600  1
  Ni  Ni40  1  0.15604800  0.52175100  0.53717700  1
  Ni  Ni41  1  0.15604800  0.02175100  0.46282300  1
  Ni  Ni42  1  0.21648100  0.22140900  0.13577800  1
  Ni  Ni43  1  0.21648100  0.72140900  0.86422200  1
  Ni  Ni44  1  0.27774500  0.27610600  0.64155300  1
  Ni  Ni45  1  0.27774500  0.77610600  0.35844700  1
  Ni  Ni46  1  0.34061000  0.97690200  0.03258700  1
  Ni  Ni47  1  0.34061000  0.47690200  0.96741300  1
  Ni  Ni48  1  0.40422500  0.67851900  0.64021400  1
  Ni  Ni49  1  0.40422500  0.17851900  0.35978600  1
  Ni  Ni50  1  0.42751900  0.69733700  0.12868700  1
  Ni  Ni51  1  0.42751900  0.19733700  0.87131300  1
  Ni  Ni52  1  0.45758500  0.43636500  0.24391700  1
  Ni  Ni53  1  0.45758500  0.93636500  0.75608300  1
  Ni  Ni54  1  0.50000000  0.92750800  0.50000000  1
  Ni  Ni55  1  0.50000000  0.42750800  0.50000000  1
  Ni  Ni56  1  0.54241500  0.43636500  0.75608300  1
  Ni  Ni57  1  0.54241500  0.93636500  0.24391700  1
  Ni  Ni58  1  0.57248100  0.69733700  0.87131300  1
  Ni  Ni59  1  0.57248100  0.19733700  0.12868700  1
  Ni  Ni60  1  0.59577500  0.17851900  0.64021400  1
  Ni  Ni61  1  0.59577500  0.67851900  0.35978600  1
  Ni  Ni62  1  0.65939000  0.97690200  0.96741300  1
  Ni  Ni63  1  0.65939000  0.47690200  0.03258700  1
  Ni  Ni64  1  0.72225500  0.77610600  0.64155300  1
  Ni  Ni65  1  0.72225500  0.27610600  0.35844700  1
  Cu  Cu66  1  0.00000000  0.55739400  0.00000000  1
  Cu  Cu67  1  0.00000000  0.05739400  0.00000000  1
