# generated using pymatgen
data_Cu11NiC5
_symmetry_space_group_name_H-M   'P 1'
_cell_length_a   10.62076091
_cell_length_b   10.62076091
_cell_length_c   10.43520927
_cell_angle_alpha   84.68275406
_cell_angle_beta   84.68275406
_cell_angle_gamma   85.08424667
_symmetry_Int_Tables_number   1
_chemical_formula_structural   Cu11NiC5
_chemical_formula_sum   'Cu22 Ni2 C10'
_cell_volume   1163.45429975
_cell_formula_units_Z   2
loop_
 _symmetry_equiv_pos_site_id
 _symmetry_equiv_pos_as_xyz
  1  'x, y, z'
loop_
 _atom_site_type_symbol
 _atom_site_label
 _atom_site_symmetry_multiplicity
 _atom_site_fract_x
 _atom_site_fract_y
 _atom_site_fract_z
 _atom_site_occupancy
  C  C0  1  0.35517400  0.20128300  0.65481900  1
  C  C1  1  0.20128300  0.35517400  0.15481900  1
  C  C2  1  0.95537400  0.81873600  0.39640200  1
  C  C3  1  0.81873600  0.95537400  0.89640200  1
  C  C4  1  0.55894400  0.71279700  0.56743300  1
  C  C5  1  0.71279700  0.55894400  0.06743300  1
  C  C6  1  0.45801600  0.91935900  0.16938800  1
  C  C7  1  0.20839100  0.80531200  0.98360600  1
  C  C8  1  0.91935900  0.45801600  0.66938800  1
  C  C9  1  0.80531200  0.20839100  0.48360600  1
  Ni  Ni10  1  0.58845700  0.25220500  0.22747600  1
  Ni  Ni11  1  0.25220500  0.58845700  0.72747600  1
  Cu  Cu12  1  0.43607000  0.10697300  0.32514900  1
  Cu  Cu13  1  0.13664900  0.04353800  0.92610100  1
  Cu  Cu14  1  0.37847900  0.61124000  0.91112700  1
  Cu  Cu15  1  0.89124900  0.46830700  0.41926700  1
  Cu  Cu16  1  0.80658000  0.17098900  0.23543400  1
  Cu  Cu17  1  0.48735200  0.09935000  0.98518500  1
  Cu  Cu18  1  0.61124000  0.37847900  0.41112700  1
  Cu  Cu19  1  0.17098900  0.80658000  0.73543400  1
  Cu  Cu20  1  0.66389800  0.84329000  0.22492500  1
  Cu  Cu21  1  0.03033600  0.69431100  0.06397600  1
  Cu  Cu22  1  0.69431100  0.03033600  0.56397600  1
  Cu  Cu23  1  0.09935000  0.48735200  0.48518500  1
  Cu  Cu24  1  0.69854200  0.34992200  0.68160400  1
  Cu  Cu25  1  0.46830700  0.89124900  0.91926700  1
  Cu  Cu26  1  0.18696500  0.98414800  0.14243100  1
  Cu  Cu27  1  0.98414800  0.18696500  0.64243100  1
  Cu  Cu28  1  0.84329000  0.66389800  0.72492500  1
  Cu  Cu29  1  0.82355700  0.30840500  0.86313600  1
  Cu  Cu30  1  0.30840500  0.82355700  0.36313600  1
  Cu  Cu31  1  0.04353800  0.13664900  0.42610100  1
  Cu  Cu32  1  0.34992200  0.69854200  0.18160400  1
  Cu  Cu33  1  0.10697300  0.43607000  0.82514900  1
