# generated using pymatgen
data_Cu2Ni2C17
_symmetry_space_group_name_H-M   'P 1'
_cell_length_a   7.13983295
_cell_length_b   7.13983295
_cell_length_c   7.33736375
_cell_angle_alpha   75.04659989
_cell_angle_beta   75.04659989
_cell_angle_gamma   80.69991227
_symmetry_Int_Tables_number   1
_chemical_formula_structural   Cu2Ni2C17
_chemical_formula_sum   'Cu4 Ni4 C34'
_cell_volume   347.32056587
_cell_formula_units_Z   2
loop_
 _symmetry_equiv_pos_site_id
 _symmetry_equiv_pos_as_xyz
  1  'x, y, z'
loop_
 _atom_site_type_symbol
 _atom_site_label
 _atom_site_symmetry_multiplicity
 _atom_site_fract_x
 _atom_site_fract_y
 _atom_site_fract_z
 _atom_site_occupancy
  C  C0  1  0.80032600  0.19967400  0.75000000  1
  C  C1  1  0.19967400  0.80032600  0.25000000  1
  C  C2  1  0.36716500  0.15369600  0.41793900  1
  C  C3  1  0.84630400  0.63283500  0.08206100  1
  C  C4  1  0.63283500  0.84630400  0.58206100  1
  C  C5  1  0.15369600  0.36716500  0.91793900  1
  C  C6  1  0.46369200  0.19544800  0.59086000  1
  C  C7  1  0.80455200  0.53630800  0.90914000  1
  C  C8  1  0.53630800  0.80455200  0.40914000  1
  C  C9  1  0.19544800  0.46369200  0.09086000  1
  C  C10  1  0.22415500  0.26413300  0.59953400  1
  C  C11  1  0.73586700  0.77584500  0.90046600  1
  C  C12  1  0.77584500  0.73586700  0.40046600  1
  C  C13  1  0.26413300  0.22415500  0.09953400  1
  C  C14  1  0.39062600  0.38611800  0.41850600  1
  C  C15  1  0.61388200  0.60937400  0.08149400  1
  C  C16  1  0.60937400  0.61388200  0.58149400  1
  C  C17  1  0.38611800  0.39062600  0.91850600  1
  C  C18  1  0.91398500  0.16470100  0.39359400  1
  C  C19  1  0.83529900  0.08601500  0.10640600  1
  C  C20  1  0.08601500  0.83529900  0.60640600  1
  C  C21  1  0.16470100  0.91398500  0.89359400  1
  C  C22  1  0.90380600  0.39677100  0.38872200  1
  C  C23  1  0.60322900  0.09619400  0.11127800  1
  C  C24  1  0.09619400  0.60322900  0.61127800  1
  C  C25  1  0.39677100  0.90380600  0.88872200  1
  Ni  Ni26  1  0.36058400  0.24904500  0.50845400  1
  Ni  Ni27  1  0.75095500  0.63941600  0.99154600  1
  Ni  Ni28  1  0.63941600  0.75095500  0.49154600  1
  Ni  Ni29  1  0.24904500  0.36058400  0.00845400  1
  Cu  Cu30  1  0.85276800  0.26833500  0.46597200  1
  Cu  Cu31  1  0.73166500  0.14723200  0.03402800  1
  Cu  Cu32  1  0.14723200  0.73166500  0.53402800  1
  Cu  Cu33  1  0.26833500  0.85276800  0.96597200  1
  C  C34  1  0.58844300  0.41155700  0.75000000  1
  C  C35  1  0.41155700  0.58844300  0.25000000  1
  C  C36  1  0.01243300  0.98756700  0.75000000  1
  C  C37  1  0.98756700  0.01243300  0.25000000  1
  C  C38  1  0.03293300  0.41058200  0.75050900  1
  C  C39  1  0.58941800  0.96706700  0.74949100  1
  C  C40  1  0.96706700  0.58941800  0.24949100  1
  C  C41  1  0.41058200  0.03293300  0.25050900  1
