# generated using pymatgen
data_CuNi
_symmetry_space_group_name_H-M   'P 1'
_cell_length_a   4.97866500
_cell_length_b   5.29219600
_cell_length_c   27.66821209
_cell_angle_alpha   89.46369014
_cell_angle_beta   90.00000000
_cell_angle_gamma   90.00000000
_symmetry_Int_Tables_number   1
_chemical_formula_structural   CuNi
_chemical_formula_sum   'Cu18 Ni18'
_cell_volume   728.97208031
_cell_formula_units_Z   18
loop_
 _symmetry_equiv_pos_site_id
 _symmetry_equiv_pos_as_xyz
  1  'x, y, z'
loop_
 _atom_site_type_symbol
 _atom_site_label
 _atom_site_symmetry_multiplicity
 _atom_site_fract_x
 _atom_site_fract_y
 _atom_site_fract_z
 _atom_site_occupancy
  Ni  Ni0  1  0.52587900  0.56465000  0.88347300  1
  Ni  Ni1  1  0.08598500  0.50108900  0.66623600  1
  Ni  Ni2  1  0.56553900  0.40833700  0.72516900  1
  Ni  Ni3  1  0.10994500  0.91913600  0.02570500  1
  Ni  Ni4  1  0.18646800  0.65498000  0.50501200  1
  Ni  Ni5  1  0.68646800  0.34502000  0.49498800  1
  Ni  Ni6  1  0.29428500  0.02294000  0.79629500  1
  Ni  Ni7  1  0.76891500  0.88853000  0.85364800  1
  Ni  Ni8  1  0.06553900  0.59166300  0.27483100  1
  Ni  Ni9  1  0.58598400  0.49891100  0.33376400  1
  Ni  Ni10  1  0.34153600  0.96843400  0.58656300  1
  Ni  Ni11  1  0.93509800  0.05975200  0.60744000  1
  Ni  Ni12  1  0.02587900  0.43535000  0.11652700  1
  Ni  Ni13  1  0.43509800  0.94024800  0.39256000  1
  Ni  Ni14  1  0.84153600  0.03156600  0.41343700  1
  Ni  Ni15  1  0.26891500  0.11147000  0.14635200  1
  Ni  Ni16  1  0.79428500  0.97706000  0.20370500  1
  Ni  Ni17  1  0.60994500  0.08086400  0.97429500  1
  Cu  Cu18  1  0.23422100  0.60861600  0.87818800  1
  Cu  Cu19  1  0.52303600  0.64316100  0.76061700  1
  Cu  Cu20  1  0.35298000  0.35607500  0.68251100  1
  Cu  Cu21  1  0.92929700  0.46962100  0.52399500  1
  Cu  Cu22  1  0.29627600  0.05425300  0.98516300  1
  Cu  Cu23  1  0.42929700  0.53037900  0.47600500  1
  Cu  Cu24  1  0.52715600  0.06845400  0.83390200  1
  Cu  Cu25  1  0.85298000  0.64392500  0.31748900  1
  Cu  Cu26  1  0.31522200  0.79139000  0.75704700  1
  Cu  Cu27  1  0.02303600  0.35683900  0.23938300  1
  Cu  Cu28  1  0.91153500  0.33271900  0.63150600  1
  Cu  Cu29  1  0.73422100  0.39138400  0.12181200  1
  Cu  Cu30  1  0.32517800  0.70125100  0.56122200  1
  Cu  Cu31  1  0.82517800  0.29874900  0.43877800  1
  Cu  Cu32  1  0.41153500  0.66728100  0.36849400  1
  Cu  Cu33  1  0.81522200  0.20861000  0.24295300  1
  Cu  Cu34  1  0.02715600  0.93154600  0.16609800  1
  Cu  Cu35  1  0.79627600  0.94574700  0.01483700  1
