# generated using pymatgen
data_Cu(NiC3)3
_symmetry_space_group_name_H-M   'P 1'
_cell_length_a   7.41448673
_cell_length_b   12.18172020
_cell_length_c   7.41361906
_cell_angle_alpha   72.28173196
_cell_angle_beta   59.98908246
_cell_angle_gamma   72.27991977
_symmetry_Int_Tables_number   1
_chemical_formula_structural   Cu(NiC3)3
_chemical_formula_sum   'Cu4 Ni12 C36'
_cell_volume   542.85079655
_cell_formula_units_Z   4
loop_
 _symmetry_equiv_pos_site_id
 _symmetry_equiv_pos_as_xyz
  1  'x, y, z'
loop_
 _atom_site_type_symbol
 _atom_site_label
 _atom_site_symmetry_multiplicity
 _atom_site_fract_x
 _atom_site_fract_y
 _atom_site_fract_z
 _atom_site_occupancy
  C  C0  1  0.00001100  0.99999200  0.99996400  1
  C  C1  1  0.49999800  0.49998500  0.50004200  1
  C  C2  1  0.75000100  0.24999000  0.25004500  1
  C  C3  1  0.74996600  0.24998400  0.75003600  1
  C  C4  1  0.24999700  0.24998300  0.74998900  1
  C  C5  1  0.25001900  0.75000000  0.75002400  1
  C  C6  1  0.24997700  0.74999300  0.25002300  1
  C  C7  1  0.75001000  0.74999300  0.24998200  1
  Ni  Ni8  1  0.55710700  0.15795200  0.14245400  1
  Ni  Ni9  1  0.05709800  0.65794100  0.64253500  1
  Ni  Ni10  1  0.14246600  0.15788200  0.55717600  1
  Ni  Ni11  1  0.64250200  0.65795400  0.05706300  1
  Ni  Ni12  1  0.14249700  0.15800100  0.14245700  1
  Ni  Ni13  1  0.64249200  0.65794100  0.64249700  1
  Ni  Ni14  1  0.94283500  0.34205000  0.35759400  1
  Ni  Ni15  1  0.44286700  0.84207000  0.85750200  1
  Ni  Ni16  1  0.35754300  0.34212200  0.94275100  1
  Ni  Ni17  1  0.85751000  0.84205200  0.44287500  1
  Ni  Ni18  1  0.35755500  0.34200200  0.35754200  1
  Ni  Ni19  1  0.85756900  0.84205800  0.85750400  1
  Cu  Cu20  1  0.15496900  0.53514300  0.15497200  1
  Cu  Cu21  1  0.65495500  0.03518900  0.65493600  1
  Cu  Cu22  1  0.34503000  0.96486700  0.34501500  1
  Cu  Cu23  1  0.84504600  0.46480700  0.84505700  1
  C  C24  1  0.19812500  0.40566400  0.19817600  1
  C  C25  1  0.69811700  0.90571600  0.69810900  1
  C  C26  1  0.30186900  0.09435500  0.30180800  1
  C  C27  1  0.80188200  0.59428900  0.80187500  1
  C  C28  1  0.25049700  0.57829800  0.92081200  1
  C  C29  1  0.75044500  0.07837200  0.42080100  1
  C  C30  1  0.25040500  0.57830700  0.25046300  1
  C  C31  1  0.75040400  0.07834000  0.75041800  1
  C  C32  1  0.92083900  0.57830000  0.25048500  1
  C  C33  1  0.42084200  0.07834800  0.75043500  1
  C  C34  1  0.24952600  0.92170700  0.57917700  1
  C  C35  1  0.74957500  0.42161300  0.07919600  1
  C  C36  1  0.24958900  0.92168800  0.24954600  1
  C  C37  1  0.74959000  0.42163700  0.74959700  1
  C  C38  1  0.57916000  0.92169800  0.24949900  1
  C  C39  1  0.07916200  0.42163100  0.74955200  1
  C  C40  1  0.81956400  0.30232300  0.43907500  1
  C  C41  1  0.31959400  0.80233500  0.93902100  1
  C  C42  1  0.43902700  0.30241500  0.81943700  1
  C  C43  1  0.93902900  0.80231300  0.31958900  1
  C  C44  1  0.43905000  0.30225200  0.43902500  1
  C  C45  1  0.93904600  0.80231300  0.93901800  1
  C  C46  1  0.68043500  0.19763600  0.06098400  1
  C  C47  1  0.18041500  0.69764200  0.56102100  1
  C  C48  1  0.06095900  0.19754000  0.68055800  1
  C  C49  1  0.56097600  0.69765800  0.18039700  1
  C  C50  1  0.06096100  0.19770700  0.06099900  1
  C  C51  1  0.56099400  0.69765600  0.56099100  1
