# generated using pymatgen
data_CuNi6C29
_symmetry_space_group_name_H-M   'P 1'
_cell_length_a   8.57769396
_cell_length_b   8.57769396
_cell_length_c   8.64329970
_cell_angle_alpha   75.41295263
_cell_angle_beta   75.41295263
_cell_angle_gamma   104.38378746
_symmetry_Int_Tables_number   1
_chemical_formula_structural   CuNi6C29
_chemical_formula_sum   'Cu1 Ni6 C29'
_cell_volume   561.62360187
_cell_formula_units_Z   1
loop_
 _symmetry_equiv_pos_site_id
 _symmetry_equiv_pos_as_xyz
  1  'x, y, z'
loop_
 _atom_site_type_symbol
 _atom_site_label
 _atom_site_symmetry_multiplicity
 _atom_site_fract_x
 _atom_site_fract_y
 _atom_site_fract_z
 _atom_site_occupancy
  C  C0  1  0.16999700  0.47677400  0.22023800  1
  C  C1  1  0.52322600  0.83000300  0.77976200  1
  Ni  Ni2  1  0.15172500  0.03449800  0.64864100  1
  Ni  Ni3  1  0.35465500  0.15474600  0.96146200  1
  Ni  Ni4  1  0.84525400  0.64534500  0.03853800  1
  Ni  Ni5  1  0.03676700  0.35185200  0.84557400  1
  Ni  Ni6  1  0.96550200  0.84827500  0.35135900  1
  Ni  Ni7  1  0.64814800  0.96323300  0.15442600  1
  Cu  Cu8  1  0.50351900  0.49648100  0.50000000  1
  C  C9  1  0.49775000  0.26863600  0.26838200  1
  C  C10  1  0.73136400  0.50225000  0.73161800  1
  C  C11  1  0.27022400  0.72977600  0.50000000  1
  C  C12  1  0.49751100  0.02087100  0.02232400  1
  C  C13  1  0.15278400  0.00184800  0.15379700  1
  C  C14  1  0.57477900  0.12518600  0.28291800  1
  C  C15  1  0.84658400  0.15341600  0.00000000  1
  C  C16  1  0.31240300  0.06745400  0.79241300  1
  C  C17  1  0.41626700  0.28948300  0.12782000  1
  C  C18  1  0.35832200  0.23593100  0.43957300  1
  C  C19  1  0.63999100  0.44048900  0.23188000  1
  C  C20  1  0.07643800  0.21286000  0.68791800  1
  C  C21  1  0.87481400  0.42522100  0.71708200  1
  C  C22  1  0.55951100  0.36000900  0.76812000  1
  C  C23  1  0.21029700  0.31594600  0.93168700  1
  C  C24  1  0.97912900  0.50248900  0.97767600  1
  C  C25  1  0.93254600  0.68759700  0.20758700  1
  C  C26  1  0.76406900  0.64167800  0.56042700  1
  C  C27  1  0.71051700  0.58373300  0.87218000  1
  C  C28  1  0.68405400  0.78970300  0.06831300  1
  C  C29  1  0.23689400  0.55964400  0.64182100  1
  C  C30  1  0.44035600  0.76310600  0.35817900  1
  C  C31  1  0.12793800  0.71043300  0.42077500  1
  C  C32  1  0.78714000  0.92356200  0.31208200  1
  C  C33  1  0.28956700  0.87206200  0.57922500  1
  C  C34  1  0.99815200  0.84721600  0.84620300  1
  C  C35  1  0.02580700  0.97419300  0.50000000  1
