# generated using pymatgen
data_Cu14NiC3
_symmetry_space_group_name_H-M   'P 1'
_cell_length_a   6.43426200
_cell_length_b   13.09297100
_cell_length_c   25.23974594
_cell_angle_alpha   72.42829339
_cell_angle_beta   90.00000000
_cell_angle_gamma   90.00000000
_symmetry_Int_Tables_number   1
_chemical_formula_structural   Cu14NiC3
_chemical_formula_sum   'Cu56 Ni4 C12'
_cell_volume   2027.07435974
_cell_formula_units_Z   4
loop_
 _symmetry_equiv_pos_site_id
 _symmetry_equiv_pos_as_xyz
  1  'x, y, z'
loop_
 _atom_site_type_symbol
 _atom_site_label
 _atom_site_symmetry_multiplicity
 _atom_site_fract_x
 _atom_site_fract_y
 _atom_site_fract_z
 _atom_site_occupancy
  C  C0  1  0.94889300  0.87243100  0.13812400  1
  C  C1  1  0.55110700  0.87243100  0.63812400  1
  C  C2  1  0.05110700  0.12756900  0.86187600  1
  C  C3  1  0.44889300  0.12756900  0.36187600  1
  C  C4  1  0.42900300  0.29578200  0.46603700  1
  C  C5  1  0.60059100  0.29800400  0.21219000  1
  C  C6  1  0.10059100  0.70199600  0.28781000  1
  C  C7  1  0.39940900  0.70199600  0.78781000  1
  C  C8  1  0.89940900  0.29800400  0.71219000  1
  C  C9  1  0.92900300  0.70421800  0.03396300  1
  C  C10  1  0.57099700  0.70421800  0.53396300  1
  C  C11  1  0.07099700  0.29578200  0.96603700  1
  Ni  Ni12  1  0.41659000  0.97523600  0.64626600  1
  Ni  Ni13  1  0.08341000  0.97523600  0.14626600  1
  Ni  Ni14  1  0.58341000  0.02476400  0.35373400  1
  Ni  Ni15  1  0.91659000  0.02476400  0.85373400  1
  Cu  Cu16  1  0.29092800  0.19119100  0.27025100  1
  Cu  Cu17  1  0.71755400  0.92869100  0.34680600  1
  Cu  Cu18  1  0.77719000  0.69674900  0.12582000  1
  Cu  Cu19  1  0.42042300  0.31565500  0.12816700  1
  Cu  Cu20  1  0.83993100  0.95511500  0.60484400  1
  Cu  Cu21  1  0.25804300  0.44253800  0.97506900  1
  Cu  Cu22  1  0.16492700  0.16935100  0.50711300  1
  Cu  Cu23  1  0.61792900  0.12852800  0.44258800  1
  Cu  Cu24  1  0.07957700  0.31565500  0.62816700  1
  Cu  Cu25  1  0.83507300  0.83064900  0.49288700  1
  Cu  Cu26  1  0.38170800  0.74963100  0.44995600  1
  Cu  Cu27  1  0.40906500  0.61470700  0.32475800  1
  Cu  Cu28  1  0.57957700  0.68434500  0.87183300  1
  Cu  Cu29  1  0.78766300  0.39732000  0.91773400  1
  Cu  Cu30  1  0.21755400  0.07130900  0.15319400  1
  Cu  Cu31  1  0.88170800  0.25036900  0.05004400  1
  Cu  Cu32  1  0.71233700  0.39732000  0.41773400  1
  Cu  Cu33  1  0.75804300  0.55746200  0.52493100  1
  Cu  Cu34  1  0.76934100  0.25824000  0.81080600  1
  Cu  Cu35  1  0.22281000  0.30325100  0.87418000  1
  Cu  Cu36  1  0.24195700  0.44253800  0.47506900  1
  Cu  Cu37  1  0.72821100  0.12624400  0.21296500  1
  Cu  Cu38  1  0.11829200  0.74963100  0.94995600  1
  Cu  Cu39  1  0.66492700  0.83064900  0.99288700  1
  Cu  Cu40  1  0.79092800  0.80880900  0.22974900  1
  Cu  Cu41  1  0.70907200  0.80880900  0.72974900  1
  Cu  Cu42  1  0.66006900  0.95511500  0.10484400  1
  Cu  Cu43  1  0.74195700  0.55746200  0.02493100  1
  Cu  Cu44  1  0.61829200  0.25036900  0.55004400  1
  Cu  Cu45  1  0.05817800  0.45328500  0.72280800  1
  Cu  Cu46  1  0.78244600  0.92869100  0.84680600  1
  Cu  Cu47  1  0.55817800  0.54671500  0.77719200  1
  Cu  Cu48  1  0.72281000  0.69674900  0.62582000  1
  Cu  Cu49  1  0.28766300  0.60268000  0.58226600  1
  Cu  Cu50  1  0.44182200  0.45328500  0.22280800  1
  Cu  Cu51  1  0.27719000  0.30325100  0.37418000  1
  Cu  Cu52  1  0.21233700  0.60268000  0.08226600  1
  Cu  Cu53  1  0.11792900  0.87147200  0.05741200  1
  Cu  Cu54  1  0.90906500  0.38529300  0.17524200  1
  Cu  Cu55  1  0.92042300  0.68434500  0.37183300  1
  Cu  Cu56  1  0.59093500  0.38529300  0.67524200  1
  Cu  Cu57  1  0.33993100  0.04488500  0.89515600  1
  Cu  Cu58  1  0.22821100  0.87375600  0.28703500  1
  Cu  Cu59  1  0.38207100  0.87147200  0.55741200  1
  Cu  Cu60  1  0.20907200  0.19119100  0.77025100  1
  Cu  Cu61  1  0.16006900  0.04488500  0.39515600  1
  Cu  Cu62  1  0.23065900  0.74176000  0.18919400  1
  Cu  Cu63  1  0.94182200  0.54671500  0.27719200  1
  Cu  Cu64  1  0.33507300  0.16935100  0.00711300  1
  Cu  Cu65  1  0.28244600  0.07130900  0.65319400  1
  Cu  Cu66  1  0.26934100  0.74176000  0.68919400  1
  Cu  Cu67  1  0.73065900  0.25824000  0.31080600  1
  Cu  Cu68  1  0.27178900  0.87375600  0.78703500  1
  Cu  Cu69  1  0.09093500  0.61470700  0.82475800  1
  Cu  Cu70  1  0.77178900  0.12624400  0.71296500  1
  Cu  Cu71  1  0.88207100  0.12852800  0.94258800  1
