# generated using pymatgen
data_Cu(NiC3)2
_symmetry_space_group_name_H-M   'P 1'
_cell_length_a   4.97087969
_cell_length_b   4.97087969
_cell_length_c   10.73742800
_cell_angle_alpha   90.00000000
_cell_angle_beta   90.00000000
_cell_angle_gamma   119.99999586
_symmetry_Int_Tables_number   1
_chemical_formula_structural   Cu(NiC3)2
_chemical_formula_sum   'Cu3 Ni6 C18'
_cell_volume   229.77216610
_cell_formula_units_Z   3
loop_
 _symmetry_equiv_pos_site_id
 _symmetry_equiv_pos_as_xyz
  1  'x, y, z'
loop_
 _atom_site_type_symbol
 _atom_site_label
 _atom_site_symmetry_multiplicity
 _atom_site_fract_x
 _atom_site_fract_y
 _atom_site_fract_z
 _atom_site_occupancy
  C  C0  1  0.80489100  0.72152800  0.74705300  1
  C  C1  1  0.08336300  0.27847200  0.91961400  1
  C  C2  1  0.40648400  0.61125400  0.93307300  1
  C  C3  1  0.44099000  0.90788900  0.76663800  1
  C  C4  1  0.53310100  0.09211100  0.90002900  1
  C  C5  1  0.79523000  0.38874600  0.73359400  1
  C  C6  1  0.46689900  0.55901000  0.43330500  1
  C  C7  1  0.91663700  0.19510900  0.41371900  1
  C  C8  1  0.59351600  0.20477000  0.40026000  1
  C  C9  1  0.19510900  0.91663700  0.58628100  1
  C  C10  1  0.20477000  0.59351600  0.59974000  1
  C  C11  1  0.55901000  0.46689900  0.56669500  1
  C  C12  1  0.72152800  0.80489100  0.25294700  1
  C  C13  1  0.90788900  0.44099000  0.23336200  1
  C  C14  1  0.27847200  0.08336300  0.08038600  1
  C  C15  1  0.61125400  0.40648400  0.06692700  1
  C  C16  1  0.38874600  0.79523000  0.26640600  1
  C  C17  1  0.09211100  0.53310100  0.09997100  1
  Ni  Ni18  1  0.74890600  0.16545700  0.35060300  1
  Ni  Ni19  1  0.41655200  0.25109400  0.01727000  1
  Ni  Ni20  1  0.83454300  0.58344800  0.68393700  1
  Ni  Ni21  1  0.25109400  0.41655200  0.98273000  1
  Ni  Ni22  1  0.16545700  0.74890600  0.64939700  1
  Ni  Ni23  1  0.58344800  0.83454300  0.31606300  1
  Cu  Cu24  1  0.61009900  0.00000000  0.83333300  1
  Cu  Cu25  1  0.38990100  0.38990100  0.50000000  1
  Cu  Cu26  1  0.00000000  0.61009900  0.16666700  1
