# generated using pymatgen
data_Cu4Ni4C3
_symmetry_space_group_name_H-M   'P 1'
_cell_length_a   17.81058439
_cell_length_b   17.81058439
_cell_length_c   17.81058439
_cell_angle_alpha   60.00000000
_cell_angle_beta   60.00000000
_cell_angle_gamma   60.00000000
_symmetry_Int_Tables_number   1
_chemical_formula_structural   Cu4Ni4C3
_chemical_formula_sum   'Cu64 Ni64 C48'
_cell_volume   3995.02508639
_cell_formula_units_Z   16
loop_
 _symmetry_equiv_pos_site_id
 _symmetry_equiv_pos_as_xyz
  1  'x, y, z'
loop_
 _atom_site_type_symbol
 _atom_site_label
 _atom_site_symmetry_multiplicity
 _atom_site_fract_x
 _atom_site_fract_y
 _atom_site_fract_z
 _atom_site_occupancy
  C  C0  1  0.93843300  0.18470000  0.93843300  1
  C  C1  1  0.43361900  0.97702500  0.68777400  1
  C  C2  1  0.18777400  0.47702500  0.93361900  1
  C  C3  1  0.18470000  0.93843300  0.93843300  1
  C  C4  1  0.93843300  0.93843300  0.93843300  1
  C  C5  1  0.68777400  0.43361900  0.97702500  1
  C  C6  1  0.43843300  0.43843300  0.68470000  1
  C  C7  1  0.68470000  0.43843300  0.43843300  1
  C  C8  1  0.90158100  0.97702500  0.43361900  1
  C  C9  1  0.97702500  0.43361900  0.90158100  1
  C  C10  1  0.40158100  0.47702500  0.18777400  1
  C  C11  1  0.93361900  0.40158100  0.18777400  1
  C  C12  1  0.97702500  0.90158100  0.68777400  1
  C  C13  1  0.47702500  0.40158100  0.93361900  1
  C  C14  1  0.90158100  0.68777400  0.97702500  1
  C  C15  1  0.43843300  0.68470000  0.43843300  1
  C  C16  1  0.43843300  0.43843300  0.43843300  1
  C  C17  1  0.18777400  0.93361900  0.40158100  1
  C  C18  1  0.90158100  0.43361900  0.68777400  1
  C  C19  1  0.40158100  0.18777400  0.93361900  1
  C  C20  1  0.43361900  0.68777400  0.90158100  1
  C  C21  1  0.47702500  0.18777400  0.40158100  1
  C  C22  1  0.93361900  0.47702500  0.40158100  1
  C  C23  1  0.40158100  0.93361900  0.47702500  1
  C  C24  1  0.68777400  0.97702500  0.90158100  1
  C  C25  1  0.93843300  0.93843300  0.18470000  1
  C  C26  1  0.18777400  0.40158100  0.47702500  1
  C  C27  1  0.68777400  0.90158100  0.43361900  1
  C  C28  1  0.43361900  0.90158100  0.97702500  1
  C  C29  1  0.93361900  0.18777400  0.47702500  1
  C  C30  1  0.97702500  0.68777400  0.43361900  1
  C  C31  1  0.47702500  0.93361900  0.18777400  1
  C  C32  1  0.62876100  0.11371600  0.62876100  1
  C  C33  1  0.62876100  0.62876100  0.62876100  1
  C  C34  1  0.62876100  0.62876100  0.11371600  1
  C  C35  1  0.61371600  0.12876100  0.12876100  1
  C  C36  1  0.75000000  0.75000000  0.75000000  1
  C  C37  1  0.12876100  0.61371600  0.12876100  1
  C  C38  1  0.25000000  0.75000000  0.25000000  1
  C  C39  1  0.11371600  0.62876100  0.62876100  1
  C  C40  1  0.25000000  0.75000000  0.75000000  1
  C  C41  1  0.75000000  0.25000000  0.75000000  1
  C  C42  1  0.25000000  0.25000000  0.25000000  1
  C  C43  1  0.75000000  0.75000000  0.25000000  1
  C  C44  1  0.12876100  0.12876100  0.12876100  1
  C  C45  1  0.12876100  0.12876100  0.61371600  1
  C  C46  1  0.25000000  0.25000000  0.75000000  1
  C  C47  1  0.75000000  0.25000000  0.25000000  1
  Ni  Ni48  1  0.61424100  0.76458600  0.06462300  1
  Ni  Ni49  1  0.61424100  0.55655000  0.76458600  1
  Ni  Ni50  1  0.11424100  0.05655000  0.56462300  1
  Ni  Ni51  1  0.56462300  0.11424100  0.05655000  1
  Ni  Ni52  1  0.82972900  0.11738900  0.76433800  1
  Ni  Ni53  1  0.28854300  0.11738900  0.82972900  1
  Ni  Ni54  1  0.06462300  0.76458600  0.55655000  1
  Ni  Ni55  1  0.79586000  0.79586000  0.79586000  1
  Ni  Ni56  1  0.26458600  0.11424100  0.56462300  1
  Ni  Ni57  1  0.05655000  0.26458600  0.56462300  1
  Ni  Ni58  1  0.82972900  0.28854300  0.11738900  1
  Ni  Ni59  1  0.05655000  0.11424100  0.26458600  1
  Ni  Ni60  1  0.26458600  0.56462300  0.05655000  1
  Ni  Ni61  1  0.26433800  0.78854300  0.61738900  1
  Ni  Ni62  1  0.11738900  0.82972900  0.28854300  1
  Ni  Ni63  1  0.61424100  0.06462300  0.55655000  1
  Ni  Ni64  1  0.11424100  0.56462300  0.26458600  1
  Ni  Ni65  1  0.76433800  0.82972900  0.11738900  1
  Ni  Ni66  1  0.78854300  0.32972900  0.61738900  1
  Ni  Ni67  1  0.25439100  0.58187000  0.58187000  1
  Ni  Ni68  1  0.08187000  0.08187000  0.75439100  1
  Ni  Ni69  1  0.79586000  0.61241900  0.79586000  1
  Ni  Ni70  1  0.29586000  0.29586000  0.11241900  1
  Ni  Ni71  1  0.29586000  0.29586000  0.29586000  1
  Ni  Ni72  1  0.11738900  0.28854300  0.76433800  1
  Ni  Ni73  1  0.26433800  0.61738900  0.32972900  1
  Ni  Ni74  1  0.78854300  0.26433800  0.32972900  1
  Ni  Ni75  1  0.32972900  0.26433800  0.61738900  1
  Ni  Ni76  1  0.11424100  0.26458600  0.05655000  1
  Ni  Ni77  1  0.11241900  0.29586000  0.29586000  1
  Ni  Ni78  1  0.55655000  0.06462300  0.76458600  1
  Ni  Ni79  1  0.28854300  0.76433800  0.11738900  1
  Ni  Ni80  1  0.26433800  0.32972900  0.78854300  1
  Ni  Ni81  1  0.76458600  0.55655000  0.06462300  1
  Ni  Ni82  1  0.58187000  0.58187000  0.25439100  1
  Ni  Ni83  1  0.78854300  0.61738900  0.26433800  1
  Ni  Ni84  1  0.61738900  0.78854300  0.32972900  1
  Ni  Ni85  1  0.61738900  0.26433800  0.78854300  1
  Ni  Ni86  1  0.05655000  0.56462300  0.11424100  1
  Ni  Ni87  1  0.61738900  0.32972900  0.26433800  1
  Ni  Ni88  1  0.28854300  0.82972900  0.76433800  1
  Ni  Ni89  1  0.79586000  0.79586000  0.61241900  1
  Ni  Ni90  1  0.76433800  0.11738900  0.28854300  1
  Ni  Ni91  1  0.08187000  0.75439100  0.08187000  1
  Ni  Ni92  1  0.06462300  0.55655000  0.61424100  1
  Ni  Ni93  1  0.61241900  0.79586000  0.79586000  1
  Ni  Ni94  1  0.58187000  0.58187000  0.58187000  1
  Ni  Ni95  1  0.56462300  0.05655000  0.26458600  1
  Ni  Ni96  1  0.58187000  0.25439100  0.58187000  1
  Ni  Ni97  1  0.76458600  0.06462300  0.61424100  1
  Ni  Ni98  1  0.82972900  0.76433800  0.28854300  1
  Ni  Ni99  1  0.06462300  0.61424100  0.76458600  1
  Ni  Ni100  1  0.11738900  0.76433800  0.82972900  1
  Ni  Ni101  1  0.56462300  0.26458600  0.11424100  1
  Ni  Ni102  1  0.29586000  0.11241900  0.29586000  1
  Ni  Ni103  1  0.76458600  0.61424100  0.55655000  1
  Ni  Ni104  1  0.08187000  0.08187000  0.08187000  1
  Ni  Ni105  1  0.55655000  0.61424100  0.06462300  1
  Ni  Ni106  1  0.32972900  0.78854300  0.26433800  1
  Ni  Ni107  1  0.55655000  0.76458600  0.61424100  1
  Ni  Ni108  1  0.75439100  0.08187000  0.08187000  1
  Ni  Ni109  1  0.32972900  0.61738900  0.78854300  1
  Ni  Ni110  1  0.76433800  0.28854300  0.82972900  1
  Ni  Ni111  1  0.26458600  0.05655000  0.11424100  1
  Cu  Cu112  1  0.55489700  0.33531000  0.55489700  1
  Cu  Cu113  1  0.77464100  0.30914700  0.87627000  1
  Cu  Cu114  1  0.59766700  0.52004400  0.84450300  1
  Cu  Cu115  1  0.82283200  0.53150300  0.82283200  1
  Cu  Cu116  1  0.87627000  0.77464100  0.30914700  1
  Cu  Cu117  1  0.32283200  0.32283200  0.32283200  1
  Cu  Cu118  1  0.82283200  0.82283200  0.53150300  1
  Cu  Cu119  1  0.77464100  0.03994200  0.30914700  1
  Cu  Cu120  1  0.53994200  0.27464100  0.80914700  1
  Cu  Cu121  1  0.55489700  0.55489700  0.33531000  1
  Cu  Cu122  1  0.33531000  0.55489700  0.55489700  1
  Cu  Cu123  1  0.05489700  0.05489700  0.83531000  1
  Cu  Cu124  1  0.34450300  0.02004400  0.09766700  1
  Cu  Cu125  1  0.30914700  0.77464100  0.03994200  1
  Cu  Cu126  1  0.30914700  0.03994200  0.87627000  1
  Cu  Cu127  1  0.32283200  0.03150300  0.32283200  1
  Cu  Cu128  1  0.03778500  0.84450300  0.52004400  1
  Cu  Cu129  1  0.03778500  0.59766700  0.84450300  1
  Cu  Cu130  1  0.83531000  0.05489700  0.05489700  1
  Cu  Cu131  1  0.87627000  0.03994200  0.77464100  1
  Cu  Cu132  1  0.53778500  0.09766700  0.02004400  1
  Cu  Cu133  1  0.53150300  0.82283200  0.82283200  1
  Cu  Cu134  1  0.27464100  0.37627000  0.80914700  1
  Cu  Cu135  1  0.53778500  0.34450300  0.09766700  1
  Cu  Cu136  1  0.84450300  0.03778500  0.59766700  1
  Cu  Cu137  1  0.03150300  0.32283200  0.32283200  1
  Cu  Cu138  1  0.03994200  0.77464100  0.87627000  1
  Cu  Cu139  1  0.53994200  0.80914700  0.37627000  1
  Cu  Cu140  1  0.53994200  0.37627000  0.27464100  1
  Cu  Cu141  1  0.37627000  0.80914700  0.27464100  1
  Cu  Cu142  1  0.87627000  0.30914700  0.03994200  1
  Cu  Cu143  1  0.05489700  0.05489700  0.05489700  1
  Cu  Cu144  1  0.80914700  0.53994200  0.27464100  1
  Cu  Cu145  1  0.32283200  0.32283200  0.03150300  1
  Cu  Cu146  1  0.84450300  0.52004400  0.03778500  1
  Cu  Cu147  1  0.02004400  0.09766700  0.34450300  1
  Cu  Cu148  1  0.80914700  0.27464100  0.37627000  1
  Cu  Cu149  1  0.09766700  0.34450300  0.02004400  1
  Cu  Cu150  1  0.03778500  0.52004400  0.59766700  1
  Cu  Cu151  1  0.84450300  0.59766700  0.52004400  1
  Cu  Cu152  1  0.27464100  0.53994200  0.37627000  1
  Cu  Cu153  1  0.52004400  0.03778500  0.84450300  1
  Cu  Cu154  1  0.59766700  0.03778500  0.52004400  1
  Cu  Cu155  1  0.09766700  0.02004400  0.53778500  1
  Cu  Cu156  1  0.53778500  0.02004400  0.34450300  1
  Cu  Cu157  1  0.03994200  0.87627000  0.30914700  1
  Cu  Cu158  1  0.34450300  0.09766700  0.53778500  1
  Cu  Cu159  1  0.09766700  0.53778500  0.34450300  1
  Cu  Cu160  1  0.30914700  0.87627000  0.77464100  1
  Cu  Cu161  1  0.59766700  0.84450300  0.03778500  1
  Cu  Cu162  1  0.02004400  0.34450300  0.53778500  1
  Cu  Cu163  1  0.82283200  0.82283200  0.82283200  1
  Cu  Cu164  1  0.02004400  0.53778500  0.09766700  1
  Cu  Cu165  1  0.77464100  0.87627000  0.03994200  1
  Cu  Cu166  1  0.34450300  0.53778500  0.02004400  1
  Cu  Cu167  1  0.05489700  0.83531000  0.05489700  1
  Cu  Cu168  1  0.37627000  0.27464100  0.53994200  1
  Cu  Cu169  1  0.55489700  0.55489700  0.55489700  1
  Cu  Cu170  1  0.52004400  0.59766700  0.03778500  1
  Cu  Cu171  1  0.52004400  0.84450300  0.59766700  1
  Cu  Cu172  1  0.37627000  0.53994200  0.80914700  1
  Cu  Cu173  1  0.03994200  0.30914700  0.77464100  1
  Cu  Cu174  1  0.80914700  0.37627000  0.53994200  1
  Cu  Cu175  1  0.27464100  0.80914700  0.53994200  1
