# generated using pymatgen
data_Cu3NiC3
_symmetry_space_group_name_H-M   'P 1'
_cell_length_a   8.62824300
_cell_length_b   8.62824300
_cell_length_c   8.62824300
_cell_angle_alpha   90.00000000
_cell_angle_beta   90.00000000
_cell_angle_gamma   90.00000000
_symmetry_Int_Tables_number   1
_chemical_formula_structural   Cu3NiC3
_chemical_formula_sum   'Cu12 Ni4 C12'
_cell_volume   642.34315918
_cell_formula_units_Z   4
loop_
 _symmetry_equiv_pos_site_id
 _symmetry_equiv_pos_as_xyz
  1  'x, y, z'
loop_
 _atom_site_type_symbol
 _atom_site_label
 _atom_site_symmetry_multiplicity
 _atom_site_fract_x
 _atom_site_fract_y
 _atom_site_fract_z
 _atom_site_occupancy
  C  C0  1  0.62465800  0.49845400  0.25058400  1
  C  C1  1  0.24941600  0.37534200  0.99845400  1
  C  C2  1  0.99845400  0.24941600  0.37534200  1
  C  C3  1  0.37534200  0.99845400  0.24941600  1
  C  C4  1  0.74941600  0.12465800  0.00154600  1
  C  C5  1  0.12465800  0.00154600  0.74941600  1
  C  C6  1  0.49845400  0.25058400  0.62465800  1
  C  C7  1  0.75058400  0.87534200  0.50154600  1
  C  C8  1  0.50154600  0.75058400  0.87534200  1
  C  C9  1  0.87534200  0.50154600  0.75058400  1
  C  C10  1  0.25058400  0.62465800  0.49845400  1
  C  C11  1  0.00154600  0.74941600  0.12465800  1
  Ni  Ni12  1  0.32624400  0.32624400  0.32624400  1
  Ni  Ni13  1  0.82624400  0.17375600  0.67375600  1
  Ni  Ni14  1  0.67375600  0.82624400  0.17375600  1
  Ni  Ni15  1  0.17375600  0.67375600  0.82624400  1
  Cu  Cu16  1  0.57397500  0.42602500  0.92602500  1
  Cu  Cu17  1  0.17515000  0.32485000  0.67515000  1
  Cu  Cu18  1  0.92497800  0.42497800  0.07502200  1
  Cu  Cu19  1  0.07397500  0.07397500  0.07397500  1
  Cu  Cu20  1  0.42497800  0.07502200  0.92497800  1
  Cu  Cu21  1  0.07502200  0.92497800  0.42497800  1
  Cu  Cu22  1  0.67515000  0.17515000  0.32485000  1
  Cu  Cu23  1  0.42602500  0.92602500  0.57397500  1
  Cu  Cu24  1  0.57502200  0.57502200  0.57502200  1
  Cu  Cu25  1  0.92602500  0.57397500  0.42602500  1
  Cu  Cu26  1  0.32485000  0.67515000  0.17515000  1
  Cu  Cu27  1  0.82485000  0.82485000  0.82485000  1
