# generated using pymatgen
data_Cu2Ni8C7
_symmetry_space_group_name_H-M   'P 1'
_cell_length_a   5.95268798
_cell_length_b   5.95268798
_cell_length_c   5.41595600
_cell_angle_alpha   90.00000000
_cell_angle_beta   90.00000000
_cell_angle_gamma   119.99999972
_symmetry_Int_Tables_number   1
_chemical_formula_structural   Cu2Ni8C7
_chemical_formula_sum   'Cu2 Ni8 C7'
_cell_volume   166.20037424
_cell_formula_units_Z   1
loop_
 _symmetry_equiv_pos_site_id
 _symmetry_equiv_pos_as_xyz
  1  'x, y, z'
loop_
 _atom_site_type_symbol
 _atom_site_label
 _atom_site_symmetry_multiplicity
 _atom_site_fract_x
 _atom_site_fract_y
 _atom_site_fract_z
 _atom_site_occupancy
  C  C0  1  0.00000000  0.00000000  0.00000000  1
  Ni  Ni1  1  0.33333300  0.66666700  0.01071600  1
  Ni  Ni2  1  0.66666700  0.33333300  0.98928400  1
  Ni  Ni3  1  0.57138900  0.14277800  0.73935400  1
  Ni  Ni4  1  0.57138900  0.42861100  0.73935400  1
  Ni  Ni5  1  0.85722200  0.42861100  0.73935400  1
  Ni  Ni6  1  0.42861100  0.85722200  0.26064600  1
  Ni  Ni7  1  0.42861100  0.57138900  0.26064600  1
  Ni  Ni8  1  0.14277800  0.57138900  0.26064600  1
  Cu  Cu9  1  0.33333300  0.66666700  0.20109100  1
  Cu  Cu10  1  0.66666700  0.33333300  0.79890900  1
  C  C11  1  0.15125500  0.84874500  0.80048200  1
  C  C12  1  0.69748900  0.84874500  0.80048200  1
  C  C13  1  0.15125500  0.30251100  0.80048200  1
  C  C14  1  0.84874500  0.15125500  0.19951800  1
  C  C15  1  0.30251100  0.15125500  0.19951800  1
  C  C16  1  0.84874500  0.69748900  0.19951800  1
