# generated using pymatgen
data_Cu(NiC5)2
_symmetry_space_group_name_H-M   'P 1'
_cell_length_a   8.44603000
_cell_length_b   13.17358900
_cell_length_c   15.02722400
_cell_angle_alpha   90.00000000
_cell_angle_beta   90.00000000
_cell_angle_gamma   90.00000000
_symmetry_Int_Tables_number   1
_chemical_formula_structural   Cu(NiC5)2
_chemical_formula_sum   'Cu8 Ni16 C80'
_cell_volume   1671.99698403
_cell_formula_units_Z   8
loop_
 _symmetry_equiv_pos_site_id
 _symmetry_equiv_pos_as_xyz
  1  'x, y, z'
loop_
 _atom_site_type_symbol
 _atom_site_label
 _atom_site_symmetry_multiplicity
 _atom_site_fract_x
 _atom_site_fract_y
 _atom_site_fract_z
 _atom_site_occupancy
  C  C0  1  0.75000000  0.89112600  0.80961200  1
  C  C1  1  0.75000000  0.60887400  0.30961200  1
  C  C2  1  0.25000000  0.39112600  0.69038800  1
  C  C3  1  0.25000000  0.10887400  0.19038800  1
  C  C4  1  0.75000000  0.58852400  0.86368900  1
  C  C5  1  0.25000000  0.08852400  0.63631100  1
  C  C6  1  0.75000000  0.91147600  0.36368900  1
  C  C7  1  0.75000000  0.35998200  0.41512300  1
  C  C8  1  0.25000000  0.85998200  0.08487700  1
  C  C9  1  0.25000000  0.64001800  0.58487700  1
  C  C10  1  0.75000000  0.14001800  0.91512300  1
  C  C11  1  0.25000000  0.41147600  0.13631100  1
  C  C12  1  0.66846000  0.36649800  0.69584700  1
  C  C13  1  0.75000000  0.76494100  0.11098300  1
  C  C14  1  0.16846000  0.63350200  0.30415300  1
  C  C15  1  0.33154000  0.63350200  0.30415300  1
  C  C16  1  0.66846000  0.13350200  0.19584700  1
  C  C17  1  0.33154000  0.86649800  0.80415300  1
  C  C18  1  0.75000000  0.81674900  0.03134400  1
  C  C19  1  0.25000000  0.31674900  0.46865600  1
  C  C20  1  0.75000000  0.73505900  0.61098300  1
  C  C21  1  0.25000000  0.18325100  0.96865600  1
  C  C22  1  0.16846000  0.86649800  0.80415300  1
  C  C23  1  0.83154000  0.36649800  0.69584700  1
  C  C24  1  0.83154000  0.13350200  0.19584700  1
  C  C25  1  0.75000000  0.68325100  0.53134400  1
  C  C26  1  0.25000000  0.23505900  0.88901700  1
  C  C27  1  0.25000000  0.26494100  0.38901700  1
  C  C28  1  0.75000000  0.43602400  0.10677200  1
  C  C29  1  0.25000000  0.93602400  0.39322800  1
  C  C30  1  0.25000000  0.56397600  0.89322800  1
  C  C31  1  0.75000000  0.06397600  0.60677200  1
  Ni  Ni32  1  0.96906000  0.12992100  0.19692600  1
  Ni  Ni33  1  0.25000000  0.21840900  0.32316800  1
  Ni  Ni34  1  0.75000000  0.85663600  0.96230500  1
  Ni  Ni35  1  0.75000000  0.71840900  0.17683200  1
  Ni  Ni36  1  0.03094000  0.87007900  0.80307400  1
  Ni  Ni37  1  0.53094000  0.37007900  0.69692600  1
  Ni  Ni38  1  0.46906000  0.87007900  0.80307400  1
  Ni  Ni39  1  0.46906000  0.62992100  0.30307400  1
  Ni  Ni40  1  0.25000000  0.28159100  0.82316800  1
  Ni  Ni41  1  0.25000000  0.35663600  0.53769500  1
  Ni  Ni42  1  0.25000000  0.14336400  0.03769500  1
  Ni  Ni43  1  0.96906000  0.37007900  0.69692600  1
  Ni  Ni44  1  0.53094000  0.12992100  0.19692600  1
  Ni  Ni45  1  0.75000000  0.64336400  0.46230500  1
  Ni  Ni46  1  0.75000000  0.78159100  0.67683200  1
  Ni  Ni47  1  0.03094000  0.62992100  0.30307400  1
  Cu  Cu48  1  0.25000000  0.49595600  0.81637900  1
  Cu  Cu49  1  0.75000000  0.99595600  0.68362100  1
  Cu  Cu50  1  0.25000000  0.67116500  0.87559400  1
  Cu  Cu51  1  0.75000000  0.50404400  0.18362100  1
  Cu  Cu52  1  0.75000000  0.32883500  0.12440600  1
  Cu  Cu53  1  0.25000000  0.82883500  0.37559400  1
  Cu  Cu54  1  0.25000000  0.00404400  0.31637900  1
  Cu  Cu55  1  0.75000000  0.17116500  0.62440600  1
  C  C56  1  0.10420900  0.31588000  0.15221300  1
  C  C57  1  0.75000000  0.93660100  0.24772500  1
  C  C58  1  0.75000000  0.61388900  0.97993800  1
  C  C59  1  0.89476800  0.44862900  0.37302200  1
  C  C60  1  0.60420900  0.68412000  0.84778700  1
  C  C61  1  0.39476800  0.55137100  0.62697800  1
  C  C62  1  0.89863300  0.00402100  0.37988200  1
  C  C63  1  0.90247000  0.28019700  0.45378700  1
  C  C64  1  0.40247000  0.78019700  0.04621300  1
  C  C65  1  0.25000000  0.38611100  0.02006200  1
  C  C66  1  0.75000000  0.07511000  0.01830600  1
  C  C67  1  0.60523200  0.44862900  0.37302200  1
  C  C68  1  0.75000000  0.88611100  0.47993800  1
  C  C69  1  0.39579100  0.18412000  0.65221300  1
  C  C70  1  0.89579100  0.81588000  0.34778700  1
  C  C71  1  0.60420900  0.81588000  0.34778700  1
  C  C72  1  0.09753000  0.71980300  0.54621300  1
  C  C73  1  0.90247000  0.21980300  0.95378700  1
  C  C74  1  0.60136700  0.00402100  0.37988200  1
  C  C75  1  0.39863300  0.50402100  0.12011800  1
  C  C76  1  0.39863300  0.99597900  0.62011800  1
  C  C77  1  0.10136700  0.50402100  0.12011800  1
  C  C78  1  0.60523200  0.05137100  0.87302200  1
  C  C79  1  0.59753000  0.28019700  0.45378700  1
  C  C80  1  0.10136700  0.99597900  0.62011800  1
  C  C81  1  0.75000000  0.56339900  0.74772500  1
  C  C82  1  0.40247000  0.71980300  0.54621300  1
  C  C83  1  0.25000000  0.06339900  0.75227500  1
  C  C84  1  0.09753000  0.78019700  0.04621300  1
  C  C85  1  0.25000000  0.57511000  0.48169400  1
  C  C86  1  0.10420900  0.18412000  0.65221300  1
  C  C87  1  0.25000000  0.70344500  0.68787000  1
  C  C88  1  0.25000000  0.11388900  0.52006200  1
  C  C89  1  0.75000000  0.20344500  0.81213000  1
  C  C90  1  0.89579100  0.68412000  0.84778700  1
  C  C91  1  0.39476800  0.94862900  0.12697800  1
  C  C92  1  0.25000000  0.92489000  0.98169400  1
  C  C93  1  0.10523200  0.55137100  0.62697800  1
  C  C94  1  0.75000000  0.29655500  0.31213000  1
  C  C95  1  0.10523200  0.94862900  0.12697800  1
  C  C96  1  0.89476800  0.05137100  0.87302200  1
  C  C97  1  0.75000000  0.42489000  0.51830600  1
  C  C98  1  0.60136700  0.49597900  0.87988200  1
  C  C99  1  0.39579100  0.31588000  0.15221300  1
  C  C100  1  0.25000000  0.43660100  0.25227500  1
  C  C101  1  0.25000000  0.79655500  0.18787000  1
  C  C102  1  0.89863300  0.49597900  0.87988200  1
  C  C103  1  0.59753000  0.21980300  0.95378700  1
