# generated using pymatgen
data_Cu12Ni2C13
_symmetry_space_group_name_H-M   'P 1'
_cell_length_a   11.13151100
_cell_length_b   11.13151100
_cell_length_c   11.13151100
_cell_angle_alpha   90.00000000
_cell_angle_beta   90.00000000
_cell_angle_gamma   90.00000000
_symmetry_Int_Tables_number   1
_chemical_formula_structural   Cu12Ni2C13
_chemical_formula_sum   'Cu48 Ni8 C52'
_cell_volume   1379.31150722
_cell_formula_units_Z   4
loop_
 _symmetry_equiv_pos_site_id
 _symmetry_equiv_pos_as_xyz
  1  'x, y, z'
loop_
 _atom_site_type_symbol
 _atom_site_label
 _atom_site_symmetry_multiplicity
 _atom_site_fract_x
 _atom_site_fract_y
 _atom_site_fract_z
 _atom_site_occupancy
  C  C0  1  0.50000000  0.50000000  0.00000000  1
  C  C1  1  0.50000000  0.00000000  0.50000000  1
  C  C2  1  0.00000000  0.50000000  0.50000000  1
  C  C3  1  0.00000000  0.00000000  0.00000000  1
  C  C4  1  0.04695500  0.63383900  0.20360400  1
  C  C5  1  0.95304500  0.13383900  0.29639600  1
  C  C6  1  0.45304500  0.36616100  0.70360400  1
  C  C7  1  0.54695500  0.86616100  0.79639600  1
  C  C8  1  0.20360400  0.04695500  0.63383900  1
  C  C9  1  0.29639600  0.95304500  0.13383900  1
  C  C10  1  0.70360400  0.45304500  0.36616100  1
  C  C11  1  0.79639600  0.54695500  0.86616100  1
  C  C12  1  0.63383900  0.20360400  0.04695500  1
  C  C13  1  0.13383900  0.29639600  0.95304500  1
  C  C14  1  0.36616100  0.70360400  0.45304500  1
  C  C15  1  0.86616100  0.79639600  0.54695500  1
  C  C16  1  0.95304500  0.36616100  0.79639600  1
  C  C17  1  0.04695500  0.86616100  0.70360400  1
  C  C18  1  0.54695500  0.63383900  0.29639600  1
  C  C19  1  0.45304500  0.13383900  0.20360400  1
  C  C20  1  0.79639600  0.95304500  0.36616100  1
  C  C21  1  0.70360400  0.04695500  0.86616100  1
  C  C22  1  0.29639600  0.54695500  0.63383900  1
  C  C23  1  0.20360400  0.45304500  0.13383900  1
  C  C24  1  0.36616100  0.79639600  0.95304500  1
  C  C25  1  0.86616100  0.70360400  0.04695500  1
  C  C26  1  0.63383900  0.29639600  0.54695500  1
  C  C27  1  0.13383900  0.20360400  0.45304500  1
  C  C28  1  0.19732200  0.40177300  0.88569700  1
  C  C29  1  0.80267800  0.90177300  0.61430300  1
  C  C30  1  0.30267800  0.59822700  0.38569700  1
  C  C31  1  0.69732200  0.09822700  0.11430300  1
  C  C32  1  0.88569700  0.19732200  0.40177300  1
  C  C33  1  0.61430300  0.80267800  0.90177300  1
  C  C34  1  0.38569700  0.30267800  0.59822700  1
  C  C35  1  0.11430300  0.69732200  0.09822700  1
  C  C36  1  0.40177300  0.88569700  0.19732200  1
  C  C37  1  0.90177300  0.61430300  0.80267800  1
  C  C38  1  0.59822700  0.38569700  0.30267800  1
  C  C39  1  0.09822700  0.11430300  0.69732200  1
  C  C40  1  0.80267800  0.59822700  0.11430300  1
  C  C41  1  0.19732200  0.09822700  0.38569700  1
  C  C42  1  0.69732200  0.40177300  0.61430300  1
  C  C43  1  0.30267800  0.90177300  0.88569700  1
  C  C44  1  0.11430300  0.80267800  0.59822700  1
  C  C45  1  0.38569700  0.19732200  0.09822700  1
  C  C46  1  0.61430300  0.69732200  0.40177300  1
  C  C47  1  0.88569700  0.30267800  0.90177300  1
  C  C48  1  0.59822700  0.11430300  0.80267800  1
  C  C49  1  0.09822700  0.38569700  0.19732200  1
  C  C50  1  0.40177300  0.61430300  0.69732200  1
  C  C51  1  0.90177300  0.88569700  0.30267800  1
  Ni  Ni52  1  0.16768700  0.83231300  0.33231300  1
  Ni  Ni53  1  0.83231300  0.33231300  0.16768700  1
  Ni  Ni54  1  0.33231300  0.16768700  0.83231300  1
  Ni  Ni55  1  0.66768700  0.66768700  0.66768700  1
  Ni  Ni56  1  0.83231300  0.16768700  0.66768700  1
  Ni  Ni57  1  0.16768700  0.66768700  0.83231300  1
  Ni  Ni58  1  0.66768700  0.83231300  0.16768700  1
  Ni  Ni59  1  0.33231300  0.33231300  0.33231300  1
  Cu  Cu60  1  0.12652500  0.64366000  0.16624500  1
  Cu  Cu61  1  0.87347500  0.14366000  0.33375500  1
  Cu  Cu62  1  0.37347500  0.35634000  0.66624500  1
  Cu  Cu63  1  0.62652500  0.85634000  0.83375500  1
  Cu  Cu64  1  0.16624500  0.12652500  0.64366000  1
  Cu  Cu65  1  0.33375500  0.87347500  0.14366000  1
  Cu  Cu66  1  0.66624500  0.37347500  0.35634000  1
  Cu  Cu67  1  0.83375500  0.62652500  0.85634000  1
  Cu  Cu68  1  0.64366000  0.16624500  0.12652500  1
  Cu  Cu69  1  0.14366000  0.33375500  0.87347500  1
  Cu  Cu70  1  0.35634000  0.66624500  0.37347500  1
  Cu  Cu71  1  0.85634000  0.83375500  0.62652500  1
  Cu  Cu72  1  0.87347500  0.35634000  0.83375500  1
  Cu  Cu73  1  0.12652500  0.85634000  0.66624500  1
  Cu  Cu74  1  0.62652500  0.64366000  0.33375500  1
  Cu  Cu75  1  0.37347500  0.14366000  0.16624500  1
  Cu  Cu76  1  0.83375500  0.87347500  0.35634000  1
  Cu  Cu77  1  0.66624500  0.12652500  0.85634000  1
  Cu  Cu78  1  0.33375500  0.62652500  0.64366000  1
  Cu  Cu79  1  0.16624500  0.37347500  0.14366000  1
  Cu  Cu80  1  0.35634000  0.83375500  0.87347500  1
  Cu  Cu81  1  0.85634000  0.66624500  0.12652500  1
  Cu  Cu82  1  0.64366000  0.33375500  0.62652500  1
  Cu  Cu83  1  0.14366000  0.16624500  0.37347500  1
  Cu  Cu84  1  0.51240500  0.47020900  0.83925400  1
  Cu  Cu85  1  0.48759500  0.97020900  0.66074600  1
  Cu  Cu86  1  0.98759500  0.52979100  0.33925400  1
  Cu  Cu87  1  0.01240500  0.02979100  0.16074600  1
  Cu  Cu88  1  0.83925400  0.51240500  0.47020900  1
  Cu  Cu89  1  0.66074600  0.48759500  0.97020900  1
  Cu  Cu90  1  0.33925400  0.98759500  0.52979100  1
  Cu  Cu91  1  0.16074600  0.01240500  0.02979100  1
  Cu  Cu92  1  0.47020900  0.83925400  0.51240500  1
  Cu  Cu93  1  0.97020900  0.66074600  0.48759500  1
  Cu  Cu94  1  0.52979100  0.33925400  0.98759500  1
  Cu  Cu95  1  0.02979100  0.16074600  0.01240500  1
  Cu  Cu96  1  0.48759500  0.52979100  0.16074600  1
  Cu  Cu97  1  0.51240500  0.02979100  0.33925400  1
  Cu  Cu98  1  0.01240500  0.47020900  0.66074600  1
  Cu  Cu99  1  0.98759500  0.97020900  0.83925400  1
  Cu  Cu100  1  0.16074600  0.48759500  0.52979100  1
  Cu  Cu101  1  0.33925400  0.51240500  0.02979100  1
  Cu  Cu102  1  0.66074600  0.01240500  0.47020900  1
  Cu  Cu103  1  0.83925400  0.98759500  0.97020900  1
  Cu  Cu104  1  0.52979100  0.16074600  0.48759500  1
  Cu  Cu105  1  0.02979100  0.33925400  0.51240500  1
  Cu  Cu106  1  0.47020900  0.66074600  0.01240500  1
  Cu  Cu107  1  0.97020900  0.83925400  0.98759500  1
