# generated using pymatgen
data_CuNiC18
_symmetry_space_group_name_H-M   'P 1'
_cell_length_a   17.26948700
_cell_length_b   8.40394100
_cell_length_c   8.77749089
_cell_angle_alpha   88.34604692
_cell_angle_beta   90.00000000
_cell_angle_gamma   90.00000000
_symmetry_Int_Tables_number   1
_chemical_formula_structural   CuNiC18
_chemical_formula_sum   'Cu4 Ni4 C72'
_cell_volume   1273.36188130
_cell_formula_units_Z   4
loop_
 _symmetry_equiv_pos_site_id
 _symmetry_equiv_pos_as_xyz
  1  'x, y, z'
loop_
 _atom_site_type_symbol
 _atom_site_label
 _atom_site_symmetry_multiplicity
 _atom_site_fract_x
 _atom_site_fract_y
 _atom_site_fract_z
 _atom_site_occupancy
  Ni  Ni0  1  0.62443900  0.23555600  0.49971600  1
  Ni  Ni1  1  0.87556100  0.73555600  0.49971600  1
  Ni  Ni2  1  0.37556100  0.76444400  0.50028400  1
  Ni  Ni3  1  0.12443900  0.26444400  0.50028400  1
  C  C4  1  0.05221800  0.63143900  0.27445000  1
  C  C5  1  0.31609900  0.41744400  0.21819100  1
  C  C6  1  0.44778200  0.13143900  0.27445000  1
  C  C7  1  0.44091100  0.41232500  0.79407000  1
  C  C8  1  0.70436800  0.83369200  0.23724400  1
  C  C9  1  0.94091100  0.08767500  0.20593000  1
  C  C10  1  0.55908900  0.58767500  0.20593000  1
  C  C11  1  0.79563200  0.33369200  0.23724400  1
  C  C12  1  0.68390100  0.58255600  0.78180900  1
  C  C13  1  0.29563200  0.16630800  0.76275600  1
  C  C14  1  0.81609900  0.08255600  0.78180900  1
  C  C15  1  0.20436800  0.66630800  0.76275600  1
  C  C16  1  0.05908900  0.91232500  0.79407000  1
  C  C17  1  0.94778200  0.36856100  0.72555000  1
  C  C18  1  0.18390100  0.91744400  0.21819100  1
  C  C19  1  0.55221800  0.86856100  0.72555000  1
  Cu  Cu20  1  0.62323600  0.20844100  0.99270400  1
  Cu  Cu21  1  0.12323600  0.29155900  0.00729600  1
  Cu  Cu22  1  0.37676400  0.79155900  0.00729600  1
  Cu  Cu23  1  0.87676400  0.70844100  0.99270400  1
  C  C24  1  0.70755800  0.94149600  0.38537700  1
  C  C25  1  0.89964800  0.53148300  0.77077500  1
  C  C26  1  0.53726100  0.13204000  0.20579400  1
  C  C27  1  0.15982500  0.11159300  0.20990900  1
  C  C28  1  0.29477800  0.72733500  0.80237500  1
  C  C29  1  0.01594700  0.00637100  0.65629700  1
  C  C30  1  0.20755800  0.55850400  0.61462300  1
  C  C31  1  0.77873300  0.12424100  0.61853000  1
  C  C32  1  0.85412400  0.16564300  0.28275800  1
  C  C33  1  0.50358300  0.73126700  0.13632500  1
  C  C34  1  0.66556700  0.93262700  0.09380100  1
  C  C35  1  0.10080200  0.79826900  0.19295000  1
  C  C36  1  0.41781800  0.53846300  0.92878000  1
  C  C37  1  0.79244200  0.44149600  0.38537700  1
  C  C38  1  0.33443300  0.06737300  0.90619900  1
  C  C39  1  0.27873300  0.37575900  0.38147000  1
  C  C40  1  0.91781800  0.96153700  0.07122000  1
  C  C41  1  0.70522200  0.27266500  0.19762500  1
  C  C42  1  0.99641700  0.23126700  0.13632500  1
  C  C43  1  0.34017500  0.61159300  0.20990900  1
  C  C44  1  0.16556700  0.56737300  0.90619900  1
  C  C45  1  0.08218200  0.03846300  0.92878000  1
  C  C46  1  0.98405300  0.99362900  0.34370300  1
  C  C47  1  0.03726100  0.36796000  0.79420600  1
  C  C48  1  0.51594700  0.49362900  0.34370300  1
  C  C49  1  0.58218200  0.46153700  0.07122000  1
  C  C50  1  0.60080200  0.70173100  0.80705000  1
  C  C51  1  0.65982500  0.38840700  0.79009100  1
  C  C52  1  0.35412400  0.33435700  0.71724200  1
  C  C53  1  0.60035200  0.03148300  0.77077500  1
  C  C54  1  0.22126700  0.87575900  0.38147000  1
  C  C55  1  0.89919800  0.20173100  0.80705000  1
  C  C56  1  0.39964800  0.96851700  0.22922500  1
  C  C57  1  0.84017500  0.88840700  0.79009100  1
  C  C58  1  0.20522200  0.22733500  0.80237500  1
  C  C59  1  0.83443300  0.43262700  0.09380100  1
  C  C60  1  0.10035200  0.46851700  0.22922500  1
  C  C61  1  0.72126700  0.62424100  0.61853000  1
  C  C62  1  0.95161300  0.35896800  0.54291700  1
  C  C63  1  0.96273900  0.63204000  0.20579400  1
  C  C64  1  0.25472800  0.37351200  0.08328300  1
  C  C65  1  0.24527200  0.87351200  0.08328300  1
  C  C66  1  0.54838700  0.85896800  0.54291700  1
  C  C67  1  0.75472800  0.12648800  0.91671700  1
  C  C68  1  0.48405300  0.50637100  0.65629700  1
  C  C69  1  0.04838700  0.64103200  0.45708300  1
  C  C70  1  0.00358300  0.76873300  0.86367500  1
  C  C71  1  0.74527200  0.62648800  0.91671700  1
  C  C72  1  0.49641700  0.26873300  0.86367500  1
  C  C73  1  0.29244200  0.05850400  0.61462300  1
  C  C74  1  0.14587600  0.83435700  0.71724200  1
  C  C75  1  0.64587600  0.66564300  0.28275800  1
  C  C76  1  0.46273900  0.86796000  0.79420600  1
  C  C77  1  0.45161300  0.14103200  0.45708300  1
  C  C78  1  0.39919800  0.29826900  0.19295000  1
  C  C79  1  0.79477800  0.77266500  0.19762500  1
