# generated using pymatgen
data_Cu2NiC9
_symmetry_space_group_name_H-M   'P 1'
_cell_length_a   7.26540300
_cell_length_b   9.57427000
_cell_length_c   10.82284400
_cell_angle_alpha   90.00000000
_cell_angle_beta   90.00000000
_cell_angle_gamma   90.00000000
_symmetry_Int_Tables_number   1
_chemical_formula_structural   Cu2NiC9
_chemical_formula_sum   'Cu8 Ni4 C36'
_cell_volume   752.84709368
_cell_formula_units_Z   4
loop_
 _symmetry_equiv_pos_site_id
 _symmetry_equiv_pos_as_xyz
  1  'x, y, z'
loop_
 _atom_site_type_symbol
 _atom_site_label
 _atom_site_symmetry_multiplicity
 _atom_site_fract_x
 _atom_site_fract_y
 _atom_site_fract_z
 _atom_site_occupancy
  C  C0  1  0.35779200  0.98390100  0.33907200  1
  C  C1  1  0.64220800  0.48390100  0.16092800  1
  C  C2  1  0.85779200  0.51609900  0.66092800  1
  C  C3  1  0.14220800  0.01609900  0.83907200  1
  C  C4  1  0.32249900  0.60834000  0.75118600  1
  C  C5  1  0.67750100  0.10834000  0.74881400  1
  C  C6  1  0.82249900  0.89166000  0.24881400  1
  C  C7  1  0.17750100  0.39166000  0.25118600  1
  Ni  Ni8  1  0.78781200  0.64202000  0.94592000  1
  Ni  Ni9  1  0.71218800  0.35798000  0.44592000  1
  Ni  Ni10  1  0.28781200  0.85798000  0.05408000  1
  Ni  Ni11  1  0.21218800  0.14202000  0.55408000  1
  Cu  Cu12  1  0.01037100  0.33602400  0.89500400  1
  Cu  Cu13  1  0.95287700  0.14027900  0.10861600  1
  Cu  Cu14  1  0.98962900  0.83602400  0.60499600  1
  Cu  Cu15  1  0.04712300  0.64027900  0.39138400  1
  Cu  Cu16  1  0.45287700  0.35972100  0.89138400  1
  Cu  Cu17  1  0.51037100  0.16397600  0.10499600  1
  Cu  Cu18  1  0.54712300  0.85972100  0.60861600  1
  Cu  Cu19  1  0.48962900  0.66397600  0.39500400  1
  C  C20  1  0.50676800  0.20710700  0.95358800  1
  C  C21  1  0.51781800  0.50602000  0.94708100  1
  C  C22  1  0.43777600  0.29773200  0.17996400  1
  C  C23  1  0.46086500  0.95176000  0.82960000  1
  C  C24  1  0.54364700  0.32530000  0.75039600  1
  C  C25  1  0.76964500  0.87127600  0.63796800  1
  C  C26  1  0.59249600  0.51813500  0.36874100  1
  C  C27  1  0.23035500  0.37127600  0.86203200  1
  C  C28  1  0.40750400  0.01813500  0.13125900  1
  C  C29  1  0.56222400  0.79773200  0.32003600  1
  C  C30  1  0.53913500  0.45176000  0.67040000  1
  C  C31  1  0.48218200  0.00602000  0.55291900  1
  C  C32  1  0.45635300  0.82530000  0.74960400  1
  C  C33  1  0.49323200  0.70710700  0.54641200  1
  C  C34  1  0.00676800  0.29289300  0.04641200  1
  C  C35  1  0.01781800  0.99398000  0.05291900  1
  C  C36  1  0.04364700  0.17470000  0.24960400  1
  C  C37  1  0.96086500  0.54824000  0.17040000  1
  C  C38  1  0.93777600  0.20226800  0.82003600  1
  C  C39  1  0.09249600  0.98186500  0.63125900  1
  C  C40  1  0.26964500  0.62872400  0.36203200  1
  C  C41  1  0.90750400  0.48186500  0.86874100  1
  C  C42  1  0.73035500  0.12872400  0.13796800  1
  C  C43  1  0.95635300  0.67470000  0.25039600  1
  C  C44  1  0.98218200  0.49398000  0.44708100  1
  C  C45  1  0.03913500  0.04824000  0.32960000  1
  C  C46  1  0.06222400  0.70226800  0.67996400  1
  C  C47  1  0.99323200  0.79289300  0.45358800  1
