# generated using pymatgen
data_CuNi13C11
_symmetry_space_group_name_H-M   'P 1'
_cell_length_a   5.94874100
_cell_length_b   7.34472700
_cell_length_c   18.64428416
_cell_angle_alpha   88.06675370
_cell_angle_beta   90.00000000
_cell_angle_gamma   90.00000000
_symmetry_Int_Tables_number   1
_chemical_formula_structural   CuNi13C11
_chemical_formula_sum   'Cu2 Ni26 C22'
_cell_volume   814.14013562
_cell_formula_units_Z   2
loop_
 _symmetry_equiv_pos_site_id
 _symmetry_equiv_pos_as_xyz
  1  'x, y, z'
loop_
 _atom_site_type_symbol
 _atom_site_label
 _atom_site_symmetry_multiplicity
 _atom_site_fract_x
 _atom_site_fract_y
 _atom_site_fract_z
 _atom_site_occupancy
  C  C0  1  0.25000000  0.47976300  0.74817800  1
  C  C1  1  0.75000000  0.52023700  0.25182200  1
  C  C2  1  0.75000000  0.79168000  0.81424700  1
  C  C3  1  0.25000000  0.20832000  0.18575300  1
  C  C4  1  0.25000000  0.19510400  0.99423500  1
  C  C5  1  0.25000000  0.74106900  0.51008100  1
  C  C6  1  0.75000000  0.25893100  0.48991900  1
  C  C7  1  0.75000000  0.13682400  0.69380400  1
  C  C8  1  0.75000000  0.80489600  0.00576500  1
  C  C9  1  0.25000000  0.86317600  0.30619600  1
  C  C10  1  0.75000000  0.60101300  0.62841300  1
  C  C11  1  0.25000000  0.66596100  0.11055000  1
  C  C12  1  0.75000000  0.33403900  0.88945000  1
  C  C13  1  0.25000000  0.39898700  0.37158700  1
  C  C14  1  0.75000000  0.33057700  0.08403000  1
  C  C15  1  0.25000000  0.28576000  0.57731700  1
  C  C16  1  0.25000000  0.92043100  0.66964500  1
  C  C17  1  0.75000000  0.07956900  0.33035500  1
  C  C18  1  0.75000000  0.96020200  0.17316400  1
  C  C19  1  0.25000000  0.03979800  0.82683600  1
  C  C20  1  0.75000000  0.71424000  0.42268300  1
  C  C21  1  0.25000000  0.66942300  0.91597000  1
  Ni  Ni22  1  0.97925400  0.62690300  0.38890700  1
  Ni  Ni23  1  0.25000000  0.05852600  0.59635000  1
  Ni  Ni24  1  0.47925400  0.37309700  0.61109300  1
  Ni  Ni25  1  0.75000000  0.69242500  0.51076000  1
  Ni  Ni26  1  0.01893800  0.12693000  0.85585900  1
  Ni  Ni27  1  0.97898800  0.20026600  0.32831500  1
  Ni  Ni28  1  0.25000000  0.77861100  0.99123200  1
  Ni  Ni29  1  0.48106200  0.12693000  0.85585900  1
  Ni  Ni30  1  0.75000000  0.93518100  0.26288600  1
  Ni  Ni31  1  0.98106200  0.87307000  0.14414100  1
  Ni  Ni32  1  0.25000000  0.30757500  0.48924000  1
  Ni  Ni33  1  0.25000000  0.06481900  0.73711400  1
  Ni  Ni34  1  0.51893800  0.87307000  0.14414100  1
  Ni  Ni35  1  0.02101200  0.79973400  0.67168500  1
  Ni  Ni36  1  0.52101200  0.20026600  0.32831500  1
  Ni  Ni37  1  0.48093300  0.55304200  0.90566700  1
  Ni  Ni38  1  0.47898800  0.79973400  0.67168500  1
  Ni  Ni39  1  0.52074600  0.62690300  0.38890700  1
  Ni  Ni40  1  0.75000000  0.22138900  0.00876800  1
  Ni  Ni41  1  0.25000000  0.81661000  0.84380800  1
  Ni  Ni42  1  0.01906700  0.55304200  0.90566700  1
  Ni  Ni43  1  0.02074600  0.37309700  0.61109300  1
  Ni  Ni44  1  0.75000000  0.18339000  0.15619200  1
  Ni  Ni45  1  0.51906700  0.44695800  0.09433300  1
  Ni  Ni46  1  0.98093300  0.44695800  0.09433300  1
  Ni  Ni47  1  0.75000000  0.94147400  0.40365000  1
  Cu  Cu48  1  0.75000000  0.46077300  0.75781900  1
  Cu  Cu49  1  0.25000000  0.53922700  0.24218100  1
