# generated using pymatgen
data_Cu4Ni4C3
_symmetry_space_group_name_H-M   'P 1'
_cell_length_a   8.45842100
_cell_length_b   12.69337700
_cell_length_c   13.87336300
_cell_angle_alpha   90.00000000
_cell_angle_beta   90.00000000
_cell_angle_gamma   90.00000000
_symmetry_Int_Tables_number   1
_chemical_formula_structural   Cu4Ni4C3
_chemical_formula_sum   'Cu32 Ni32 C24'
_cell_volume   1489.52647324
_cell_formula_units_Z   8
loop_
 _symmetry_equiv_pos_site_id
 _symmetry_equiv_pos_as_xyz
  1  'x, y, z'
loop_
 _atom_site_type_symbol
 _atom_site_label
 _atom_site_symmetry_multiplicity
 _atom_site_fract_x
 _atom_site_fract_y
 _atom_site_fract_z
 _atom_site_occupancy
  C  C0  1  0.02348500  0.07127600  0.37553500  1
  C  C1  1  0.52348500  0.42872400  0.62446500  1
  C  C2  1  0.97651500  0.57127600  0.12446500  1
  C  C3  1  0.47651500  0.92872400  0.87553500  1
  C  C4  1  0.97651500  0.92872400  0.62446500  1
  C  C5  1  0.47651500  0.57127600  0.37553500  1
  C  C6  1  0.02348500  0.42872400  0.87553500  1
  C  C7  1  0.52348500  0.07127600  0.12446500  1
  C  C8  1  0.28992100  0.96718400  0.39334000  1
  C  C9  1  0.78992100  0.53281600  0.60666000  1
  C  C10  1  0.71007900  0.46718400  0.10666000  1
  C  C11  1  0.21007900  0.03281600  0.89334000  1
  C  C12  1  0.71007900  0.03281600  0.60666000  1
  C  C13  1  0.21007900  0.46718400  0.39334000  1
  C  C14  1  0.28992100  0.53281600  0.89334000  1
  C  C15  1  0.78992100  0.96718400  0.10666000  1
  C  C16  1  0.04229000  0.86600100  0.35761300  1
  C  C17  1  0.54229000  0.63399900  0.64238700  1
  C  C18  1  0.95771000  0.36600100  0.14238700  1
  C  C19  1  0.45771000  0.13399900  0.85761300  1
  C  C20  1  0.95771000  0.13399900  0.64238700  1
  C  C21  1  0.45771000  0.36600100  0.35761300  1
  C  C22  1  0.04229000  0.63399900  0.85761300  1
  C  C23  1  0.54229000  0.86600100  0.14238700  1
  Ni  Ni24  1  0.08247900  0.23472400  0.37367800  1
  Ni  Ni25  1  0.58247900  0.26527600  0.62632200  1
  Ni  Ni26  1  0.91752100  0.73472400  0.12632200  1
  Ni  Ni27  1  0.41752100  0.76527600  0.87367800  1
  Ni  Ni28  1  0.91752100  0.76527600  0.62632200  1
  Ni  Ni29  1  0.41752100  0.73472400  0.37367800  1
  Ni  Ni30  1  0.08247900  0.26527600  0.87367800  1
  Ni  Ni31  1  0.58247900  0.23472400  0.12632200  1
  Ni  Ni32  1  0.78056100  0.11132500  0.38826700  1
  Ni  Ni33  1  0.28056100  0.38867500  0.61173300  1
  Ni  Ni34  1  0.21943900  0.61132500  0.11173300  1
  Ni  Ni35  1  0.71943900  0.88867500  0.88826700  1
  Ni  Ni36  1  0.21943900  0.88867500  0.61173300  1
  Ni  Ni37  1  0.71943900  0.61132500  0.38826700  1
  Ni  Ni38  1  0.78056100  0.38867500  0.88826700  1
  Ni  Ni39  1  0.28056100  0.11132500  0.11173300  1
  Ni  Ni40  1  0.37237100  0.13133900  0.37747100  1
  Ni  Ni41  1  0.87237100  0.36866100  0.62252900  1
  Ni  Ni42  1  0.62762900  0.63133900  0.12252900  1
  Ni  Ni43  1  0.12762900  0.86866100  0.87747100  1
  Ni  Ni44  1  0.62762900  0.86866100  0.62252900  1
  Ni  Ni45  1  0.12762900  0.63133900  0.37747100  1
  Ni  Ni46  1  0.37237100  0.36866100  0.87747100  1
  Ni  Ni47  1  0.87237100  0.13133900  0.12252900  1
  Ni  Ni48  1  0.78201500  0.89506800  0.36110100  1
  Ni  Ni49  1  0.28201500  0.60493200  0.63889900  1
  Ni  Ni50  1  0.21798500  0.39506800  0.13889900  1
  Ni  Ni51  1  0.71798500  0.10493200  0.86110100  1
  Ni  Ni52  1  0.21798500  0.10493200  0.63889900  1
  Ni  Ni53  1  0.71798500  0.39506800  0.36110100  1
  Ni  Ni54  1  0.78201500  0.60493200  0.86110100  1
  Ni  Ni55  1  0.28201500  0.89506800  0.13889900  1
  Cu  Cu56  1  0.24042100  0.03989300  0.38100400  1
  Cu  Cu57  1  0.74042100  0.46010700  0.61899600  1
  Cu  Cu58  1  0.75957900  0.53989300  0.11899600  1
  Cu  Cu59  1  0.25957900  0.96010700  0.88100400  1
  Cu  Cu60  1  0.75957900  0.96010700  0.61899600  1
  Cu  Cu61  1  0.25957900  0.53989300  0.38100400  1
  Cu  Cu62  1  0.24042100  0.46010700  0.88100400  1
  Cu  Cu63  1  0.74042100  0.03989300  0.11899600  1
  Cu  Cu64  1  0.27948900  0.23778400  0.37448600  1
  Cu  Cu65  1  0.77948900  0.26221600  0.62551400  1
  Cu  Cu66  1  0.72051100  0.73778400  0.12551400  1
  Cu  Cu67  1  0.22051100  0.76221600  0.87448600  1
  Cu  Cu68  1  0.72051100  0.76221600  0.62551400  1
  Cu  Cu69  1  0.22051100  0.73778400  0.37448600  1
  Cu  Cu70  1  0.27948900  0.26221600  0.87448600  1
  Cu  Cu71  1  0.77948900  0.23778400  0.12551400  1
  Cu  Cu72  1  0.96521100  0.92956000  0.35961600  1
  Cu  Cu73  1  0.46521100  0.57044000  0.64038400  1
  Cu  Cu74  1  0.03478900  0.42956000  0.14038400  1
  Cu  Cu75  1  0.53478900  0.07044000  0.85961600  1
  Cu  Cu76  1  0.03478900  0.07044000  0.64038400  1
  Cu  Cu77  1  0.53478900  0.42956000  0.35961600  1
  Cu  Cu78  1  0.96521100  0.57044000  0.85961600  1
  Cu  Cu79  1  0.46521100  0.92956000  0.14038400  1
  Cu  Cu80  1  0.68415500  0.99825300  0.37517800  1
  Cu  Cu81  1  0.18415500  0.50174700  0.62482200  1
  Cu  Cu82  1  0.31584500  0.49825300  0.12482200  1
  Cu  Cu83  1  0.81584500  0.00174700  0.87517800  1
  Cu  Cu84  1  0.31584500  0.00174700  0.62482200  1
  Cu  Cu85  1  0.81584500  0.49825300  0.37517800  1
  Cu  Cu86  1  0.68415500  0.50174700  0.87517800  1
  Cu  Cu87  1  0.18415500  0.99825300  0.12482200  1
