# generated using pymatgen
data_CuNiC7
_symmetry_space_group_name_H-M   'P 1'
_cell_length_a   8.49527600
_cell_length_b   10.58858500
_cell_length_c   14.15977700
_cell_angle_alpha   90.00000000
_cell_angle_beta   90.00000000
_cell_angle_gamma   90.00000000
_symmetry_Int_Tables_number   1
_chemical_formula_structural   CuNiC7
_chemical_formula_sum   'Cu8 Ni8 C56'
_cell_volume   1273.71374116
_cell_formula_units_Z   8
loop_
 _symmetry_equiv_pos_site_id
 _symmetry_equiv_pos_as_xyz
  1  'x, y, z'
loop_
 _atom_site_type_symbol
 _atom_site_label
 _atom_site_symmetry_multiplicity
 _atom_site_fract_x
 _atom_site_fract_y
 _atom_site_fract_z
 _atom_site_occupancy
  C  C0  1  0.77274600  0.01462300  0.12344300  1
  C  C1  1  0.72725400  0.98537700  0.62344300  1
  C  C2  1  0.77274600  0.48537700  0.62344300  1
  C  C3  1  0.22725400  0.98537700  0.87655700  1
  C  C4  1  0.22725400  0.51462300  0.37655700  1
  C  C5  1  0.27274600  0.01462300  0.37655700  1
  C  C6  1  0.72725400  0.51462300  0.12344300  1
  C  C7  1  0.27274600  0.48537700  0.87655700  1
  Ni  Ni8  1  0.68590500  0.74623600  0.87996100  1
  Ni  Ni9  1  0.68590500  0.75376400  0.37996100  1
  Ni  Ni10  1  0.18590500  0.74623600  0.62003900  1
  Ni  Ni11  1  0.18590500  0.75376400  0.12003900  1
  Ni  Ni12  1  0.31409500  0.24623600  0.62003900  1
  Ni  Ni13  1  0.31409500  0.25376400  0.12003900  1
  Ni  Ni14  1  0.81409500  0.24623600  0.87996100  1
  Ni  Ni15  1  0.81409500  0.25376400  0.37996100  1
  Cu  Cu16  1  0.65757100  0.19603400  0.87685800  1
  Cu  Cu17  1  0.84242900  0.69603400  0.87685800  1
  Cu  Cu18  1  0.34242900  0.80396600  0.12314200  1
  Cu  Cu19  1  0.15757100  0.19603400  0.62314200  1
  Cu  Cu20  1  0.34242900  0.69603400  0.62314200  1
  Cu  Cu21  1  0.84242900  0.80396600  0.37685800  1
  Cu  Cu22  1  0.65757100  0.30396600  0.37685800  1
  Cu  Cu23  1  0.15757100  0.30396600  0.12314200  1
  C  C24  1  0.96335400  0.58410200  0.63349000  1
  C  C25  1  0.08794000  0.38263800  0.88778100  1
  C  C26  1  0.22408700  0.56584100  0.99497900  1
  C  C27  1  0.33934300  0.38809900  0.30840900  1
  C  C28  1  0.72408700  0.56584100  0.50502100  1
  C  C29  1  0.38841600  0.35802700  0.94423400  1
  C  C30  1  0.11158400  0.64197300  0.44423400  1
  C  C31  1  0.96335400  0.91589800  0.13349000  1
  C  C32  1  0.32414700  0.09503000  0.25801900  1
  C  C33  1  0.17585300  0.90497000  0.75801900  1
  C  C34  1  0.83934300  0.38809900  0.19159100  1
  C  C35  1  0.66065700  0.88809900  0.19159100  1
  C  C36  1  0.61158400  0.85802700  0.55576600  1
  C  C37  1  0.16065700  0.61190100  0.80840900  1
  C  C38  1  0.41206000  0.88263800  0.88778100  1
  C  C39  1  0.16065700  0.88809900  0.30840900  1
  C  C40  1  0.53664600  0.08410200  0.63349000  1
  C  C41  1  0.58794000  0.11736200  0.11221900  1
  C  C42  1  0.27591300  0.43415900  0.49497900  1
  C  C43  1  0.91206000  0.88263800  0.61221900  1
  C  C44  1  0.88841600  0.35802700  0.55576600  1
  C  C45  1  0.88841600  0.14197300  0.05576600  1
  C  C46  1  0.77591300  0.43415900  0.00502100  1
  C  C47  1  0.33934300  0.11190100  0.80840900  1
  C  C48  1  0.41206000  0.61736200  0.38778100  1
  C  C49  1  0.58794000  0.38263800  0.61221900  1
  C  C50  1  0.32414700  0.40497000  0.75801900  1
  C  C51  1  0.17585300  0.59503000  0.25801900  1
  C  C52  1  0.66065700  0.61190100  0.69159100  1
  C  C53  1  0.11158400  0.85802700  0.94423400  1
  C  C54  1  0.82414700  0.09503000  0.24198100  1
  C  C55  1  0.22408700  0.93415900  0.49497900  1
  C  C56  1  0.03664600  0.41589800  0.36651000  1
  C  C57  1  0.38841600  0.14197300  0.44423400  1
  C  C58  1  0.91206000  0.61736200  0.11221900  1
  C  C59  1  0.27591300  0.06584100  0.99497900  1
  C  C60  1  0.53664600  0.41589800  0.13349000  1
  C  C61  1  0.46335400  0.91589800  0.36651000  1
  C  C62  1  0.46335400  0.58410200  0.86651000  1
  C  C63  1  0.67585300  0.90497000  0.74198100  1
  C  C64  1  0.72408700  0.93415900  0.00502100  1
  C  C65  1  0.08794000  0.11736200  0.38778100  1
  C  C66  1  0.82414700  0.40497000  0.74198100  1
  C  C67  1  0.03664600  0.08410200  0.86651000  1
  C  C68  1  0.77591300  0.06584100  0.50502100  1
  C  C69  1  0.67585300  0.59503000  0.24198100  1
  C  C70  1  0.61158400  0.64197300  0.05576600  1
  C  C71  1  0.83934300  0.11190100  0.69159100  1
