# generated using pymatgen
data_Cu6Ni2C5
_symmetry_space_group_name_H-M   'P 1'
_cell_length_a   4.86987100
_cell_length_b   13.56141600
_cell_length_c   15.60496300
_cell_angle_alpha   90.00000000
_cell_angle_beta   90.00000000
_cell_angle_gamma   90.00000000
_symmetry_Int_Tables_number   1
_chemical_formula_structural   Cu6Ni2C5
_chemical_formula_sum   'Cu12 Ni4 C10'
_cell_volume   1030.58837352
_cell_formula_units_Z   2
loop_
 _symmetry_equiv_pos_site_id
 _symmetry_equiv_pos_as_xyz
  1  'x, y, z'
loop_
 _atom_site_type_symbol
 _atom_site_label
 _atom_site_symmetry_multiplicity
 _atom_site_fract_x
 _atom_site_fract_y
 _atom_site_fract_z
 _atom_site_occupancy
  C  C0  1  0.50000000  0.32755500  0.51753700  1
  C  C1  1  0.50000000  0.17244500  0.01753700  1
  C  C2  1  0.50000000  0.58733600  0.74800500  1
  C  C3  1  0.50000000  0.08733600  0.75199500  1
  C  C4  1  0.50000000  0.67244500  0.48246300  1
  C  C5  1  0.50000000  0.82755500  0.98246300  1
  C  C6  1  0.50000000  0.41266400  0.25199500  1
  C  C7  1  0.50000000  0.50000000  0.00000000  1
  C  C8  1  0.50000000  0.00000000  0.50000000  1
  C  C9  1  0.50000000  0.91266400  0.24800500  1
  Ni  Ni10  1  0.00000000  0.67388900  0.28845300  1
  Ni  Ni11  1  0.00000000  0.32611100  0.71154700  1
  Ni  Ni12  1  0.00000000  0.82611100  0.78845300  1
  Ni  Ni13  1  0.00000000  0.17388900  0.21154700  1
  Cu  Cu14  1  0.00000000  0.15657800  0.59677100  1
  Cu  Cu15  1  0.50000000  0.83719000  0.68265000  1
  Cu  Cu16  1  0.50000000  0.33719000  0.81735000  1
  Cu  Cu17  1  0.50000000  0.16281000  0.31735000  1
  Cu  Cu18  1  0.50000000  0.66281000  0.18265000  1
  Cu  Cu19  1  0.00000000  0.84342200  0.40322900  1
  Cu  Cu20  1  0.00000000  0.48605600  0.40805700  1
  Cu  Cu21  1  0.00000000  0.01394400  0.90805700  1
  Cu  Cu22  1  0.00000000  0.51394400  0.59194300  1
  Cu  Cu23  1  0.00000000  0.65657800  0.90322900  1
  Cu  Cu24  1  0.00000000  0.98605600  0.09194300  1
  Cu  Cu25  1  0.00000000  0.34342200  0.09677100  1
