# generated using pymatgen
data_CuNiC6
_symmetry_space_group_name_H-M   'P 1'
_cell_length_a   6.81385998
_cell_length_b   10.94035530
_cell_length_c   13.61865595
_cell_angle_alpha   90.00000000
_cell_angle_beta   90.00000000
_cell_angle_gamma   90.00000000
_symmetry_Int_Tables_number   1
_chemical_formula_structural   CuNiC6
_chemical_formula_sum   'Cu8 Ni8 C48'
_cell_volume   1015.21699575
_cell_formula_units_Z   8
loop_
 _symmetry_equiv_pos_site_id
 _symmetry_equiv_pos_as_xyz
  1  'x, y, z'
loop_
 _atom_site_type_symbol
 _atom_site_label
 _atom_site_symmetry_multiplicity
 _atom_site_fract_x
 _atom_site_fract_y
 _atom_site_fract_z
 _atom_site_occupancy
  C  C0  1  0.54609782  0.87251888  0.27810628  1
  C  C1  1  0.45390218  0.37251888  0.72189372  1
  C  C2  1  0.95390218  0.87251888  0.77810628  1
  C  C3  1  0.04609782  0.37251888  0.22189372  1
  C  C4  1  0.46810345  0.12502859  0.27591236  1
  C  C5  1  0.53189655  0.62502859  0.72408764  1
  C  C6  1  0.03189655  0.12502859  0.77591236  1
  C  C7  1  0.96810345  0.62502859  0.22408764  1
  C  C8  1  0.95866022  0.87618461  0.23797407  1
  C  C9  1  0.04133978  0.37618461  0.76202593  1
  C  C10  1  0.54133978  0.87618461  0.73797407  1
  C  C11  1  0.45866022  0.37618461  0.26202593  1
  C  C12  1  0.05096994  0.11789949  0.23306637  1
  C  C13  1  0.94903006  0.61789949  0.76693363  1
  C  C14  1  0.44903006  0.11789949  0.73306637  1
  C  C15  1  0.66606247  0.72702733  0.89772002  1
  C  C16  1  0.55096994  0.61789949  0.26693363  1
  C  C17  1  0.78696930  0.46629859  0.60344494  1
  C  C18  1  0.28696930  0.96629859  0.89655506  1
  C  C19  1  0.71303070  0.46629859  0.10344494  1
  C  C20  1  0.80103359  0.03843475  0.39129545  1
  C  C21  1  0.19896641  0.53843475  0.60870455  1
  C  C22  1  0.69896641  0.03843475  0.89129545  1
  C  C23  1  0.30103359  0.53843475  0.10870455  1
  C  C24  1  0.49413952  0.12977335  0.48492545  1
  C  C25  1  0.50586048  0.62977335  0.51507455  1
  C  C26  1  0.00586048  0.12977335  0.98492545  1
  C  C27  1  0.99413952  0.62977335  0.01507455  1
  C  C28  1  0.46134306  0.38405814  0.50803089  1
  C  C29  1  0.53865694  0.88405814  0.49196911  1
  C  C30  1  0.03865694  0.38405814  0.00803089  1
  C  C31  1  0.96134306  0.88405814  0.99196911  1
  C  C32  1  0.17691377  0.26525692  0.39095029  1
  C  C33  1  0.82308623  0.76525692  0.60904971  1
  C  C34  1  0.32308623  0.26525692  0.89095029  1
  C  C35  1  0.67691377  0.76525692  0.10904971  1
  C  C36  1  0.16606247  0.22702733  0.60227998  1
  C  C37  1  0.83393753  0.72702733  0.39772002  1
  C  C38  1  0.33393753  0.22702733  0.10227998  1
  C  C39  1  0.21303070  0.96629859  0.39655506  1
  Ni  Ni40  1  0.00915955  0.99874880  0.32019941  1
  Ni  Ni41  1  0.99084045  0.49874880  0.67980059  1
  Ni  Ni42  1  0.49084045  0.99874880  0.82019941  1
  Ni  Ni43  1  0.50915955  0.49874880  0.17980059  1
  Ni  Ni44  1  0.82033133  0.74812951  0.00109086  1
  Ni  Ni45  1  0.17966867  0.24812951  0.99890914  1
  Ni  Ni46  1  0.67966867  0.74812951  0.50109086  1
  Ni  Ni47  1  0.32033133  0.24812951  0.49890914  1
  C  C48  1  0.19859480  0.56715534  0.39001437  1
  C  C49  1  0.80140520  0.06715534  0.60998563  1
  C  C50  1  0.30140520  0.56715534  0.89001437  1
  C  C51  1  0.69859480  0.06715534  0.10998563  1
  C  C52  1  0.27822379  0.82227464  0.11378926  1
  C  C53  1  0.72177621  0.32227464  0.88621074  1
  C  C54  1  0.22177621  0.82227464  0.61378926  1
  C  C55  1  0.77822379  0.32227464  0.38621074  1
  Cu  Cu56  1  0.75582703  0.74632990  0.25381723  1
  Cu  Cu57  1  0.24417297  0.24632990  0.74618277  1
  Cu  Cu58  1  0.74417297  0.74632990  0.75381723  1
  Cu  Cu59  1  0.25582703  0.24632990  0.24618277  1
  Cu  Cu60  1  0.00576780  0.49998114  0.11948894  1
  Cu  Cu61  1  0.99423220  -0.00001886  0.88051106  1
  Cu  Cu62  1  0.49423220  0.49998114  0.61948894  1
  Cu  Cu63  1  0.50576780  -0.00001886  0.38051106  1
