# generated using pymatgen
data_Cu5Ni2C9
_symmetry_space_group_name_H-M   'P 1'
_cell_length_a   8.09416000
_cell_length_b   9.89663200
_cell_length_c   20.84199600
_cell_angle_alpha   90.00000000
_cell_angle_beta   90.00000000
_cell_angle_gamma   90.00000000
_symmetry_Int_Tables_number   1
_chemical_formula_structural   Cu5Ni2C9
_chemical_formula_sum   'Cu40 Ni16 C72'
_cell_volume   1669.54648202
_cell_formula_units_Z   8
loop_
 _symmetry_equiv_pos_site_id
 _symmetry_equiv_pos_as_xyz
  1  'x, y, z'
loop_
 _atom_site_type_symbol
 _atom_site_label
 _atom_site_symmetry_multiplicity
 _atom_site_fract_x
 _atom_site_fract_y
 _atom_site_fract_z
 _atom_site_occupancy
  C  C0  1  0.79722000  0.93143600  0.11773800  1
  C  C1  1  0.29722000  0.56856400  0.88226200  1
  C  C2  1  0.20278000  0.43143600  0.38226200  1
  C  C3  1  0.70278000  0.06856400  0.61773800  1
  C  C4  1  0.20278000  0.06856400  0.88226200  1
  C  C5  1  0.70278000  0.43143600  0.11773800  1
  C  C6  1  0.79722000  0.56856400  0.61773800  1
  C  C7  1  0.29722000  0.93143600  0.38226200  1
  Ni  Ni8  1  0.80979300  0.70310200  0.96056600  1
  Ni  Ni9  1  0.30979300  0.79689800  0.03943400  1
  Ni  Ni10  1  0.19020700  0.20310200  0.53943400  1
  Ni  Ni11  1  0.69020700  0.29689800  0.46056600  1
  Ni  Ni12  1  0.19020700  0.29689800  0.03943400  1
  Ni  Ni13  1  0.69020700  0.20310200  0.96056600  1
  Ni  Ni14  1  0.80979300  0.79689800  0.46056600  1
  Ni  Ni15  1  0.30979300  0.70310200  0.53943400  1
  Ni  Ni16  1  0.70186000  0.13098600  0.27766000  1
  Ni  Ni17  1  0.20186000  0.36901400  0.72234000  1
  Ni  Ni18  1  0.29814000  0.63098600  0.22234000  1
  Ni  Ni19  1  0.79814000  0.86901400  0.77766000  1
  Ni  Ni20  1  0.29814000  0.86901400  0.72234000  1
  Ni  Ni21  1  0.79814000  0.63098600  0.27766000  1
  Ni  Ni22  1  0.70186000  0.36901400  0.77766000  1
  Ni  Ni23  1  0.20186000  0.13098600  0.22234000  1
  Cu  Cu24  1  0.01383700  0.65195500  0.03539900  1
  Cu  Cu25  1  0.51383700  0.84804500  0.96460100  1
  Cu  Cu26  1  0.98616300  0.15195500  0.46460100  1
  Cu  Cu27  1  0.48616300  0.34804500  0.53539900  1
  Cu  Cu28  1  0.98616300  0.34804500  0.96460100  1
  Cu  Cu29  1  0.48616300  0.15195500  0.03539900  1
  Cu  Cu30  1  0.01383700  0.84804500  0.53539900  1
  Cu  Cu31  1  0.51383700  0.65195500  0.46460100  1
  Cu  Cu32  1  0.96207900  0.78575100  0.86668100  1
  Cu  Cu33  1  0.46207900  0.71424900  0.13331900  1
  Cu  Cu34  1  0.03792100  0.28575100  0.63331900  1
  Cu  Cu35  1  0.53792100  0.21424900  0.36668100  1
  Cu  Cu36  1  0.03792100  0.21424900  0.13331900  1
  Cu  Cu37  1  0.53792100  0.28575100  0.86668100  1
  Cu  Cu38  1  0.96207900  0.71424900  0.36668100  1
  Cu  Cu39  1  0.46207900  0.78575100  0.63331900  1
  Cu  Cu40  1  0.70241600  0.48866100  0.95034100  1
  Cu  Cu41  1  0.20241600  0.01133900  0.04965900  1
  Cu  Cu42  1  0.29758400  0.98866100  0.54965900  1
  Cu  Cu43  1  0.79758400  0.51133900  0.45034100  1
  Cu  Cu44  1  0.29758400  0.51133900  0.04965900  1
  Cu  Cu45  1  0.79758400  0.98866100  0.95034100  1
  Cu  Cu46  1  0.70241600  0.01133900  0.45034100  1
  Cu  Cu47  1  0.20241600  0.48866100  0.54965900  1
  Cu  Cu48  1  0.72972200  0.89467300  0.28706100  1
  Cu  Cu49  1  0.22972200  0.60532700  0.71293900  1
  Cu  Cu50  1  0.27027800  0.39467300  0.21293900  1
  Cu  Cu51  1  0.77027800  0.10532700  0.78706100  1
  Cu  Cu52  1  0.27027800  0.10532700  0.71293900  1
  Cu  Cu53  1  0.77027800  0.39467300  0.28706100  1
  Cu  Cu54  1  0.72972200  0.60532700  0.78706100  1
  Cu  Cu55  1  0.22972200  0.89467300  0.21293900  1
  Cu  Cu56  1  0.51847000  0.19499800  0.19812100  1
  Cu  Cu57  1  0.01847000  0.30500200  0.80187900  1
  Cu  Cu58  1  0.48153000  0.69499800  0.30187900  1
  Cu  Cu59  1  0.98153000  0.80500200  0.69812100  1
  Cu  Cu60  1  0.48153000  0.80500200  0.80187900  1
  Cu  Cu61  1  0.98153000  0.69499800  0.19812100  1
  Cu  Cu62  1  0.51847000  0.30500200  0.69812100  1
  Cu  Cu63  1  0.01847000  0.19499800  0.30187900  1
  C  C64  1  0.88692700  0.65434400  0.03617900  1
  C  C65  1  0.38692700  0.84565600  0.96382100  1
  C  C66  1  0.11307300  0.15434400  0.46382100  1
  C  C67  1  0.61307300  0.34565600  0.53617900  1
  C  C68  1  0.11307300  0.34565600  0.96382100  1
  C  C69  1  0.61307300  0.15434400  0.03617900  1
  C  C70  1  0.88692700  0.84565600  0.53617900  1
  C  C71  1  0.38692700  0.65434400  0.46382100  1
  C  C72  1  0.97243400  0.70111800  0.90834200  1
  C  C73  1  0.47243400  0.79888200  0.09165800  1
  C  C74  1  0.02756600  0.20111800  0.59165800  1
  C  C75  1  0.52756600  0.29888200  0.40834200  1
  C  C76  1  0.02756600  0.29888200  0.09165800  1
  C  C77  1  0.52756600  0.20111800  0.90834200  1
  C  C78  1  0.97243400  0.79888200  0.40834200  1
  C  C79  1  0.47243400  0.70111800  0.59165800  1
  C  C80  1  0.65497200  0.58435100  0.94412700  1
  C  C81  1  0.15497200  0.91564900  0.05587300  1
  C  C82  1  0.34502800  0.08435100  0.55587300  1
  C  C83  1  0.84502800  0.41564900  0.44412700  1
  C  C84  1  0.34502800  0.41564900  0.05587300  1
  C  C85  1  0.84502800  0.08435100  0.94412700  1
  C  C86  1  0.65497200  0.91564900  0.44412700  1
  C  C87  1  0.15497200  0.58435100  0.55587300  1
  C  C88  1  0.71086000  0.85380500  0.96603200  1
  C  C89  1  0.21086000  0.64619500  0.03396800  1
  C  C90  1  0.28914000  0.35380500  0.53396800  1
  C  C91  1  0.78914000  0.14619500  0.46603200  1
  C  C92  1  0.28914000  0.14619500  0.03396800  1
  C  C93  1  0.78914000  0.35380500  0.96603200  1
  C  C94  1  0.71086000  0.64619500  0.46603200  1
  C  C95  1  0.21086000  0.85380500  0.53396800  1
  C  C96  1  0.79871400  0.97407900  0.27067600  1
  C  C97  1  0.29871400  0.52592100  0.72932400  1
  C  C98  1  0.20128600  0.47407900  0.22932400  1
  C  C99  1  0.70128600  0.02592100  0.77067600  1
  C  C100  1  0.20128600  0.02592100  0.72932400  1
  C  C101  1  0.70128600  0.47407900  0.27067600  1
  C  C102  1  0.79871400  0.52592100  0.77067600  1
  C  C103  1  0.29871400  0.97407900  0.22932400  1
  C  C104  1  0.53178900  0.12437600  0.32637500  1
  C  C105  1  0.03178900  0.37562400  0.67362500  1
  C  C106  1  0.46821100  0.62437600  0.17362500  1
  C  C107  1  0.96821100  0.87562400  0.82637500  1
  C  C108  1  0.46821100  0.87562400  0.67362500  1
  C  C109  1  0.96821100  0.62437600  0.32637500  1
  C  C110  1  0.53178900  0.37562400  0.82637500  1
  C  C111  1  0.03178900  0.12437600  0.17362500  1
  C  C112  1  0.84096600  0.24693100  0.30410200  1
  C  C113  1  0.34096600  0.25306900  0.69589800  1
  C  C114  1  0.15903400  0.74693100  0.19589800  1
  C  C115  1  0.65903400  0.75306900  0.80410200  1
  C  C116  1  0.15903400  0.75306900  0.69589800  1
  C  C117  1  0.65903400  0.74693100  0.30410200  1
  C  C118  1  0.84096600  0.25306900  0.80410200  1
  C  C119  1  0.34096600  0.24693100  0.19589800  1
  C  C120  1  0.64201900  0.16737100  0.19835500  1
  C  C121  1  0.14201900  0.33262900  0.80164500  1
  C  C122  1  0.35798100  0.66737100  0.30164500  1
  C  C123  1  0.85798100  0.83262900  0.69835500  1
  C  C124  1  0.35798100  0.83262900  0.80164500  1
  C  C125  1  0.85798100  0.66737100  0.19835500  1
  C  C126  1  0.64201900  0.33262900  0.69835500  1
  C  C127  1  0.14201900  0.16737100  0.30164500  1
