# generated using pymatgen
data_Cu2NiC
_symmetry_space_group_name_H-M   'P 1'
_cell_length_a   8.28681100
_cell_length_b   8.28681100
_cell_length_c   6.33552100
_cell_angle_alpha   90.00000000
_cell_angle_beta   90.00000000
_cell_angle_gamma   90.00000000
_symmetry_Int_Tables_number   1
_chemical_formula_structural   Cu2NiC
_chemical_formula_sum   'Cu8 Ni4 C4'
_cell_volume   435.06806126
_cell_formula_units_Z   4
loop_
 _symmetry_equiv_pos_site_id
 _symmetry_equiv_pos_as_xyz
  1  'x, y, z'
loop_
 _atom_site_type_symbol
 _atom_site_label
 _atom_site_symmetry_multiplicity
 _atom_site_fract_x
 _atom_site_fract_y
 _atom_site_fract_z
 _atom_site_occupancy
  C  C0  1  0.50000000  0.00000000  0.85523500  1
  C  C1  1  0.50000000  0.00000000  0.35523500  1
  C  C2  1  0.00000000  0.50000000  0.64476500  1
  C  C3  1  0.00000000  0.50000000  0.14476500  1
  Ni  Ni4  1  0.50000000  0.50000000  0.50000000  1
  Ni  Ni5  1  0.00000000  0.00000000  0.00000000  1
  Ni  Ni6  1  0.50000000  0.50000000  0.00000000  1
  Ni  Ni7  1  0.00000000  0.00000000  0.50000000  1
  Cu  Cu8  1  0.66131400  0.66131400  0.25000000  1
  Cu  Cu9  1  0.16131400  0.16131400  0.75000000  1
  Cu  Cu10  1  0.66131400  0.33868600  0.75000000  1
  Cu  Cu11  1  0.16131400  0.83868600  0.25000000  1
  Cu  Cu12  1  0.83868600  0.16131400  0.25000000  1
  Cu  Cu13  1  0.33868600  0.66131400  0.75000000  1
  Cu  Cu14  1  0.83868600  0.83868600  0.75000000  1
  Cu  Cu15  1  0.33868600  0.33868600  0.25000000  1
