# generated using pymatgen
data_Cu2NiC5
_symmetry_space_group_name_H-M   'P 1'
_cell_length_a   13.02242099
_cell_length_b   13.02242099
_cell_length_c   11.67998589
_cell_angle_alpha   89.85942161
_cell_angle_beta   89.85942161
_cell_angle_gamma   131.55916251
_symmetry_Int_Tables_number   1
_chemical_formula_structural   Cu2NiC5
_chemical_formula_sum   'Cu12 Ni6 C30'
_cell_volume   1482.09824484
_cell_formula_units_Z   6
loop_
 _symmetry_equiv_pos_site_id
 _symmetry_equiv_pos_as_xyz
  1  'x, y, z'
loop_
 _atom_site_type_symbol
 _atom_site_label
 _atom_site_symmetry_multiplicity
 _atom_site_fract_x
 _atom_site_fract_y
 _atom_site_fract_z
 _atom_site_occupancy
  Ni  Ni0  1  0.81893500  0.81893500  0.85122200  1
  Ni  Ni1  1  0.49173900  0.16424300  0.85188300  1
  Ni  Ni2  1  0.84248100  0.17481200  0.35204200  1
  Ni  Ni3  1  0.16424300  0.49173900  0.85188300  1
  Ni  Ni4  1  0.43402600  0.43402600  0.72943600  1
  Ni  Ni5  1  0.17481200  0.84248100  0.35204200  1
  Cu  Cu6  1  0.90547500  0.90547500  0.22387800  1
  Cu  Cu7  1  0.93932900  0.60329100  0.04703700  1
  Cu  Cu8  1  0.72940400  0.39740900  0.54900500  1
  Cu  Cu9  1  0.56878000  0.23039900  0.22753400  1
  Cu  Cu10  1  0.76636100  0.09950900  0.73502100  1
  Cu  Cu11  1  0.60329100  0.93932900  0.04703700  1
  Cu  Cu12  1  0.39740900  0.72940400  0.54900500  1
  Cu  Cu13  1  0.23039900  0.56878000  0.22753400  1
  Cu  Cu14  1  0.50329400  0.50329400  0.35603800  1
  Cu  Cu15  1  0.27386500  0.27386500  0.03489200  1
  Cu  Cu16  1  0.06666500  0.06666500  0.54562100  1
  Cu  Cu17  1  0.09950900  0.76636100  0.73502100  1
  C  C18  1  0.93082100  0.09906000  0.98846400  1
  C  C19  1  0.71275500  0.71275500  0.57541400  1
  C  C20  1  0.89665200  0.73339700  0.48442300  1
  C  C21  1  0.74586100  0.51851600  0.81251400  1
  C  C22  1  0.81153000  0.58966300  0.30470600  1
  C  C23  1  0.60702700  0.43794100  0.99776200  1
  C  C24  1  0.85675400  0.41395500  0.80858700  1
  C  C25  1  0.91886300  0.47909800  0.30831100  1
  C  C26  1  0.77254800  0.26788300  0.98741200  1
  C  C27  1  0.95370200  0.28469800  0.07786500  1
  C  C28  1  0.38015200  0.04301300  0.57774300  1
  C  C29  1  0.56358300  0.06436000  0.48660500  1
  C  C30  1  0.41395500  0.85675400  0.80858700  1
  C  C31  1  0.47909800  0.91886300  0.30831100  1
  C  C32  1  0.73339700  0.89665200  0.48442300  1
  C  C33  1  0.26788300  0.77254800  0.98741200  1
  C  C34  1  0.51851600  0.74586100  0.81251400  1
  C  C35  1  0.58966300  0.81153000  0.30470600  1
  C  C36  1  0.43794100  0.60702700  0.99776200  1
  C  C37  1  0.62174800  0.62174800  0.08070100  1
  C  C38  1  0.04301300  0.38015200  0.57774300  1
  C  C39  1  0.22282600  0.39743600  0.48275600  1
  C  C40  1  0.07184900  0.18039000  0.80786400  1
  C  C41  1  0.15162300  0.26080300  0.29932100  1
  C  C42  1  0.39743600  0.22282600  0.48275600  1
  C  C43  1  0.18039000  0.07184900  0.80786400  1
  C  C44  1  0.26080300  0.15162300  0.29932100  1
  C  C45  1  0.09906000  0.93082100  0.98846400  1
  C  C46  1  0.28469800  0.95370200  0.07786500  1
  C  C47  1  0.06436000  0.56358300  0.48660500  1
