# generated using pymatgen
data_CuNiC12
_symmetry_space_group_name_H-M   'P 1'
_cell_length_a   10.21114147
_cell_length_b   10.95294969
_cell_length_c   12.96876387
_cell_angle_alpha   90.00000000
_cell_angle_beta   90.00000000
_cell_angle_gamma   90.00000000
_symmetry_Int_Tables_number   1
_chemical_formula_structural   CuNiC12
_chemical_formula_sum   'Cu8 Ni8 C96'
_cell_volume   1450.45402942
_cell_formula_units_Z   8
loop_
 _symmetry_equiv_pos_site_id
 _symmetry_equiv_pos_as_xyz
  1  'x, y, z'
loop_
 _atom_site_type_symbol
 _atom_site_label
 _atom_site_symmetry_multiplicity
 _atom_site_fract_x
 _atom_site_fract_y
 _atom_site_fract_z
 _atom_site_occupancy
  Ni  Ni0  1  0.52891287  0.07489342  0.62687324  1
  Ni  Ni1  1  0.99962591  0.42690458  0.10145254  1
  Ni  Ni2  1  0.99962591  0.92690458  0.89854746  1
  Ni  Ni3  1  0.52891287  0.57489342  0.37312676  1
  Ni  Ni4  1  0.49962591  0.07309542  0.10145254  1
  Ni  Ni5  1  0.02891287  0.92510658  0.37312676  1
  Ni  Ni6  1  0.49962591  0.57309542  0.89854746  1
  Ni  Ni7  1  0.02891287  0.42510658  0.62687324  1
  Cu  Cu8  1  0.42368318  0.43852703  0.62626270  1
  Cu  Cu9  1  0.42368318  0.93852703  0.37373730  1
  Cu  Cu10  1  0.38037075  0.90514924  0.85473044  1
  Cu  Cu11  1  0.92368318  0.56147297  0.37373730  1
  Cu  Cu12  1  0.92368318  0.06147297  0.62626270  1
  Cu  Cu13  1  0.88037075  0.09485076  0.14526956  1
  Cu  Cu14  1  0.88037075  0.59485076  0.85473044  1
  Cu  Cu15  1  0.38037075  0.40514924  0.14526956  1
  C  C16  1  0.21179950  0.66769072  0.25980683  1
  C  C17  1  0.71265326  0.84257040  0.77238170  1
  C  C18  1  0.73078554  0.32013013  0.51953311  1
  C  C19  1  0.70342418  0.58153314  0.11648205  1
  C  C20  1  0.19417389  0.15532200  0.98464139  1
  C  C21  1  0.23078554  0.67986987  0.48046689  1
  C  C22  1  0.19417389  0.65532200  0.01535861  1
  C  C23  1  0.21081250  0.40118698  0.37103126  1
  C  C24  1  0.46110189  0.74648434  0.62813954  1
  C  C25  1  0.71081250  0.09881302  0.37103126  1
  C  C26  1  0.73078554  0.82013013  0.48046689  1
  C  C27  1  0.20342418  0.91846686  0.11648205  1
  C  C28  1  0.71081250  0.59881302  0.62896874  1
  C  C29  1  0.21265326  0.65742960  0.77238170  1
  C  C30  1  0.96110189  0.75351566  0.62813954  1
  C  C31  1  0.46110189  0.24648434  0.37186046  1
  C  C32  1  0.96053748  0.75213793  0.12605388  1
  C  C33  1  0.71179950  0.33230928  0.74019317  1
  C  C34  1  0.70342418  0.08153314  0.88351795  1
  C  C35  1  0.96110189  0.25351566  0.37186046  1
  C  C36  1  0.46053748  0.24786207  0.87394612  1
  C  C37  1  0.21081250  0.90118698  0.62896874  1
  C  C38  1  0.69417389  0.34467800  0.98464139  1
  C  C39  1  0.21179950  0.16769072  0.74019317  1
  C  C40  1  0.71265326  0.34257040  0.22761830  1
  C  C41  1  0.96053748  0.25213793  0.87394612  1
  C  C42  1  0.46053748  0.74786207  0.12605388  1
  C  C43  1  0.21265326  0.15742960  0.22761830  1
  C  C44  1  0.23078554  0.17986987  0.51953311  1
  C  C45  1  0.20342418  0.41846686  0.88351795  1
  C  C46  1  0.69417389  0.84467800  0.01535861  1
  C  C47  1  0.71179950  0.83230928  0.25980683  1
  C  C48  1  0.78360829  0.50019569  0.23761046  1
  C  C49  1  0.01121745  0.41952596  0.87776744  1
  C  C50  1  0.04321924  0.89089450  0.70137184  1
  C  C51  1  0.27138505  0.25022186  0.87115886  1
  C  C52  1  0.63482365  0.46263067  0.55261228  1
  C  C53  1  0.78969224  0.48782095  0.72793412  1
  C  C54  1  0.13482365  0.03736933  0.55261228  1
  C  C55  1  0.53997529  0.85414255  0.73070656  1
  C  C56  1  0.61546522  0.71799540  0.54703344  1
  C  C57  1  0.78969224  0.98782095  0.27206588  1
  C  C58  1  0.27138505  0.75022186  0.12884114  1
  C  C59  1  0.54321924  0.60910550  0.70137184  1
  C  C60  1  0.13482365  0.53736933  0.44738772  1
  C  C61  1  0.28360829  0.99980431  0.23761046  1
  C  C62  1  0.00304555  0.67297308  0.00163968  1
  C  C63  1  0.54321924  0.10910550  0.29862816  1
  C  C64  1  0.51121745  0.08047404  0.87776744  1
  C  C65  1  0.51121745  0.58047404  0.12223256  1
  C  C66  1  0.27775888  0.77465881  0.36673579  1
  C  C67  1  0.02119281  0.17852937  0.75295796  1
  C  C68  1  0.30325610  0.27700126  0.29609570  1
  C  C69  1  0.03997529  0.14585745  0.26929344  1
  C  C70  1  0.74969817  0.01316087  0.01937751  1
  C  C71  1  0.77357577  0.27287280  0.10446821  1
  C  C72  1  0.87496293  0.37763346  0.44814519  1
  C  C73  1  0.88374243  0.12102425  0.44818129  1
  C  C74  1  0.53997529  0.35414255  0.26929344  1
  C  C75  1  0.88374243  0.62102425  0.55181871  1
  C  C76  1  0.87496293  0.87763346  0.55185481  1
  C  C77  1  0.37496293  0.62236654  0.55185481  1
  C  C78  1  0.77357577  0.77287280  0.89553179  1
  C  C79  1  0.50304555  0.82702692  0.00163968  1
  C  C80  1  0.63482365  0.96263067  0.44738772  1
  C  C81  1  0.30325610  0.77700126  0.70390430  1
  C  C82  1  0.02119281  0.67852937  0.24704204  1
  C  C83  1  0.78360829  0.00019569  0.76238954  1
  C  C84  1  0.80325610  0.22299874  0.29609570  1
  C  C85  1  0.11546522  0.78200460  0.54703344  1
  C  C86  1  0.28969224  0.01217905  0.72793412  1
  C  C87  1  0.52119281  0.82147063  0.24704204  1
  C  C88  1  0.01121745  0.91952596  0.12223256  1
  C  C89  1  0.04321924  0.39089450  0.29862816  1
  C  C90  1  0.77775888  0.72534119  0.36673579  1
  C  C91  1  0.24969817  0.98683913  0.98062249  1
  C  C92  1  0.74969817  0.51316087  0.98062249  1
  C  C93  1  0.37496293  0.12236654  0.44814519  1
  C  C94  1  0.77138505  0.24977814  0.87115886  1
  C  C95  1  0.28360829  0.49980431  0.76238954  1
  C  C96  1  0.77138505  0.74977814  0.12884114  1
  C  C97  1  0.50304555  0.32702692  0.99836032  1
  C  C98  1  0.38374243  0.37897575  0.44818129  1
  C  C99  1  0.27357577  0.22712720  0.10446821  1
  C  C100  1  0.77775888  0.22534119  0.63326421  1
  C  C101  1  0.00304555  0.17297308  0.99836032  1
  C  C102  1  0.27357577  0.72712720  0.89553179  1
  C  C103  1  0.38374243  0.87897575  0.55181871  1
  C  C104  1  0.52119281  0.32147063  0.75295796  1
  C  C105  1  0.11546522  0.28200460  0.45296656  1
  C  C106  1  0.80325610  0.72299874  0.70390430  1
  C  C107  1  0.28969224  0.51217905  0.27206588  1
  C  C108  1  0.61546522  0.21799540  0.45296656  1
  C  C109  1  0.03997529  0.64585745  0.73070656  1
  C  C110  1  0.27775888  0.27465881  0.63326421  1
  C  C111  1  0.24969817  0.48683913  0.01937751  1
