# generated using pymatgen
data_Cu4NiC17
_symmetry_space_group_name_H-M   'P 1'
_cell_length_a   6.59656000
_cell_length_b   6.69862100
_cell_length_c   14.66948200
_cell_angle_alpha   90.00000000
_cell_angle_beta   90.00000000
_cell_angle_gamma   90.00000000
_symmetry_Int_Tables_number   1
_chemical_formula_structural   Cu4NiC17
_chemical_formula_sum   'Cu8 Ni2 C34'
_cell_volume   648.21294858
_cell_formula_units_Z   2
loop_
 _symmetry_equiv_pos_site_id
 _symmetry_equiv_pos_as_xyz
  1  'x, y, z'
loop_
 _atom_site_type_symbol
 _atom_site_label
 _atom_site_symmetry_multiplicity
 _atom_site_fract_x
 _atom_site_fract_y
 _atom_site_fract_z
 _atom_site_occupancy
  C  C0  1  0.42173000  0.94895500  0.75000000  1
  C  C1  1  0.57827000  0.94895500  0.25000000  1
  C  C2  1  0.30575800  0.62976000  0.52473300  1
  C  C3  1  0.07653000  0.39002200  0.37343200  1
  C  C4  1  0.76291900  0.62660500  0.59280000  1
  C  C5  1  0.69424200  0.62976000  0.47526700  1
  C  C6  1  0.81904900  0.47129100  0.11848100  1
  C  C7  1  0.23708100  0.62660500  0.40720000  1
  C  C8  1  0.10029600  0.25572400  0.94281900  1
  C  C9  1  0.14804400  0.82126300  0.47955700  1
  C  C10  1  0.14804400  0.82126300  0.02044300  1
  C  C11  1  0.30575800  0.62976000  0.97526700  1
  C  C12  1  0.18095100  0.47129100  0.88151900  1
  C  C13  1  0.89970400  0.25572400  0.05718100  1
  C  C14  1  0.89970400  0.25572400  0.44281900  1
  C  C15  1  0.92347000  0.39002200  0.62656800  1
  C  C16  1  0.85195600  0.82126300  0.52044300  1
  C  C17  1  0.10029600  0.25572400  0.55718100  1
  C  C18  1  0.23708100  0.62660500  0.09280000  1
  C  C19  1  0.18095100  0.47129100  0.61848100  1
  C  C20  1  0.85195600  0.82126300  0.97955700  1
  C  C21  1  0.81904900  0.47129100  0.38151900  1
  C  C22  1  0.69424200  0.62976000  0.02473300  1
  C  C23  1  0.07653000  0.39002200  0.12656800  1
  C  C24  1  0.76291900  0.62660500  0.90720000  1
  C  C25  1  0.92347000  0.39002200  0.87343200  1
  C  C26  1  0.05519000  0.40329600  0.91849500  1
  C  C27  1  0.81533200  0.66348600  0.52408900  1
  C  C28  1  0.18466800  0.66348600  0.02408900  1
  C  C29  1  0.94481000  0.40329600  0.41849500  1
  C  C30  1  0.05519000  0.40329600  0.58150500  1
  C  C31  1  0.94481000  0.40329600  0.08150500  1
  C  C32  1  0.18466800  0.66348600  0.47591100  1
  C  C33  1  0.81533200  0.66348600  0.97591100  1
  Ni  Ni34  1  0.00000000  0.53484400  0.50000000  1
  Ni  Ni35  1  0.00000000  0.53484400  0.00000000  1
  Cu  Cu36  1  0.50499800  0.62282600  0.25000000  1
  Cu  Cu37  1  0.45839800  0.08714200  0.37590700  1
  Cu  Cu38  1  0.54160200  0.08714200  0.62409300  1
  Cu  Cu39  1  0.54160200  0.08714200  0.87590700  1
  Cu  Cu40  1  0.49500200  0.62282600  0.75000000  1
  Cu  Cu41  1  0.45839800  0.08714200  0.12409300  1
  Cu  Cu42  1  0.91330200  0.98309300  0.25000000  1
  Cu  Cu43  1  0.08669800  0.98309300  0.75000000  1
