# generated using pymatgen
data_Cu4NiC47
_symmetry_space_group_name_H-M   'P 1'
_cell_length_a   5.89318900
_cell_length_b   11.82904000
_cell_length_c   25.25665472
_cell_angle_alpha   78.12040760
_cell_angle_beta   90.00000000
_cell_angle_gamma   90.00000000
_symmetry_Int_Tables_number   1
_chemical_formula_structural   Cu4NiC47
_chemical_formula_sum   'Cu8 Ni2 C94'
_cell_volume   1722.95162384
_cell_formula_units_Z   2
loop_
 _symmetry_equiv_pos_site_id
 _symmetry_equiv_pos_as_xyz
  1  'x, y, z'
loop_
 _atom_site_type_symbol
 _atom_site_label
 _atom_site_symmetry_multiplicity
 _atom_site_fract_x
 _atom_site_fract_y
 _atom_site_fract_z
 _atom_site_occupancy
  Ni  Ni0  1  0.98618900  0.50000000  0.75000000  1
  Ni  Ni1  1  0.01381100  0.50000000  0.25000000  1
  C  C2  1  0.92207100  0.84132300  0.24500600  1
  C  C3  1  0.01622200  0.08240200  0.40798200  1
  C  C4  1  0.48807200  0.72998200  0.65913200  1
  C  C5  1  0.98377800  0.91759800  0.59201800  1
  C  C6  1  0.97730600  0.24371300  0.60100300  1
  C  C7  1  0.92207100  0.15867700  0.25499400  1
  C  C8  1  0.51192800  0.72998200  0.15913200  1
  C  C9  1  0.48809000  0.36183000  0.67895400  1
  C  C10  1  0.07792900  0.15867700  0.75499400  1
  C  C11  1  0.57719900  0.95989000  0.82601000  1
  C  C12  1  0.48807200  0.27001800  0.84086800  1
  C  C13  1  0.07792900  0.84132300  0.74500600  1
  C  C14  1  0.51191000  0.36183000  0.17895400  1
  C  C15  1  0.98377800  0.08240200  0.90798200  1
  C  C16  1  0.48809000  0.63817000  0.82104600  1
  C  C17  1  0.57719900  0.04011000  0.67399000  1
  C  C18  1  0.51191000  0.63817000  0.32104600  1
  C  C19  1  0.51192800  0.27001800  0.34086800  1
  C  C20  1  0.97730600  0.75628700  0.89899700  1
  C  C21  1  0.42280100  0.04011000  0.17399000  1
  C  C22  1  0.02269400  0.24371300  0.10100300  1
  C  C23  1  0.01622200  0.91759800  0.09201800  1
  C  C24  1  0.02269400  0.75628700  0.39899700  1
  C  C25  1  0.42280100  0.95989000  0.32601000  1
  Cu  Cu26  1  0.99989900  0.57367300  0.57831700  1
  Cu  Cu27  1  0.00010100  0.42632700  0.42168300  1
  Cu  Cu28  1  0.47888300  0.83726800  0.98683600  1
  Cu  Cu29  1  0.52111700  0.16273200  0.01316400  1
  Cu  Cu30  1  0.99989900  0.42632700  0.92168300  1
  Cu  Cu31  1  0.52111700  0.83726800  0.48683600  1
  Cu  Cu32  1  0.47888300  0.16273200  0.51316400  1
  Cu  Cu33  1  0.00010100  0.57367300  0.07831700  1
  C  C34  1  0.50000000  0.50000000  0.00000000  1
  C  C35  1  0.50000000  0.50000000  0.50000000  1
  C  C36  1  0.18015300  0.61781800  0.24035800  1
  C  C37  1  0.27290800  0.49946100  0.91657300  1
  C  C38  1  0.57007200  0.28549000  0.54034000  1
  C  C39  1  0.78166800  0.53094900  0.89702200  1
  C  C40  1  0.77051700  0.76308900  0.33556200  1
  C  C41  1  0.84756700  0.50143600  0.19655800  1
  C  C42  1  0.75588100  0.87098700  0.15434200  1
  C  C43  1  0.22948300  0.23691100  0.66443800  1
  C  C44  1  0.72542500  0.22804400  0.66744200  1
  C  C45  1  0.21833200  0.53094900  0.39702200  1
  C  C46  1  0.75588100  0.12901300  0.34565800  1
  C  C47  1  0.68880500  0.94591700  0.96820400  1
  C  C48  1  0.81984700  0.61781800  0.74035800  1
  C  C49  1  0.06796600  0.37560500  0.49111300  1
  C  C50  1  0.77051700  0.23691100  0.16443800  1
  C  C51  1  0.26875200  0.00000000  0.75000000  1
  C  C52  1  0.26499600  0.86280000  0.15806700  1
  C  C53  1  0.24411900  0.12901300  0.84565800  1
  C  C54  1  0.53821000  0.20354700  0.94051000  1
  C  C55  1  0.40402600  0.25702300  0.75786400  1
  C  C56  1  0.59597400  0.25702300  0.25786400  1
  C  C57  1  0.27290800  0.50053900  0.58342700  1
  C  C58  1  0.93203400  0.62439500  0.50888700  1
  C  C59  1  0.27457500  0.22804400  0.16744200  1
  C  C60  1  0.46179000  0.20354700  0.44051000  1
  C  C61  1  0.07523100  0.93872500  0.36673100  1
  C  C62  1  0.21261700  0.11309500  0.54556300  1
  C  C63  1  0.21261700  0.88690500  0.95443700  1
  C  C64  1  0.75970000  0.00000000  0.75000000  1
  C  C65  1  0.18015300  0.38218200  0.25964200  1
  C  C66  1  0.78166800  0.46905100  0.60297800  1
  C  C67  1  0.72542500  0.77195600  0.83255800  1
  C  C68  1  0.31119500  0.94591700  0.46820400  1
  C  C69  1  0.00489400  0.30352200  0.88942700  1
  C  C70  1  0.92476900  0.06127500  0.63326900  1
  C  C71  1  0.15243300  0.50143600  0.69655800  1
  C  C72  1  0.73124800  0.00000000  0.25000000  1
  C  C73  1  0.31119500  0.05408300  0.03179600  1
  C  C74  1  0.73500400  0.86280000  0.65806700  1
  C  C75  1  0.68880500  0.05408300  0.53179600  1
  C  C76  1  0.46179000  0.79645300  0.05949000  1
  C  C77  1  0.24411900  0.87098700  0.65434200  1
  C  C78  1  0.99510600  0.30352200  0.38942700  1
  C  C79  1  0.93203400  0.37560500  0.99111300  1
  C  C80  1  0.92476900  0.93872500  0.86673100  1
  C  C81  1  0.21833200  0.46905100  0.10297800  1
  C  C82  1  0.73500400  0.13720000  0.84193300  1
  C  C83  1  0.27457500  0.77195600  0.33255800  1
  C  C84  1  0.57007200  0.71451000  0.95966000  1
  C  C85  1  0.26499600  0.13720000  0.34193300  1
  C  C86  1  0.24030000  0.00000000  0.25000000  1
  C  C87  1  0.53821000  0.79645300  0.55949000  1
  C  C88  1  0.22948300  0.76308900  0.83556200  1
  C  C89  1  0.72709200  0.50053900  0.08342700  1
  C  C90  1  0.00489400  0.69647800  0.61057300  1
  C  C91  1  0.42992800  0.71451000  0.45966000  1
  C  C92  1  0.42992800  0.28549000  0.04034000  1
  C  C93  1  0.78738300  0.88690500  0.45443700  1
  C  C94  1  0.40402600  0.74297700  0.74213600  1
  C  C95  1  0.84756700  0.49856400  0.30344200  1
  C  C96  1  0.06796600  0.62439500  0.00888700  1
  C  C97  1  0.07523100  0.06127500  0.13326900  1
  C  C98  1  0.78738300  0.11309500  0.04556300  1
  C  C99  1  0.59597400  0.74297700  0.24213600  1
  C  C100  1  0.72709200  0.49946100  0.41657300  1
  C  C101  1  0.15243300  0.49856400  0.80344200  1
  C  C102  1  0.81984700  0.38218200  0.75964200  1
  C  C103  1  0.99510600  0.69647800  0.11057300  1
