# generated using pymatgen
data_Cu2NiC4
_symmetry_space_group_name_H-M   'P 1'
_cell_length_a   4.79430700
_cell_length_b   9.99159600
_cell_length_c   13.66814200
_cell_angle_alpha   90.00000000
_cell_angle_beta   90.00000000
_cell_angle_gamma   90.00000000
_symmetry_Int_Tables_number   1
_chemical_formula_structural   Cu2NiC4
_chemical_formula_sum   'Cu8 Ni4 C16'
_cell_volume   654.74198070
_cell_formula_units_Z   4
loop_
 _symmetry_equiv_pos_site_id
 _symmetry_equiv_pos_as_xyz
  1  'x, y, z'
loop_
 _atom_site_type_symbol
 _atom_site_label
 _atom_site_symmetry_multiplicity
 _atom_site_fract_x
 _atom_site_fract_y
 _atom_site_fract_z
 _atom_site_occupancy
  C  C0  1  0.98183900  0.70449900  0.38580200  1
  C  C1  1  0.01816100  0.29550100  0.88580200  1
  C  C2  1  0.51816100  0.20449900  0.11419800  1
  C  C3  1  0.48183900  0.79550100  0.88580200  1
  C  C4  1  0.98183900  0.70449900  0.11419800  1
  C  C5  1  0.01816100  0.29550100  0.61419800  1
  C  C6  1  0.51816100  0.20449900  0.38580200  1
  C  C7  1  0.48183900  0.79550100  0.61419800  1
  Ni  Ni8  1  0.45608600  0.03400100  0.75000000  1
  Ni  Ni9  1  0.95608600  0.46599900  0.25000000  1
  Ni  Ni10  1  0.04391400  0.53400100  0.75000000  1
  Ni  Ni11  1  0.54391400  0.96599900  0.25000000  1
  Cu  Cu12  1  0.32609000  0.06467500  0.37699800  1
  Cu  Cu13  1  0.82609000  0.43532500  0.62300200  1
  Cu  Cu14  1  0.17391000  0.56467500  0.12300200  1
  Cu  Cu15  1  0.67391000  0.93532500  0.87699800  1
  Cu  Cu16  1  0.67391000  0.93532500  0.62300200  1
  Cu  Cu17  1  0.17391000  0.56467500  0.37699800  1
  Cu  Cu18  1  0.82609000  0.43532500  0.87699800  1
  Cu  Cu19  1  0.32609000  0.06467500  0.12300200  1
  C  C20  1  0.14625500  0.19561300  0.89278300  1
  C  C21  1  0.85374500  0.80438700  0.39278300  1
  C  C22  1  0.35374500  0.69561300  0.60721700  1
  C  C23  1  0.35374500  0.69561300  0.89278300  1
  C  C24  1  0.85374500  0.80438700  0.10721700  1
  C  C25  1  0.14625500  0.19561300  0.60721700  1
  C  C26  1  0.64625500  0.30438700  0.39278300  1
  C  C27  1  0.64625500  0.30438700  0.10721700  1
