# generated using pymatgen
data_Cu4Ni6C31
_symmetry_space_group_name_H-M   'P 1'
_cell_length_a   8.01408800
_cell_length_b   14.74205800
_cell_length_c   33.08476141
_cell_angle_alpha   77.78233892
_cell_angle_beta   90.00000000
_cell_angle_gamma   90.00000000
_symmetry_Int_Tables_number   1
_chemical_formula_structural   Cu4Ni6C31
_chemical_formula_sum   'Cu16 Ni24 C124'
_cell_volume   3820.24012373
_cell_formula_units_Z   4
loop_
 _symmetry_equiv_pos_site_id
 _symmetry_equiv_pos_as_xyz
  1  'x, y, z'
loop_
 _atom_site_type_symbol
 _atom_site_label
 _atom_site_symmetry_multiplicity
 _atom_site_fract_x
 _atom_site_fract_y
 _atom_site_fract_z
 _atom_site_occupancy
  C  C0  1  0.51446700  0.95146400  0.89159800  1
  C  C1  1  0.86210300  0.29906100  0.63985500  1
  C  C2  1  0.86483900  0.64366500  0.47118300  1
  C  C3  1  0.44716300  0.44704700  0.88893800  1
  C  C4  1  0.94756800  0.79558300  0.75741100  1
  C  C5  1  0.01446700  0.54853600  0.60840200  1
  C  C6  1  0.94846900  0.32067600  0.88306200  1
  C  C7  1  0.01019300  0.29436700  0.75787000  1
  C  C8  1  0.63647600  0.07374200  0.21532100  1
  C  C9  1  0.13789700  0.70093900  0.36014500  1
  C  C10  1  0.48553300  0.04853600  0.10840200  1
  C  C11  1  0.45762000  0.94946400  0.56730300  1
  C  C12  1  0.04238000  0.44946400  0.06730300  1
  C  C13  1  0.05153100  0.67932400  0.11693800  1
  C  C14  1  0.53103500  0.67782600  0.62941900  1
  C  C15  1  0.55153100  0.82067600  0.38306200  1
  C  C16  1  0.44846900  0.17932400  0.61693800  1
  C  C17  1  0.05243200  0.20441700  0.24258900  1
  C  C18  1  0.55283700  0.55295300  0.11106200  1
  C  C19  1  0.98845500  0.00817900  0.93274300  1
  C  C20  1  0.51154500  0.50817900  0.43274300  1
  C  C21  1  0.51019300  0.20563300  0.74213000  1
  C  C22  1  0.46896500  0.32217400  0.37058100  1
  C  C23  1  0.95762000  0.55053600  0.93269700  1
  C  C24  1  0.90248300  0.92134800  0.28730300  1
  C  C25  1  0.86352400  0.57374200  0.71532100  1
  C  C26  1  0.09883700  0.79099800  0.64491800  1
  C  C27  1  0.36352400  0.92625800  0.78467900  1
  C  C28  1  0.90116300  0.20900200  0.35508200  1
  C  C29  1  0.63516100  0.14366500  0.97118300  1
  C  C30  1  0.48980700  0.79436700  0.25787000  1
  C  C31  1  0.59883700  0.70900200  0.85508200  1
  C  C32  1  0.40116300  0.29099800  0.14491800  1
  C  C33  1  0.13049000  0.12406600  0.46617900  1
  C  C34  1  0.98980700  0.70563300  0.24213000  1
  C  C35  1  0.13516100  0.35633500  0.52881700  1
  C  C36  1  0.13647600  0.42625800  0.28467900  1
  C  C37  1  0.54238000  0.05053600  0.43269700  1
  C  C38  1  0.01154500  0.99182100  0.06725700  1
  C  C39  1  0.44756800  0.70441700  0.74258900  1
  C  C40  1  0.86951000  0.87593400  0.53382100  1
  C  C41  1  0.09751700  0.07865200  0.71269700  1
  C  C42  1  0.48845500  0.49182100  0.56725700  1
  C  C43  1  0.40248300  0.57865200  0.21269700  1
  C  C44  1  0.98553300  0.45146400  0.39159800  1
  C  C45  1  0.05283700  0.94704700  0.38893800  1
  C  C46  1  0.94716300  0.05295300  0.61106200  1
  C  C47  1  0.63049000  0.37593400  0.03382100  1
  C  C48  1  0.36951000  0.62406600  0.96617900  1
  C  C49  1  0.36210300  0.20093900  0.86014500  1
  C  C50  1  0.59751700  0.42134800  0.78730300  1
  C  C51  1  0.36483900  0.85633500  0.02881700  1
  C  C52  1  0.63789700  0.79906100  0.13985500  1
  C  C53  1  0.55243200  0.29558300  0.25741100  1
  C  C54  1  0.03103500  0.82217400  0.87058100  1
  C  C55  1  0.96896500  0.17782600  0.12941900  1
  Ni  Ni56  1  0.85764200  0.56070800  0.82599900  1
  Ni  Ni57  1  0.64235800  0.06070800  0.32599900  1
  Ni  Ni58  1  0.89619600  0.93535500  0.17608600  1
  Ni  Ni59  1  0.39619600  0.56464500  0.32391400  1
  Ni  Ni60  1  0.22753700  0.01338500  0.20189700  1
  Ni  Ni61  1  0.73831400  0.64672600  0.34550800  1
  Ni  Ni62  1  0.14235800  0.43929200  0.17400100  1
  Ni  Ni63  1  0.29315000  0.14522800  0.34022900  1
  Ni  Ni64  1  0.27246300  0.51338500  0.70189700  1
  Ni  Ni65  1  0.31773800  0.97431400  0.30091300  1
  Ni  Ni66  1  0.60380400  0.43535500  0.67608600  1
  Ni  Ni67  1  0.26168600  0.35327400  0.65449200  1
  Ni  Ni68  1  0.18226200  0.47431400  0.80091300  1
  Ni  Ni69  1  0.20685000  0.64522800  0.84022900  1
  Ni  Ni70  1  0.68226200  0.02568600  0.69908700  1
  Ni  Ni71  1  0.23831400  0.85327400  0.15449200  1
  Ni  Ni72  1  0.81773800  0.52568600  0.19908700  1
  Ni  Ni73  1  0.70685000  0.85477200  0.65977100  1
  Ni  Ni74  1  0.72753700  0.48661500  0.29810300  1
  Ni  Ni75  1  0.10380400  0.06464500  0.82391400  1
  Ni  Ni76  1  0.76168600  0.14672600  0.84550800  1
  Ni  Ni77  1  0.35764200  0.93929200  0.67400100  1
  Ni  Ni78  1  0.79315000  0.35477200  0.15977100  1
  Ni  Ni79  1  0.77246300  0.98661500  0.79810300  1
  Cu  Cu80  1  0.28754400  0.67728200  0.47398200  1
  Cu  Cu81  1  0.76699000  0.64731400  0.02146000  1
  Cu  Cu82  1  0.47555600  0.24742400  0.49160700  1
  Cu  Cu83  1  0.78754400  0.82271800  0.02601800  1
  Cu  Cu84  1  0.73570700  0.77438300  0.95530000  1
  Cu  Cu85  1  0.76429300  0.27438300  0.45530000  1
  Cu  Cu86  1  0.26699000  0.85268600  0.47854000  1
  Cu  Cu87  1  0.23570700  0.72561700  0.54470000  1
  Cu  Cu88  1  0.02444400  0.74742400  0.99160700  1
  Cu  Cu89  1  0.97555600  0.25257600  0.00839300  1
  Cu  Cu90  1  0.71245600  0.32271800  0.52601800  1
  Cu  Cu91  1  0.73301000  0.14731400  0.52146000  1
  Cu  Cu92  1  0.26429300  0.22561700  0.04470000  1
  Cu  Cu93  1  0.21245600  0.17728200  0.97398200  1
  Cu  Cu94  1  0.23301000  0.35268600  0.97854000  1
  Cu  Cu95  1  0.52444400  0.75257600  0.50839300  1
  C  C96  1  0.76530100  0.11610700  0.29080800  1
  C  C97  1  0.50436100  0.13654600  0.33967800  1
  C  C98  1  0.29571600  0.75151000  0.17851400  1
  C  C99  1  0.77208800  0.50089300  0.86743900  1
  C  C100  1  0.77862700  0.87544900  0.21132200  1
  C  C101  1  0.20428400  0.25151000  0.67851400  1
  C  C102  1  0.76131700  0.75318400  0.68495400  1
  C  C103  1  0.27671000  0.97950900  0.25149400  1
  C  C104  1  0.47900600  0.50413400  0.69938600  1
  C  C105  1  0.81390400  0.56634000  0.31995800  1
  C  C106  1  0.69509600  0.50206800  0.63723900  1
  C  C107  1  0.72329000  0.02049100  0.74850600  1
  C  C108  1  0.22791200  0.49910700  0.13256100  1
  C  C109  1  0.27862700  0.62455100  0.28867800  1
  C  C110  1  0.75195800  0.62211400  0.17161800  1
  C  C111  1  0.97697800  0.48751800  0.80390000  1
  C  C112  1  0.31390400  0.93366000  0.18004200  1
  C  C113  1  0.72605500  0.38311700  0.11266600  1
  C  C114  1  0.97134300  0.13609700  0.84219200  1
  C  C115  1  0.74804200  0.12211400  0.67161800  1
  C  C116  1  0.26131700  0.74681600  0.81504600  1
  C  C117  1  0.79278500  0.38390700  0.31777000  1
  C  C118  1  0.77671000  0.52049100  0.24850600  1
  C  C119  1  0.26530100  0.38389300  0.20919200  1
  C  C120  1  0.52302200  0.98751800  0.30390000  1
  C  C121  1  0.25195800  0.87788600  0.32838200  1
  C  C122  1  0.23469900  0.88389300  0.70919200  1
  C  C123  1  0.24804200  0.37788600  0.82838200  1
  C  C124  1  0.70721500  0.88390700  0.81777000  1
  C  C125  1  0.52099400  0.49586600  0.30061400  1
  C  C126  1  0.77390100  0.93459000  0.68660900  1
  C  C127  1  0.73868300  0.25318400  0.18495400  1
  C  C128  1  0.29747400  0.88395200  0.10667200  1
  C  C129  1  0.79571600  0.74849000  0.32148600  1
  C  C130  1  0.02865700  0.86390300  0.15780800  1
  C  C131  1  0.27394500  0.61688300  0.88733400  1
  C  C132  1  0.30490400  0.49793200  0.36276100  1
  C  C133  1  0.22609900  0.06541000  0.31339100  1
  C  C134  1  0.00436100  0.36345400  0.16032200  1
  C  C135  1  0.70428400  0.24849000  0.82148600  1
  C  C136  1  0.72791200  0.00089300  0.36743900  1
  C  C137  1  0.99563900  0.63654600  0.83967800  1
  C  C138  1  0.18609600  0.43366000  0.68004200  1
  C  C139  1  0.72609900  0.43459000  0.18660900  1
  C  C140  1  0.68609600  0.06634000  0.81995800  1
  C  C141  1  0.20252600  0.38395200  0.60667200  1
  C  C142  1  0.80490400  0.00206800  0.13723900  1
  C  C143  1  0.79747400  0.61604800  0.39332800  1
  C  C144  1  0.73469900  0.61610700  0.79080800  1
  C  C145  1  0.47134300  0.36390300  0.65780800  1
  C  C146  1  0.23868300  0.24681600  0.31504600  1
  C  C147  1  0.52865700  0.63609700  0.34219200  1
  C  C148  1  0.22605500  0.11688300  0.38733400  1
  C  C149  1  0.27208800  0.99910700  0.63256100  1
  C  C150  1  0.97900600  0.99586600  0.80061400  1
  C  C151  1  0.27390100  0.56541000  0.81339100  1
  C  C152  1  0.70252600  0.11604800  0.89332800  1
  C  C153  1  0.49563900  0.86345400  0.66032200  1
  C  C154  1  0.29278500  0.11609300  0.18223000  1
  C  C155  1  0.22329000  0.47950900  0.75149400  1
  C  C156  1  0.47697800  0.01248200  0.69610000  1
  C  C157  1  0.20721500  0.61609300  0.68223000  1
  C  C158  1  0.22137300  0.12455100  0.78867800  1
  C  C159  1  0.02302200  0.51248200  0.19610000  1
  C  C160  1  0.19509600  0.99793200  0.86276100  1
  C  C161  1  0.02099400  0.00413400  0.19938600  1
  C  C162  1  0.72137300  0.37544900  0.71132200  1
  C  C163  1  0.77394500  0.88311700  0.61266600  1
