# generated using pymatgen
data_Cu4NiC3
_symmetry_space_group_name_H-M   'P 1'
_cell_length_a   6.60876401
_cell_length_b   7.55863500
_cell_length_c   11.56647001
_cell_angle_alpha   89.99930462
_cell_angle_beta   89.99612981
_cell_angle_gamma   90.00360736
_symmetry_Int_Tables_number   1
_chemical_formula_structural   Cu4NiC3
_chemical_formula_sum   'Cu16 Ni4 C12'
_cell_volume   577.78259136
_cell_formula_units_Z   4
loop_
 _symmetry_equiv_pos_site_id
 _symmetry_equiv_pos_as_xyz
  1  'x, y, z'
loop_
 _atom_site_type_symbol
 _atom_site_label
 _atom_site_symmetry_multiplicity
 _atom_site_fract_x
 _atom_site_fract_y
 _atom_site_fract_z
 _atom_site_occupancy
  C  C0  1  0.13660900  0.46556900  0.25000000  1
  C  C1  1  0.62274500  0.25000700  0.00000000  1
  C  C2  1  0.37723000  0.75000700  0.99999800  1
  C  C3  1  0.62280600  0.25001800  0.50000400  1
  C  C4  1  0.13660100  0.03445300  0.75001400  1
  C  C5  1  0.86335100  0.96557000  0.25000100  1
  C  C6  1  0.86336500  0.53445100  0.74998200  1
  C  C7  1  0.37722400  0.74999800  0.50000500  1
  C  C8  1  0.87475900  0.75001000  0.49998200  1
  C  C9  1  0.12522000  0.24998200  0.00001100  1
  C  C10  1  0.87476500  0.74998000  0.00002100  1
  C  C11  1  0.12531900  0.24992300  0.49997700  1
  Ni  Ni12  1  0.51493700  0.82239400  0.75000400  1
  Ni  Ni13  1  0.48501100  0.32239400  0.74999700  1
  Ni  Ni14  1  0.51494000  0.67762400  0.24999800  1
  Ni  Ni15  1  0.48500900  0.17761900  0.25000600  1
  Cu  Cu16  1  0.03334400  0.73130100  0.38133500  1
  Cu  Cu17  1  0.96676400  0.26873300  0.61863100  1
  Cu  Cu18  1  0.28404600  0.07613600  0.96714400  1
  Cu  Cu19  1  0.96663300  0.23130400  0.11865500  1
  Cu  Cu20  1  0.71597500  0.57613500  0.96714400  1
  Cu  Cu21  1  0.71597800  0.92387600  0.03285000  1
  Cu  Cu22  1  0.03332000  0.76872900  0.61862600  1
  Cu  Cu23  1  0.96672700  0.23125900  0.38134700  1
  Cu  Cu24  1  0.71593200  0.92386700  0.46712900  1
  Cu  Cu25  1  0.96664100  0.26871000  0.88137000  1
  Cu  Cu26  1  0.28402100  0.42385200  0.03287500  1
  Cu  Cu27  1  0.71593700  0.57616100  0.53285300  1
  Cu  Cu28  1  0.28405200  0.42386200  0.46715400  1
  Cu  Cu29  1  0.03333300  0.73126500  0.11867400  1
  Cu  Cu30  1  0.28410800  0.07607500  0.53286100  1
  Cu  Cu31  1  0.03329500  0.76873400  0.88135100  1
