# generated using pymatgen
data_CuNi2C7
_symmetry_space_group_name_H-M   'P 1'
_cell_length_a   10.91302003
_cell_length_b   10.91302003
_cell_length_c   10.91302006
_cell_angle_alpha   33.80219797
_cell_angle_beta   33.80219797
_cell_angle_gamma   33.80219640
_symmetry_Int_Tables_number   1
_chemical_formula_structural   CuNi2C7
_chemical_formula_sum   'Cu2 Ni4 C14'
_cell_volume   358.43821287
_cell_formula_units_Z   2
loop_
 _symmetry_equiv_pos_site_id
 _symmetry_equiv_pos_as_xyz
  1  'x, y, z'
loop_
 _atom_site_type_symbol
 _atom_site_label
 _atom_site_symmetry_multiplicity
 _atom_site_fract_x
 _atom_site_fract_y
 _atom_site_fract_z
 _atom_site_occupancy
  Ni  Ni0  1  0.71847500  0.71847500  0.71847500  1
  Ni  Ni1  1  0.28152500  0.28152500  0.28152500  1
  Ni  Ni2  1  0.87198100  0.87198100  0.87198100  1
  Ni  Ni3  1  0.12801900  0.12801900  0.12801900  1
  Cu  Cu4  1  0.40301500  0.40301500  0.40301500  1
  Cu  Cu5  1  0.59698500  0.59698500  0.59698500  1
  C  C6  1  0.00000000  0.00000000  0.00000000  1
  C  C7  1  0.50000000  0.50000000  0.50000000  1
  C  C8  1  0.18146000  0.18146000  0.74487900  1
  C  C9  1  0.74487900  0.18146000  0.18146000  1
  C  C10  1  0.18146000  0.74487900  0.18146000  1
  C  C11  1  0.81854000  0.25512100  0.81854000  1
  C  C12  1  0.81854000  0.81854000  0.25512100  1
  C  C13  1  0.25512100  0.81854000  0.81854000  1
  C  C14  1  0.39661100  0.39661100  0.81986400  1
  C  C15  1  0.81986400  0.39661100  0.39661100  1
  C  C16  1  0.18013600  0.60338900  0.60338900  1
  C  C17  1  0.60338900  0.60338900  0.18013600  1
  C  C18  1  0.60338900  0.18013600  0.60338900  1
  C  C19  1  0.39661100  0.81986400  0.39661100  1
