# generated using pymatgen
data_Cu6Ni11C5
_symmetry_space_group_name_H-M   'P 1'
_cell_length_a   10.37499519
_cell_length_b   10.37499519
_cell_length_c   4.41144000
_cell_angle_alpha   90.00000000
_cell_angle_beta   90.00000000
_cell_angle_gamma   90.19343759
_symmetry_Int_Tables_number   1
_chemical_formula_structural   Cu6Ni11C5
_chemical_formula_sum   'Cu6 Ni11 C5'
_cell_volume   474.84701209
_cell_formula_units_Z   1
loop_
 _symmetry_equiv_pos_site_id
 _symmetry_equiv_pos_as_xyz
  1  'x, y, z'
loop_
 _atom_site_type_symbol
 _atom_site_label
 _atom_site_symmetry_multiplicity
 _atom_site_fract_x
 _atom_site_fract_y
 _atom_site_fract_z
 _atom_site_occupancy
  C  C0  1  0.96314300  0.68982000  0.00000000  1
  C  C1  1  0.03685700  0.31018000  0.00000000  1
  C  C2  1  0.68982000  0.96314300  0.00000000  1
  C  C3  1  0.50000000  0.50000000  0.50000000  1
  C  C4  1  0.31018000  0.03685700  0.00000000  1
  Ni  Ni5  1  0.15089600  0.53638300  0.50000000  1
  Ni  Ni6  1  0.16047800  0.83952200  0.50000000  1
  Ni  Ni7  1  0.27506000  0.27506000  0.50000000  1
  Ni  Ni8  1  0.53638300  0.15089600  0.50000000  1
  Ni  Ni9  1  0.72494000  0.72494000  0.50000000  1
  Ni  Ni10  1  0.30395800  0.69604200  0.00000000  1
  Ni  Ni11  1  0.69604200  0.30395800  0.00000000  1
  Ni  Ni12  1  0.46361700  0.84910400  0.50000000  1
  Ni  Ni13  1  0.84910400  0.46361700  0.50000000  1
  Ni  Ni14  1  0.83952200  0.16047800  0.50000000  1
  Ni  Ni15  1  0.00000000  0.00000000  0.00000000  1
  Cu  Cu16  1  0.09403600  0.09403600  0.50000000  1
  Cu  Cu17  1  0.90596400  0.90596400  0.50000000  1
  Cu  Cu18  1  0.72074100  0.55471700  0.00000000  1
  Cu  Cu19  1  0.27925900  0.44528300  0.00000000  1
  Cu  Cu20  1  0.44528300  0.27925900  0.00000000  1
  Cu  Cu21  1  0.55471700  0.72074100  0.00000000  1
