# generated using pymatgen
data_Cu27Ni9C5
_symmetry_space_group_name_H-M   'P 1'
_cell_length_a   13.25704900
_cell_length_b   13.25704900
_cell_length_c   13.25704900
_cell_angle_alpha   90.00000000
_cell_angle_beta   90.00000000
_cell_angle_gamma   90.00000000
_symmetry_Int_Tables_number   1
_chemical_formula_structural   Cu27Ni9C5
_chemical_formula_sum   'Cu108 Ni36 C20'
_cell_volume   2329.91772065
_cell_formula_units_Z   4
loop_
 _symmetry_equiv_pos_site_id
 _symmetry_equiv_pos_as_xyz
  1  'x, y, z'
loop_
 _atom_site_type_symbol
 _atom_site_label
 _atom_site_symmetry_multiplicity
 _atom_site_fract_x
 _atom_site_fract_y
 _atom_site_fract_z
 _atom_site_occupancy
  C  C0  1  0.67005900  0.07994100  0.87500000  1
  C  C1  1  0.62500000  0.32994100  0.57994100  1
  C  C2  1  0.12500000  0.17005900  0.42005900  1
  C  C3  1  0.17005900  0.42005900  0.12500000  1
  C  C4  1  0.87500000  0.67005900  0.07994100  1
  C  C5  1  0.57994100  0.62500000  0.32994100  1
  C  C6  1  0.82994100  0.92005900  0.37500000  1
  C  C7  1  0.07994100  0.87500000  0.67005900  1
  C  C8  1  0.32994100  0.57994100  0.62500000  1
  C  C9  1  0.92005900  0.37500000  0.82994100  1
  C  C10  1  0.37500000  0.82994100  0.92005900  1
  C  C11  1  0.42005900  0.12500000  0.17005900  1
  C  C12  1  0.21195700  0.78804300  0.28804300  1
  C  C13  1  0.03804300  0.03804300  0.03804300  1
  C  C14  1  0.78804300  0.28804300  0.21195700  1
  C  C15  1  0.71195700  0.71195700  0.71195700  1
  C  C16  1  0.53804300  0.46195700  0.96195700  1
  C  C17  1  0.28804300  0.21195700  0.78804300  1
  C  C18  1  0.96195700  0.53804300  0.46195700  1
  C  C19  1  0.46195700  0.96195700  0.53804300  1
  Ni  Ni20  1  0.61186800  0.86755300  0.39801000  1
  Ni  Ni21  1  0.24501700  0.87500000  0.50498300  1
  Ni  Ni22  1  0.11755300  0.63813200  0.14801000  1
  Ni  Ni23  1  0.00498300  0.25498300  0.12500000  1
  Ni  Ni24  1  0.39801000  0.61186800  0.86755300  1
  Ni  Ni25  1  0.38244700  0.36186800  0.64801000  1
  Ni  Ni26  1  0.63244700  0.60199000  0.11186800  1
  Ni  Ni27  1  0.13813200  0.35199000  0.88244700  1
  Ni  Ni28  1  0.11186800  0.63244700  0.60199000  1
  Ni  Ni29  1  0.50498300  0.24501700  0.87500000  1
  Ni  Ni30  1  0.36755300  0.10199000  0.38813200  1
  Ni  Ni31  1  0.63813200  0.14801000  0.11755300  1
  Ni  Ni32  1  0.37500000  0.99501700  0.75498300  1
  Ni  Ni33  1  0.88244700  0.13813200  0.35199000  1
  Ni  Ni34  1  0.49501700  0.74501700  0.62500000  1
  Ni  Ni35  1  0.12500000  0.00498300  0.25498300  1
  Ni  Ni36  1  0.85199000  0.61755300  0.86186800  1
  Ni  Ni37  1  0.62500000  0.49501700  0.74501700  1
  Ni  Ni38  1  0.88813200  0.13244700  0.89801000  1
  Ni  Ni39  1  0.38813200  0.36755300  0.10199000  1
  Ni  Ni40  1  0.10199000  0.38813200  0.36755300  1
  Ni  Ni41  1  0.87500000  0.50498300  0.24501700  1
  Ni  Ni42  1  0.14801000  0.11755300  0.63813200  1
  Ni  Ni43  1  0.35199000  0.88244700  0.13813200  1
  Ni  Ni44  1  0.74501700  0.62500000  0.49501700  1
  Ni  Ni45  1  0.89801000  0.88813200  0.13244700  1
  Ni  Ni46  1  0.99501700  0.75498300  0.37500000  1
  Ni  Ni47  1  0.86186800  0.85199000  0.61755300  1
  Ni  Ni48  1  0.61755300  0.86186800  0.85199000  1
  Ni  Ni49  1  0.36186800  0.64801000  0.38244700  1
  Ni  Ni50  1  0.64801000  0.38244700  0.36186800  1
  Ni  Ni51  1  0.13244700  0.89801000  0.88813200  1
  Ni  Ni52  1  0.25498300  0.12500000  0.00498300  1
  Ni  Ni53  1  0.86755300  0.39801000  0.61186800  1
  Ni  Ni54  1  0.75498300  0.37500000  0.99501700  1
  Ni  Ni55  1  0.60199000  0.11186800  0.63244700  1
  Cu  Cu56  1  0.02265800  0.66777700  0.59167700  1
  Cu  Cu57  1  0.94410900  0.86746400  0.05008700  1
  Cu  Cu58  1  0.82306300  0.34551900  0.67606300  1
  Cu  Cu59  1  0.42693700  0.42606300  0.59551900  1
  Cu  Cu60  1  0.19410900  0.19991300  0.61746400  1
  Cu  Cu61  1  0.88253600  0.80589100  0.69991300  1
  Cu  Cu62  1  0.69410900  0.30008700  0.38253600  1
  Cu  Cu63  1  0.76431800  0.58563800  0.41138300  1
  Cu  Cu64  1  0.94991300  0.44410900  0.63253600  1
  Cu  Cu65  1  0.43600900  0.31399100  0.87500000  1
  Cu  Cu66  1  0.51431800  0.66138300  0.66436200  1
  Cu  Cu67  1  0.40832300  0.52265800  0.83222300  1
  Cu  Cu68  1  0.32306300  0.15448100  0.32393700  1
  Cu  Cu69  1  0.38253600  0.69410900  0.30008700  1
  Cu  Cu70  1  0.52265800  0.83222300  0.40832300  1
  Cu  Cu71  1  0.27265800  0.65832300  0.41777700  1
  Cu  Cu72  1  0.41138300  0.76431800  0.58563800  1
  Cu  Cu73  1  0.32393700  0.32306300  0.15448100  1
  Cu  Cu74  1  0.81399100  0.62500000  0.56399100  1
  Cu  Cu75  1  0.12500000  0.93600900  0.18600900  1
  Cu  Cu76  1  0.41777700  0.27265800  0.65832300  1
  Cu  Cu77  1  0.08563800  0.08861700  0.23568200  1
  Cu  Cu78  1  0.40448100  0.92693700  0.07393700  1
  Cu  Cu79  1  0.16436200  0.98568200  0.33861700  1
  Cu  Cu80  1  0.83861700  0.33563800  0.01431800  1
  Cu  Cu81  1  0.59551900  0.42693700  0.42606300  1
  Cu  Cu82  1  0.16777700  0.90832300  0.97734200  1
  Cu  Cu83  1  0.11746400  0.30589100  0.80008700  1
  Cu  Cu84  1  0.05008700  0.94410900  0.86746400  1
  Cu  Cu85  1  0.44410900  0.63253600  0.94991300  1
  Cu  Cu86  1  0.90832300  0.97734200  0.16777700  1
  Cu  Cu87  1  0.83222300  0.40832300  0.52265800  1
  Cu  Cu88  1  0.08222300  0.72734200  0.15832300  1
  Cu  Cu89  1  0.92693700  0.07393700  0.40448100  1
  Cu  Cu90  1  0.17693700  0.84551900  0.82393700  1
  Cu  Cu91  1  0.69991300  0.88253600  0.80589100  1
  Cu  Cu92  1  0.08861700  0.23568200  0.08563800  1
  Cu  Cu93  1  0.66436200  0.51431800  0.66138300  1
  Cu  Cu94  1  0.65448100  0.17606300  0.67693700  1
  Cu  Cu95  1  0.58222300  0.77265800  0.84167700  1
  Cu  Cu96  1  0.30589100  0.80008700  0.11746400  1
  Cu  Cu97  1  0.84167700  0.58222300  0.77265800  1
  Cu  Cu98  1  0.98568200  0.33861700  0.16436200  1
  Cu  Cu99  1  0.66777700  0.59167700  0.02265800  1
  Cu  Cu100  1  0.59167700  0.02265800  0.66777700  1
  Cu  Cu101  1  0.57393700  0.09551900  0.07306300  1
  Cu  Cu102  1  0.23568200  0.08563800  0.08861700  1
  Cu  Cu103  1  0.34167700  0.91777700  0.22734200  1
  Cu  Cu104  1  0.67606300  0.82306300  0.34551900  1
  Cu  Cu105  1  0.41436200  0.91138300  0.73568200  1
  Cu  Cu106  1  0.73568200  0.41436200  0.91138300  1
  Cu  Cu107  1  0.63253600  0.94991300  0.44410900  1
  Cu  Cu108  1  0.09551900  0.07306300  0.57393700  1
  Cu  Cu109  1  0.16138300  0.83563800  0.48568200  1
  Cu  Cu110  1  0.55589100  0.13253600  0.55008700  1
  Cu  Cu111  1  0.80008700  0.11746400  0.30589100  1
  Cu  Cu112  1  0.66138300  0.66436200  0.51431800  1
  Cu  Cu113  1  0.37500000  0.06399100  0.68600900  1
  Cu  Cu114  1  0.33861700  0.16436200  0.98568200  1
  Cu  Cu115  1  0.57306300  0.92606300  0.90448100  1
  Cu  Cu116  1  0.91138300  0.73568200  0.41436200  1
  Cu  Cu117  1  0.15832300  0.08222300  0.72734200  1
  Cu  Cu118  1  0.77265800  0.84167700  0.58222300  1
  Cu  Cu119  1  0.07393700  0.40448100  0.92693700  1
  Cu  Cu120  1  0.55008700  0.55589100  0.13253600  1
  Cu  Cu121  1  0.86746400  0.05008700  0.94410900  1
  Cu  Cu122  1  0.13253600  0.55008700  0.55589100  1
  Cu  Cu123  1  0.15448100  0.32393700  0.32306300  1
  Cu  Cu124  1  0.58563800  0.41138300  0.76431800  1
  Cu  Cu125  1  0.82393700  0.17693700  0.84551900  1
  Cu  Cu126  1  0.61746400  0.19410900  0.19991300  1
  Cu  Cu127  1  0.87500000  0.43600900  0.31399100  1
  Cu  Cu128  1  0.01431800  0.83861700  0.33563800  1
  Cu  Cu129  1  0.48568200  0.16138300  0.83563800  1
  Cu  Cu130  1  0.91436200  0.58861700  0.26431800  1
  Cu  Cu131  1  0.58861700  0.26431800  0.91436200  1
  Cu  Cu132  1  0.84551900  0.82393700  0.17693700  1
  Cu  Cu133  1  0.72734200  0.15832300  0.08222300  1
  Cu  Cu134  1  0.31399100  0.87500000  0.43600900  1
  Cu  Cu135  1  0.36746400  0.44991300  0.05589100  1
  Cu  Cu136  1  0.97734200  0.16777700  0.90832300  1
  Cu  Cu137  1  0.05589100  0.36746400  0.44991300  1
  Cu  Cu138  1  0.47734200  0.33222300  0.09167700  1
  Cu  Cu139  1  0.92606300  0.90448100  0.57306300  1
  Cu  Cu140  1  0.44991300  0.05589100  0.36746400  1
  Cu  Cu141  1  0.83563800  0.48568200  0.16138300  1
  Cu  Cu142  1  0.09167700  0.47734200  0.33222300  1
  Cu  Cu143  1  0.90448100  0.57306300  0.92606300  1
  Cu  Cu144  1  0.80589100  0.69991300  0.88253600  1
  Cu  Cu145  1  0.42606300  0.59551900  0.42693700  1
  Cu  Cu146  1  0.67693700  0.65448100  0.17606300  1
  Cu  Cu147  1  0.17606300  0.67693700  0.65448100  1
  Cu  Cu148  1  0.65832300  0.41777700  0.27265800  1
  Cu  Cu149  1  0.07306300  0.57393700  0.09551900  1
  Cu  Cu150  1  0.06399100  0.68600900  0.37500000  1
  Cu  Cu151  1  0.30008700  0.38253600  0.69410900  1
  Cu  Cu152  1  0.91777700  0.22734200  0.34167700  1
  Cu  Cu153  1  0.68600900  0.37500000  0.06399100  1
  Cu  Cu154  1  0.62500000  0.56399100  0.81399100  1
  Cu  Cu155  1  0.33222300  0.09167700  0.47734200  1
  Cu  Cu156  1  0.19991300  0.61746400  0.19410900  1
  Cu  Cu157  1  0.93600900  0.18600900  0.12500000  1
  Cu  Cu158  1  0.26431800  0.91436200  0.58861700  1
  Cu  Cu159  1  0.34551900  0.67606300  0.82306300  1
  Cu  Cu160  1  0.56399100  0.81399100  0.62500000  1
  Cu  Cu161  1  0.18600900  0.12500000  0.93600900  1
  Cu  Cu162  1  0.33563800  0.01431800  0.83861700  1
  Cu  Cu163  1  0.22734200  0.34167700  0.91777700  1
