# generated using pymatgen
data_Cu8Ni18C17
_symmetry_space_group_name_H-M   'P 1'
_cell_length_a   11.27209800
_cell_length_b   10.54424400
_cell_length_c   11.78626143
_cell_angle_alpha   84.69612795
_cell_angle_beta   90.00000000
_cell_angle_gamma   90.00000000
_symmetry_Int_Tables_number   1
_chemical_formula_structural   Cu8Ni18C17
_chemical_formula_sum   'Cu16 Ni36 C34'
_cell_volume   1394.86709314
_cell_formula_units_Z   2
loop_
 _symmetry_equiv_pos_site_id
 _symmetry_equiv_pos_as_xyz
  1  'x, y, z'
loop_
 _atom_site_type_symbol
 _atom_site_label
 _atom_site_symmetry_multiplicity
 _atom_site_fract_x
 _atom_site_fract_y
 _atom_site_fract_z
 _atom_site_occupancy
  C  C0  1  0.79043200  0.11321200  0.88744800  1
  C  C1  1  0.87101700  0.85278400  0.17198700  1
  C  C2  1  0.01664400  0.41544000  0.59378800  1
  C  C3  1  0.48236800  0.19163200  0.42153400  1
  C  C4  1  0.54064800  0.41389500  0.13199200  1
  C  C5  1  0.71166800  0.50496800  0.82711300  1
  C  C6  1  0.29043200  0.88678800  0.11255200  1
  C  C7  1  0.37101700  0.14721600  0.82801300  1
  C  C8  1  0.51664400  0.58456000  0.40621200  1
  C  C9  1  0.98236800  0.80836800  0.57846600  1
  C  C10  1  0.04064800  0.58610500  0.86800800  1
  C  C11  1  0.21166800  0.49503200  0.17288700  1
  C  C12  1  0.17068300  0.17342600  0.39210000  1
  C  C13  1  0.34698100  0.64883300  0.64243800  1
  C  C14  1  0.67068300  0.82657400  0.60790000  1
  C  C15  1  0.84698100  0.35116700  0.35756200  1
  Ni  Ni16  1  0.99518000  0.59443700  0.08965400  1
  Ni  Ni17  1  0.86845500  0.21774100  0.12741600  1
  Ni  Ni18  1  0.89543900  0.60281600  0.29836300  1
  Ni  Ni19  1  0.77289200  0.12113300  0.17039500  1
  Ni  Ni20  1  0.81980200  0.31272400  0.67222100  1
  Ni  Ni21  1  0.05593200  0.89655900  0.90365400  1
  Ni  Ni22  1  0.71165700  0.17404500  0.62752300  1
  Ni  Ni23  1  0.10238600  0.32000600  0.40608400  1
  Ni  Ni24  1  0.35737700  0.69807100  0.27396600  1
  Ni  Ni25  1  0.82891900  0.77413700  0.76960300  1
  Ni  Ni26  1  0.76346800  0.80630600  0.49330300  1
  Ni  Ni27  1  0.77813900  0.56606000  0.09139400  1
  Ni  Ni28  1  0.51005600  0.33902400  0.93666800  1
  Ni  Ni29  1  0.66832200  0.77673800  0.94112500  1
  Ni  Ni30  1  0.65406800  0.63699100  0.09942100  1
  Ni  Ni31  1  0.68912200  0.21234300  0.31343100  1
  Ni  Ni32  1  0.53131100  0.75220700  0.20341700  1
  Ni  Ni33  1  0.50025000  0.91018300  0.91873600  1
  Ni  Ni34  1  0.49518000  0.40556300  0.91034600  1
  Ni  Ni35  1  0.36845500  0.78225900  0.87258400  1
  Ni  Ni36  1  0.39543900  0.39718400  0.70163700  1
  Ni  Ni37  1  0.27289200  0.87886700  0.82960500  1
  Ni  Ni38  1  0.31980200  0.68727600  0.32777900  1
  Ni  Ni39  1  0.55593200  0.10344100  0.09634600  1
  Ni  Ni40  1  0.21165700  0.82595500  0.37247700  1
  Ni  Ni41  1  0.60238600  0.67999400  0.59391600  1
  Ni  Ni42  1  0.85737700  0.30192900  0.72603400  1
  Ni  Ni43  1  0.32891900  0.22586300  0.23039700  1
  Ni  Ni44  1  0.26346800  0.19369400  0.50669700  1
  Ni  Ni45  1  0.27813900  0.43394000  0.90860600  1
  Ni  Ni46  1  0.01005600  0.66097600  0.06333200  1
  Ni  Ni47  1  0.16832200  0.22326200  0.05887500  1
  Ni  Ni48  1  0.15406800  0.36300900  0.90057900  1
  Ni  Ni49  1  0.18912200  0.78765700  0.68656900  1
  Ni  Ni50  1  0.03131100  0.24779300  0.79658300  1
  Ni  Ni51  1  0.00025000  0.08981700  0.08126400  1
  Cu  Cu52  1  0.64245200  0.40803100  0.58669100  1
  Cu  Cu53  1  0.42305100  0.61276900  0.83031900  1
  Cu  Cu54  1  0.60167300  0.22917300  0.65127200  1
  Cu  Cu55  1  0.79824500  0.60082300  0.36587900  1
  Cu  Cu56  1  0.86833100  0.08347900  0.38460100  1
  Cu  Cu57  1  0.94079900  0.85940600  0.90833700  1
  Cu  Cu58  1  0.04785300  0.10904400  0.60992300  1
  Cu  Cu59  1  0.87285100  0.07743900  0.56002100  1
  Cu  Cu60  1  0.14245200  0.59196900  0.41330900  1
  Cu  Cu61  1  0.92305100  0.38723100  0.16968100  1
  Cu  Cu62  1  0.10167300  0.77082700  0.34872800  1
  Cu  Cu63  1  0.29824500  0.39917700  0.63412100  1
  Cu  Cu64  1  0.36833100  0.91652100  0.61539900  1
  Cu  Cu65  1  0.44079900  0.14059400  0.09166300  1
  Cu  Cu66  1  0.54785300  0.89095600  0.39007700  1
  Cu  Cu67  1  0.37285100  0.92256100  0.43997900  1
  C  C68  1  0.03887100  0.33591700  0.81612500  1
  C  C69  1  0.59584200  0.21616500  0.78211900  1
  C  C70  1  0.92522400  0.36008800  0.87802000  1
  C  C71  1  0.21379500  0.39223000  0.95491900  1
  C  C72  1  0.33479100  0.87055100  0.88763400  1
  C  C73  1  0.57565100  0.92796700  0.95823800  1
  C  C74  1  0.17546900  0.69540900  0.69181100  1
  C  C75  1  0.79843800  0.71926600  0.71215100  1
  C  C76  1  0.66034700  0.85787200  0.89207400  1
  C  C77  1  0.53887100  0.66408300  0.18387500  1
  C  C78  1  0.09584200  0.78383500  0.21788100  1
  C  C79  1  0.42522400  0.63991200  0.12198000  1
  C  C80  1  0.71379500  0.60777000  0.04508100  1
  C  C81  1  0.83479100  0.12944900  0.11236600  1
  C  C82  1  0.07565100  0.07203300  0.04176200  1
  C  C83  1  0.67546900  0.30459100  0.30818900  1
  C  C84  1  0.29843800  0.28073400  0.28784900  1
  C  C85  1  0.16034700  0.14212800  0.10792600  1
