# generated using pymatgen
data_Cu2Ni2C11
_symmetry_space_group_name_H-M   'P 1'
_cell_length_a   5.97525300
_cell_length_b   7.95133700
_cell_length_c   8.32873700
_cell_angle_alpha   90.00000000
_cell_angle_beta   90.00000000
_cell_angle_gamma   90.00000000
_symmetry_Int_Tables_number   1
_chemical_formula_structural   Cu2Ni2C11
_chemical_formula_sum   'Cu4 Ni4 C22'
_cell_volume   395.70870798
_cell_formula_units_Z   2
loop_
 _symmetry_equiv_pos_site_id
 _symmetry_equiv_pos_as_xyz
  1  'x, y, z'
loop_
 _atom_site_type_symbol
 _atom_site_label
 _atom_site_symmetry_multiplicity
 _atom_site_fract_x
 _atom_site_fract_y
 _atom_site_fract_z
 _atom_site_occupancy
  Ni  Ni0  1  0.50000000  0.64950700  0.83348800  1
  Ni  Ni1  1  0.50000000  0.85049300  0.33348800  1
  Ni  Ni2  1  0.50000000  0.14950700  0.66651200  1
  Ni  Ni3  1  0.50000000  0.35049300  0.16651200  1
  C  C4  1  0.74468100  0.50000000  0.50000000  1
  C  C5  1  0.25531900  0.00000000  0.00000000  1
  C  C6  1  0.74468100  0.00000000  0.00000000  1
  C  C7  1  0.25531900  0.50000000  0.50000000  1
  Cu  Cu8  1  0.00000000  0.66866300  0.16738300  1
  Cu  Cu9  1  0.00000000  0.33133700  0.83261700  1
  Cu  Cu10  1  0.00000000  0.16866300  0.33261700  1
  Cu  Cu11  1  0.00000000  0.83133700  0.66738300  1
  C  C12  1  0.24244300  0.62860600  0.70428800  1
  C  C13  1  0.75755700  0.37139400  0.29571200  1
  C  C14  1  0.24244300  0.12860600  0.79571200  1
  C  C15  1  0.00000000  0.35404600  0.56792700  1
  C  C16  1  0.00000000  0.64595400  0.43207300  1
  C  C17  1  0.75755700  0.12860600  0.79571200  1
  C  C18  1  0.24244300  0.37139400  0.29571200  1
  C  C19  1  0.50000000  0.00000000  0.50000000  1
  C  C20  1  0.75755700  0.87139400  0.20428800  1
  C  C21  1  0.00000000  0.85404600  0.93207300  1
  C  C22  1  0.50000000  0.37137000  0.59143900  1
  C  C23  1  0.50000000  0.87137000  0.90856100  1
  C  C24  1  0.00000000  0.14595400  0.06792700  1
  C  C25  1  0.50000000  0.12863000  0.09143900  1
  C  C26  1  0.50000000  0.50000000  0.00000000  1
  C  C27  1  0.50000000  0.62863000  0.40856100  1
  C  C28  1  0.75755700  0.62860600  0.70428800  1
  C  C29  1  0.24244300  0.87139400  0.20428800  1
