# generated using pymatgen
data_Cu6Ni3C4
_symmetry_space_group_name_H-M   'P 1'
_cell_length_a   6.19638071
_cell_length_b   6.19638071
_cell_length_c   6.19638062
_cell_angle_alpha   115.53872582
_cell_angle_beta   115.53872582
_cell_angle_gamma   115.53873704
_symmetry_Int_Tables_number   1
_chemical_formula_structural   Cu6Ni3C4
_chemical_formula_sum   'Cu6 Ni3 C4'
_cell_volume   126.37138174
_cell_formula_units_Z   1
loop_
 _symmetry_equiv_pos_site_id
 _symmetry_equiv_pos_as_xyz
  1  'x, y, z'
loop_
 _atom_site_type_symbol
 _atom_site_label
 _atom_site_symmetry_multiplicity
 _atom_site_fract_x
 _atom_site_fract_y
 _atom_site_fract_z
 _atom_site_occupancy
  C  C0  1  0.99952300  0.99952300  0.99952300  1
  C  C1  1  0.36001000  0.84548000  0.36001000  1
  C  C2  1  0.36001000  0.36001000  0.84548000  1
  C  C3  1  0.84548000  0.36001000  0.36001000  1
  Ni  Ni4  1  0.60607100  0.14622200  0.60607100  1
  Ni  Ni5  1  0.60607100  0.60607100  0.14622200  1
  Ni  Ni6  1  0.14622200  0.60607100  0.60607100  1
  Cu  Cu7  1  0.88566200  0.28254600  0.88566200  1
  Cu  Cu8  1  0.88566200  0.88566200  0.28254600  1
  Cu  Cu9  1  0.28254600  0.88566200  0.88566200  1
  Cu  Cu10  1  0.58685800  0.33602600  0.58685800  1
  Cu  Cu11  1  0.58685800  0.58685800  0.33602600  1
  Cu  Cu12  1  0.33602600  0.58685800  0.58685800  1
