# generated using pymatgen
data_CuNi3C13
_symmetry_space_group_name_H-M   'P 1'
_cell_length_a   11.17482900
_cell_length_b   11.19762500
_cell_length_c   12.18220500
_cell_angle_alpha   90.00000000
_cell_angle_beta   90.00000000
_cell_angle_gamma   90.00000000
_symmetry_Int_Tables_number   1
_chemical_formula_structural   CuNi3C13
_chemical_formula_sum   'Cu8 Ni24 C104'
_cell_volume   1524.37812805
_cell_formula_units_Z   8
loop_
 _symmetry_equiv_pos_site_id
 _symmetry_equiv_pos_as_xyz
  1  'x, y, z'
loop_
 _atom_site_type_symbol
 _atom_site_label
 _atom_site_symmetry_multiplicity
 _atom_site_fract_x
 _atom_site_fract_y
 _atom_site_fract_z
 _atom_site_occupancy
  C  C0  1  0.27039600  0.74973200  0.40631600  1
  C  C1  1  0.77039600  0.75026800  0.59368400  1
  C  C2  1  0.72960400  0.25026800  0.59368400  1
  C  C3  1  0.72960400  0.24973200  0.09368400  1
  C  C4  1  0.22960400  0.24973200  0.40631600  1
  C  C5  1  0.77039600  0.74973200  0.09368400  1
  C  C6  1  0.22960400  0.25026800  0.90631600  1
  C  C7  1  0.27039600  0.75026800  0.90631600  1
  C  C8  1  0.96088500  0.60846400  0.81957300  1
  C  C9  1  0.96088500  0.89153600  0.31957300  1
  C  C10  1  0.09850000  0.11963300  0.15825000  1
  C  C11  1  0.02071200  0.38896600  0.83748300  1
  C  C12  1  0.17452700  0.45218400  0.23809000  1
  C  C13  1  0.03911500  0.39153600  0.18042700  1
  C  C14  1  0.09850000  0.38036700  0.65825000  1
  C  C15  1  0.20511200  0.37238900  0.42017600  1
  C  C16  1  0.02071200  0.11103400  0.33748300  1
  C  C17  1  0.89916300  0.03350300  0.79943700  1
  C  C18  1  0.67452700  0.45218400  0.26191000  1
  C  C19  1  0.29488800  0.62761100  0.92017600  1
  C  C20  1  0.32547300  0.54781600  0.73809000  1
  C  C21  1  0.12453700  0.06991100  0.52448900  1
  C  C22  1  0.46088500  0.60846400  0.68042700  1
  C  C23  1  0.67452700  0.04781600  0.76191000  1
  C  C24  1  0.97928800  0.61103400  0.16251700  1
  C  C25  1  0.37546300  0.56991100  0.52448900  1
  C  C26  1  0.60083700  0.53350300  0.79943700  1
  C  C27  1  0.90387400  0.13857200  0.24988900  1
  C  C28  1  0.70511200  0.37238900  0.07982400  1
  C  C29  1  0.90150000  0.61963300  0.34175000  1
  C  C30  1  0.40150000  0.88036700  0.65825000  1
  C  C31  1  0.52071200  0.11103400  0.16251700  1
  C  C32  1  0.03911500  0.10846400  0.68042700  1
  C  C33  1  0.20511200  0.12761100  0.92017600  1
  C  C34  1  0.60083700  0.96649700  0.29943700  1
  C  C35  1  0.90387400  0.36142800  0.74988900  1
  C  C36  1  0.37546300  0.93008900  0.02448900  1
  C  C37  1  0.40150000  0.61963300  0.15825000  1
  C  C38  1  0.79488800  0.62761100  0.57982400  1
  C  C39  1  0.59612600  0.63857200  0.24988900  1
  C  C40  1  0.51375100  0.98131800  0.60936400  1
  C  C41  1  0.53911500  0.10846400  0.81957300  1
  C  C42  1  0.59850000  0.38036700  0.84175000  1
  C  C43  1  0.53911500  0.39153600  0.31957300  1
  C  C44  1  0.59850000  0.11963300  0.34175000  1
  C  C45  1  0.90150000  0.88036700  0.84175000  1
  C  C46  1  0.47928800  0.88896600  0.83748300  1
  C  C47  1  0.10083700  0.53350300  0.70056300  1
  C  C48  1  0.01375100  0.98131800  0.89063600  1
  C  C49  1  0.70511200  0.12761100  0.57982400  1
  C  C50  1  0.98624900  0.48131800  0.60936400  1
  C  C51  1  0.09612600  0.63857200  0.25011100  1
  C  C52  1  0.82547300  0.95218400  0.26191000  1
  C  C53  1  0.29488800  0.87238900  0.42017600  1
  C  C54  1  0.39916300  0.03350300  0.70056300  1
  C  C55  1  0.51375100  0.51868200  0.10936400  1
  C  C56  1  0.87546300  0.56991100  0.97551100  1
  C  C57  1  0.97928800  0.88896600  0.66251700  1
  C  C58  1  0.12453700  0.43008900  0.02448900  1
  C  C59  1  0.89916300  0.46649700  0.29943700  1
  C  C60  1  0.52071200  0.38896600  0.66251700  1
  C  C61  1  0.62453700  0.43008900  0.47551100  1
  C  C62  1  0.62453700  0.06991100  0.97551100  1
  C  C63  1  0.47928800  0.61103400  0.33748300  1
  C  C64  1  0.17452700  0.04781600  0.73809000  1
  C  C65  1  0.48624900  0.48131800  0.89063600  1
  C  C66  1  0.46088500  0.89153600  0.18042700  1
  C  C67  1  0.10083700  0.96649700  0.20056300  1
  C  C68  1  0.01375100  0.51868200  0.39063600  1
  C  C69  1  0.09612600  0.86142800  0.75011100  1
  C  C70  1  0.79488800  0.87238900  0.07982400  1
  C  C71  1  0.40387400  0.13857200  0.25011100  1
  C  C72  1  0.32547300  0.95218400  0.23809000  1
  C  C73  1  0.59612600  0.86142800  0.74988900  1
  C  C74  1  0.48624900  0.01868200  0.39063600  1
  C  C75  1  0.82547300  0.54781600  0.76191000  1
  C  C76  1  0.98624900  0.01868200  0.10936400  1
  C  C77  1  0.87546300  0.93008900  0.47551100  1
  C  C78  1  0.39916300  0.46649700  0.20056300  1
  C  C79  1  0.40387400  0.36142800  0.75011100  1
  C  C80  1  0.95675600  0.54228100  0.32070900  1
  C  C81  1  0.45675600  0.54228100  0.17929100  1
  C  C82  1  0.54324400  0.04228100  0.32070900  1
  C  C83  1  0.39943100  0.96853100  0.18003400  1
  C  C84  1  0.89943100  0.96853100  0.31996600  1
  C  C85  1  0.04324400  0.45771900  0.67929100  1
  C  C86  1  0.45675600  0.95771900  0.67929100  1
  C  C87  1  0.10056900  0.46853100  0.18003400  1
  C  C88  1  0.54324400  0.45771900  0.82070900  1
  C  C89  1  0.60056900  0.03146900  0.81996600  1
  C  C90  1  0.89943100  0.53146900  0.81996600  1
  C  C91  1  0.39943100  0.53146900  0.68003400  1
  C  C92  1  0.95675600  0.95771900  0.82070900  1
  C  C93  1  0.60056900  0.46853100  0.31996600  1
  C  C94  1  0.10056900  0.03146900  0.68003400  1
  C  C95  1  0.04324400  0.04228100  0.17929100  1
  C  C96  1  0.53283700  0.92635200  0.77494000  1
  C  C97  1  0.03283700  0.92635200  0.72506000  1
  C  C98  1  0.46716300  0.42635200  0.72506000  1
  C  C99  1  0.53283700  0.57364800  0.27494000  1
  C  C100  1  0.46716300  0.07364800  0.22506000  1
  C  C101  1  0.96716300  0.07364800  0.27494000  1
  C  C102  1  0.96716300  0.42635200  0.77494000  1
  C  C103  1  0.03283700  0.57364800  0.22506000  1
  Ni  Ni104  1  0.19970100  0.73041600  0.30345900  1
  Ni  Ni105  1  0.35801400  0.50269600  0.57596800  1
  Ni  Ni106  1  0.88303700  0.82186500  0.57218200  1
  Ni  Ni107  1  0.64198600  0.49730400  0.42403200  1
  Ni  Ni108  1  0.85801400  0.99730400  0.42403200  1
  Ni  Ni109  1  0.30029900  0.26958400  0.80345900  1
  Ni  Ni110  1  0.80029900  0.26958400  0.69654100  1
  Ni  Ni111  1  0.11696300  0.17813500  0.42781800  1
  Ni  Ni112  1  0.88303700  0.67813500  0.07218200  1
  Ni  Ni113  1  0.35801400  0.99730400  0.07596800  1
  Ni  Ni114  1  0.80029900  0.23041600  0.19654100  1
  Ni  Ni115  1  0.64198600  0.00269600  0.92403200  1
  Ni  Ni116  1  0.85801400  0.50269600  0.92403200  1
  Ni  Ni117  1  0.69970100  0.76958400  0.69654100  1
  Ni  Ni118  1  0.61696300  0.17813500  0.07218200  1
  Ni  Ni119  1  0.19970100  0.76958400  0.80345900  1
  Ni  Ni120  1  0.14198600  0.00269600  0.57596800  1
  Ni  Ni121  1  0.11696300  0.32186500  0.92781800  1
  Ni  Ni122  1  0.38303700  0.67813500  0.42781800  1
  Ni  Ni123  1  0.38303700  0.82186500  0.92781800  1
  Ni  Ni124  1  0.69970100  0.73041600  0.19654100  1
  Ni  Ni125  1  0.30029900  0.23041600  0.30345900  1
  Ni  Ni126  1  0.14198600  0.49730400  0.07596800  1
  Ni  Ni127  1  0.61696300  0.32186500  0.57218200  1
  Cu  Cu128  1  0.68555100  0.72968200  0.98994600  1
  Cu  Cu129  1  0.18555100  0.72968200  0.51005400  1
  Cu  Cu130  1  0.31444900  0.22968200  0.51005400  1
  Cu  Cu131  1  0.81444900  0.22968200  0.98994600  1
  Cu  Cu132  1  0.18555100  0.77031800  0.01005400  1
  Cu  Cu133  1  0.68555100  0.77031800  0.48994600  1
  Cu  Cu134  1  0.31444900  0.27031800  0.01005400  1
  Cu  Cu135  1  0.81444900  0.27031800  0.48994600  1
