# generated using pymatgen
data_Cu6Ni3C2
_symmetry_space_group_name_H-M   'P 1'
_cell_length_a   10.07159893
_cell_length_b   10.07159893
_cell_length_c   10.07159893
_cell_angle_alpha   100.16344345
_cell_angle_beta   100.16344345
_cell_angle_gamma   130.32229405
_symmetry_Int_Tables_number   1
_chemical_formula_structural   Cu6Ni3C2
_chemical_formula_sum   'Cu24 Ni12 C8'
_cell_volume   706.85578932
_cell_formula_units_Z   4
loop_
 _symmetry_equiv_pos_site_id
 _symmetry_equiv_pos_as_xyz
  1  'x, y, z'
loop_
 _atom_site_type_symbol
 _atom_site_label
 _atom_site_symmetry_multiplicity
 _atom_site_fract_x
 _atom_site_fract_y
 _atom_site_fract_z
 _atom_site_occupancy
  C  C0  1  0.98749800  0.77427200  0.21322600  1
  C  C1  1  0.56104600  0.77427200  0.78677400  1
  C  C2  1  0.02427200  0.31104600  0.28677400  1
  C  C3  1  0.02427200  0.73749800  0.71322600  1
  C  C4  1  0.48664200  0.76682000  0.28017900  1
  C  C5  1  0.45646300  0.23664200  0.21982100  1
  C  C6  1  0.01682000  0.23664200  0.78017900  1
  C  C7  1  0.48664200  0.20646300  0.71982100  1
  Ni  Ni8  1  0.99490500  0.28029100  0.90769100  1
  Ni  Ni9  1  0.53029100  0.74490500  0.40769100  1
  Ni  Ni10  1  0.56271200  0.38507000  0.82235800  1
  Ni  Ni11  1  0.33721500  0.74490500  0.21461500  1
  Ni  Ni12  1  0.37260000  0.28029100  0.28538500  1
  Ni  Ni13  1  0.33721500  0.12260000  0.59230900  1
  Ni  Ni14  1  0.63507000  0.31271200  0.32235800  1
  Ni  Ni15  1  0.99490500  0.08721500  0.71461500  1
  Ni  Ni16  1  0.37260000  0.08721500  0.09230900  1
  Ni  Ni17  1  0.99035300  0.31271200  0.67764200  1
  Ni  Ni18  1  0.56271200  0.74035300  0.17764200  1
  Ni  Ni19  1  0.53029100  0.12260000  0.78538500  1
  Cu  Cu20  1  0.32086400  0.22909500  0.56437200  1
  Cu  Cu21  1  0.22738000  0.95051000  0.50950100  1
  Cu  Cu22  1  0.20051000  0.19100900  0.22313000  1
  Cu  Cu23  1  0.00649200  0.07086400  0.59176800  1
  Cu  Cu24  1  0.32086400  0.75649200  0.09176800  1
  Cu  Cu25  1  0.12941600  0.45978200  0.66963300  1
  Cu  Cu26  1  0.44100900  0.95051000  0.72313000  1
  Cu  Cu27  1  0.47125500  0.36821500  0.89695900  1
  Cu  Cu28  1  0.22738000  0.71787900  0.27687000  1
  Cu  Cu29  1  0.96787900  0.97738000  0.77687000  1
  Cu  Cu30  1  0.47909500  0.41472300  0.40823200  1
  Cu  Cu31  1  0.82429600  0.22125500  0.60304100  1
  Cu  Cu32  1  0.47909500  0.07086400  0.06437200  1
  Cu  Cu33  1  0.70978200  0.87941600  0.16963300  1
  Cu  Cu34  1  0.66472300  0.75649200  0.43562800  1
  Cu  Cu35  1  0.00649200  0.41472300  0.93562800  1
  Cu  Cu36  1  0.20051000  0.97738000  0.00950100  1
  Cu  Cu37  1  0.66472300  0.22909500  0.90823200  1
  Cu  Cu38  1  0.79014900  0.45978200  0.33036700  1
  Cu  Cu39  1  0.61821500  0.22125500  0.39695900  1
  Cu  Cu40  1  0.47125500  0.57429600  0.10304100  1
  Cu  Cu41  1  0.44100900  0.71787900  0.49049900  1
  Cu  Cu42  1  0.96787900  0.19100900  0.99049900  1
  Cu  Cu43  1  0.70978200  0.54014900  0.83036700  1
