# generated using pymatgen
data_Cu5(NiC8)2
_symmetry_space_group_name_H-M   'P 1'
_cell_length_a   11.20584200
_cell_length_b   11.20584200
_cell_length_c   7.86521800
_cell_angle_alpha   90.00000000
_cell_angle_beta   90.00000000
_cell_angle_gamma   90.00000000
_symmetry_Int_Tables_number   1
_chemical_formula_structural   Cu5(NiC8)2
_chemical_formula_sum   'Cu20 Ni8 C64'
_cell_volume   987.64246307
_cell_formula_units_Z   4
loop_
 _symmetry_equiv_pos_site_id
 _symmetry_equiv_pos_as_xyz
  1  'x, y, z'
loop_
 _atom_site_type_symbol
 _atom_site_label
 _atom_site_symmetry_multiplicity
 _atom_site_fract_x
 _atom_site_fract_y
 _atom_site_fract_z
 _atom_site_occupancy
  C  C0  1  0.25000000  0.75000000  0.00000000  1
  C  C1  1  0.25000000  0.25000000  0.00000000  1
  C  C2  1  0.75000000  0.75000000  0.00000000  1
  C  C3  1  0.75000000  0.25000000  0.00000000  1
  C  C4  1  0.00000000  0.00000000  0.50000000  1
  C  C5  1  0.50000000  0.50000000  0.50000000  1
  C  C6  1  0.82510100  0.83825500  0.33727700  1
  C  C7  1  0.17489900  0.16174500  0.33727700  1
  C  C8  1  0.66174500  0.32510100  0.33727700  1
  C  C9  1  0.33825500  0.67489900  0.33727700  1
  C  C10  1  0.83825500  0.82510100  0.66272300  1
  C  C11  1  0.32510100  0.66174500  0.66272300  1
  C  C12  1  0.67489900  0.33825500  0.66272300  1
  C  C13  1  0.16174500  0.17489900  0.66272300  1
  C  C14  1  0.67489900  0.66174500  0.66272300  1
  C  C15  1  0.32510100  0.33825500  0.66272300  1
  C  C16  1  0.83825500  0.17489900  0.66272300  1
  C  C17  1  0.16174500  0.82510100  0.66272300  1
  C  C18  1  0.66174500  0.67489900  0.33727700  1
  C  C19  1  0.17489900  0.83825500  0.33727700  1
  C  C20  1  0.82510100  0.16174500  0.33727700  1
  C  C21  1  0.33825500  0.32510100  0.33727700  1
  C  C22  1  0.60903200  0.10903200  0.30266000  1
  C  C23  1  0.39096800  0.89096800  0.30266000  1
  C  C24  1  0.39096800  0.10903200  0.30266000  1
  C  C25  1  0.60903200  0.89096800  0.30266000  1
  C  C26  1  0.10903200  0.60903200  0.69734000  1
  C  C27  1  0.10903200  0.39096800  0.69734000  1
  C  C28  1  0.89096800  0.60903200  0.69734000  1
  C  C29  1  0.89096800  0.39096800  0.69734000  1
  C  C30  1  0.61360700  0.11360700  0.74671100  1
  C  C31  1  0.38639300  0.88639300  0.74671100  1
  C  C32  1  0.38639300  0.11360700  0.74671100  1
  C  C33  1  0.61360700  0.88639300  0.74671100  1
  C  C34  1  0.11360700  0.61360700  0.25328900  1
  C  C35  1  0.11360700  0.38639300  0.25328900  1
  C  C36  1  0.88639300  0.61360700  0.25328900  1
  C  C37  1  0.88639300  0.38639300  0.25328900  1
  C  C38  1  0.50000000  0.16387400  0.02814900  1
  C  C39  1  0.50000000  0.83612600  0.02814900  1
  C  C40  1  0.33612600  0.00000000  0.02814900  1
  C  C41  1  0.66387400  0.00000000  0.02814900  1
  C  C42  1  0.16387400  0.50000000  0.97185100  1
  C  C43  1  0.00000000  0.33612600  0.97185100  1
  C  C44  1  0.00000000  0.66387400  0.97185100  1
  C  C45  1  0.83612600  0.50000000  0.97185100  1
  C  C46  1  0.50000000  0.22478400  0.52511100  1
  C  C47  1  0.50000000  0.77521600  0.52511100  1
  C  C48  1  0.27521600  0.00000000  0.52511100  1
  C  C49  1  0.72478400  0.00000000  0.52511100  1
  C  C50  1  0.22478400  0.50000000  0.47488900  1
  C  C51  1  0.00000000  0.27521600  0.47488900  1
  C  C52  1  0.00000000  0.72478400  0.47488900  1
  C  C53  1  0.77521600  0.50000000  0.47488900  1
  C  C54  1  0.50000000  0.61009200  0.11094300  1
  C  C55  1  0.50000000  0.38990800  0.11094300  1
  C  C56  1  0.88990800  0.00000000  0.11094300  1
  C  C57  1  0.11009200  0.00000000  0.11094300  1
  C  C58  1  0.61009200  0.50000000  0.88905700  1
  C  C59  1  0.00000000  0.88990800  0.88905700  1
  C  C60  1  0.00000000  0.11009200  0.88905700  1
  C  C61  1  0.38990800  0.50000000  0.88905700  1
  C  C62  1  0.50000000  0.00000000  0.53164200  1
  C  C63  1  0.00000000  0.50000000  0.46835800  1
  Ni  Ni64  1  0.50000000  0.68067300  0.82444400  1
  Ni  Ni65  1  0.50000000  0.31932700  0.82444400  1
  Ni  Ni66  1  0.81932700  0.00000000  0.82444400  1
  Ni  Ni67  1  0.18067300  0.00000000  0.82444400  1
  Ni  Ni68  1  0.68067300  0.50000000  0.17555600  1
  Ni  Ni69  1  0.00000000  0.81932700  0.17555600  1
  Ni  Ni70  1  0.00000000  0.18067300  0.17555600  1
  Ni  Ni71  1  0.31932700  0.50000000  0.17555600  1
  Cu  Cu72  1  0.68632300  0.18632300  0.51731200  1
  Cu  Cu73  1  0.31367700  0.81367700  0.51731200  1
  Cu  Cu74  1  0.31367700  0.18632300  0.51731200  1
  Cu  Cu75  1  0.68632300  0.81367700  0.51731200  1
  Cu  Cu76  1  0.18632300  0.68632300  0.48268800  1
  Cu  Cu77  1  0.18632300  0.31367700  0.48268800  1
  Cu  Cu78  1  0.81367700  0.68632300  0.48268800  1
  Cu  Cu79  1  0.81367700  0.31367700  0.48268800  1
  Cu  Cu80  1  0.50000000  0.25586200  0.26097700  1
  Cu  Cu81  1  0.50000000  0.74413800  0.26097700  1
  Cu  Cu82  1  0.24413800  0.00000000  0.26097700  1
  Cu  Cu83  1  0.75586200  0.00000000  0.26097700  1
  Cu  Cu84  1  0.25586200  0.50000000  0.73902300  1
  Cu  Cu85  1  0.00000000  0.24413800  0.73902300  1
  Cu  Cu86  1  0.00000000  0.75586200  0.73902300  1
  Cu  Cu87  1  0.74413800  0.50000000  0.73902300  1
  Cu  Cu88  1  0.50000000  0.00000000  0.89327700  1
  Cu  Cu89  1  0.00000000  0.50000000  0.10672300  1
  Cu  Cu90  1  0.50000000  0.00000000  0.14742900  1
  Cu  Cu91  1  0.00000000  0.50000000  0.85257100  1
