# generated using pymatgen
data_Cu3Ni3C14
_symmetry_space_group_name_H-M   'P 1'
_cell_length_a   18.48364241
_cell_length_b   18.48364241
_cell_length_c   18.48364171
_cell_angle_alpha   117.41487746
_cell_angle_beta   117.41487746
_cell_angle_gamma   117.41487695
_symmetry_Int_Tables_number   1
_chemical_formula_structural   Cu3Ni3C14
_chemical_formula_sum   'Cu24 Ni24 C112'
_cell_volume   2594.41760281
_cell_formula_units_Z   8
loop_
 _symmetry_equiv_pos_site_id
 _symmetry_equiv_pos_as_xyz
  1  'x, y, z'
loop_
 _atom_site_type_symbol
 _atom_site_label
 _atom_site_symmetry_multiplicity
 _atom_site_fract_x
 _atom_site_fract_y
 _atom_site_fract_z
 _atom_site_occupancy
  C  C0  1  0.00000000  0.50000000  0.00000000  1
  C  C1  1  0.50000000  0.50000000  0.50000000  1
  C  C2  1  0.00000000  0.00000000  0.50000000  1
  C  C3  1  0.50000000  0.00000000  0.00000000  1
  C  C4  1  0.92384200  0.54275000  0.67557500  1
  C  C5  1  0.21304200  0.25506800  0.43486600  1
  C  C6  1  0.12445300  0.17837600  0.43913300  1
  C  C7  1  0.11687300  0.69817800  0.45188500  1
  C  C8  1  0.33612000  0.49715700  0.93936700  1
  C  C9  1  0.07615800  0.45725000  0.32442500  1
  C  C10  1  0.98780100  0.18168700  0.95432100  1
  C  C11  1  0.24182800  0.86448400  0.37993400  1
  C  C12  1  0.62006600  0.75817200  0.13551600  1
  C  C13  1  0.41501500  0.64790700  0.87959600  1
  C  C14  1  0.87959600  0.41501500  0.64790700  1
  C  C15  1  0.55460400  0.31634200  0.91928100  1
  C  C16  1  0.98168300  0.10472000  0.19956700  1
  C  C17  1  0.82162400  0.56086700  0.87554700  1
  C  C18  1  0.38442400  0.47929800  0.19284700  1
  C  C19  1  0.48892700  0.57925400  0.96155000  1
  C  C20  1  0.01219900  0.81831300  0.04567900  1
  C  C21  1  0.62789200  0.29537800  0.43512600  1
  C  C22  1  0.89528000  0.80043300  0.01831800  1
  C  C23  1  0.51698200  0.90328500  0.70006200  1
  C  C24  1  0.58498500  0.35209300  0.12040400  1
  C  C25  1  0.54811500  0.88312700  0.30182200  1
  C  C26  1  0.97835000  0.79735000  0.11594400  1
  C  C27  1  0.04567900  0.01219900  0.81831300  1
  C  C28  1  0.56513400  0.78695800  0.74493200  1
  C  C29  1  0.90328500  0.70006200  0.51698200  1
  C  C30  1  0.69817800  0.45188500  0.11687300  1
  C  C31  1  0.83431000  0.07196600  0.62130700  1
  C  C32  1  0.43512600  0.62789200  0.29537800  1
  C  C33  1  0.10472000  0.19956700  0.98168300  1
  C  C34  1  0.62130700  0.83431000  0.07196600  1
  C  C35  1  0.20265000  0.88405600  0.02165000  1
  C  C36  1  0.08071900  0.44539600  0.68365800  1
  C  C37  1  0.66388000  0.50284300  0.06063300  1
  C  C38  1  0.01831800  0.89528000  0.80043300  1
  C  C39  1  0.70462200  0.56487400  0.37210800  1
  C  C40  1  0.74493200  0.56513400  0.78695800  1
  C  C41  1  0.64790700  0.87959600  0.41501500  1
  C  C42  1  0.57925400  0.96155000  0.48892700  1
  C  C43  1  0.95432100  0.98780100  0.18168700  1
  C  C44  1  0.44539600  0.68365800  0.08071900  1
  C  C45  1  0.81831300  0.04567900  0.01219900  1
  C  C46  1  0.37993400  0.24182800  0.86448400  1
  C  C47  1  0.68365800  0.08071900  0.44539600  1
  C  C48  1  0.49715700  0.93936700  0.33612000  1
  C  C49  1  0.30182200  0.54811500  0.88312700  1
  C  C50  1  0.93936700  0.33612000  0.49715700  1
  C  C51  1  0.35209300  0.12040400  0.58498500  1
  C  C52  1  0.88405600  0.02165000  0.20265000  1
  C  C53  1  0.11594400  0.97835000  0.79735000  1
  C  C54  1  0.13551600  0.62006600  0.75817200  1
  C  C55  1  0.29993800  0.48301800  0.09671500  1
  C  C56  1  0.47929800  0.19284700  0.38442400  1
  C  C57  1  0.80715300  0.61557600  0.52070200  1
  C  C58  1  0.18168700  0.95432100  0.98780100  1
  C  C59  1  0.54275000  0.67557500  0.92384200  1
  C  C60  1  0.32442500  0.07615800  0.45725000  1
  C  C61  1  0.31634200  0.91928100  0.55460400  1
  C  C62  1  0.25506800  0.43486600  0.21304200  1
  C  C63  1  0.12040400  0.58498500  0.35209300  1
  C  C64  1  0.61557600  0.52070200  0.80715300  1
  C  C65  1  0.75817200  0.13551600  0.62006600  1
  C  C66  1  0.87554700  0.82162400  0.56086700  1
  C  C67  1  0.45188500  0.11687300  0.69817800  1
  C  C68  1  0.86448400  0.37993400  0.24182800  1
  C  C69  1  0.79735000  0.11594400  0.97835000  1
  C  C70  1  0.96155000  0.48892700  0.57925400  1
  C  C71  1  0.88312700  0.30182200  0.54811500  1
  C  C72  1  0.19284700  0.38442400  0.47929800  1
  C  C73  1  0.37210800  0.70462200  0.56487400  1
  C  C74  1  0.43486600  0.21304200  0.25506800  1
  C  C75  1  0.07196600  0.62130700  0.83431000  1
  C  C76  1  0.02165000  0.20265000  0.88405600  1
  C  C77  1  0.45725000  0.32442500  0.07615800  1
  C  C78  1  0.56086700  0.87554700  0.82162400  1
  C  C79  1  0.43913300  0.12445300  0.17837600  1
  C  C80  1  0.91928100  0.55460400  0.31634200  1
  C  C81  1  0.09671500  0.29993800  0.48301800  1
  C  C82  1  0.56487400  0.37210800  0.70462200  1
  C  C83  1  0.19956700  0.98168300  0.10472000  1
  C  C84  1  0.78695800  0.74493200  0.56513400  1
  C  C85  1  0.67557500  0.92384200  0.54275000  1
  C  C86  1  0.48301800  0.09671500  0.29993800  1
  C  C87  1  0.37869300  0.16569000  0.92803400  1
  C  C88  1  0.06063300  0.66388000  0.50284300  1
  C  C89  1  0.16569000  0.92803400  0.37869300  1
  C  C90  1  0.52070200  0.80715300  0.61557600  1
  C  C91  1  0.92803400  0.37869300  0.16569000  1
  C  C92  1  0.70006200  0.51698200  0.90328500  1
  C  C93  1  0.80043300  0.01831800  0.89528000  1
  C  C94  1  0.50284300  0.06063300  0.66388000  1
  C  C95  1  0.51107300  0.42074600  0.03845000  1
  C  C96  1  0.17837600  0.43913300  0.12445300  1
  C  C97  1  0.03845000  0.51107300  0.42074600  1
  C  C98  1  0.29537800  0.43512600  0.62789200  1
  C  C99  1  0.42074600  0.03845000  0.51107300  1
  Ni  Ni100  1  0.38971700  0.59250000  0.97680800  1
  Ni  Ni101  1  0.81900300  0.65777400  0.49427600  1
  Ni  Ni102  1  0.29205200  0.03094300  0.47680100  1
  Ni  Ni103  1  0.18099700  0.34222600  0.50572400  1
  Ni  Ni104  1  0.02474600  0.92850600  0.76520500  1
  Ni  Ni105  1  0.03094300  0.47680100  0.29205200  1
  Ni  Ni106  1  0.70794800  0.96905700  0.52319900  1
  Ni  Ni107  1  0.40750000  0.02319200  0.61028300  1
  Ni  Ni108  1  0.96905700  0.52319900  0.70794800  1
  Ni  Ni109  1  0.52319900  0.70794800  0.96905700  1
  Ni  Ni110  1  0.97680800  0.38971700  0.59250000  1
  Ni  Ni111  1  0.34222600  0.50572400  0.18099700  1
  Ni  Ni112  1  0.47680100  0.29205200  0.03094300  1
  Ni  Ni113  1  0.02319200  0.61028300  0.40750000  1
  Ni  Ni114  1  0.59250000  0.97680800  0.38971700  1
  Ni  Ni115  1  0.49427600  0.81900300  0.65777400  1
  Ni  Ni116  1  0.07149400  0.23479500  0.97525400  1
  Ni  Ni117  1  0.61028300  0.40750000  0.02319200  1
  Ni  Ni118  1  0.23479500  0.97525400  0.07149400  1
  Ni  Ni119  1  0.92850600  0.76520500  0.02474600  1
  Ni  Ni120  1  0.97525400  0.07149400  0.23479500  1
  Ni  Ni121  1  0.65777400  0.49427600  0.81900300  1
  Ni  Ni122  1  0.50572400  0.18099700  0.34222600  1
  Ni  Ni123  1  0.76520500  0.02474600  0.92850600  1
  Cu  Cu124  1  0.70284800  0.29512500  0.67658300  1
  Cu  Cu125  1  0.89561800  0.08563400  0.44102800  1
  Cu  Cu126  1  0.31827600  0.21903200  0.38377700  1
  Cu  Cu127  1  0.79728100  0.19759600  0.84674700  1
  Cu  Cu128  1  0.70487500  0.32341700  0.29715200  1
  Cu  Cu129  1  0.55897200  0.10438200  0.91436600  1
  Cu  Cu130  1  0.29715200  0.70487500  0.32341700  1
  Cu  Cu131  1  0.08563400  0.44102800  0.89561800  1
  Cu  Cu132  1  0.68172400  0.78096800  0.61622300  1
  Cu  Cu133  1  0.44102800  0.89561800  0.08563400  1
  Cu  Cu134  1  0.67658300  0.70284800  0.29512500  1
  Cu  Cu135  1  0.80240400  0.15325300  0.20271900  1
  Cu  Cu136  1  0.84674700  0.79728100  0.19759600  1
  Cu  Cu137  1  0.38377700  0.31827600  0.21903200  1
  Cu  Cu138  1  0.19759600  0.84674700  0.79728100  1
  Cu  Cu139  1  0.32341700  0.29715200  0.70487500  1
  Cu  Cu140  1  0.61622300  0.68172400  0.78096800  1
  Cu  Cu141  1  0.15325300  0.20271900  0.80240400  1
  Cu  Cu142  1  0.21903200  0.38377700  0.31827600  1
  Cu  Cu143  1  0.78096800  0.61622300  0.68172400  1
  Cu  Cu144  1  0.29512500  0.67658300  0.70284800  1
  Cu  Cu145  1  0.91436600  0.55897200  0.10438200  1
  Cu  Cu146  1  0.20271900  0.80240400  0.15325300  1
  Cu  Cu147  1  0.10438200  0.91436600  0.55897200  1
  C  C148  1  0.78769900  0.59241800  0.87142400  1
  C  C149  1  0.48883500  0.34009300  0.98499900  1
  C  C150  1  0.51116500  0.65990700  0.01500100  1
  C  C151  1  0.01500100  0.51116500  0.65990700  1
  C  C152  1  0.65990700  0.01500100  0.51116500  1
  C  C153  1  0.87142400  0.78769900  0.59241800  1
  C  C154  1  0.12857600  0.21230100  0.40758200  1
  C  C155  1  0.40758200  0.12857600  0.21230100  1
  C  C156  1  0.21230100  0.40758200  0.12857600  1
  C  C157  1  0.59241800  0.87142400  0.78769900  1
  C  C158  1  0.98499900  0.48883500  0.34009300  1
  C  C159  1  0.34009300  0.98499900  0.48883500  1
