# generated using pymatgen
data_CuNi3C20
_symmetry_space_group_name_H-M   'P 1'
_cell_length_a   7.64393800
_cell_length_b   8.58082000
_cell_length_c   17.46535000
_cell_angle_alpha   90.00000000
_cell_angle_beta   90.00000000
_cell_angle_gamma   90.00000000
_symmetry_Int_Tables_number   1
_chemical_formula_structural   CuNi3C20
_chemical_formula_sum   'Cu4 Ni12 C80'
_cell_volume   1145.57424419
_cell_formula_units_Z   4
loop_
 _symmetry_equiv_pos_site_id
 _symmetry_equiv_pos_as_xyz
  1  'x, y, z'
loop_
 _atom_site_type_symbol
 _atom_site_label
 _atom_site_symmetry_multiplicity
 _atom_site_fract_x
 _atom_site_fract_y
 _atom_site_fract_z
 _atom_site_occupancy
  C  C0  1  0.00000000  0.00000000  0.00000000  1
  C  C1  1  0.00000000  0.50000000  0.50000000  1
  C  C2  1  0.50000000  0.00000000  0.00000000  1
  C  C3  1  0.50000000  0.50000000  0.50000000  1
  C  C4  1  0.59329200  0.87612600  0.76664500  1
  C  C5  1  0.60228900  0.79907100  0.51993800  1
  C  C6  1  0.40670800  0.12387400  0.23335500  1
  C  C7  1  0.60228900  0.70092900  0.01993800  1
  C  C8  1  0.25000000  0.25955900  0.63103700  1
  C  C9  1  0.25000000  0.53257900  0.22195100  1
  C  C10  1  0.41458800  0.30980500  0.28091700  1
  C  C11  1  0.09329200  0.12387400  0.23335500  1
  C  C12  1  0.97321500  0.21847700  0.69084700  1
  C  C13  1  0.39771100  0.20092900  0.48006200  1
  C  C14  1  0.75000000  0.46742100  0.77804900  1
  C  C15  1  0.47321500  0.78152300  0.30915300  1
  C  C16  1  0.90670800  0.87612600  0.76664500  1
  C  C17  1  0.43380300  0.69774000  0.96828300  1
  C  C18  1  0.47321500  0.71847700  0.80915300  1
  C  C19  1  0.13231300  0.50055500  0.13408800  1
  C  C20  1  0.75000000  0.75955900  0.86896300  1
  C  C21  1  0.86768700  0.00055500  0.36591200  1
  C  C22  1  0.52678500  0.28152300  0.19084700  1
  C  C23  1  0.13231300  0.99944500  0.63408800  1
  C  C24  1  0.02678500  0.78152300  0.30915300  1
  C  C25  1  0.25000000  0.96742100  0.72195100  1
  C  C26  1  0.97321500  0.28152300  0.19084700  1
  C  C27  1  0.25000000  0.24044100  0.13103700  1
  C  C28  1  0.09329200  0.37612600  0.73335500  1
  C  C29  1  0.10228900  0.29907100  0.98006200  1
  C  C30  1  0.63231300  0.49944500  0.86591200  1
  C  C31  1  0.63231300  0.00055500  0.36591200  1
  C  C32  1  0.41458800  0.19019500  0.78091700  1
  C  C33  1  0.40670800  0.37612600  0.73335500  1
  C  C34  1  0.56619700  0.30226000  0.03171700  1
  C  C35  1  0.90670800  0.62387400  0.26664500  1
  C  C36  1  0.89771100  0.79907100  0.51993800  1
  C  C37  1  0.75000000  0.03257900  0.27804900  1
  C  C38  1  0.91458800  0.80980500  0.21908300  1
  C  C39  1  0.58541200  0.69019500  0.71908300  1
  C  C40  1  0.75000000  0.74044100  0.36896300  1
  C  C41  1  0.06619700  0.69774000  0.96828300  1
  C  C42  1  0.36768700  0.50055500  0.13408800  1
  C  C43  1  0.59329200  0.62387400  0.26664500  1
  C  C44  1  0.08541200  0.19019500  0.78091700  1
  C  C45  1  0.93380300  0.30226000  0.03171700  1
  C  C46  1  0.56619700  0.19774000  0.53171700  1
  C  C47  1  0.52678500  0.21847700  0.69084700  1
  C  C48  1  0.08541200  0.30980500  0.28091700  1
  C  C49  1  0.91458800  0.69019500  0.71908300  1
  C  C50  1  0.06619700  0.80226000  0.46828300  1
  C  C51  1  0.43380300  0.80226000  0.46828300  1
  C  C52  1  0.86768700  0.49944500  0.86591200  1
  C  C53  1  0.10228900  0.20092900  0.48006200  1
  C  C54  1  0.89771100  0.70092900  0.01993800  1
  C  C55  1  0.93380300  0.19774000  0.53171700  1
  C  C56  1  0.39771100  0.29907100  0.98006200  1
  C  C57  1  0.36768700  0.99944500  0.63408800  1
  C  C58  1  0.58541200  0.80980500  0.21908300  1
  C  C59  1  0.02678500  0.71847700  0.80915300  1
  C  C60  1  0.75000000  0.97098300  0.33309000  1
  C  C61  1  0.58802800  0.74958700  0.77482100  1
  C  C62  1  0.25000000  0.02901700  0.66691000  1
  C  C63  1  0.75000000  0.52901700  0.83309000  1
  C  C64  1  0.91197200  0.75041300  0.27482100  1
  C  C65  1  0.91197200  0.74958700  0.77482100  1
  C  C66  1  0.41197200  0.24958700  0.72517900  1
  C  C67  1  0.41197200  0.25041300  0.22517900  1
  C  C68  1  0.08802800  0.24958700  0.72517900  1
  C  C69  1  0.25000000  0.47098300  0.16691000  1
  C  C70  1  0.08802800  0.25041300  0.22517900  1
  C  C71  1  0.58802800  0.75041300  0.27482100  1
  Ni  Ni72  1  0.75000000  0.50045000  0.60437100  1
  Ni  Ni73  1  0.75000000  0.07242700  0.89670400  1
  Ni  Ni74  1  0.25000000  0.00045000  0.89562900  1
  Ni  Ni75  1  0.75000000  0.49786500  0.08125000  1
  Ni  Ni76  1  0.75000000  0.99955000  0.10437100  1
  Ni  Ni77  1  0.25000000  0.50213500  0.91875000  1
  Ni  Ni78  1  0.25000000  0.92757300  0.10329600  1
  Ni  Ni79  1  0.25000000  0.57242700  0.60329600  1
  Ni  Ni80  1  0.75000000  0.42757300  0.39670400  1
  Ni  Ni81  1  0.75000000  0.00213500  0.58125000  1
  Ni  Ni82  1  0.25000000  0.99786500  0.41875000  1
  Ni  Ni83  1  0.25000000  0.49955000  0.39562900  1
  Cu  Cu84  1  0.75000000  0.70067500  0.81674100  1
  Cu  Cu85  1  0.75000000  0.79932500  0.31674100  1
  Cu  Cu86  1  0.25000000  0.20067500  0.68325900  1
  Cu  Cu87  1  0.25000000  0.29932500  0.18325900  1
  C  C88  1  0.45965800  0.25990800  0.52095700  1
  C  C89  1  0.54034200  0.75990800  0.97904300  1
  C  C90  1  0.54034200  0.74009200  0.47904300  1
  C  C91  1  0.95965800  0.74009200  0.47904300  1
  C  C92  1  0.95965800  0.75990800  0.97904300  1
  C  C93  1  0.45965800  0.24009200  0.02095700  1
  C  C94  1  0.04034200  0.24009200  0.02095700  1
  C  C95  1  0.04034200  0.25990800  0.52095700  1
