# generated using pymatgen
data_Cu12Ni3C59
_symmetry_space_group_name_H-M   'P 1'
_cell_length_a   15.81019038
_cell_length_b   15.81019038
_cell_length_c   15.81019074
_cell_angle_alpha   37.85591494
_cell_angle_beta   37.85591494
_cell_angle_gamma   37.85591425
_symmetry_Int_Tables_number   1
_chemical_formula_structural   Cu12Ni3C59
_chemical_formula_sum   'Cu12 Ni3 C59'
_cell_volume   1335.61720437
_cell_formula_units_Z   1
loop_
 _symmetry_equiv_pos_site_id
 _symmetry_equiv_pos_as_xyz
  1  'x, y, z'
loop_
 _atom_site_type_symbol
 _atom_site_label
 _atom_site_symmetry_multiplicity
 _atom_site_fract_x
 _atom_site_fract_y
 _atom_site_fract_z
 _atom_site_occupancy
  C  C0  1  0.21043700  0.62316500  0.89180800  1
  C  C1  1  0.62316500  0.89180800  0.21043700  1
  C  C2  1  0.37683500  0.10819200  0.78956300  1
  C  C3  1  0.37608900  0.37608900  0.37608900  1
  C  C4  1  0.89180800  0.21043700  0.62316500  1
  C  C5  1  0.78956300  0.37683500  0.10819200  1
  C  C6  1  0.83485500  0.83485500  0.83485500  1
  C  C7  1  0.16514500  0.16514500  0.16514500  1
  C  C8  1  0.10819200  0.78956300  0.37683500  1
  C  C9  1  0.62391100  0.62391100  0.62391100  1
  Ni  Ni10  1  0.74385700  0.74385700  0.74385700  1
  Ni  Ni11  1  0.00000000  0.00000000  0.00000000  1
  Ni  Ni12  1  0.25614300  0.25614300  0.25614300  1
  Cu  Cu13  1  0.49977500  0.76819500  0.10995300  1
  Cu  Cu14  1  0.62547200  0.24340800  0.04962400  1
  Cu  Cu15  1  0.76819500  0.10995300  0.49977500  1
  Cu  Cu16  1  0.23180500  0.89004700  0.50022500  1
  Cu  Cu17  1  0.89004700  0.50022500  0.23180500  1
  Cu  Cu18  1  0.24340800  0.04962400  0.62547200  1
  Cu  Cu19  1  0.95037600  0.37452800  0.75659200  1
  Cu  Cu20  1  0.04962400  0.62547200  0.24340800  1
  Cu  Cu21  1  0.50022500  0.23180500  0.89004700  1
  Cu  Cu22  1  0.75659200  0.95037600  0.37452800  1
  Cu  Cu23  1  0.37452800  0.75659200  0.95037600  1
  Cu  Cu24  1  0.10995300  0.49977500  0.76819500  1
  C  C25  1  0.50000000  0.50000000  0.50000000  1
  C  C26  1  0.69629800  0.96205300  0.67275600  1
  C  C27  1  0.03144400  0.94963300  0.62155400  1
  C  C28  1  0.05036700  0.37844600  0.96855600  1
  C  C29  1  0.19288500  0.89613000  0.73088000  1
  C  C30  1  0.94963300  0.62155400  0.03144400  1
  C  C31  1  0.82690700  0.80883400  0.52527000  1
  C  C32  1  0.26912000  0.80711500  0.10387000  1
  C  C33  1  0.87759500  0.59495500  0.34329800  1
  C  C34  1  0.30886200  0.41544900  0.65025500  1
  C  C35  1  0.47473000  0.17309300  0.19116600  1
  C  C36  1  0.34974500  0.69113800  0.58455100  1
  C  C37  1  0.70868300  0.88041000  0.35733500  1
  C  C38  1  0.11959000  0.64266500  0.29131700  1
  C  C39  1  0.80883400  0.52527000  0.82690700  1
  C  C40  1  0.64266500  0.29131700  0.11959000  1
  C  C41  1  0.83848200  0.74607600  0.39845600  1
  C  C42  1  0.29131700  0.11959000  0.64266500  1
  C  C43  1  0.40504500  0.65670200  0.12240500  1
  C  C44  1  0.80711500  0.10387000  0.26912000  1
  C  C45  1  0.37844600  0.96855600  0.05036700  1
  C  C46  1  0.12240500  0.40504500  0.65670200  1
  C  C47  1  0.19116600  0.47473000  0.17309300  1
  C  C48  1  0.41544900  0.65025500  0.30886200  1
  C  C49  1  0.16151800  0.25392400  0.60154400  1
  C  C50  1  0.52527000  0.82690700  0.80883400  1
  C  C51  1  0.58455100  0.34974500  0.69113800  1
  C  C52  1  0.10387000  0.26912000  0.80711500  1
  C  C53  1  0.67275600  0.69629800  0.96205300  1
  C  C54  1  0.25392400  0.60154400  0.16151800  1
  C  C55  1  0.65025500  0.30886200  0.41544900  1
  C  C56  1  0.32724400  0.30370200  0.03794700  1
  C  C57  1  0.96855600  0.05036700  0.37844600  1
  C  C58  1  0.30370200  0.03794700  0.32724400  1
  C  C59  1  0.88041000  0.35733500  0.70868300  1
  C  C60  1  0.17309300  0.19116600  0.47473000  1
  C  C61  1  0.69113800  0.58455100  0.34974500  1
  C  C62  1  0.60154400  0.16151800  0.25392400  1
  C  C63  1  0.65670200  0.12240500  0.40504500  1
  C  C64  1  0.39845600  0.83848200  0.74607600  1
  C  C65  1  0.35733500  0.70868300  0.88041000  1
  C  C66  1  0.62155400  0.03144400  0.94963300  1
  C  C67  1  0.03794700  0.32724400  0.30370200  1
  C  C68  1  0.59495500  0.34329800  0.87759500  1
  C  C69  1  0.96205300  0.67275600  0.69629800  1
  C  C70  1  0.89613000  0.73088000  0.19288500  1
  C  C71  1  0.73088000  0.19288500  0.89613000  1
  C  C72  1  0.34329800  0.87759500  0.59495500  1
  C  C73  1  0.74607600  0.39845600  0.83848200  1
