# generated using pymatgen
data_Cu2Ni2C15
_symmetry_space_group_name_H-M   'P 1'
_cell_length_a   7.51791400
_cell_length_b   7.74288900
_cell_length_c   19.12647300
_cell_angle_alpha   90.00000000
_cell_angle_beta   90.00000000
_cell_angle_gamma   90.00000000
_symmetry_Int_Tables_number   1
_chemical_formula_structural   Cu2Ni2C15
_chemical_formula_sum   'Cu8 Ni8 C60'
_cell_volume   1113.35913924
_cell_formula_units_Z   4
loop_
 _symmetry_equiv_pos_site_id
 _symmetry_equiv_pos_as_xyz
  1  'x, y, z'
loop_
 _atom_site_type_symbol
 _atom_site_label
 _atom_site_symmetry_multiplicity
 _atom_site_fract_x
 _atom_site_fract_y
 _atom_site_fract_z
 _atom_site_occupancy
  C  C0  1  0.24724900  0.84206400  0.44441600  1
  C  C1  1  0.75275100  0.34206400  0.05558400  1
  C  C2  1  0.74724900  0.65793600  0.55558400  1
  C  C3  1  0.25275100  0.15793600  0.94441600  1
  Ni  Ni4  1  0.98967400  0.38381700  0.39692500  1
  Ni  Ni5  1  0.51032600  0.61618300  0.89692500  1
  Ni  Ni6  1  0.33936300  0.58633800  0.26208600  1
  Ni  Ni7  1  0.83936300  0.91366200  0.73791400  1
  Ni  Ni8  1  0.01032600  0.88381700  0.10307500  1
  Ni  Ni9  1  0.66063700  0.08633800  0.23791400  1
  Ni  Ni10  1  0.48967400  0.11618300  0.60307500  1
  Ni  Ni11  1  0.16063700  0.41366200  0.76208600  1
  C  C12  1  0.53029000  0.86228100  0.09260900  1
  C  C13  1  0.03029000  0.63771900  0.90739100  1
  C  C14  1  0.77346300  0.55952200  0.24167700  1
  C  C15  1  0.96971000  0.13771900  0.59260900  1
  C  C16  1  0.27346300  0.94047800  0.75832300  1
  C  C17  1  0.46971000  0.36228100  0.40739100  1
  C  C18  1  0.72653700  0.44047800  0.74167700  1
  C  C19  1  0.22653700  0.05952200  0.25832300  1
  Cu  Cu20  1  0.87313100  0.98488800  0.90512200  1
  Cu  Cu21  1  0.37313100  0.51511200  0.09487800  1
  Cu  Cu22  1  0.72157800  0.09368700  0.93366000  1
  Cu  Cu23  1  0.27842200  0.59368700  0.56634000  1
  Cu  Cu24  1  0.62686900  0.01511200  0.40512200  1
  Cu  Cu25  1  0.22157800  0.40631300  0.06634000  1
  Cu  Cu26  1  0.12686900  0.48488800  0.59487800  1
  Cu  Cu27  1  0.77842200  0.90631300  0.43366000  1
  C  C28  1  0.76531500  0.95962900  0.13978800  1
  C  C29  1  0.95921700  0.50170700  0.81604600  1
  C  C30  1  0.54896100  0.64294100  0.19852600  1
  C  C31  1  0.44394800  0.89906700  0.56633700  1
  C  C32  1  0.09558900  0.06243400  0.33507100  1
  C  C33  1  0.30609200  0.77703300  0.09305300  1
  C  C34  1  0.52488800  0.02243700  0.02545400  1
  C  C35  1  0.66628800  0.25318100  0.78464500  1
  C  C36  1  0.40441100  0.93756600  0.83507100  1
  C  C37  1  0.17048500  0.19890500  0.80619900  1
  C  C38  1  0.09965400  0.89959000  0.19788000  1
  C  C39  1  0.69390800  0.27703300  0.40694700  1
  C  C40  1  0.19390800  0.22296700  0.59305300  1
  C  C41  1  0.94394800  0.60093300  0.43366300  1
  C  C42  1  0.73468500  0.04037100  0.63978800  1
  C  C43  1  0.40034600  0.10041000  0.69788000  1
  C  C44  1  0.45921700  0.99829300  0.18395400  1
  C  C45  1  0.16628800  0.24681900  0.21535500  1
  C  C46  1  0.84322300  0.30884300  0.55655200  1
  C  C47  1  0.04078300  0.00170700  0.68395400  1
  C  C48  1  0.84956400  0.09745900  0.92716000  1
  C  C49  1  0.34956400  0.40254100  0.07284000  1
  C  C50  1  0.59558900  0.43756600  0.66492900  1
  C  C51  1  0.15677700  0.80884300  0.94344800  1
  C  C52  1  0.82951500  0.69890500  0.69380100  1
  C  C53  1  0.83371200  0.74681900  0.28464500  1
  C  C54  1  0.45103900  0.14294100  0.30147400  1
  C  C55  1  0.90034600  0.39959000  0.30212000  1
  C  C56  1  0.33371200  0.75318100  0.71535500  1
  C  C57  1  0.67048500  0.30109500  0.19380100  1
  C  C58  1  0.65677700  0.69115700  0.05655200  1
  C  C59  1  0.02488800  0.47756300  0.97454600  1
  C  C60  1  0.59965400  0.60041000  0.80212000  1
  C  C61  1  0.04896100  0.85705900  0.80147400  1
  C  C62  1  0.26531500  0.54037100  0.86021200  1
  C  C63  1  0.34322300  0.19115700  0.44344800  1
  C  C64  1  0.15043600  0.59745900  0.57284000  1
  C  C65  1  0.54078300  0.49829300  0.31604600  1
  C  C66  1  0.47511200  0.52243700  0.47454600  1
  C  C67  1  0.65043600  0.90254100  0.42716000  1
  C  C68  1  0.05605200  0.10093300  0.06633700  1
  C  C69  1  0.95103900  0.35705900  0.69852600  1
  C  C70  1  0.80609200  0.72296700  0.90694700  1
  C  C71  1  0.97511200  0.97756300  0.52545400  1
  C  C72  1  0.23468500  0.45962900  0.36021200  1
  C  C73  1  0.55605200  0.39906700  0.93366300  1
  C  C74  1  0.90441100  0.56243400  0.16492900  1
  C  C75  1  0.32951500  0.80109500  0.30619900  1
