# generated using pymatgen
data_Cu6Ni2C5
_symmetry_space_group_name_H-M   'P 1'
_cell_length_a   4.73505400
_cell_length_b   12.85669300
_cell_length_c   14.99102600
_cell_angle_alpha   90.00000000
_cell_angle_beta   90.00000000
_cell_angle_gamma   90.00000000
_symmetry_Int_Tables_number   1
_chemical_formula_structural   Cu6Ni2C5
_chemical_formula_sum   'Cu12 Ni4 C10'
_cell_volume   912.61072283
_cell_formula_units_Z   2
loop_
 _symmetry_equiv_pos_site_id
 _symmetry_equiv_pos_as_xyz
  1  'x, y, z'
loop_
 _atom_site_type_symbol
 _atom_site_label
 _atom_site_symmetry_multiplicity
 _atom_site_fract_x
 _atom_site_fract_y
 _atom_site_fract_z
 _atom_site_occupancy
  C  C0  1  0.50000000  0.08842000  0.75013500  1
  C  C1  1  0.50000000  0.17413100  0.01736700  1
  C  C2  1  0.50000000  0.41158000  0.25013500  1
  C  C3  1  0.50000000  0.82586900  0.98263300  1
  C  C4  1  0.50000000  0.32586900  0.51736700  1
  C  C5  1  0.50000000  0.00000000  0.50000000  1
  C  C6  1  0.50000000  0.58842000  0.74986500  1
  C  C7  1  0.50000000  0.91158000  0.24986500  1
  C  C8  1  0.50000000  0.50000000  0.00000000  1
  C  C9  1  0.50000000  0.67413100  0.48263300  1
  Ni  Ni10  1  0.00000000  0.32967100  0.71352200  1
  Ni  Ni11  1  0.00000000  0.17032900  0.21352200  1
  Ni  Ni12  1  0.00000000  0.67032900  0.28647800  1
  Ni  Ni13  1  0.00000000  0.82967100  0.78647800  1
  Cu  Cu14  1  0.00000000  0.65315500  0.90529000  1
  Cu  Cu15  1  0.50000000  0.66286400  0.17537500  1
  Cu  Cu16  1  0.00000000  0.02373800  0.90525000  1
  Cu  Cu17  1  0.00000000  0.47626200  0.40525000  1
  Cu  Cu18  1  0.50000000  0.33713600  0.82462500  1
  Cu  Cu19  1  0.50000000  0.16286400  0.32462500  1
  Cu  Cu20  1  0.00000000  0.34684500  0.09471000  1
  Cu  Cu21  1  0.00000000  0.15315500  0.59471000  1
  Cu  Cu22  1  0.00000000  0.97626200  0.09475000  1
  Cu  Cu23  1  0.50000000  0.83713600  0.67537500  1
  Cu  Cu24  1  0.00000000  0.52373800  0.59475000  1
  Cu  Cu25  1  0.00000000  0.84684500  0.40529000  1
