# generated using pymatgen
data_Cu3Ni5C3
_symmetry_space_group_name_H-M   'P 1'
_cell_length_a   3.83125000
_cell_length_b   5.50108000
_cell_length_c   11.47678700
_cell_angle_alpha   90.00000000
_cell_angle_beta   90.00000000
_cell_angle_gamma   90.00000000
_symmetry_Int_Tables_number   1
_chemical_formula_structural   Cu3Ni5C3
_chemical_formula_sum   'Cu3 Ni5 C3'
_cell_volume   241.88490914
_cell_formula_units_Z   1
loop_
 _symmetry_equiv_pos_site_id
 _symmetry_equiv_pos_as_xyz
  1  'x, y, z'
loop_
 _atom_site_type_symbol
 _atom_site_label
 _atom_site_symmetry_multiplicity
 _atom_site_fract_x
 _atom_site_fract_y
 _atom_site_fract_z
 _atom_site_occupancy
  Ni  Ni0  1  0.00000000  0.00132500  0.84105400  1
  Ni  Ni1  1  0.00000000  0.00132500  0.15894600  1
  Ni  Ni2  1  0.00000000  0.00705000  0.50000000  1
  Ni  Ni3  1  0.50000000  0.50498800  0.33104400  1
  Ni  Ni4  1  0.50000000  0.50498800  0.66895600  1
  Cu  Cu5  1  0.00000000  0.25252000  0.32853600  1
  Cu  Cu6  1  0.50000000  0.75344300  0.50000000  1
  Cu  Cu7  1  0.00000000  0.25252000  0.67146400  1
  C  C8  1  0.50000000  0.74358900  0.83663800  1
  C  C9  1  0.00000000  0.23466000  0.00000000  1
  C  C10  1  0.50000000  0.74358900  0.16336200  1
