# generated using pymatgen
data_CuNi10C7
_symmetry_space_group_name_H-M   'P 1'
_cell_length_a   6.48215261
_cell_length_b   6.47986555
_cell_length_c   13.99308262
_cell_angle_alpha   117.36109703
_cell_angle_beta   117.40034331
_cell_angle_gamma   89.92680755
_symmetry_Int_Tables_number   1
_chemical_formula_structural   CuNi10C7
_chemical_formula_sum   'Cu2 Ni20 C14'
_cell_volume   446.66552697
_cell_formula_units_Z   2
loop_
 _symmetry_equiv_pos_site_id
 _symmetry_equiv_pos_as_xyz
  1  'x, y, z'
loop_
 _atom_site_type_symbol
 _atom_site_label
 _atom_site_symmetry_multiplicity
 _atom_site_fract_x
 _atom_site_fract_y
 _atom_site_fract_z
 _atom_site_occupancy
  C  C0  1  0.25055900  0.31423600  0.49839900  1
  C  C1  1  0.24808900  0.31434400  0.99850100  1
  C  C2  1  0.73272200  0.25913600  0.49977300  1
  C  C3  1  0.72810600  0.74325600  0.50238000  1
  C  C4  1  0.68725100  0.75094500  0.00155400  1
  C  C5  1  0.73676500  0.26398100  0.99996500  1
  C  C6  1  0.20494800  0.19593600  0.69894000  1
  C  C7  1  0.20408100  0.19348100  0.19836000  1
  C  C8  1  0.80650700  0.79609900  0.80145600  1
  C  C9  1  0.80626600  0.79714000  0.30099200  1
  C  C10  1  0.24835100  0.75307200  0.75046600  1
  C  C11  1  0.24880100  0.75264800  0.25073300  1
  C  C12  1  0.74655000  0.25236600  0.74939000  1
  C  C13  1  0.74664800  0.25283000  0.24943100  1
  Ni  Ni14  1  0.14837300  0.84349100  0.83950900  1
  Ni  Ni15  1  0.16101600  0.47363200  0.66257800  1
  Ni  Ni16  1  0.15944500  0.85343400  0.66129300  1
  Ni  Ni17  1  0.36248700  0.34629800  0.85655400  1
  Ni  Ni18  1  0.52755500  0.83797400  0.83744400  1
  Ni  Ni19  1  0.14715800  0.84402900  0.33912400  1
  Ni  Ni20  1  0.46960300  0.16878600  0.66021300  1
  Ni  Ni21  1  0.16175400  0.47319200  0.16319800  1
  Ni  Ni22  1  0.15942300  0.85238200  0.16131200  1
  Ni  Ni23  1  0.36330800  0.34390000  0.35591700  1
  Ni  Ni24  1  0.65683200  0.63772200  0.64387300  1
  Ni  Ni25  1  0.83219600  0.14520700  0.83624400  1
  Ni  Ni26  1  0.83355200  0.52938300  0.83938300  1
  Ni  Ni27  1  0.52834500  0.83703200  0.33797300  1
  Ni  Ni28  1  0.85455200  0.16538900  0.66299700  1
  Ni  Ni29  1  0.46998700  0.16765300  0.15983900  1
  Ni  Ni30  1  0.65360900  0.63795400  0.14336100  1
  Ni  Ni31  1  0.83244900  0.14643800  0.33667600  1
  Ni  Ni32  1  0.83450800  0.52995700  0.33922900  1
  Ni  Ni33  1  0.85415200  0.16591100  0.16295700  1
  Cu  Cu34  1  0.99308700  0.00798800  0.50005600  1
  Cu  Cu35  1  0.99196400  0.00777800  0.99993200  1
