# generated using pymatgen
data_Cu2NiC8
_symmetry_space_group_name_H-M   'P 1'
_cell_length_a   5.47740600
_cell_length_b   6.55752600
_cell_length_c   7.50651600
_cell_angle_alpha   90.00000000
_cell_angle_beta   90.00000000
_cell_angle_gamma   90.00000000
_symmetry_Int_Tables_number   1
_chemical_formula_structural   Cu2NiC8
_chemical_formula_sum   'Cu4 Ni2 C16'
_cell_volume   269.62078513
_cell_formula_units_Z   2
loop_
 _symmetry_equiv_pos_site_id
 _symmetry_equiv_pos_as_xyz
  1  'x, y, z'
loop_
 _atom_site_type_symbol
 _atom_site_label
 _atom_site_symmetry_multiplicity
 _atom_site_fract_x
 _atom_site_fract_y
 _atom_site_fract_z
 _atom_site_occupancy
  Ni  Ni0  1  0.50000000  0.50000000  0.00000000  1
  Ni  Ni1  1  0.50000000  0.00000000  0.00000000  1
  Cu  Cu2  1  0.00000000  0.25000000  0.85825700  1
  Cu  Cu3  1  0.00000000  0.75000000  0.14174300  1
  Cu  Cu4  1  0.50000000  0.25000000  0.37223300  1
  Cu  Cu5  1  0.50000000  0.75000000  0.62776700  1
  C  C6  1  0.00000000  0.42278100  0.74592100  1
  C  C7  1  0.00000000  0.57721900  0.25407900  1
  C  C8  1  0.00000000  0.07721900  0.74592100  1
  C  C9  1  0.00000000  0.92278100  0.25407900  1
  C  C10  1  0.29829700  0.25000000  0.49060500  1
  C  C11  1  0.29829700  0.75000000  0.50939500  1
  C  C12  1  0.70170300  0.75000000  0.50939500  1
  C  C13  1  0.70170300  0.25000000  0.49060500  1
  C  C14  1  0.76234100  0.25000000  0.96646100  1
  C  C15  1  0.76234100  0.75000000  0.03353900  1
  C  C16  1  0.23765900  0.75000000  0.03353900  1
  C  C17  1  0.23765900  0.25000000  0.96646100  1
  C  C18  1  0.50000000  0.44960500  0.26720400  1
  C  C19  1  0.50000000  0.55039500  0.73279600  1
  C  C20  1  0.50000000  0.05039500  0.26720400  1
  C  C21  1  0.50000000  0.94960500  0.73279600  1
