# generated using pymatgen
data_Cu2Ni6C13
_symmetry_space_group_name_H-M   'P 1'
_cell_length_a   10.31317600
_cell_length_b   10.49274300
_cell_length_c   12.13586600
_cell_angle_alpha   90.00000000
_cell_angle_beta   90.00000000
_cell_angle_gamma   90.00000000
_symmetry_Int_Tables_number   1
_chemical_formula_structural   Cu2Ni6C13
_chemical_formula_sum   'Cu8 Ni24 C52'
_cell_volume   1313.26459949
_cell_formula_units_Z   4
loop_
 _symmetry_equiv_pos_site_id
 _symmetry_equiv_pos_as_xyz
  1  'x, y, z'
loop_
 _atom_site_type_symbol
 _atom_site_label
 _atom_site_symmetry_multiplicity
 _atom_site_fract_x
 _atom_site_fract_y
 _atom_site_fract_z
 _atom_site_occupancy
  C  C0  1  0.75000000  0.94168400  0.14705900  1
  C  C1  1  0.25000000  0.05831600  0.85294100  1
  C  C2  1  0.75000000  0.55831600  0.64705900  1
  C  C3  1  0.25000000  0.44168400  0.35294100  1
  Ni  Ni4  1  0.88114800  0.05457800  0.19523000  1
  Ni  Ni5  1  0.38114800  0.94542200  0.80477100  1
  Ni  Ni6  1  0.37799700  0.16438100  0.91179400  1
  Ni  Ni7  1  0.75000000  0.64649900  0.77748700  1
  Ni  Ni8  1  0.25000000  0.14649900  0.72251300  1
  Ni  Ni9  1  0.25000000  0.35350100  0.22251300  1
  Ni  Ni10  1  0.75000000  0.85350100  0.27748700  1
  Ni  Ni11  1  0.12200300  0.33561900  0.41179400  1
  Ni  Ni12  1  0.11885200  0.94542200  0.80477100  1
  Ni  Ni13  1  0.12200300  0.16438100  0.91179400  1
  Ni  Ni14  1  0.75000000  0.20355000  0.98720300  1
  Ni  Ni15  1  0.88114800  0.44542200  0.69522900  1
  Ni  Ni16  1  0.61885200  0.44542200  0.69522900  1
  Ni  Ni17  1  0.62200300  0.83561900  0.08820600  1
  Ni  Ni18  1  0.87799700  0.83561900  0.08820600  1
  Ni  Ni19  1  0.61885200  0.05457800  0.19523000  1
  Ni  Ni20  1  0.25000000  0.70355000  0.51279700  1
  Ni  Ni21  1  0.75000000  0.29645000  0.48720300  1
  Ni  Ni22  1  0.37799700  0.33561900  0.41179400  1
  Ni  Ni23  1  0.62200300  0.66438100  0.58820600  1
  Ni  Ni24  1  0.11885200  0.55457800  0.30477000  1
  Ni  Ni25  1  0.87799700  0.66438100  0.58820600  1
  Ni  Ni26  1  0.38114800  0.55457800  0.30477000  1
  Ni  Ni27  1  0.25000000  0.79645000  0.01279700  1
  Cu  Cu28  1  0.25000000  0.58043100  0.90135100  1
  Cu  Cu29  1  0.25000000  0.91956900  0.40135100  1
  Cu  Cu30  1  0.25000000  0.54199700  0.53186700  1
  Cu  Cu31  1  0.75000000  0.04199700  0.96813300  1
  Cu  Cu32  1  0.25000000  0.95800300  0.03186700  1
  Cu  Cu33  1  0.75000000  0.41956900  0.09864900  1
  Cu  Cu34  1  0.75000000  0.45800300  0.46813300  1
  Cu  Cu35  1  0.75000000  0.08043100  0.59864900  1
  C  C36  1  0.75000000  0.26112300  0.08083100  1
  C  C37  1  0.75000000  0.23887700  0.58083100  1
  C  C38  1  0.25000000  0.76112300  0.41916900  1
  C  C39  1  0.25000000  0.73887700  0.91916900  1
  C  C40  1  0.75000000  0.70347500  0.85913600  1
  C  C41  1  0.54326200  0.72935700  0.55095100  1
  C  C42  1  0.25000000  0.29652500  0.14086400  1
  C  C43  1  0.96421700  0.11968700  0.22447300  1
  C  C44  1  0.04326200  0.27064300  0.44904900  1
  C  C45  1  0.45673800  0.22935700  0.94904900  1
  C  C46  1  0.95673800  0.77064300  0.05095100  1
  C  C47  1  0.54326200  0.77064300  0.05095100  1
  C  C48  1  0.75000000  0.79652500  0.35913600  1
  C  C49  1  0.53578300  0.38031300  0.72447300  1
  C  C50  1  0.96421700  0.38031300  0.72447300  1
  C  C51  1  0.25000000  0.20347500  0.64086400  1
  C  C52  1  0.04326200  0.22935700  0.94904900  1
  C  C53  1  0.46421700  0.61968700  0.27552700  1
  C  C54  1  0.03578300  0.88031300  0.77552700  1
  C  C55  1  0.46421700  0.88031300  0.77552700  1
  C  C56  1  0.45673800  0.27064300  0.44904900  1
  C  C57  1  0.53578300  0.11968700  0.22447300  1
  C  C58  1  0.95673800  0.72935700  0.55095100  1
  C  C59  1  0.03578300  0.61968700  0.27552700  1
  C  C60  1  0.36196400  0.55080500  0.99263500  1
  C  C61  1  0.36077300  0.59470400  0.80760100  1
  C  C62  1  0.25000000  0.42738000  0.87453600  1
  C  C63  1  0.63803600  0.44919500  0.00736500  1
  C  C64  1  0.86196400  0.44919500  0.00736500  1
  C  C65  1  0.13922700  0.90529600  0.30760100  1
  C  C66  1  0.25000000  0.73343800  0.11141700  1
  C  C67  1  0.13803600  0.55080500  0.99263500  1
  C  C68  1  0.25000000  0.07262000  0.37453600  1
  C  C69  1  0.13803600  0.94919500  0.49263500  1
  C  C70  1  0.75000000  0.92738000  0.62546400  1
  C  C71  1  0.86077300  0.40529600  0.19239900  1
  C  C72  1  0.63922700  0.09470400  0.69239900  1
  C  C73  1  0.36077300  0.90529600  0.30760100  1
  C  C74  1  0.75000000  0.23343900  0.38858300  1
  C  C75  1  0.86077300  0.09470400  0.69239900  1
  C  C76  1  0.75000000  0.57262000  0.12546400  1
  C  C77  1  0.63803600  0.05080500  0.50736500  1
  C  C78  1  0.63922700  0.40529600  0.19239900  1
  C  C79  1  0.36196400  0.94919500  0.49263500  1
  C  C80  1  0.86196400  0.05080500  0.50736500  1
  C  C81  1  0.13922700  0.59470400  0.80760100  1
  C  C82  1  0.75000000  0.26656200  0.88858300  1
  C  C83  1  0.25000000  0.76656200  0.61141700  1
