# generated using pymatgen
data_Cu2NiC9
_symmetry_space_group_name_H-M   'P 1'
_cell_length_a   7.69734500
_cell_length_b   7.76927600
_cell_length_c   9.89091400
_cell_angle_alpha   90.00000000
_cell_angle_beta   90.00000000
_cell_angle_gamma   90.00000000
_symmetry_Int_Tables_number   1
_chemical_formula_structural   Cu2NiC9
_chemical_formula_sum   'Cu8 Ni4 C36'
_cell_volume   591.50432972
_cell_formula_units_Z   4
loop_
 _symmetry_equiv_pos_site_id
 _symmetry_equiv_pos_as_xyz
  1  'x, y, z'
loop_
 _atom_site_type_symbol
 _atom_site_label
 _atom_site_symmetry_multiplicity
 _atom_site_fract_x
 _atom_site_fract_y
 _atom_site_fract_z
 _atom_site_occupancy
  C  C0  1  0.60379600  0.33992700  0.00712900  1
  C  C1  1  0.39620400  0.83992700  0.49287100  1
  C  C2  1  0.89620400  0.66007300  0.50712900  1
  C  C3  1  0.10379600  0.16007300  0.99287100  1
  C  C4  1  0.87248300  0.62001400  0.05271700  1
  C  C5  1  0.12751700  0.12001400  0.44728300  1
  C  C6  1  0.62751700  0.37998600  0.55271700  1
  C  C7  1  0.37248300  0.87998600  0.94728300  1
  Ni  Ni8  1  0.75822700  0.00034000  0.99977400  1
  Ni  Ni9  1  0.74177300  0.99966000  0.49977400  1
  Ni  Ni10  1  0.24177300  0.50034000  0.50022600  1
  Ni  Ni11  1  0.25822700  0.49966000  0.00022600  1
  Cu  Cu12  1  0.38942100  0.14449500  0.68317300  1
  Cu  Cu13  1  0.09480000  0.84852400  0.68264600  1
  Cu  Cu14  1  0.90520000  0.34852400  0.81735400  1
  Cu  Cu15  1  0.61057900  0.64449500  0.81682700  1
  Cu  Cu16  1  0.11057900  0.85550500  0.18317300  1
  Cu  Cu17  1  0.40520000  0.15147600  0.18264600  1
  Cu  Cu18  1  0.88942100  0.35550500  0.31682700  1
  Cu  Cu19  1  0.59480000  0.65147600  0.31735400  1
  C  C20  1  0.25422500  0.00335900  0.13405900  1
  C  C21  1  0.92648700  0.91151700  0.10515000  1
  C  C22  1  0.57755400  0.07581100  0.09941700  1
  C  C23  1  0.33837700  0.32791400  0.10226400  1
  C  C24  1  0.17312700  0.67693600  0.10183700  1
  C  C25  1  0.89855700  0.35288400  0.15683900  1
  C  C26  1  0.59876600  0.65919200  0.15712600  1
  C  C27  1  0.40123400  0.15919200  0.34287400  1
  C  C28  1  0.10144300  0.85288400  0.34316100  1
  C  C29  1  0.66162300  0.82791400  0.39773600  1
  C  C30  1  0.42244600  0.57581100  0.40058300  1
  C  C31  1  0.07351300  0.41151700  0.39485000  1
  C  C32  1  0.82687300  0.17693600  0.39816300  1
  C  C33  1  0.74577500  0.50335900  0.36594100  1
  C  C34  1  0.24577500  0.99664100  0.63405900  1
  C  C35  1  0.57351300  0.08848300  0.60515000  1
  C  C36  1  0.32687300  0.32306400  0.60183700  1
  C  C37  1  0.16162300  0.67208600  0.60226400  1
  C  C38  1  0.92244600  0.92418900  0.59941700  1
  C  C39  1  0.90123400  0.34080800  0.65712600  1
  C  C40  1  0.60144300  0.64711600  0.65683900  1
  C  C41  1  0.09876600  0.84080800  0.84287400  1
  C  C42  1  0.39855700  0.14711600  0.84316100  1
  C  C43  1  0.67312700  0.82306400  0.89816300  1
  C  C44  1  0.42648700  0.58848300  0.89485000  1
  C  C45  1  0.07755400  0.42418900  0.90058300  1
  C  C46  1  0.83837700  0.17208600  0.89773600  1
  C  C47  1  0.75422500  0.49664100  0.86594100  1
