# generated using pymatgen
data_Cu10Ni24C127
_symmetry_space_group_name_H-M   'P 1'
_cell_length_a   17.78995400
_cell_length_b   17.79522098
_cell_length_c   17.82185340
_cell_angle_alpha   89.74336400
_cell_angle_beta   119.92341689
_cell_angle_gamma   119.97301046
_symmetry_Int_Tables_number   1
_chemical_formula_structural   Cu10Ni24C127
_chemical_formula_sum   'Cu10 Ni24 C127'
_cell_volume   4004.51789943
_cell_formula_units_Z   1
loop_
 _symmetry_equiv_pos_site_id
 _symmetry_equiv_pos_as_xyz
  1  'x, y, z'
loop_
 _atom_site_type_symbol
 _atom_site_label
 _atom_site_symmetry_multiplicity
 _atom_site_fract_x
 _atom_site_fract_y
 _atom_site_fract_z
 _atom_site_occupancy
  Ni  Ni0  1  0.23864500  0.60202000  0.02789300  1
  Ni  Ni1  1  0.60554500  0.96714000  0.21028100  1
  Ni  Ni2  1  0.42665200  0.78679800  0.39757400  1
  Ni  Ni3  1  0.89499300  0.79012200  0.03224500  1
  Ni  Ni4  1  0.24014300  0.13708400  0.20990600  1
  Ni  Ni5  1  0.42659800  0.13625400  0.02954900  1
  Ni  Ni6  1  0.74324800  0.21295600  0.13826100  1
  Ni  Ni7  1  0.07345500  0.60191600  0.21317300  1
  Ni  Ni8  1  0.25979700  0.97091900  0.39778900  1
  Ni  Ni9  1  0.10944300  0.39507300  0.13844900  1
  Ni  Ni10  1  0.60759600  0.13862800  0.39756900  1
  Ni  Ni11  1  0.07196700  0.96536000  0.86275900  1
  Ni  Ni12  1  0.92418800  0.02932100  0.13898200  1
  Ni  Ni13  1  0.38943500  0.86041500  0.60529100  1
  Ni  Ni14  1  0.89668500  0.60584800  0.86184500  1
  Ni  Ni15  1  0.74667900  0.03118000  0.60649100  1
  Ni  Ni16  1  0.92496600  0.39495500  0.78513800  1
  Ni  Ni17  1  0.25623600  0.79090600  0.86309600  1
  Ni  Ni18  1  0.57558700  0.86105100  0.97083500  1
  Ni  Ni19  1  0.75585000  0.86053600  0.78683500  1
  Ni  Ni20  1  0.10898700  0.21389800  0.96980100  1
  Ni  Ni21  1  0.57649900  0.21619400  0.60580200  1
  Ni  Ni22  1  0.39061200  0.03108400  0.78563500  1
  Ni  Ni23  1  0.75519000  0.39428900  0.96893800  1
  Cu  Cu24  1  0.98937600  0.74468200  0.73413900  1
  Cu  Cu25  1  0.00239400  0.25449600  0.25090900  1
  Cu  Cu26  1  0.81648500  0.15731400  0.40800100  1
  Cu  Cu27  1  0.49827200  0.74893400  0.74727300  1
  Cu  Cu28  1  0.24392100  0.59201000  0.83706400  1
  Cu  Cu29  1  0.00064600  0.25123900  0.75110800  1
  Cu  Cu30  1  0.24880100  0.15783200  0.40799400  1
  Cu  Cu31  1  0.68566100  0.59312400  0.83763500  1
  Cu  Cu32  1  0.24429900  0.15166600  0.83580800  1
  Cu  Cu33  1  0.50190800  0.25144600  0.75103100  1
  C  C34  1  0.99205000  0.00158500  0.99492900  1
  C  C35  1  0.99441300  0.49190400  0.99684800  1
  C  C36  1  0.50416200  0.00152000  0.99457700  1
  C  C37  1  0.43622200  0.77607200  0.22235800  1
  C  C38  1  0.50679300  0.00182700  0.51169600  1
  C  C39  1  0.43982700  0.16062900  0.21905400  1
  C  C40  1  0.06162900  0.77550400  0.22175600  1
  C  C41  1  0.42814200  0.78992700  0.03427500  1
  C  C42  1  0.24389000  0.60313000  0.20970800  1
  C  C43  1  0.60560500  0.96700100  0.39621400  1
  C  C44  1  0.24241400  0.13750400  0.03234500  1
  C  C45  1  0.07114200  0.96552000  0.21013400  1
  C  C46  1  0.89458300  0.60381400  0.03258600  1
  C  C47  1  0.93128000  0.39515400  0.14197700  1
  C  C48  1  0.60512900  0.13788300  0.20998800  1
  C  C49  1  0.42942000  0.13959400  0.39590000  1
  C  C50  1  0.74754900  0.03662400  0.14419500  1
  C  C51  1  0.25579500  0.79015100  0.39640200  1
  C  C52  1  0.89605700  0.79047200  0.86095000  1
  C  C53  1  0.10579500  0.20956200  0.14385000  1
  C  C54  1  0.74860100  0.21122500  0.60400700  1
  C  C55  1  0.25545500  0.96511300  0.86054000  1
  C  C56  1  0.56845400  0.85751300  0.60474200  1
  C  C57  1  0.39280400  0.85522500  0.79050600  1
  C  C58  1  0.06880800  0.60445600  0.85917100  1
  C  C59  1  0.10583800  0.39543000  0.96151800  1
  C  C60  1  0.93550000  0.03783200  0.78984600  1
  C  C61  1  0.75268200  0.85605100  0.96384600  1
  C  C62  1  0.39414900  0.03908300  0.60455300  1
  C  C63  1  0.75242400  0.39756800  0.78920000  1
  C  C64  1  0.56609700  0.21052800  0.96222800  1
  C  C65  1  0.33844700  0.68711300  0.01899900  1
  C  C66  1  0.06710200  0.40711100  0.02647200  1
  C  C67  1  0.63174400  0.97159000  0.04138800  1
  C  C68  1  0.49818200  0.78396300  0.00537800  1
  C  C69  1  0.50029600  0.84783800  0.14697800  1
  C  C70  1  0.29267500  0.64077300  0.14626400  1
  C  C71  1  0.22218500  0.50489000  0.21446700  1
  C  C72  1  0.86860700  0.95948700  0.02895100  1
  C  C73  1  0.07007200  0.15961200  0.04147000  1
  C  C74  1  0.33728700  0.68559200  0.30700600  1
  C  C75  1  0.63264700  0.98173100  0.32019500  1
  C  C76  1  0.22001000  0.21333600  0.00174000  1
  C  C77  1  0.50869400  0.85608700  0.35845900  1
  C  C78  1  0.33308800  0.15113300  0.02114900  1
  C  C79  1  0.86987000  0.68111200  0.02125000  1
  C  C80  1  0.71245300  0.99908700  0.49439700  1
  C  C81  1  0.00295100  0.99618200  0.21715300  1
  C  C82  1  0.62393400  0.96297600  0.59556800  1
  C  C83  1  0.29509300  0.15212700  0.14510100  1
  C  C84  1  0.78814900  0.50568200  0.00155500  1
  C  C85  1  0.00021000  0.85362700  0.15285500  1
  C  C86  1  0.16276400  0.98331700  0.31390300  1
  C  C87  1  0.99126200  0.64018100  0.14389200  1
  C  C88  1  0.61828400  0.15943600  0.02852300  1
  C  C89  1  0.87790700  0.40541800  0.03730400  1
  C  C90  1  0.50735300  0.15246500  0.15015900  1
  C  C91  1  0.33873800  0.15145700  0.31909000  1
  C  C92  1  0.84118500  0.31963700  0.15302300  1
  C  C93  1  0.55679700  0.03277000  0.15707400  1
  C  C94  1  0.13216500  0.59636900  0.15794000  1
  C  C95  1  0.50279000  0.15401800  0.35663400  1
  C  C96  1  0.71157100  0.21302900  0.21798700  1
  C  C97  1  0.20603200  0.85313400  0.35770500  1
  C  C98  1  0.00054900  0.49477500  0.21741100  1
  C  C99  1  0.88063400  0.97105600  0.83895300  1
  C  C100  1  0.49620100  0.21437000  0.49357800  1
  C  C101  1  0.78664500  0.78032300  0.78823200  1
  C  C102  1  0.63115000  0.15112600  0.31254200  1
  C  C103  1  0.16316500  0.69267200  0.31457300  1
  C  C104  1  0.00718500  0.36280200  0.15303100  1
  C  C105  1  0.79129900  0.14428300  0.15330600  1
  C  C106  1  0.72374600  0.01036000  0.22217300  1
  C  C107  1  0.36820000  0.84245100  0.40375500  1
  C  C108  1  0.55715800  0.02446500  0.40170400  1
  C  C109  1  0.83244200  0.01979700  0.15534400  1
  C  C110  1  0.13262600  0.31098200  0.15401700  1
  C  C111  1  0.98841300  0.84778000  0.84323100  1
  C  C112  1  0.27744000  0.78617400  0.49454200  1
  C  C113  1  0.72539400  0.21396700  0.50250600  1
  C  C114  1  0.00761000  0.14577300  0.15346000  1
  C  C115  1  0.86502100  0.68582400  0.85029300  1
  C  C116  1  0.17187700  0.98632200  0.85064300  1
  C  C117  1  0.43199500  0.97318700  0.59330700  1
  C  C118  1  0.63239500  0.16140900  0.59105900  1
  C  C119  1  0.28175600  0.00289700  0.78786500  1
  C  C120  1  0.20270400  0.85534300  0.84333600  1
  C  C121  1  0.99432300  0.64003800  0.84157000  1
  C  C122  1  0.83360400  0.31224500  0.67784400  1
  C  C123  1  0.36524400  0.84392200  0.68860000  1
  C  C124  1  0.20981900  0.21245300  0.22262500  1
  C  C125  1  0.49983300  0.78315600  0.50485000  1
  C  C126  1  0.12287300  0.02294600  0.15628300  1
  C  C127  1  0.00712200  0.50592100  0.78677000  1
  C  C128  1  0.79291500  0.14743800  0.63835300  1
  C  C129  1  0.29051500  0.77789100  0.79000500  1
  C  C130  1  0.49245300  0.84706800  0.63668700  1
  C  C131  1  0.86753000  0.40882100  0.83839900  1
  C  C132  1  0.42934500  0.95895900  0.83859200  1
  C  C133  1  0.16385000  0.67888100  0.84963200  1
  C  C134  1  0.65862600  0.84644000  0.68022900  1
  C  C135  1  0.49213800  0.84679900  0.85451300  1
  C  C136  1  0.12053700  0.59800100  0.96504600  1
  C  C137  1  0.37664700  0.84396700  0.97723000  1
  C  C138  1  0.00738600  0.36038900  0.85386800  1
  C  C139  1  0.84667000  0.02272400  0.68798100  1
  C  C140  1  0.00702000  0.14511300  0.85380400  1
  C  C141  1  0.20905000  0.49620800  0.98605000  1
  C  C142  1  0.70883700  0.84744600  0.85632100  1
  C  C143  1  0.37864900  0.03452500  0.40181900  1
  C  C144  1  0.01319400  0.01371600  0.78960700  1
  C  C145  1  0.29076800  0.01441600  0.50349600  1
  C  C146  1  0.13412600  0.32152900  0.97800000  1
  C  C147  1  0.66788400  0.84536200  0.98067900  1
  C  C148  1  0.49251100  0.14661200  0.63852900  1
  C  C149  1  0.77746100  0.77898600  0.99094300  1
  C  C150  1  0.36524300  0.02256500  0.67799300  1
  C  C151  1  0.66636100  0.32367200  0.68758300  1
  C  C152  1  0.94352300  0.84379000  0.96698200  1
  C  C153  1  0.13298200  0.03237000  0.97680300  1
  C  C154  1  0.77639300  0.49926300  0.78840400  1
  C  C155  1  0.70726300  0.36172800  0.85237300  1
  C  C156  1  0.49424200  0.14696800  0.85502600  1
  C  C157  1  0.49005300  0.21295200  0.98745800  1
  C  C158  1  0.36724200  0.02274800  0.96658600  1
  C  C159  1  0.94356900  0.59927000  0.97575700  1
  C  C160  1  0.65578800  0.31169600  0.97771700  1
