# generated using pymatgen
data_Cu2NiC6
_symmetry_space_group_name_H-M   'P 1'
_cell_length_a   5.76047000
_cell_length_b   7.14998800
_cell_length_c   12.44543800
_cell_angle_alpha   90.00000000
_cell_angle_beta   90.00000000
_cell_angle_gamma   90.00000000
_symmetry_Int_Tables_number   1
_chemical_formula_structural   Cu2NiC6
_chemical_formula_sum   'Cu8 Ni4 C24'
_cell_volume   512.59388119
_cell_formula_units_Z   4
loop_
 _symmetry_equiv_pos_site_id
 _symmetry_equiv_pos_as_xyz
  1  'x, y, z'
loop_
 _atom_site_type_symbol
 _atom_site_label
 _atom_site_symmetry_multiplicity
 _atom_site_fract_x
 _atom_site_fract_y
 _atom_site_fract_z
 _atom_site_occupancy
  Ni  Ni0  1  0.75000000  0.07711700  0.10154700  1
  Ni  Ni1  1  0.75000000  0.42288300  0.60154700  1
  Ni  Ni2  1  0.25000000  0.57711700  0.39845300  1
  Ni  Ni3  1  0.25000000  0.92288300  0.89845300  1
  Cu  Cu4  1  0.25000000  0.39968700  0.07443600  1
  Cu  Cu5  1  0.75000000  0.61832300  0.20804200  1
  Cu  Cu6  1  0.75000000  0.88167700  0.70804200  1
  Cu  Cu7  1  0.25000000  0.11832300  0.29195800  1
  Cu  Cu8  1  0.75000000  0.60031300  0.92556400  1
  Cu  Cu9  1  0.75000000  0.89968700  0.42556400  1
  Cu  Cu10  1  0.25000000  0.10031300  0.57443600  1
  Cu  Cu11  1  0.25000000  0.38167700  0.79195800  1
  C  C12  1  0.25000000  0.80842700  0.14987600  1
  C  C13  1  0.75000000  0.19157300  0.85012400  1
  C  C14  1  0.75000000  0.30842700  0.35012400  1
  C  C15  1  0.25000000  0.69157300  0.64987600  1
  C  C16  1  0.25000000  0.42493000  0.60031300  1
  C  C17  1  0.75000000  0.57507000  0.39968700  1
  C  C18  1  0.75000000  0.92493000  0.89968700  1
  C  C19  1  0.25000000  0.07507000  0.10031300  1
  C  C20  1  0.00042200  0.85801700  0.27532900  1
  C  C21  1  0.50042200  0.14198300  0.72467100  1
  C  C22  1  0.99957800  0.35801700  0.22467100  1
  C  C23  1  0.49957800  0.64198300  0.77532900  1
  C  C24  1  0.99957800  0.14198300  0.72467100  1
  C  C25  1  0.49957800  0.85801700  0.27532900  1
  C  C26  1  0.00042200  0.64198300  0.77532900  1
  C  C27  1  0.50042200  0.35801700  0.22467100  1
  C  C28  1  0.49842000  0.66294400  0.06614800  1
  C  C29  1  0.99842000  0.33705600  0.93385200  1
  C  C30  1  0.50158000  0.16294400  0.43385200  1
  C  C31  1  0.00158000  0.83705600  0.56614800  1
  C  C32  1  0.99842000  0.16294400  0.43385200  1
  C  C33  1  0.49842000  0.83705600  0.56614800  1
  C  C34  1  0.00158000  0.66294400  0.06614800  1
  C  C35  1  0.50158000  0.33705600  0.93385200  1
