# generated using pymatgen
data_Cu4NiC2
_symmetry_space_group_name_H-M   'P 1'
_cell_length_a   7.57115249
_cell_length_b   7.57115249
_cell_length_c   7.57115249
_cell_angle_alpha   109.41294749
_cell_angle_beta   109.41294749
_cell_angle_gamma   109.58782989
_symmetry_Int_Tables_number   1
_chemical_formula_structural   Cu4NiC2
_chemical_formula_sum   'Cu8 Ni2 C4'
_cell_volume   334.08943371
_cell_formula_units_Z   2
loop_
 _symmetry_equiv_pos_site_id
 _symmetry_equiv_pos_as_xyz
  1  'x, y, z'
loop_
 _atom_site_type_symbol
 _atom_site_label
 _atom_site_symmetry_multiplicity
 _atom_site_fract_x
 _atom_site_fract_y
 _atom_site_fract_z
 _atom_site_occupancy
  C  C0  1  0.62500000  0.00747600  0.88247600  1
  C  C1  1  0.99252400  0.87500000  0.61752400  1
  C  C2  1  0.12500000  0.74252400  0.11752400  1
  C  C3  1  0.25747600  0.37500000  0.38247600  1
  Ni  Ni4  1  0.50000000  0.50000000  0.00000000  1
  Ni  Ni5  1  0.75000000  0.25000000  0.50000000  1
  Cu  Cu6  1  0.36391800  0.11597100  0.09685800  1
  Cu  Cu7  1  0.36597100  0.11391800  0.59685800  1
  Cu  Cu8  1  0.73294000  0.63608200  0.75205300  1
  Cu  Cu9  1  0.88402900  0.98088700  0.24794700  1
  Cu  Cu10  1  0.51706000  0.76911300  0.40314200  1
  Cu  Cu11  1  0.88608200  0.48294000  0.25205300  1
  Cu  Cu12  1  0.23088700  0.63402900  0.74794700  1
  Cu  Cu13  1  0.01911300  0.26706000  0.90314200  1
