# generated using pymatgen
data_Cu3NiC3
_symmetry_space_group_name_H-M   'P 1'
_cell_length_a   6.98050300
_cell_length_b   7.48384600
_cell_length_c   12.80722200
_cell_angle_alpha   90.00000000
_cell_angle_beta   90.00000000
_cell_angle_gamma   90.00000000
_symmetry_Int_Tables_number   1
_chemical_formula_structural   Cu3NiC3
_chemical_formula_sum   'Cu24 Ni8 C24'
_cell_volume   669.06220559
_cell_formula_units_Z   8
loop_
 _symmetry_equiv_pos_site_id
 _symmetry_equiv_pos_as_xyz
  1  'x, y, z'
loop_
 _atom_site_type_symbol
 _atom_site_label
 _atom_site_symmetry_multiplicity
 _atom_site_fract_x
 _atom_site_fract_y
 _atom_site_fract_z
 _atom_site_occupancy
  Ni  Ni0  1  0.03259700  0.51468400  0.36793800  1
  Ni  Ni1  1  0.53259700  0.48531600  0.63206200  1
  Ni  Ni2  1  0.53259700  0.98531600  0.86793800  1
  Ni  Ni3  1  0.03259700  0.01468400  0.13206200  1
  Ni  Ni4  1  0.46379800  0.57780600  0.11716500  1
  Ni  Ni5  1  0.96379800  0.42219400  0.88283500  1
  Ni  Ni6  1  0.96379800  0.92219400  0.61716500  1
  Ni  Ni7  1  0.46379800  0.07780600  0.38283500  1
  Cu  Cu8  1  0.93398200  0.78470200  0.31277600  1
  Cu  Cu9  1  0.43398200  0.21529800  0.68722400  1
  Cu  Cu10  1  0.43398200  0.71529800  0.81277600  1
  Cu  Cu11  1  0.93398200  0.28470200  0.18722400  1
  Cu  Cu12  1  0.74411400  0.44856100  0.29102300  1
  Cu  Cu13  1  0.24411400  0.55143900  0.70897700  1
  Cu  Cu14  1  0.24411400  0.05143900  0.79102300  1
  Cu  Cu15  1  0.74411400  0.94856100  0.20897700  1
  Cu  Cu16  1  0.92177200  0.54864600  0.52867700  1
  Cu  Cu17  1  0.42177200  0.45135400  0.47132300  1
  Cu  Cu18  1  0.42177200  0.95135400  0.02867700  1
  Cu  Cu19  1  0.92177200  0.04864600  0.97132300  1
  Cu  Cu20  1  0.39499800  0.49671800  0.27969600  1
  Cu  Cu21  1  0.89499800  0.50328200  0.72030400  1
  Cu  Cu22  1  0.89499800  0.00328200  0.77969600  1
  Cu  Cu23  1  0.39499800  0.99671800  0.22030400  1
  Cu  Cu24  1  0.16144100  0.57389000  0.06198300  1
  Cu  Cu25  1  0.66144100  0.42611000  0.93801700  1
  Cu  Cu26  1  0.66144100  0.92611000  0.56198300  1
  Cu  Cu27  1  0.16144100  0.07389000  0.43801700  1
  Cu  Cu28  1  0.47544600  0.28636000  0.04968800  1
  Cu  Cu29  1  0.97544600  0.71364000  0.95031200  1
  Cu  Cu30  1  0.97544600  0.21364000  0.54968800  1
  Cu  Cu31  1  0.47544600  0.78636000  0.45031200  1
  C  C32  1  0.93843100  0.71113100  0.37833800  1
  C  C33  1  0.43843100  0.28886900  0.62166200  1
  C  C34  1  0.43843100  0.78886900  0.87833800  1
  C  C35  1  0.93843100  0.21113100  0.12166200  1
  C  C36  1  0.87978900  0.40541900  0.29444700  1
  C  C37  1  0.37978900  0.59458100  0.70555300  1
  C  C38  1  0.37978900  0.09458100  0.79444700  1
  C  C39  1  0.87978900  0.90541900  0.20555300  1
  C  C40  1  0.97270900  0.44887100  0.48807700  1
  C  C41  1  0.47270900  0.55112900  0.51192300  1
  C  C42  1  0.47270900  0.05112900  0.98807700  1
  C  C43  1  0.97270900  0.94887100  0.01192300  1
  C  C44  1  0.51295300  0.50345800  0.23739600  1
  C  C45  1  0.01295300  0.49654200  0.76260400  1
  C  C46  1  0.01295300  0.99654200  0.73739600  1
  C  C47  1  0.51295300  0.00345800  0.26260400  1
  C  C48  1  0.23383200  0.55255600  0.12867900  1
  C  C49  1  0.73383200  0.44744400  0.87132100  1
  C  C50  1  0.73383200  0.94744400  0.62867900  1
  C  C51  1  0.23383200  0.05255600  0.37132100  1
  C  C52  1  0.53025600  0.40803200  0.04384500  1
  C  C53  1  0.03025600  0.59196800  0.95615500  1
  C  C54  1  0.03025600  0.09196800  0.54384500  1
  C  C55  1  0.53025600  0.90803200  0.45615500  1
