# generated using pymatgen
data_Cu2Ni2C7
_symmetry_space_group_name_H-M   'P 1'
_cell_length_a   3.90965800
_cell_length_b   8.00375700
_cell_length_c   11.29922300
_cell_angle_alpha   90.00000000
_cell_angle_beta   90.00000000
_cell_angle_gamma   90.00000000
_symmetry_Int_Tables_number   1
_chemical_formula_structural   Cu2Ni2C7
_chemical_formula_sum   'Cu4 Ni4 C14'
_cell_volume   353.57475036
_cell_formula_units_Z   2
loop_
 _symmetry_equiv_pos_site_id
 _symmetry_equiv_pos_as_xyz
  1  'x, y, z'
loop_
 _atom_site_type_symbol
 _atom_site_label
 _atom_site_symmetry_multiplicity
 _atom_site_fract_x
 _atom_site_fract_y
 _atom_site_fract_z
 _atom_site_occupancy
  Ni  Ni0  1  0.00000000  0.75000000  0.23107500  1
  Ni  Ni1  1  0.50000000  0.00000000  0.50000000  1
  Ni  Ni2  1  0.00000000  0.25000000  0.76892500  1
  Ni  Ni3  1  0.50000000  0.50000000  0.50000000  1
  Cu  Cu4  1  0.00000000  0.75000000  0.74788100  1
  Cu  Cu5  1  0.00000000  0.25000000  0.25211900  1
  Cu  Cu6  1  0.50000000  0.00000000  0.00000000  1
  Cu  Cu7  1  0.50000000  0.50000000  0.00000000  1
  C  C8  1  0.00000000  0.96540000  0.37257800  1
  C  C9  1  0.50000000  0.25000000  0.13103400  1
  C  C10  1  0.00000000  0.01268500  0.12133000  1
  C  C11  1  0.00000000  0.98731500  0.87867000  1
  C  C12  1  0.00000000  0.51268500  0.87867000  1
  C  C13  1  0.50000000  0.25000000  0.87508100  1
  C  C14  1  0.50000000  0.75000000  0.61403900  1
  C  C15  1  0.00000000  0.03460000  0.62742200  1
  C  C16  1  0.00000000  0.46540000  0.62742200  1
  C  C17  1  0.00000000  0.53460000  0.37257800  1
  C  C18  1  0.50000000  0.25000000  0.38596100  1
  C  C19  1  0.50000000  0.75000000  0.12491900  1
  C  C20  1  0.00000000  0.48731500  0.12133000  1
  C  C21  1  0.50000000  0.75000000  0.86896600  1
