# generated using pymatgen
data_Cu9Ni17C23
_symmetry_space_group_name_H-M   'P 1'
_cell_length_a   8.46501900
_cell_length_b   12.72419900
_cell_length_c   12.82815120
_cell_angle_alpha   60.30883191
_cell_angle_beta   90.00000000
_cell_angle_gamma   90.00000000
_symmetry_Int_Tables_number   1
_chemical_formula_structural   Cu9Ni17C23
_chemical_formula_sum   'Cu18 Ni34 C46'
_cell_volume   1200.31772598
_cell_formula_units_Z   2
loop_
 _symmetry_equiv_pos_site_id
 _symmetry_equiv_pos_as_xyz
  1  'x, y, z'
loop_
 _atom_site_type_symbol
 _atom_site_label
 _atom_site_symmetry_multiplicity
 _atom_site_fract_x
 _atom_site_fract_y
 _atom_site_fract_z
 _atom_site_occupancy
  C  C0  1  0.00000000  0.65448700  0.66451900  1
  C  C1  1  0.50000000  0.33360900  0.33250400  1
  C  C2  1  0.16308600  0.48028700  0.88261300  1
  C  C3  1  0.83691400  0.48028700  0.88261300  1
  C  C4  1  0.73482100  0.76040100  0.70898100  1
  C  C5  1  0.26517900  0.76040100  0.70898100  1
  C  C6  1  0.15318300  0.87510800  0.64022700  1
  C  C7  1  0.84681700  0.87510800  0.64022700  1
  C  C8  1  0.28071100  0.53151000  0.77003600  1
  C  C9  1  0.71928900  0.53151000  0.77003600  1
  C  C10  1  0.90601500  0.43117000  0.66830100  1
  C  C11  1  0.09398500  0.43117000  0.66830100  1
  C  C12  1  0.72300500  0.71906300  0.52059300  1
  C  C13  1  0.27699500  0.71906300  0.52059300  1
  C  C14  1  0.16434300  0.64524100  0.47773500  1
  C  C15  1  0.83565700  0.64524100  0.47773500  1
  C  C16  1  0.67101700  0.35931200  0.51636800  1
  C  C17  1  0.32898300  0.35931200  0.51636800  1
  C  C18  1  0.21033300  0.28984800  0.47375900  1
  C  C19  1  0.78966700  0.28984800  0.47375900  1
  C  C20  1  0.59345600  0.56210800  0.32801100  1
  C  C21  1  0.40654400  0.56210800  0.32801100  1
  C  C22  1  0.40624100  0.10642400  0.56109100  1
  C  C23  1  0.59375900  0.10642400  0.56109100  1
  C  C24  1  0.78919500  0.47440600  0.23466500  1
  C  C25  1  0.21080500  0.47440600  0.23466500  1
  C  C26  1  0.67107700  0.12229700  0.35925300  1
  C  C27  1  0.32892300  0.12229700  0.35925300  1
  C  C28  1  0.21132200  0.23525600  0.29038600  1
  C  C29  1  0.78867800  0.23525600  0.29038600  1
  C  C30  1  0.67057600  0.51821300  0.12282300  1
  C  C31  1  0.32942400  0.51821300  0.12282300  1
  C  C32  1  0.40624100  0.33024700  0.10768100  1
  C  C33  1  0.59375900  0.33024700  0.10768100  1
  C  C34  1  0.50000000  0.82858400  0.92424900  1
  C  C35  1  0.50000000  0.24658500  0.82957700  1
  C  C36  1  0.00000000  0.07477900  0.75388400  1
  C  C37  1  0.50000000  0.92371200  0.24733500  1
  C  C38  1  0.00000000  0.75402300  0.17158600  1
  C  C39  1  0.00000000  0.17042500  0.07498300  1
  C  C40  1  0.50000000  0.68718700  0.91365400  1
  C  C41  1  0.50000000  0.39867700  0.69096400  1
  C  C42  1  0.50000000  0.91327600  0.39811700  1
  C  C43  1  0.00000000  0.08492500  0.60327900  1
  C  C44  1  0.00000000  0.60312400  0.31179800  1
  C  C45  1  0.00000000  0.31169000  0.08540100  1
  Ni  Ni46  1  0.64558100  0.62618700  0.97403700  1
  Ni  Ni47  1  0.35441900  0.62618700  0.97403700  1
  Ni  Ni48  1  0.50000000  0.73129900  0.78349500  1
  Ni  Ni49  1  0.82441500  0.54250400  0.79578700  1
  Ni  Ni50  1  0.17558500  0.54250400  0.79578700  1
  Ni  Ni51  1  0.16152000  0.78635800  0.67019300  1
  Ni  Ni52  1  0.83848000  0.78635800  0.67019300  1
  Ni  Ni53  1  0.50000000  0.48534700  0.73545200  1
  Ni  Ni54  1  0.00000000  0.48211400  0.64693500  1
  Ni  Ni55  1  0.64588000  0.97319200  0.39947900  1
  Ni  Ni56  1  0.35412000  0.97319200  0.39947900  1
  Ni  Ni57  1  0.17433600  0.67800600  0.53404200  1
  Ni  Ni58  1  0.82566400  0.67800600  0.53404200  1
  Ni  Ni59  1  0.50000000  0.78172300  0.48365300  1
  Ni  Ni60  1  0.35390000  0.39914800  0.62995600  1
  Ni  Ni61  1  0.64610000  0.39914800  0.62995600  1
  Ni  Ni62  1  0.14578700  0.60323300  0.37345000  1
  Ni  Ni63  1  0.85421300  0.60323300  0.37345000  1
  Ni  Ni64  1  0.00000000  0.21521600  0.51799900  1
  Ni  Ni65  1  0.68943800  0.33420000  0.45576900  1
  Ni  Ni66  1  0.31056200  0.33420000  0.45576900  1
  Ni  Ni67  1  0.14540000  0.02313400  0.60228000  1
  Ni  Ni68  1  0.85460000  0.02313400  0.60228000  1
  Ni  Ni69  1  0.50000000  0.51077300  0.35568800  1
  Ni  Ni70  1  0.50000000  0.13799800  0.51112200  1
  Ni  Ni71  1  0.00000000  0.51498400  0.26999700  1
  Ni  Ni72  1  0.68807400  0.20913300  0.33363300  1
  Ni  Ni73  1  0.31192600  0.20913300  0.33363300  1
  Ni  Ni74  1  0.31308100  0.45845400  0.20924200  1
  Ni  Ni75  1  0.68691900  0.45845400  0.20924200  1
  Ni  Ni76  1  0.00000000  0.27045200  0.21373800  1
  Ni  Ni77  1  0.50000000  0.35111300  0.13744600  1
  Ni  Ni78  1  0.14560400  0.37366300  0.02346200  1
  Ni  Ni79  1  0.85439600  0.37366300  0.02346200  1
  Cu  Cu80  1  0.00000000  0.95858600  0.84279500  1
  Cu  Cu81  1  0.62947500  0.89625700  0.86957200  1
  Cu  Cu82  1  0.37052500  0.89625700  0.86957200  1
  Cu  Cu83  1  0.00000000  0.19830700  0.95822100  1
  Cu  Cu84  1  0.62967900  0.23447800  0.89641200  1
  Cu  Cu85  1  0.37032100  0.23447800  0.89641200  1
  Cu  Cu86  1  0.50000000  0.15738900  0.80124600  1
  Cu  Cu87  1  0.12957300  0.13107600  0.76489300  1
  Cu  Cu88  1  0.87042700  0.13107600  0.76489300  1
  Cu  Cu89  1  0.62953600  0.86861700  0.23472300  1
  Cu  Cu90  1  0.37046400  0.86861700  0.23472300  1
  Cu  Cu91  1  0.00000000  0.84396600  0.19891800  1
  Cu  Cu92  1  0.12967200  0.76478300  0.10565100  1
  Cu  Cu93  1  0.87032800  0.76478300  0.10565100  1
  Cu  Cu94  1  0.50000000  0.80182700  0.04052300  1
  Cu  Cu95  1  0.12968400  0.10416500  0.12921400  1
  Cu  Cu96  1  0.87031600  0.10416500  0.12921400  1
  Cu  Cu97  1  0.50000000  0.04096200  0.15858400  1
