# generated using pymatgen
data_Cu(Ni3C4)4
_symmetry_space_group_name_H-M   'P 1'
_cell_length_a   10.82985341
_cell_length_b   10.82985341
_cell_length_c   14.65194900
_cell_angle_alpha   90.00000000
_cell_angle_beta   90.00000000
_cell_angle_gamma   119.99999639
_symmetry_Int_Tables_number   1
_chemical_formula_structural   Cu(Ni3C4)4
_chemical_formula_sum   'Cu2 Ni24 C32'
_cell_volume   1488.23393108
_cell_formula_units_Z   2
loop_
 _symmetry_equiv_pos_site_id
 _symmetry_equiv_pos_as_xyz
  1  'x, y, z'
loop_
 _atom_site_type_symbol
 _atom_site_label
 _atom_site_symmetry_multiplicity
 _atom_site_fract_x
 _atom_site_fract_y
 _atom_site_fract_z
 _atom_site_occupancy
  Ni  Ni0  1  0.10140600  0.49109900  0.75075500  1
  Ni  Ni1  1  0.10174100  0.49054700  0.00000000  1
  Ni  Ni2  1  0.10140600  0.49109900  0.24924500  1
  Ni  Ni3  1  0.10140400  0.49244600  0.50000000  1
  Ni  Ni4  1  0.38969200  0.89859400  0.75075500  1
  Ni  Ni5  1  0.38880700  0.89825900  0.00000000  1
  Ni  Ni6  1  0.39104200  0.89859600  0.50000000  1
  Ni  Ni7  1  0.38969200  0.89859400  0.24924500  1
  Ni  Ni8  1  0.50890100  0.61030800  0.75075500  1
  Ni  Ni9  1  0.50945300  0.61119300  0.00000000  1
  Ni  Ni10  1  0.50890100  0.61030800  0.24924500  1
  Ni  Ni11  1  0.50755400  0.60895800  0.50000000  1
  Ni  Ni12  1  0.48711300  0.38514700  0.87555500  1
  Ni  Ni13  1  0.48711300  0.38514700  0.12444500  1
  Ni  Ni14  1  0.48552500  0.38427500  0.37504200  1
  Ni  Ni15  1  0.48552500  0.38427500  0.62495800  1
  Ni  Ni16  1  0.61485300  0.10196500  0.12444500  1
  Ni  Ni17  1  0.61485300  0.10196500  0.87555500  1
  Ni  Ni18  1  0.61572500  0.10125000  0.37504200  1
  Ni  Ni19  1  0.61572500  0.10125000  0.62495800  1
  Ni  Ni20  1  0.89803500  0.51288700  0.87555500  1
  Ni  Ni21  1  0.89803500  0.51288700  0.12444500  1
  Ni  Ni22  1  0.89875000  0.51447500  0.37504200  1
  Ni  Ni23  1  0.89875000  0.51447500  0.62495800  1
  Cu  Cu24  1  0.00000000  0.00000000  0.36624400  1
  Cu  Cu25  1  0.00000000  0.00000000  0.63375600  1
  C  C26  1  0.06622500  0.73038600  0.75112700  1
  C  C27  1  0.06652800  0.72929900  0.00000000  1
  C  C28  1  0.06622500  0.73038600  0.24887300  1
  C  C29  1  0.06619400  0.73307900  0.50000000  1
  C  C30  1  0.33333300  0.66666700  0.87472900  1
  C  C31  1  0.33333300  0.66666700  0.12527100  1
  C  C32  1  0.33333300  0.66666700  0.37529100  1
  C  C33  1  0.33333300  0.66666700  0.62470900  1
  C  C34  1  0.26961400  0.33584000  0.75112700  1
  C  C35  1  0.27070100  0.33722900  0.00000000  1
  C  C36  1  0.26961400  0.33584000  0.24887300  1
  C  C37  1  0.26692100  0.33311500  0.50000000  1
  C  C38  1  0.66416000  0.93377500  0.75112700  1
  C  C39  1  0.66277100  0.93347200  0.00000000  1
  C  C40  1  0.66416000  0.93377500  0.24887300  1
  C  C41  1  0.66688500  0.93380600  0.50000000  1
  C  C42  1  0.34076900  0.06617500  0.87535800  1
  C  C43  1  0.34076900  0.06617500  0.12464200  1
  C  C44  1  0.34234500  0.06565500  0.37495800  1
  C  C45  1  0.34234500  0.06565500  0.62504200  1
  C  C46  1  0.72540600  0.65923100  0.12464200  1
  C  C47  1  0.72540600  0.65923100  0.87535800  1
  C  C48  1  0.72331100  0.65765500  0.37495800  1
  C  C49  1  0.72331100  0.65765500  0.62504200  1
  C  C50  1  0.66666700  0.33333300  0.74934500  1
  C  C51  1  0.66666700  0.33333300  0.00000000  1
  C  C52  1  0.66666700  0.33333300  0.50000000  1
  C  C53  1  0.66666700  0.33333300  0.25065500  1
  C  C54  1  0.93382500  0.27459400  0.87535800  1
  C  C55  1  0.93434500  0.27668900  0.37495800  1
  C  C56  1  0.93434500  0.27668900  0.62504200  1
  C  C57  1  0.93382500  0.27459400  0.12464200  1
