# generated using pymatgen
data_Cu3Ni15C11
_symmetry_space_group_name_H-M   'P 1'
_cell_length_a   8.64915169
_cell_length_b   8.64915169
_cell_length_c   8.26594200
_cell_angle_alpha   90.00000000
_cell_angle_beta   90.00000000
_cell_angle_gamma   119.99999766
_symmetry_Int_Tables_number   1
_chemical_formula_structural   Cu3Ni15C11
_chemical_formula_sum   'Cu6 Ni30 C22'
_cell_volume   535.51300693
_cell_formula_units_Z   2
loop_
 _symmetry_equiv_pos_site_id
 _symmetry_equiv_pos_as_xyz
  1  'x, y, z'
loop_
 _atom_site_type_symbol
 _atom_site_label
 _atom_site_symmetry_multiplicity
 _atom_site_fract_x
 _atom_site_fract_y
 _atom_site_fract_z
 _atom_site_occupancy
  C  C0  1  0.01446000  0.35161800  0.42519900  1
  C  C1  1  0.66284100  0.01446000  0.92519900  1
  C  C2  1  0.35161800  0.33715900  0.92519900  1
  C  C3  1  0.64838200  0.66284100  0.42519900  1
  C  C4  1  0.33715900  0.98554000  0.42519900  1
  C  C5  1  0.98554000  0.64838200  0.92519900  1
  C  C6  1  0.98554000  0.64838200  0.57480100  1
  C  C7  1  0.33715900  0.98554000  0.07480100  1
  C  C8  1  0.64838200  0.66284100  0.07480100  1
  C  C9  1  0.35161800  0.33715900  0.57480100  1
  C  C10  1  0.66284100  0.01446000  0.57480100  1
  C  C11  1  0.01446000  0.35161800  0.07480100  1
  C  C12  1  0.66666700  0.33333300  0.44772300  1
  C  C13  1  0.33333300  0.66666700  0.55227700  1
  C  C14  1  0.66666700  0.33333300  0.05227700  1
  C  C15  1  0.33333300  0.66666700  0.94772300  1
  C  C16  1  0.00235100  0.23279700  0.75000000  1
  C  C17  1  0.76955500  0.00235100  0.25000000  1
  C  C18  1  0.23279700  0.23044500  0.25000000  1
  C  C19  1  0.76720300  0.76955500  0.75000000  1
  C  C20  1  0.23044500  0.99764900  0.75000000  1
  C  C21  1  0.99764900  0.76720300  0.25000000  1
  Ni  Ni22  1  0.41131900  0.84943100  0.55259800  1
  Ni  Ni23  1  0.84943100  0.43811200  0.05259800  1
  Ni  Ni24  1  0.43811200  0.58868100  0.55259800  1
  Ni  Ni25  1  0.56188800  0.41131900  0.05259800  1
  Ni  Ni26  1  0.58868100  0.15056900  0.05259800  1
  Ni  Ni27  1  0.15056900  0.56188800  0.55259800  1
  Ni  Ni28  1  0.81457700  0.69743200  0.25000000  1
  Ni  Ni29  1  0.11714500  0.81457700  0.75000000  1
  Ni  Ni30  1  0.69743200  0.88285500  0.75000000  1
  Ni  Ni31  1  0.18542300  0.30256800  0.75000000  1
  Ni  Ni32  1  0.30256800  0.11714500  0.25000000  1
  Ni  Ni33  1  0.88285500  0.18542300  0.25000000  1
  Ni  Ni34  1  0.84943100  0.43811200  0.44740200  1
  Ni  Ni35  1  0.41131900  0.84943100  0.94740200  1
  Ni  Ni36  1  0.43811200  0.58868100  0.94740200  1
  Ni  Ni37  1  0.56188800  0.41131900  0.44740200  1
  Ni  Ni38  1  0.58868100  0.15056900  0.44740200  1
  Ni  Ni39  1  0.15056900  0.56188800  0.94740200  1
  Ni  Ni40  1  0.19592300  0.28391600  0.10214200  1
  Ni  Ni41  1  0.91200700  0.19592300  0.60214200  1
  Ni  Ni42  1  0.28391600  0.08799300  0.60214200  1
  Ni  Ni43  1  0.71608400  0.91200700  0.10214200  1
  Ni  Ni44  1  0.08799300  0.80407700  0.10214200  1
  Ni  Ni45  1  0.80407700  0.71608400  0.60214200  1
  Ni  Ni46  1  0.80407700  0.71608400  0.89785800  1
  Ni  Ni47  1  0.08799300  0.80407700  0.39785800  1
  Ni  Ni48  1  0.71608400  0.91200700  0.39785800  1
  Ni  Ni49  1  0.28391600  0.08799300  0.89785800  1
  Ni  Ni50  1  0.91200700  0.19592300  0.89785800  1
  Ni  Ni51  1  0.19592300  0.28391600  0.39785800  1
  Cu  Cu52  1  0.88932500  0.50168800  0.75000000  1
  Cu  Cu53  1  0.38763800  0.88932500  0.25000000  1
  Cu  Cu54  1  0.50168800  0.61236200  0.25000000  1
  Cu  Cu55  1  0.49831200  0.38763800  0.75000000  1
  Cu  Cu56  1  0.61236200  0.11067500  0.75000000  1
  Cu  Cu57  1  0.11067500  0.49831200  0.25000000  1
