# generated using pymatgen
data_Cu2Ni7
_symmetry_space_group_name_H-M   'P 1'
_cell_length_a   10.36311286
_cell_length_b   10.36311286
_cell_length_c   10.36311286
_cell_angle_alpha   109.47122063
_cell_angle_beta   109.47122063
_cell_angle_gamma   109.47122063
_symmetry_Int_Tables_number   1
_chemical_formula_structural   Cu2Ni7
_chemical_formula_sum   'Cu6 Ni21'
_cell_volume   856.73950498
_cell_formula_units_Z   3
loop_
 _symmetry_equiv_pos_site_id
 _symmetry_equiv_pos_as_xyz
  1  'x, y, z'
loop_
 _atom_site_type_symbol
 _atom_site_label
 _atom_site_symmetry_multiplicity
 _atom_site_fract_x
 _atom_site_fract_y
 _atom_site_fract_z
 _atom_site_occupancy
  Ni  Ni0  1  0.34988800  0.65011200  0.00000000  1
  Ni  Ni1  1  0.34988800  0.34988800  0.69977600  1
  Ni  Ni2  1  0.66356900  0.66356900  0.66356900  1
  Ni  Ni3  1  0.65011200  0.34988800  0.00000000  1
  Ni  Ni4  1  0.00000000  0.66356900  0.00000000  1
  Ni  Ni5  1  0.34988800  0.69977600  0.34988800  1
  Ni  Ni6  1  0.00000000  0.00000000  0.33643100  1
  Ni  Ni7  1  0.00000000  0.34988800  0.65011200  1
  Ni  Ni8  1  0.00000000  0.00000000  0.66356900  1
  Ni  Ni9  1  0.00000000  0.65011200  0.34988800  1
  Ni  Ni10  1  0.00000000  0.33643100  0.00000000  1
  Ni  Ni11  1  0.65011200  0.30022400  0.65011200  1
  Ni  Ni12  1  0.65011200  0.00000000  0.34988800  1
  Ni  Ni13  1  0.33643100  0.00000000  0.00000000  1
  Ni  Ni14  1  0.66356900  0.00000000  0.00000000  1
  Ni  Ni15  1  0.00000000  0.00000000  0.00000000  1
  Ni  Ni16  1  0.34988800  0.00000000  0.65011200  1
  Ni  Ni17  1  0.65011200  0.65011200  0.30022400  1
  Ni  Ni18  1  0.30022400  0.65011200  0.65011200  1
  Ni  Ni19  1  0.69977600  0.34988800  0.34988800  1
  Ni  Ni20  1  0.33643100  0.33643100  0.33643100  1
  Cu  Cu21  1  0.68874800  0.68874800  0.00000000  1
  Cu  Cu22  1  0.31125200  0.31125200  0.00000000  1
  Cu  Cu23  1  0.00000000  0.31125200  0.31125200  1
  Cu  Cu24  1  0.31125200  0.00000000  0.31125200  1
  Cu  Cu25  1  0.00000000  0.68874800  0.68874800  1
  Cu  Cu26  1  0.68874800  0.00000000  0.68874800  1
