# generated using pymatgen
data_Cu3NiC6
_symmetry_space_group_name_H-M   'P 1'
_cell_length_a   23.49111552
_cell_length_b   23.49111552
_cell_length_c   23.49111481
_cell_angle_alpha   12.54969586
_cell_angle_beta   12.54969586
_cell_angle_gamma   12.54969524
_symmetry_Int_Tables_number   1
_chemical_formula_structural   Cu3NiC6
_chemical_formula_sum   'Cu15 Ni5 C30'
_cell_volume   532.15616146
_cell_formula_units_Z   5
loop_
 _symmetry_equiv_pos_site_id
 _symmetry_equiv_pos_as_xyz
  1  'x, y, z'
loop_
 _atom_site_type_symbol
 _atom_site_label
 _atom_site_symmetry_multiplicity
 _atom_site_fract_x
 _atom_site_fract_y
 _atom_site_fract_z
 _atom_site_occupancy
  Ni  Ni0  1  0.22941700  0.22941700  0.22941700  1
  Ni  Ni1  1  0.62952100  0.62952100  0.62952100  1
  Ni  Ni2  1  0.02954700  0.02954700  0.02954700  1
  Ni  Ni3  1  0.42963000  0.42963000  0.42963000  1
  Ni  Ni4  1  0.17046100  0.17046100  0.17046100  1
  Cu  Cu5  1  0.82894100  0.82894100  0.82894100  1
  Cu  Cu6  1  0.27116100  0.27116100  0.27116100  1
  Cu  Cu7  1  0.67111100  0.67111100  0.67111100  1
  Cu  Cu8  1  0.07103900  0.07103900  0.07103900  1
  Cu  Cu9  1  0.12854800  0.12854800  0.12854800  1
  Cu  Cu10  1  0.47132400  0.47132400  0.47132400  1
  Cu  Cu11  1  0.52983500  0.52983500  0.52983500  1
  Cu  Cu12  1  0.87003600  0.87003600  0.87003600  1
  Cu  Cu13  1  0.57097600  0.57097600  0.57097600  1
  Cu  Cu14  1  0.92923900  0.92923900  0.92923900  1
  Cu  Cu15  1  0.97111200  0.97111200  0.97111200  1
  Cu  Cu16  1  0.32929400  0.32929400  0.32929400  1
  Cu  Cu17  1  0.37103900  0.37103900  0.37103900  1
  Cu  Cu18  1  0.72939900  0.72939900  0.72939900  1
  Cu  Cu19  1  0.77082700  0.77082700  0.77082700  1
  C  C20  1  0.87234500  0.24083400  0.53693700  1
  C  C21  1  0.64281700  0.93508400  0.27247300  1
  C  C22  1  0.27247300  0.64281700  0.93508400  1
  C  C23  1  0.64390500  0.35151800  0.95330100  1
  C  C24  1  0.04255500  0.33554400  0.67242800  1
  C  C25  1  0.67242800  0.04255500  0.33554400  1
  C  C26  1  0.04482500  0.75095200  0.35311400  1
  C  C27  1  0.73641200  0.07319400  0.44107400  1
  C  C28  1  0.44107400  0.73641200  0.07319400  1
  C  C29  1  0.07319400  0.44107400  0.73641200  1
  C  C30  1  0.75048900  0.44772900  0.15055100  1
  C  C31  1  0.44772900  0.15055100  0.75048900  1
  C  C32  1  0.15412400  0.44851800  0.84868300  1
  C  C33  1  0.84868300  0.15412400  0.44851800  1
  C  C34  1  0.44851800  0.84868300  0.15412400  1
  C  C35  1  0.52758000  0.15960800  0.86238800  1
  C  C36  1  0.15960800  0.86238800  0.52758000  1
  C  C37  1  0.86238800  0.52758000  0.15960800  1
  C  C38  1  0.53693700  0.87234500  0.24083400  1
  C  C39  1  0.24083400  0.53693700  0.87234500  1
  C  C40  1  0.95235700  0.55309300  0.24311400  1
  C  C41  1  0.55309300  0.24311400  0.95235700  1
  C  C42  1  0.24311400  0.95235700  0.55309300  1
  C  C43  1  0.93508400  0.27247300  0.64281700  1
  C  C44  1  0.35151800  0.95330100  0.64390500  1
  C  C45  1  0.95330100  0.64390500  0.35151800  1
  C  C46  1  0.33554400  0.67242800  0.04255500  1
  C  C47  1  0.75095200  0.35311400  0.04482500  1
  C  C48  1  0.35311400  0.04482500  0.75095200  1
  C  C49  1  0.15055100  0.75048900  0.44772900  1
