# generated using pymatgen
data_Cu2NiC5
_symmetry_space_group_name_H-M   'P 1'
_cell_length_a   7.91388500
_cell_length_b   5.80321500
_cell_length_c   6.91951062
_cell_angle_alpha   68.05132659
_cell_angle_beta   90.00000000
_cell_angle_gamma   90.00000000
_symmetry_Int_Tables_number   1
_chemical_formula_structural   Cu2NiC5
_chemical_formula_sum   'Cu8 Ni4 C20'
_cell_volume   294.75190450
_cell_formula_units_Z   4
loop_
 _symmetry_equiv_pos_site_id
 _symmetry_equiv_pos_as_xyz
  1  'x, y, z'
loop_
 _atom_site_type_symbol
 _atom_site_label
 _atom_site_symmetry_multiplicity
 _atom_site_fract_x
 _atom_site_fract_y
 _atom_site_fract_z
 _atom_site_occupancy
  C  C0  1  0.98468800  0.90171600  0.51671200  1
  C  C1  1  0.17329600  0.91038200  0.44539800  1
  C  C2  1  0.47518100  0.61196000  0.46360200  1
  C  C3  1  0.65006900  0.59825300  0.57770400  1
  C  C4  1  0.52481900  0.11196000  0.46360200  1
  C  C5  1  0.34993100  0.09825300  0.57770400  1
  C  C6  1  0.01531200  0.40171600  0.51671200  1
  C  C7  1  0.82670400  0.41038200  0.44539800  1
  C  C8  1  0.08586900  0.26885600  0.24954200  1
  C  C9  1  0.92792000  0.61876300  0.91585800  1
  C  C10  1  0.19509600  0.51116500  0.12906300  1
  C  C11  1  0.43022500  0.89394900  0.09205600  1
  C  C12  1  0.57654500  0.22360600  0.77628000  1
  C  C13  1  0.68784000  0.97962400  0.85645800  1
  C  C14  1  0.31216000  0.47962400  0.85645800  1
  C  C15  1  0.42345500  0.72360600  0.77628000  1
  C  C16  1  0.56977500  0.39394900  0.09205600  1
  C  C17  1  0.91413100  0.76885600  0.24954200  1
  C  C18  1  0.80490400  0.01116500  0.12906300  1
  C  C19  1  0.07208000  0.11876300  0.91585800  1
  Ni  Ni20  1  0.64919200  0.28703000  0.21569800  1
  Ni  Ni21  1  0.16081600  0.23473000  0.81067200  1
  Ni  Ni22  1  0.83918400  0.73473000  0.81067200  1
  Ni  Ni23  1  0.35080800  0.78703000  0.21569800  1
  Cu  Cu24  1  0.08814900  0.00114900  0.49190500  1
  Cu  Cu25  1  0.56916800  0.49993500  0.53367200  1
  Cu  Cu26  1  0.43083200  0.99993500  0.53367200  1
  Cu  Cu27  1  0.91185100  0.50114900  0.49190500  1
  Cu  Cu28  1  0.08898900  0.42537500  0.12577600  1
  Cu  Cu29  1  0.60645500  0.07820700  0.90177300  1
  Cu  Cu30  1  0.39354500  0.57820700  0.90177300  1
  Cu  Cu31  1  0.91101100  0.92537500  0.12577600  1
