# generated using pymatgen
data_CuNiC12
_symmetry_space_group_name_H-M   'P 1'
_cell_length_a   8.94382500
_cell_length_b   9.03930100
_cell_length_c   19.74939100
_cell_angle_alpha   90.00000000
_cell_angle_beta   90.00000000
_cell_angle_gamma   90.00000000
_symmetry_Int_Tables_number   1
_chemical_formula_structural   CuNiC12
_chemical_formula_sum   'Cu8 Ni8 C96'
_cell_volume   1596.65780859
_cell_formula_units_Z   8
loop_
 _symmetry_equiv_pos_site_id
 _symmetry_equiv_pos_as_xyz
  1  'x, y, z'
loop_
 _atom_site_type_symbol
 _atom_site_label
 _atom_site_symmetry_multiplicity
 _atom_site_fract_x
 _atom_site_fract_y
 _atom_site_fract_z
 _atom_site_occupancy
  C  C0  1  0.81933100  0.48185800  0.08203200  1
  C  C1  1  0.68066900  0.51814200  0.58203200  1
  C  C2  1  0.68066900  0.98185800  0.08203200  1
  C  C3  1  0.81933100  0.01814200  0.58203200  1
  C  C4  1  0.18066900  0.98185800  0.41796800  1
  C  C5  1  0.31933100  0.01814200  0.91796800  1
  C  C6  1  0.18066900  0.51814200  0.91796800  1
  C  C7  1  0.31933100  0.48185800  0.41796800  1
  Ni  Ni8  1  0.50079800  0.14497600  0.27448900  1
  Ni  Ni9  1  0.00079800  0.35502400  0.72551100  1
  Ni  Ni10  1  0.50079800  0.35502400  0.77448900  1
  Ni  Ni11  1  0.99920200  0.85502400  0.77448900  1
  Ni  Ni12  1  0.00079800  0.14497600  0.22551100  1
  Ni  Ni13  1  0.99920200  0.64497600  0.27448900  1
  Ni  Ni14  1  0.49920200  0.64497600  0.22551100  1
  Ni  Ni15  1  0.49920200  0.85502400  0.72551100  1
  Cu  Cu16  1  0.17886600  0.62315100  0.58994200  1
  Cu  Cu17  1  0.67886600  0.87684900  0.41005800  1
  Cu  Cu18  1  0.67886600  0.62315100  0.91005800  1
  Cu  Cu19  1  0.32113400  0.37684900  0.08994200  1
  Cu  Cu20  1  0.32113400  0.12315100  0.58994200  1
  Cu  Cu21  1  0.17886600  0.87684900  0.08994200  1
  Cu  Cu22  1  0.82113400  0.37684900  0.41005800  1
  Cu  Cu23  1  0.82113400  0.12315100  0.91005800  1
  C  C24  1  0.44218100  0.70885400  0.02326100  1
  C  C25  1  0.75254400  0.39284900  0.25372500  1
  C  C26  1  0.74745600  0.89284900  0.25372500  1
  C  C27  1  0.44218100  0.79114600  0.52326100  1
  C  C28  1  0.94218100  0.79114600  0.97673900  1
  C  C29  1  0.24745600  0.60715100  0.74627500  1
  C  C30  1  0.24745600  0.89284900  0.24627500  1
  C  C31  1  0.55781900  0.29114600  0.97673900  1
  C  C32  1  0.75254400  0.10715100  0.75372500  1
  C  C33  1  0.05781900  0.29114600  0.52326100  1
  C  C34  1  0.55781900  0.20885400  0.47673900  1
  C  C35  1  0.74745600  0.60715100  0.75372500  1
  C  C36  1  0.94218100  0.70885400  0.47673900  1
  C  C37  1  0.25254400  0.39284900  0.24627500  1
  C  C38  1  0.25254400  0.10715100  0.74627500  1
  C  C39  1  0.05781900  0.20885400  0.02326100  1
  C  C40  1  0.85079100  0.19720700  0.70409100  1
  C  C41  1  0.90331300  0.87519800  0.46058100  1
  C  C42  1  0.64773000  0.98495400  0.30354400  1
  C  C43  1  0.40331300  0.62480200  0.53941900  1
  C  C44  1  0.54481300  0.19533400  0.55587800  1
  C  C45  1  0.35227000  0.01504600  0.69645600  1
  C  C46  1  0.59668700  0.37519800  0.46058100  1
  C  C47  1  0.40988500  0.16996400  0.44103800  1
  C  C48  1  0.98724700  0.85913700  0.69236500  1
  C  C49  1  0.45518700  0.69533400  0.94412200  1
  C  C50  1  0.30598800  0.88524200  0.54697500  1
  C  C51  1  0.48724700  0.64086300  0.30763500  1
  C  C52  1  0.14920900  0.69720700  0.79590900  1
  C  C53  1  0.59011500  0.83003600  0.55896200  1
  C  C54  1  0.35227000  0.48495400  0.19645600  1
  C  C55  1  0.65904000  0.29395600  0.30152600  1
  C  C56  1  0.34061900  0.99465200  0.29280500  1
  C  C57  1  0.48724700  0.85913700  0.80763500  1
  C  C58  1  0.35079100  0.30279300  0.29590900  1
  C  C59  1  0.19401200  0.11475800  0.04697500  1
  C  C60  1  0.40331300  0.87519800  0.03941900  1
  C  C61  1  0.80598800  0.61475800  0.45302500  1
  C  C62  1  0.85079100  0.30279300  0.20409100  1
  C  C63  1  0.51275300  0.35913700  0.69236500  1
  C  C64  1  0.09011500  0.83003600  0.94103800  1
  C  C65  1  0.90331300  0.62480200  0.96058100  1
  C  C66  1  0.15938100  0.49465200  0.29280500  1
  C  C67  1  0.65938100  0.00534800  0.70719500  1
  C  C68  1  0.64773000  0.51504600  0.80354400  1
  C  C69  1  0.85227000  0.48495400  0.30354400  1
  C  C70  1  0.84061900  0.50534800  0.70719500  1
  C  C71  1  0.40988500  0.33003600  0.94103800  1
  C  C72  1  0.95518700  0.80466600  0.05587800  1
  C  C73  1  0.65938100  0.49465200  0.20719500  1
  C  C74  1  0.35079100  0.19720700  0.79590900  1
  C  C75  1  0.14773000  0.51504600  0.69645600  1
  C  C76  1  0.90988500  0.33003600  0.55896200  1
  C  C77  1  0.15904000  0.29395600  0.19847400  1
  C  C78  1  0.69401200  0.38524200  0.95302500  1
  C  C79  1  0.04481300  0.19533400  0.94412200  1
  C  C80  1  0.09668700  0.37519800  0.03941900  1
  C  C81  1  0.54481300  0.30466600  0.05587800  1
  C  C82  1  0.14920900  0.80279300  0.29590900  1
  C  C83  1  0.01275300  0.14086300  0.30763500  1
  C  C84  1  0.69401200  0.11475800  0.45302500  1
  C  C85  1  0.15938100  0.00534800  0.79280500  1
  C  C86  1  0.19401200  0.38524200  0.54697500  1
  C  C87  1  0.14773000  0.98495400  0.19645600  1
  C  C88  1  0.59011500  0.66996400  0.05896200  1
  C  C89  1  0.65904000  0.20604400  0.80152600  1
  C  C90  1  0.84061900  0.99465200  0.20719500  1
  C  C91  1  0.80598800  0.88524200  0.95302500  1
  C  C92  1  0.30598800  0.61475800  0.04697500  1
  C  C93  1  0.84096000  0.79395600  0.30152600  1
  C  C94  1  0.34096000  0.79395600  0.19847400  1
  C  C95  1  0.09011500  0.66996400  0.44103800  1
  C  C96  1  0.15904000  0.20604400  0.69847400  1
  C  C97  1  0.04481300  0.30466600  0.44412200  1
  C  C98  1  0.34061900  0.50534800  0.79280500  1
  C  C99  1  0.64920900  0.69720700  0.70409100  1
  C  C100  1  0.09668700  0.12480200  0.53941900  1
  C  C101  1  0.51275300  0.14086300  0.19236500  1
  C  C102  1  0.34096000  0.70604400  0.69847400  1
  C  C103  1  0.85227000  0.01504600  0.80354400  1
  C  C104  1  0.95518700  0.69533400  0.55587800  1
  C  C105  1  0.64920900  0.80279300  0.20409100  1
  C  C106  1  0.90988500  0.16996400  0.05896200  1
  C  C107  1  0.98724700  0.64086300  0.19236500  1
  C  C108  1  0.45518700  0.80466600  0.44412200  1
  C  C109  1  0.59668700  0.12480200  0.96058100  1
  C  C110  1  0.84096000  0.70604400  0.80152600  1
  C  C111  1  0.01275300  0.35913700  0.80763500  1
