# generated using pymatgen
data_Cu12Ni3C4
_symmetry_space_group_name_H-M   'P 1'
_cell_length_a   10.59517800
_cell_length_b   10.59517800
_cell_length_c   10.59517800
_cell_angle_alpha   90.00000000
_cell_angle_beta   90.00000000
_cell_angle_gamma   90.00000000
_symmetry_Int_Tables_number   1
_chemical_formula_structural   Cu12Ni3C4
_chemical_formula_sum   'Cu48 Ni12 C16'
_cell_volume   1189.39133953
_cell_formula_units_Z   4
loop_
 _symmetry_equiv_pos_site_id
 _symmetry_equiv_pos_as_xyz
  1  'x, y, z'
loop_
 _atom_site_type_symbol
 _atom_site_label
 _atom_site_symmetry_multiplicity
 _atom_site_fract_x
 _atom_site_fract_y
 _atom_site_fract_z
 _atom_site_occupancy
  C  C0  1  0.43776000  0.93776000  0.56224000  1
  C  C1  1  0.56224000  0.43776000  0.93776000  1
  C  C2  1  0.69849600  0.80150400  0.19849600  1
  C  C3  1  0.93776000  0.56224000  0.43776000  1
  C  C4  1  0.30150400  0.30150400  0.30150400  1
  C  C5  1  0.19849600  0.69849600  0.80150400  1
  C  C6  1  0.80150400  0.19849600  0.69849600  1
  C  C7  1  0.06224000  0.06224000  0.06224000  1
  C  C8  1  0.41891000  0.08109000  0.91891000  1
  C  C9  1  0.91891000  0.41891000  0.08109000  1
  C  C10  1  0.08109000  0.91891000  0.41891000  1
  C  C11  1  0.58109000  0.58109000  0.58109000  1
  C  C12  1  0.16432900  0.33567100  0.66432900  1
  C  C13  1  0.33567100  0.66432900  0.16432900  1
  C  C14  1  0.83567100  0.83567100  0.83567100  1
  C  C15  1  0.66432900  0.16432900  0.33567100  1
  Ni  Ni16  1  0.37432600  0.97633800  0.23639900  1
  Ni  Ni17  1  0.87432600  0.52366200  0.76360100  1
  Ni  Ni18  1  0.62567400  0.47633800  0.26360100  1
  Ni  Ni19  1  0.52366200  0.76360100  0.87432600  1
  Ni  Ni20  1  0.26360100  0.62567400  0.47633800  1
  Ni  Ni21  1  0.76360100  0.87432600  0.52366200  1
  Ni  Ni22  1  0.97633800  0.23639900  0.37432600  1
  Ni  Ni23  1  0.23639900  0.37432600  0.97633800  1
  Ni  Ni24  1  0.47633800  0.26360100  0.62567400  1
  Ni  Ni25  1  0.12567400  0.02366200  0.73639900  1
  Ni  Ni26  1  0.73639900  0.12567400  0.02366200  1
  Ni  Ni27  1  0.02366200  0.73639900  0.12567400  1
  Cu  Cu28  1  0.33660900  0.00350500  0.10379600  1
  Cu  Cu29  1  0.83660900  0.49649500  0.89620400  1
  Cu  Cu30  1  0.66339100  0.50350500  0.39620400  1
  Cu  Cu31  1  0.49649500  0.89620400  0.83660900  1
  Cu  Cu32  1  0.39620400  0.66339100  0.50350500  1
  Cu  Cu33  1  0.89620400  0.83660900  0.49649500  1
  Cu  Cu34  1  0.00350500  0.10379600  0.33660900  1
  Cu  Cu35  1  0.10379600  0.33660900  0.00350500  1
  Cu  Cu36  1  0.50350500  0.39620400  0.66339100  1
  Cu  Cu37  1  0.99649500  0.60379600  0.16339100  1
  Cu  Cu38  1  0.60379600  0.16339100  0.99649500  1
  Cu  Cu39  1  0.16339100  0.99649500  0.60379600  1
  Cu  Cu40  1  0.26174200  0.99406200  0.31899800  1
  Cu  Cu41  1  0.76174200  0.50593800  0.68100200  1
  Cu  Cu42  1  0.73825800  0.49406200  0.18100200  1
  Cu  Cu43  1  0.50593800  0.68100200  0.76174200  1
  Cu  Cu44  1  0.18100200  0.73825800  0.49406200  1
  Cu  Cu45  1  0.68100200  0.76174200  0.50593800  1
  Cu  Cu46  1  0.25225300  0.57643900  0.34416100  1
  Cu  Cu47  1  0.99406200  0.31899800  0.26174200  1
  Cu  Cu48  1  0.49406200  0.18100200  0.73825800  1
  Cu  Cu49  1  0.00593800  0.81899800  0.23825800  1
  Cu  Cu50  1  0.81899800  0.23825800  0.00593800  1
  Cu  Cu51  1  0.23825800  0.00593800  0.81899800  1
  Cu  Cu52  1  0.42356100  0.84416100  0.24774700  1
  Cu  Cu53  1  0.92356100  0.65583900  0.75225300  1
  Cu  Cu54  1  0.57643900  0.34416100  0.25225300  1
  Cu  Cu55  1  0.65583900  0.75225300  0.92356100  1
  Cu  Cu56  1  0.02654600  0.93492300  0.78031100  1
  Cu  Cu57  1  0.78031100  0.02654600  0.93492300  1
  Cu  Cu58  1  0.93492300  0.78031100  0.02654600  1
  Cu  Cu59  1  0.56507700  0.21968900  0.52654600  1
  Cu  Cu60  1  0.28031100  0.47345400  0.06507700  1
  Cu  Cu61  1  0.06507700  0.28031100  0.47345400  1
  Cu  Cu62  1  0.71968900  0.97345400  0.43492300  1
  Cu  Cu63  1  0.21968900  0.52654600  0.56507700  1
  Cu  Cu64  1  0.43492300  0.71968900  0.97345400  1
  Cu  Cu65  1  0.52654600  0.56507700  0.21968900  1
  Cu  Cu66  1  0.97345400  0.43492300  0.71968900  1
  Cu  Cu67  1  0.47345400  0.06507700  0.28031100  1
  Cu  Cu68  1  0.07643900  0.15583900  0.74774700  1
  Cu  Cu69  1  0.74774700  0.07643900  0.15583900  1
  Cu  Cu70  1  0.15583900  0.74774700  0.07643900  1
  Cu  Cu71  1  0.34416100  0.25225300  0.57643900  1
  Cu  Cu72  1  0.24774700  0.42356100  0.84416100  1
  Cu  Cu73  1  0.84416100  0.24774700  0.42356100  1
  Cu  Cu74  1  0.75225300  0.92356100  0.65583900  1
  Cu  Cu75  1  0.31899800  0.26174200  0.99406200  1
