# generated using pymatgen
data_Cu2NiC10
_symmetry_space_group_name_H-M   'P 1'
_cell_length_a   5.42719600
_cell_length_b   9.82527900
_cell_length_c   14.92277853
_cell_angle_alpha   87.94883938
_cell_angle_beta   90.00000000
_cell_angle_gamma   90.00000000
_symmetry_Int_Tables_number   1
_chemical_formula_structural   Cu2NiC10
_chemical_formula_sum   'Cu8 Ni4 C40'
_cell_volume   795.22813137
_cell_formula_units_Z   4
loop_
 _symmetry_equiv_pos_site_id
 _symmetry_equiv_pos_as_xyz
  1  'x, y, z'
loop_
 _atom_site_type_symbol
 _atom_site_label
 _atom_site_symmetry_multiplicity
 _atom_site_fract_x
 _atom_site_fract_y
 _atom_site_fract_z
 _atom_site_occupancy
  C  C0  1  0.00000000  0.50000000  0.00000000  1
  C  C1  1  0.00117900  0.81984400  0.59756600  1
  C  C2  1  0.50000000  0.00000000  0.50000000  1
  C  C3  1  0.99882100  0.18015600  0.40243400  1
  C  C4  1  0.50117900  0.68015600  0.40243400  1
  C  C5  1  0.50000000  0.00000000  0.00000000  1
  C  C6  1  0.49882100  0.31984400  0.59756600  1
  C  C7  1  0.00000000  0.50000000  0.50000000  1
  C  C8  1  0.46787000  0.97140600  0.77881300  1
  C  C9  1  0.96787000  0.52859400  0.22118700  1
  C  C10  1  0.03213000  0.47140600  0.77881300  1
  C  C11  1  0.53213000  0.02859400  0.22118700  1
  Ni  Ni12  1  0.52437100  0.31539200  0.84955600  1
  Ni  Ni13  1  0.47562900  0.68460800  0.15044400  1
  Ni  Ni14  1  0.97562900  0.81539200  0.84955600  1
  Ni  Ni15  1  0.02437100  0.18460800  0.15044400  1
  Cu  Cu16  1  0.98490800  0.84044500  0.23940600  1
  Cu  Cu17  1  0.48596900  0.35083500  0.37059800  1
  Cu  Cu18  1  0.48490800  0.65955500  0.76059400  1
  Cu  Cu19  1  0.51403100  0.64916500  0.62940200  1
  Cu  Cu20  1  0.51509200  0.34044500  0.23940600  1
  Cu  Cu21  1  0.01403100  0.85083500  0.37059800  1
  Cu  Cu22  1  0.98596900  0.14916500  0.62940200  1
  Cu  Cu23  1  0.01509200  0.15955500  0.76059400  1
  C  C24  1  0.23140900  0.62475800  0.11354100  1
  C  C25  1  0.98833700  0.65900600  0.87032600  1
  C  C26  1  0.48833700  0.84099400  0.12967400  1
  C  C27  1  0.01772900  0.15411700  0.25445100  1
  C  C28  1  0.73190900  0.10092800  0.60620700  1
  C  C29  1  0.76859100  0.37524200  0.88645900  1
  C  C30  1  0.98227100  0.84588300  0.74554900  1
  C  C31  1  0.29738600  0.38810300  0.88998900  1
  C  C32  1  0.47371500  0.78724700  0.58450400  1
  C  C33  1  0.23190900  0.39907200  0.39379300  1
  C  C34  1  0.01166300  0.34099400  0.12967400  1
  C  C35  1  0.73140900  0.87524200  0.88645900  1
  C  C36  1  0.51166300  0.15900600  0.87032600  1
  C  C37  1  0.17242500  0.05215800  0.59354400  1
  C  C38  1  0.20261400  0.88810300  0.88998900  1
  C  C39  1  0.97371500  0.71275300  0.41549600  1
  C  C40  1  0.26859100  0.12475800  0.11354100  1
  C  C41  1  0.82757500  0.94784200  0.40645600  1
  C  C42  1  0.70261400  0.61189700  0.11001100  1
  C  C43  1  0.48227100  0.65411700  0.25445100  1
  C  C44  1  0.51772900  0.34588300  0.74554900  1
  C  C45  1  0.79738600  0.11189700  0.11001100  1
  C  C46  1  0.26809100  0.89907200  0.39379300  1
  C  C47  1  0.32757500  0.55215800  0.59354400  1
  C  C48  1  0.02628500  0.28724700  0.58450400  1
  C  C49  1  0.67242500  0.44784200  0.40645600  1
  C  C50  1  0.76809100  0.60092800  0.60620700  1
  C  C51  1  0.52628500  0.21275300  0.41549600  1
