# generated using pymatgen
data_Cu3(NiC6)2
_symmetry_space_group_name_H-M   'P 1'
_cell_length_a   9.40277600
_cell_length_b   9.49202800
_cell_length_c   13.07108300
_cell_angle_alpha   90.00000000
_cell_angle_beta   90.00000000
_cell_angle_gamma   90.00000000
_symmetry_Int_Tables_number   1
_chemical_formula_structural   Cu3(NiC6)2
_chemical_formula_sum   'Cu12 Ni8 C48'
_cell_volume   1166.61262810
_cell_formula_units_Z   4
loop_
 _symmetry_equiv_pos_site_id
 _symmetry_equiv_pos_as_xyz
  1  'x, y, z'
loop_
 _atom_site_type_symbol
 _atom_site_label
 _atom_site_symmetry_multiplicity
 _atom_site_fract_x
 _atom_site_fract_y
 _atom_site_fract_z
 _atom_site_occupancy
  Ni  Ni0  1  0.25035500  0.53459900  0.61844400  1
  Ni  Ni1  1  0.74964500  0.03459900  0.61844400  1
  Ni  Ni2  1  0.24964500  0.03459900  0.88155600  1
  Ni  Ni3  1  0.24964500  0.46540100  0.11844400  1
  Ni  Ni4  1  0.75035500  0.53459900  0.88155600  1
  Ni  Ni5  1  0.75035500  0.96540100  0.11844400  1
  Ni  Ni6  1  0.25035500  0.96540100  0.38155600  1
  Ni  Ni7  1  0.74964500  0.46540100  0.38155600  1
  Cu  Cu8  1  0.10455300  0.61638600  0.35510100  1
  Cu  Cu9  1  0.02734900  0.75000000  0.00000000  1
  Cu  Cu10  1  0.97265100  0.25000000  0.00000000  1
  Cu  Cu11  1  0.89544700  0.11638600  0.35510100  1
  Cu  Cu12  1  0.89544700  0.38361400  0.64489900  1
  Cu  Cu13  1  0.60455300  0.88361400  0.85510100  1
  Cu  Cu14  1  0.47265100  0.25000000  0.50000000  1
  Cu  Cu15  1  0.39544700  0.11638600  0.14489900  1
  Cu  Cu16  1  0.52734900  0.75000000  0.50000000  1
  Cu  Cu17  1  0.10455300  0.88361400  0.64489900  1
  Cu  Cu18  1  0.39544700  0.38361400  0.85510100  1
  Cu  Cu19  1  0.60455300  0.61638600  0.14489900  1
  C  C20  1  0.81996300  0.43049500  0.52397000  1
  C  C21  1  0.91523900  0.90671600  0.64166300  1
  C  C22  1  0.68003700  0.93049500  0.97603000  1
  C  C23  1  0.08291000  0.16131000  0.90841300  1
  C  C24  1  0.68003700  0.56950500  0.02397000  1
  C  C25  1  0.41709000  0.66131000  0.59158700  1
  C  C26  1  0.08476100  0.40671600  0.64166300  1
  C  C27  1  0.31996300  0.06950500  0.02397000  1
  C  C28  1  0.35967600  0.29935300  0.16924000  1
  C  C29  1  0.14032400  0.79935300  0.33076000  1
  C  C30  1  0.41523900  0.90671600  0.85833700  1
  C  C31  1  0.08291000  0.33869000  0.09158700  1
  C  C32  1  0.13648800  0.87243900  0.93238400  1
  C  C33  1  0.85967600  0.29935300  0.33076000  1
  C  C34  1  0.64032400  0.70064700  0.83076000  1
  C  C35  1  0.91709000  0.83869000  0.09158700  1
  C  C36  1  0.86351200  0.12756100  0.06761600  1
  C  C37  1  0.35967600  0.20064700  0.83076000  1
  C  C38  1  0.58476100  0.09328400  0.14166300  1
  C  C39  1  0.08476100  0.09328400  0.35833700  1
  C  C40  1  0.18003700  0.56950500  0.47603000  1
  C  C41  1  0.81908300  0.00432000  0.25955800  1
  C  C42  1  0.41709000  0.83869000  0.40841300  1
  C  C43  1  0.36351200  0.12756100  0.43238400  1
  C  C44  1  0.31996300  0.43049500  0.97603000  1
  C  C45  1  0.85967600  0.20064700  0.66924000  1
  C  C46  1  0.91523900  0.59328400  0.35833700  1
  C  C47  1  0.14032400  0.70064700  0.66924000  1
  C  C48  1  0.86351200  0.37243900  0.93238400  1
  C  C49  1  0.36351200  0.37243900  0.56761600  1
  C  C50  1  0.41523900  0.59328400  0.14166300  1
  C  C51  1  0.18091700  0.50432000  0.25955800  1
  C  C52  1  0.64032400  0.79935300  0.16924000  1
  C  C53  1  0.18091700  0.99568000  0.74044200  1
  C  C54  1  0.81996300  0.06950500  0.47603000  1
  C  C55  1  0.58476100  0.40671600  0.85833700  1
  C  C56  1  0.18003700  0.93049500  0.52397000  1
  C  C57  1  0.31908300  0.49568000  0.75955800  1
  C  C58  1  0.58291000  0.33869000  0.40841300  1
  C  C59  1  0.81908300  0.49568000  0.74044200  1
  C  C60  1  0.68091700  0.50432000  0.24044200  1
  C  C61  1  0.91709000  0.66131000  0.90841300  1
  C  C62  1  0.63648800  0.62756100  0.43238400  1
  C  C63  1  0.31908300  0.00432000  0.24044200  1
  C  C64  1  0.63648800  0.87243900  0.56761600  1
  C  C65  1  0.13648800  0.62756100  0.06761600  1
  C  C66  1  0.58291000  0.16131000  0.59158700  1
  C  C67  1  0.68091700  0.99568000  0.75955800  1
