# generated using pymatgen
data_Cu2NiC4
_symmetry_space_group_name_H-M   'P 1'
_cell_length_a   13.07569274
_cell_length_b   13.07569274
_cell_length_c   6.47657717
_cell_angle_alpha   80.87495995
_cell_angle_beta   80.87495995
_cell_angle_gamma   121.05974299
_symmetry_Int_Tables_number   1
_chemical_formula_structural   Cu2NiC4
_chemical_formula_sum   'Cu12 Ni6 C24'
_cell_volume   897.93121414
_cell_formula_units_Z   6
loop_
 _symmetry_equiv_pos_site_id
 _symmetry_equiv_pos_as_xyz
  1  'x, y, z'
loop_
 _atom_site_type_symbol
 _atom_site_label
 _atom_site_symmetry_multiplicity
 _atom_site_fract_x
 _atom_site_fract_y
 _atom_site_fract_z
 _atom_site_occupancy
  Ni  Ni0  1  0.87029300  0.12970700  0.75000000  1
  Ni  Ni1  1  0.12970700  0.87029300  0.25000000  1
  Ni  Ni2  1  0.04363900  0.95636100  0.75000000  1
  Ni  Ni3  1  0.95636100  0.04363900  0.25000000  1
  Ni  Ni4  1  0.21777300  0.78222700  0.75000000  1
  Ni  Ni5  1  0.78222700  0.21777300  0.25000000  1
  Cu  Cu6  1  0.58325700  0.83327200  0.61825700  1
  Cu  Cu7  1  0.16672800  0.41674300  0.88174300  1
  Cu  Cu8  1  0.41674300  0.16672800  0.38174300  1
  Cu  Cu9  1  0.83327200  0.58325700  0.11825700  1
  Cu  Cu10  1  0.75200200  0.67158000  0.61802000  1
  Cu  Cu11  1  0.32842000  0.24799800  0.88198000  1
  Cu  Cu12  1  0.24799800  0.32842000  0.38198000  1
  Cu  Cu13  1  0.67158000  0.75200200  0.11802000  1
  Cu  Cu14  1  0.88459200  0.48346600  0.64664300  1
  Cu  Cu15  1  0.51653400  0.11540800  0.85335700  1
  Cu  Cu16  1  0.11540800  0.51653400  0.35335700  1
  Cu  Cu17  1  0.48346600  0.88459200  0.14664300  1
  C  C18  1  0.75983500  0.02360800  0.48302200  1
  C  C19  1  0.97639200  0.24016500  0.01697800  1
  C  C20  1  0.24016500  0.97639200  0.51697800  1
  C  C21  1  0.02360800  0.75983500  0.98302200  1
  C  C22  1  0.93646900  0.84858400  0.48303400  1
  C  C23  1  0.15141600  0.06353100  0.01696600  1
  C  C24  1  0.06353100  0.15141600  0.51696600  1
  C  C25  1  0.84858400  0.93646900  0.98303400  1
  C  C26  1  0.08832800  0.65577600  0.49729900  1
  C  C27  1  0.34422400  0.91167200  0.00270100  1
  C  C28  1  0.91167200  0.34422400  0.50270100  1
  C  C29  1  0.65577600  0.08832800  0.99729900  1
  C  C30  1  0.74335400  0.50753800  0.50021200  1
  C  C31  1  0.49246200  0.25664600  0.99978800  1
  C  C32  1  0.25664600  0.49246200  0.49978800  1
  C  C33  1  0.50753800  0.74335400  0.00021200  1
  C  C34  1  0.59233000  0.67389000  0.50145000  1
  C  C35  1  0.32611000  0.40767000  0.99855000  1
  C  C36  1  0.40767000  0.32611000  0.49855000  1
  C  C37  1  0.67389000  0.59233000  0.00145000  1
  C  C38  1  0.41703100  0.81339000  0.51252400  1
  C  C39  1  0.18661000  0.58296900  0.98747600  1
  C  C40  1  0.58296900  0.18661000  0.48747600  1
  C  C41  1  0.81339000  0.41703100  0.01252400  1
