# generated using pymatgen
data_CuNi5C6
_symmetry_space_group_name_H-M   'P 1'
_cell_length_a   18.67853300
_cell_length_b   4.97986800
_cell_length_c   5.99087427
_cell_angle_alpha   58.04718053
_cell_angle_beta   90.00000000
_cell_angle_gamma   90.00000000
_symmetry_Int_Tables_number   1
_chemical_formula_structural   CuNi5C6
_chemical_formula_sum   'Cu4 Ni20 C24'
_cell_volume   472.81859275
_cell_formula_units_Z   4
loop_
 _symmetry_equiv_pos_site_id
 _symmetry_equiv_pos_as_xyz
  1  'x, y, z'
loop_
 _atom_site_type_symbol
 _atom_site_label
 _atom_site_symmetry_multiplicity
 _atom_site_fract_x
 _atom_site_fract_y
 _atom_site_fract_z
 _atom_site_occupancy
  Ni  Ni0  1  0.49882500  0.33335700  0.84113700  1
  Ni  Ni1  1  0.00117500  0.33335700  0.34113700  1
  Ni  Ni2  1  0.50117500  0.66664300  0.15886300  1
  Ni  Ni3  1  0.99882500  0.66664300  0.65886300  1
  Ni  Ni4  1  0.44129100  0.83328800  0.66303700  1
  Ni  Ni5  1  0.05870900  0.83328800  0.16303700  1
  Ni  Ni6  1  0.55870900  0.16671200  0.33696300  1
  Ni  Ni7  1  0.94129100  0.16671200  0.83696300  1
  Ni  Ni8  1  0.30717500  0.65266500  0.91466100  1
  Ni  Ni9  1  0.19282500  0.65266500  0.41466100  1
  Ni  Ni10  1  0.69282500  0.34733500  0.08533900  1
  Ni  Ni11  1  0.80717500  0.34733500  0.58533900  1
  Ni  Ni12  1  0.36838100  0.58295200  0.37982700  1
  Ni  Ni13  1  0.13161900  0.58295200  0.87982700  1
  Ni  Ni14  1  0.63161900  0.41704800  0.62017300  1
  Ni  Ni15  1  0.86838100  0.41704800  0.12017300  1
  Ni  Ni16  1  0.28059000  0.10138300  0.12178000  1
  Ni  Ni17  1  0.21941000  0.10138300  0.62178000  1
  Ni  Ni18  1  0.71941000  0.89861700  0.87822000  1
  Ni  Ni19  1  0.78059000  0.89861700  0.37822000  1
  Cu  Cu20  1  0.37863700  0.12423400  0.83205600  1
  Cu  Cu21  1  0.12136300  0.12423400  0.33205600  1
  Cu  Cu22  1  0.62136300  0.87576600  0.16794400  1
  Cu  Cu23  1  0.87863700  0.87576600  0.66794400  1
  C  C24  1  0.44848000  0.42446000  0.80951000  1
  C  C25  1  0.05152000  0.42446000  0.30951000  1
  C  C26  1  0.55152000  0.57554000  0.19049000  1
  C  C27  1  0.94848000  0.57554000  0.69049000  1
  C  C28  1  0.41783200  0.78490700  0.12704400  1
  C  C29  1  0.08216800  0.78490700  0.62704400  1
  C  C30  1  0.58216800  0.21509300  0.87295600  1
  C  C31  1  0.91783200  0.21509300  0.37295600  1
  C  C32  1  0.43455500  0.06424300  0.59260200  1
  C  C33  1  0.06544500  0.06424300  0.09260200  1
  C  C34  1  0.56544500  0.93575700  0.40739800  1
  C  C35  1  0.93455500  0.93575700  0.90739800  1
  C  C36  1  0.29636700  0.88357500  0.83238200  1
  C  C37  1  0.20363300  0.88357500  0.33238200  1
  C  C38  1  0.70363300  0.11642500  0.16761800  1
  C  C39  1  0.79636700  0.11642500  0.66761800  1
  C  C40  1  0.33344100  0.47042100  0.53469300  1
  C  C41  1  0.16655900  0.47042100  0.03469300  1
  C  C42  1  0.66655900  0.52957900  0.46530700  1
  C  C43  1  0.83344100  0.52957900  0.96530700  1
  C  C44  1  0.32252200  0.24533500  0.03938800  1
  C  C45  1  0.17747800  0.24533500  0.53938800  1
  C  C46  1  0.67747800  0.75466500  0.96061200  1
  C  C47  1  0.82252200  0.75466500  0.46061200  1
