# generated using pymatgen
data_Cu2Ni8C21
_symmetry_space_group_name_H-M   'P 1'
_cell_length_a   13.87188494
_cell_length_b   13.87188494
_cell_length_c   5.44265700
_cell_angle_alpha   90.00000000
_cell_angle_beta   90.00000000
_cell_angle_gamma   157.38269150
_symmetry_Int_Tables_number   1
_chemical_formula_structural   Cu2Ni8C21
_chemical_formula_sum   'Cu2 Ni8 C21'
_cell_volume   402.77459036
_cell_formula_units_Z   1
loop_
 _symmetry_equiv_pos_site_id
 _symmetry_equiv_pos_as_xyz
  1  'x, y, z'
loop_
 _atom_site_type_symbol
 _atom_site_label
 _atom_site_symmetry_multiplicity
 _atom_site_fract_x
 _atom_site_fract_y
 _atom_site_fract_z
 _atom_site_occupancy
  Ni  Ni0  1  0.40335600  0.59664400  0.00000000  1
  Ni  Ni1  1  0.30000900  0.69999100  0.50000000  1
  Ni  Ni2  1  0.20001900  0.79998100  0.00000000  1
  Ni  Ni3  1  0.89717100  0.10282900  0.50000000  1
  Ni  Ni4  1  0.10282900  0.89717100  0.50000000  1
  Ni  Ni5  1  0.79998100  0.20001900  0.00000000  1
  Ni  Ni6  1  0.69999100  0.30000900  0.50000000  1
  Ni  Ni7  1  0.59664400  0.40335600  0.00000000  1
  Cu  Cu8  1  0.00000000  0.00000000  0.00000000  1
  Cu  Cu9  1  0.50000000  0.50000000  0.50000000  1
  C  C10  1  0.10263500  0.40166300  0.24783600  1
  C  C11  1  0.00000000  0.50000000  0.74973100  1
  C  C12  1  0.59833700  0.89736500  0.75216400  1
  C  C13  1  0.50000000  0.00000000  0.25026900  1
  C  C14  1  0.28485900  0.18741200  0.73623800  1
  C  C15  1  0.40166400  0.10263500  0.75216400  1
  C  C16  1  0.18741200  0.28485900  0.26376200  1
  C  C17  1  0.28485900  0.18741200  0.26376200  1
  C  C18  1  0.89736500  0.59833700  0.24783600  1
  C  C19  1  0.81258800  0.71514100  0.26376200  1
  C  C20  1  0.50000000  0.50000000  0.00000000  1
  C  C21  1  0.10263500  0.40166300  0.75216400  1
  C  C22  1  0.18741200  0.28485900  0.73623800  1
  C  C23  1  0.81258800  0.71514100  0.73623800  1
  C  C24  1  0.71514100  0.81258800  0.73623800  1
  C  C25  1  0.71514100  0.81258800  0.26376200  1
  C  C26  1  0.59833700  0.89736500  0.24783600  1
  C  C27  1  0.50000000  0.00000000  0.74973100  1
  C  C28  1  0.40166400  0.10263500  0.24783600  1
  C  C29  1  0.00000000  0.50000000  0.25026900  1
  C  C30  1  0.89736500  0.59833700  0.75216400  1
