# generated using pymatgen
data_CuNiC8
_symmetry_space_group_name_H-M   'P 1'
_cell_length_a   5.49559000
_cell_length_b   5.49559000
_cell_length_c   23.64605500
_cell_angle_alpha   90.00000000
_cell_angle_beta   90.00000000
_cell_angle_gamma   90.00000000
_symmetry_Int_Tables_number   1
_chemical_formula_structural   CuNiC8
_chemical_formula_sum   'Cu6 Ni6 C48'
_cell_volume   714.14655349
_cell_formula_units_Z   6
loop_
 _symmetry_equiv_pos_site_id
 _symmetry_equiv_pos_as_xyz
  1  'x, y, z'
loop_
 _atom_site_type_symbol
 _atom_site_label
 _atom_site_symmetry_multiplicity
 _atom_site_fract_x
 _atom_site_fract_y
 _atom_site_fract_z
 _atom_site_occupancy
  Ni  Ni0  1  0.50000000  0.50000000  0.33368400  1
  Ni  Ni1  1  0.00000000  0.00000000  0.16661000  1
  Ni  Ni2  1  0.50000000  0.50000000  0.00000000  1
  Ni  Ni3  1  0.00000000  0.00000000  0.83339000  1
  Ni  Ni4  1  0.50000000  0.50000000  0.66631600  1
  Ni  Ni5  1  0.50000000  0.50000000  0.50000000  1
  Cu  Cu6  1  0.00000000  0.00000000  0.33338000  1
  Cu  Cu7  1  0.50000000  0.50000000  0.16674400  1
  Cu  Cu8  1  0.00000000  0.00000000  0.00000000  1
  Cu  Cu9  1  0.50000000  0.50000000  0.83325600  1
  Cu  Cu10  1  0.00000000  0.00000000  0.50000000  1
  Cu  Cu11  1  0.00000000  0.00000000  0.66662000  1
  C  C12  1  0.00000000  0.50000000  0.24993500  1
  C  C13  1  0.50000000  0.00000000  0.08325400  1
  C  C14  1  0.50000000  0.00000000  0.24993500  1
  C  C15  1  0.00000000  0.50000000  0.08325400  1
  C  C16  1  0.50000000  0.00000000  0.75006500  1
  C  C17  1  0.50000000  0.00000000  0.91674600  1
  C  C18  1  0.00000000  0.50000000  0.58330000  1
  C  C19  1  0.00000000  0.50000000  0.75006500  1
  C  C20  1  0.00000000  0.50000000  0.91674600  1
  C  C21  1  0.50000000  0.00000000  0.41670000  1
  C  C22  1  0.50000000  0.00000000  0.58330000  1
  C  C23  1  0.00000000  0.50000000  0.41670000  1
  C  C24  1  0.00000000  0.50000000  0.33336200  1
  C  C25  1  0.28397800  0.71602200  0.24805000  1
  C  C26  1  0.78409200  0.78409200  0.25185000  1
  C  C27  1  0.50000000  0.00000000  0.16663900  1
  C  C28  1  0.50000000  0.00000000  0.33336200  1
  C  C29  1  0.78400200  0.21599800  0.08104200  1
  C  C30  1  0.21590800  0.21590800  0.25185000  1
  C  C31  1  0.28469800  0.28469800  0.08551500  1
  C  C32  1  0.71602200  0.28397800  0.24805000  1
  C  C33  1  0.00000000  0.50000000  0.00000000  1
  C  C34  1  0.00000000  0.50000000  0.16663900  1
  C  C35  1  0.28469800  0.71530200  0.91448500  1
  C  C36  1  0.71530200  0.71530200  0.08551500  1
  C  C37  1  0.78400200  0.78400200  0.91895800  1
  C  C38  1  0.21599800  0.78400200  0.08104200  1
  C  C39  1  0.50000000  0.00000000  0.83336100  1
  C  C40  1  0.50000000  0.00000000  0.00000000  1
  C  C41  1  0.78409200  0.21590800  0.74815000  1
  C  C42  1  0.21599800  0.21599800  0.91895800  1
  C  C43  1  0.28397800  0.28397800  0.75195000  1
  C  C44  1  0.71530200  0.28469800  0.91448500  1
  C  C45  1  0.00000000  0.50000000  0.66663800  1
  C  C46  1  0.00000000  0.50000000  0.83336100  1
  C  C47  1  0.27320500  0.72679500  0.58291200  1
  C  C48  1  0.71602200  0.71602200  0.75195000  1
  C  C49  1  0.78866500  0.78866500  0.58365700  1
  C  C50  1  0.21590800  0.78409200  0.74815000  1
  C  C51  1  0.50000000  0.00000000  0.50000000  1
  C  C52  1  0.50000000  0.00000000  0.66663800  1
  C  C53  1  0.78866500  0.21133500  0.41634300  1
  C  C54  1  0.21133500  0.21133500  0.58365700  1
  C  C55  1  0.27320500  0.27320500  0.41708800  1
  C  C56  1  0.72679500  0.27320500  0.58291200  1
  C  C57  1  0.00000000  0.50000000  0.50000000  1
  C  C58  1  0.72679500  0.72679500  0.41708800  1
  C  C59  1  0.21133500  0.78866500  0.41634300  1
