# generated using pymatgen
data_Cu2NiC7
_symmetry_space_group_name_H-M   'P 1'
_cell_length_a   5.64955501
_cell_length_b   9.72042796
_cell_length_c   9.65186881
_cell_angle_alpha   120.20393816
_cell_angle_beta   89.99929390
_cell_angle_gamma   90.00647163
_symmetry_Int_Tables_number   1
_chemical_formula_structural   Cu2NiC7
_chemical_formula_sum   'Cu8 Ni4 C28'
_cell_volume   458.08440936
_cell_formula_units_Z   4
loop_
 _symmetry_equiv_pos_site_id
 _symmetry_equiv_pos_as_xyz
  1  'x, y, z'
loop_
 _atom_site_type_symbol
 _atom_site_label
 _atom_site_symmetry_multiplicity
 _atom_site_fract_x
 _atom_site_fract_y
 _atom_site_fract_z
 _atom_site_occupancy
  C  C0  1  0.50000100  0.33383600  0.87093000  1
  C  C1  1  0.50000300  0.83497700  0.37157600  1
  C  C2  1  0.00000000  0.61891100  0.08295500  1
  C  C3  1  0.99999700  0.12055100  0.58504700  1
  C  C4  1  0.49999500  0.55260200  0.53281800  1
  C  C5  1  0.99999300  0.28483500  0.30213900  1
  C  C6  1  0.49993600  0.05162800  0.03451700  1
  C  C7  1  0.00001900  0.78399800  0.80497000  1
  Ni  Ni8  1  0.50004500  0.72337200  0.93190800  1
  Ni  Ni9  1  0.49999800  0.22361700  0.43301800  1
  Ni  Ni10  1  0.99997400  0.18499400  0.97365500  1
  Ni  Ni11  1  0.00000100  0.68348300  0.47511200  1
  Cu  Cu12  1  0.63940600  0.42757500  0.23376900  1
  Cu  Cu13  1  0.63970200  0.92977700  0.73558700  1
  Cu  Cu14  1  0.36058700  0.42757100  0.23376800  1
  Cu  Cu15  1  0.36028500  0.92977900  0.73557600  1
  Cu  Cu16  1  0.86108600  0.48322300  0.67872400  1
  Cu  Cu17  1  0.86031200  0.98514500  0.17905000  1
  Cu  Cu18  1  0.13891300  0.48322500  0.67872600  1
  Cu  Cu19  1  0.13967200  0.98515600  0.17906500  1
  C  C20  1  0.49999500  0.58191900  0.75931200  1
  C  C21  1  0.50001000  0.08127700  0.25887300  1
  C  C22  1  0.99999500  0.51087300  0.33424000  1
  C  C23  1  0.99998700  0.01292700  0.83189000  1
  C  C24  1  0.49998500  0.66443000  0.05209000  1
  C  C25  1  0.49998600  0.16114900  0.55055900  1
  C  C26  1  0.00001500  0.30308500  0.91220000  1
  C  C27  1  0.00001600  0.80025300  0.41227900  1
  C  C28  1  0.50000500  0.49606300  0.28604000  1
  C  C29  1  0.50000400  0.99849700  0.78582100  1
  C  C30  1  0.00000600  0.53292600  0.74850800  1
  C  C31  1  0.99999400  0.03673500  0.24718300  1
  C  C32  1  0.71967700  0.83731300  0.96055300  1
  C  C33  1  0.72034700  0.33630800  0.46331700  1
  C  C34  1  0.28048300  0.83735700  0.96054200  1
  C  C35  1  0.27966900  0.33629800  0.46331700  1
  C  C36  1  0.77909800  0.21619500  0.08824500  1
  C  C37  1  0.78043000  0.71403700  0.58997900  1
  C  C38  1  0.22080000  0.21618100  0.08827700  1
  C  C39  1  0.21957100  0.71404000  0.58998400  1
