# generated using pymatgen
data_Cu6Ni2C23
_symmetry_space_group_name_H-M   'P 1'
_cell_length_a   15.30936900
_cell_length_b   11.03537000
_cell_length_c   12.61107006
_cell_angle_alpha   89.63918750
_cell_angle_beta   90.00000000
_cell_angle_gamma   90.00000000
_symmetry_Int_Tables_number   1
_chemical_formula_structural   Cu6Ni2C23
_chemical_formula_sum   'Cu24 Ni8 C92'
_cell_volume   2130.52932745
_cell_formula_units_Z   4
loop_
 _symmetry_equiv_pos_site_id
 _symmetry_equiv_pos_as_xyz
  1  'x, y, z'
loop_
 _atom_site_type_symbol
 _atom_site_label
 _atom_site_symmetry_multiplicity
 _atom_site_fract_x
 _atom_site_fract_y
 _atom_site_fract_z
 _atom_site_occupancy
  C  C0  1  0.31069100  0.64912900  0.57210500  1
  C  C1  1  0.81069100  0.35087100  0.92789500  1
  C  C2  1  0.68930900  0.35087100  0.42789500  1
  C  C3  1  0.18930900  0.64912900  0.07210500  1
  C  C4  1  0.10772900  0.75831100  0.57108600  1
  C  C5  1  0.60772900  0.24168900  0.92891400  1
  C  C6  1  0.89227100  0.24168900  0.42891400  1
  C  C7  1  0.39227100  0.75831100  0.07108600  1
  C  C8  1  0.28166900  0.94784900  0.55107800  1
  C  C9  1  0.78166900  0.05215100  0.94892200  1
  C  C10  1  0.71833100  0.05215100  0.44892200  1
  C  C11  1  0.21833100  0.94784900  0.05107800  1
  C  C12  1  0.24405500  0.21069200  0.75386500  1
  C  C13  1  0.74405500  0.78930800  0.74613500  1
  C  C14  1  0.75594500  0.78930800  0.24613500  1
  C  C15  1  0.25594500  0.21069200  0.25386500  1
  C  C16  1  0.23683900  0.22387200  0.89215600  1
  C  C17  1  0.73683900  0.77612800  0.60784400  1
  C  C18  1  0.76316100  0.77612800  0.10784400  1
  C  C19  1  0.26316100  0.22387200  0.39215600  1
  C  C20  1  0.03660800  0.39385300  0.87819700  1
  C  C21  1  0.53660800  0.60614700  0.62180300  1
  C  C22  1  0.96339200  0.60614700  0.12180300  1
  C  C23  1  0.46339200  0.39385300  0.37819700  1
  C  C24  1  0.12519800  0.36166400  0.96176600  1
  C  C25  1  0.62519800  0.63833600  0.53823400  1
  C  C26  1  0.87480200  0.63833600  0.03823400  1
  C  C27  1  0.37480200  0.36166400  0.46176600  1
  C  C28  1  0.14076500  0.45165500  0.39202500  1
  C  C29  1  0.64076500  0.54834500  0.10797500  1
  C  C30  1  0.85923500  0.54834500  0.60797500  1
  C  C31  1  0.35923500  0.45165500  0.89202500  1
  C  C32  1  0.07785000  0.03116800  0.35125600  1
  C  C33  1  0.57785000  0.96883200  0.14874400  1
  C  C34  1  0.92215000  0.96883200  0.64874400  1
  C  C35  1  0.42215000  0.03116800  0.85125600  1
  C  C36  1  0.48051200  0.80669400  0.36687300  1
  C  C37  1  0.98051200  0.19330600  0.13312700  1
  C  C38  1  0.51948800  0.19330600  0.63312700  1
  C  C39  1  0.01948800  0.80669400  0.86687300  1
  C  C40  1  0.09306400  0.19412900  0.66017100  1
  C  C41  1  0.59306400  0.80587100  0.83982900  1
  C  C42  1  0.90693600  0.80587100  0.33982900  1
  C  C43  1  0.40693600  0.19412900  0.16017100  1
  C  C44  1  0.16087600  0.52613500  0.44506500  1
  C  C45  1  0.66087600  0.47386500  0.05493500  1
  C  C46  1  0.83912400  0.47386500  0.55493500  1
  C  C47  1  0.33912400  0.52613500  0.94506500  1
  C  C48  1  0.11301800  0.97667300  0.41134600  1
  C  C49  1  0.61301800  0.02332700  0.08865400  1
  C  C50  1  0.88698200  0.02332700  0.58865400  1
  C  C51  1  0.38698200  0.97667300  0.91134600  1
  C  C52  1  0.42516500  0.80632300  0.42274600  1
  C  C53  1  0.92516500  0.19367700  0.07725400  1
  C  C54  1  0.57483500  0.19367700  0.57725400  1
  C  C55  1  0.07483500  0.80632300  0.92274600  1
  C  C56  1  0.13587900  0.30045800  0.80836100  1
  C  C57  1  0.63587900  0.69954200  0.69163900  1
  C  C58  1  0.86412100  0.69954200  0.19163900  1
  C  C59  1  0.36412100  0.30045800  0.30836100  1
  C  C60  1  0.08427900  0.31315600  0.68381300  1
  C  C61  1  0.58427900  0.68684400  0.81618700  1
  C  C62  1  0.91572100  0.68684400  0.31618700  1
  C  C63  1  0.41572100  0.31315600  0.18381300  1
  Ni  Ni64  1  0.21057800  0.24092200  0.81907700  1
  Ni  Ni65  1  0.71057800  0.75907800  0.68092300  1
  Ni  Ni66  1  0.78942200  0.75907800  0.18092300  1
  Ni  Ni67  1  0.28942200  0.24092200  0.31907700  1
  Ni  Ni68  1  0.09710600  0.35599000  0.88845800  1
  Ni  Ni69  1  0.59710600  0.64401000  0.61154200  1
  Ni  Ni70  1  0.90289400  0.64401000  0.11154200  1
  Ni  Ni71  1  0.40289400  0.35599000  0.38845800  1
  Cu  Cu72  1  0.15251200  0.94510700  0.67802600  1
  Cu  Cu73  1  0.65251200  0.05489300  0.82197400  1
  Cu  Cu74  1  0.84748800  0.05489300  0.32197400  1
  Cu  Cu75  1  0.34748800  0.94510700  0.17802600  1
  Cu  Cu76  1  0.37150200  0.81802700  0.68351800  1
  Cu  Cu77  1  0.87150200  0.18197300  0.81648200  1
  Cu  Cu78  1  0.62849800  0.18197300  0.31648200  1
  Cu  Cu79  1  0.12849800  0.81802700  0.18351800  1
  Cu  Cu80  1  0.19074300  0.61799900  0.70325900  1
  Cu  Cu81  1  0.69074300  0.38200100  0.79674100  1
  Cu  Cu82  1  0.80925700  0.38200100  0.29674100  1
  Cu  Cu83  1  0.30925700  0.61799900  0.20325900  1
  Cu  Cu84  1  0.40279200  0.49499100  0.64506000  1
  Cu  Cu85  1  0.90279200  0.50500900  0.85494000  1
  Cu  Cu86  1  0.59720800  0.50500900  0.35494000  1
  Cu  Cu87  1  0.09720800  0.49499100  0.14506000  1
  Cu  Cu88  1  0.96457900  0.73473000  0.65004600  1
  Cu  Cu89  1  0.46457900  0.26527000  0.84995400  1
  Cu  Cu90  1  0.03542100  0.26527000  0.34995400  1
  Cu  Cu91  1  0.53542100  0.73473000  0.15004600  1
  Cu  Cu92  1  0.32910600  0.15158500  0.60405300  1
  Cu  Cu93  1  0.82910600  0.84841500  0.89594700  1
  Cu  Cu94  1  0.67089400  0.84841500  0.39594700  1
  Cu  Cu95  1  0.17089400  0.15158500  0.10405300  1
  C  C96  1  0.23556700  0.77507800  0.51613600  1
  C  C97  1  0.73556700  0.22492200  0.98386400  1
  C  C98  1  0.76443300  0.22492200  0.48386400  1
  C  C99  1  0.26443300  0.77507800  0.01613600  1
  C  C100  1  0.24159100  0.52544900  0.47351900  1
  C  C101  1  0.74159100  0.47455100  0.02648100  1
  C  C102  1  0.75840900  0.47455100  0.52648100  1
  C  C103  1  0.25840900  0.52544900  0.97351900  1
  C  C104  1  0.10158900  0.60023100  0.47067000  1
  C  C105  1  0.60158900  0.39976900  0.02933000  1
  C  C106  1  0.89841100  0.39976900  0.52933000  1
  C  C107  1  0.39841100  0.60023100  0.97067000  1
  C  C108  1  0.07212500  0.88532500  0.44898800  1
  C  C109  1  0.57212500  0.11467500  0.05101200  1
  C  C110  1  0.92787500  0.11467500  0.55101200  1
  C  C111  1  0.42787500  0.88532500  0.94898800  1
  C  C112  1  0.18904800  0.01527900  0.43544500  1
  C  C113  1  0.68904800  0.98472100  0.06455500  1
  C  C114  1  0.81095200  0.98472100  0.56455500  1
  C  C115  1  0.31095200  0.01527900  0.93544500  1
  C  C116  1  0.38962100  0.90676600  0.44407900  1
  C  C117  1  0.88962100  0.09323400  0.05592100  1
  C  C118  1  0.61037900  0.09323400  0.55592100  1
  C  C119  1  0.11037900  0.90676600  0.94407900  1
  C  C120  1  0.40439200  0.70032900  0.45910600  1
  C  C121  1  0.90439200  0.29967100  0.04089400  1
  C  C122  1  0.59560800  0.29967100  0.54089400  1
  C  C123  1  0.09560800  0.70032900  0.95910600  1
