# generated using pymatgen
data_Cu10Ni
_symmetry_space_group_name_H-M   'P 1'
_cell_length_a   7.24728200
_cell_length_b   11.59992624
_cell_length_c   11.93873866
_cell_angle_alpha   67.72964553
_cell_angle_beta   83.56252103
_cell_angle_gamma   84.05126939
_symmetry_Int_Tables_number   1
_chemical_formula_structural   Cu10Ni
_chemical_formula_sum   'Cu40 Ni4'
_cell_volume   920.89863100
_cell_formula_units_Z   4
loop_
 _symmetry_equiv_pos_site_id
 _symmetry_equiv_pos_as_xyz
  1  'x, y, z'
loop_
 _atom_site_type_symbol
 _atom_site_label
 _atom_site_symmetry_multiplicity
 _atom_site_fract_x
 _atom_site_fract_y
 _atom_site_fract_z
 _atom_site_occupancy
  Ni  Ni0  1  0.22369000  0.82463000  0.25474200  1
  Ni  Ni1  1  0.77631000  0.17537000  0.74525800  1
  Ni  Ni2  1  0.22993800  0.11906700  0.96644300  1
  Ni  Ni3  1  0.77006200  0.88093300  0.03355700  1
  Cu  Cu4  1  0.75009000  0.09538700  0.95469900  1
  Cu  Cu5  1  0.52641600  0.09529000  0.23133800  1
  Cu  Cu6  1  0.51422300  0.57339800  0.20947600  1
  Cu  Cu7  1  0.52352600  0.36156600  0.98649600  1
  Cu  Cu8  1  0.17471900  0.12579800  0.50735100  1
  Cu  Cu9  1  0.48146000  0.14627800  0.51155000  1
  Cu  Cu10  1  0.05790900  0.54658800  0.19103100  1
  Cu  Cu11  1  0.49633300  0.37352400  0.25062000  1
  Cu  Cu12  1  0.25054500  0.20225100  0.75567900  1
  Cu  Cu13  1  0.50487200  0.34955000  0.44250900  1
  Cu  Cu14  1  0.50366700  0.62647600  0.74938000  1
  Cu  Cu15  1  0.50610600  0.11238300  0.70613900  1
  Cu  Cu16  1  0.16969600  0.63088200  0.00025300  1
  Cu  Cu17  1  0.05776900  0.31847400  0.41754900  1
  Cu  Cu18  1  0.49155800  0.15945000  0.03152000  1
  Cu  Cu19  1  0.50844200  0.84055000  0.96848000  1
  Cu  Cu20  1  0.23637800  0.61047100  0.29488000  1
  Cu  Cu21  1  0.93599700  0.17020600  0.03728400  1
  Cu  Cu22  1  0.48577700  0.42660200  0.79052400  1
  Cu  Cu23  1  0.22365100  0.43578600  0.47689400  1
  Cu  Cu24  1  0.07014800  0.10016800  0.69867100  1
  Cu  Cu25  1  0.49389400  0.88761700  0.29386100  1
  Cu  Cu26  1  0.82528100  0.87420200  0.49264900  1
  Cu  Cu27  1  0.51854000  0.85372200  0.48845000  1
  Cu  Cu28  1  0.92985200  0.89983200  0.30132900  1
  Cu  Cu29  1  0.16500800  0.89532400  0.76437600  1
  Cu  Cu30  1  0.94209100  0.45341200  0.80896900  1
  Cu  Cu31  1  0.18864700  0.35507000  0.23217100  1
  Cu  Cu32  1  0.94223100  0.68152600  0.58245100  1
  Cu  Cu33  1  0.47358400  0.90471000  0.76866200  1
  Cu  Cu34  1  0.83030400  0.36911800  0.99974700  1
  Cu  Cu35  1  0.47647400  0.63843400  0.01350400  1
  Cu  Cu36  1  0.74945500  0.79774900  0.24432100  1
  Cu  Cu37  1  0.24991000  0.90461300  0.04530100  1
  Cu  Cu38  1  0.06400300  0.82979400  0.96271600  1
  Cu  Cu39  1  0.81135300  0.64493000  0.76782900  1
  Cu  Cu40  1  0.77634900  0.56421400  0.52310600  1
  Cu  Cu41  1  0.49512800  0.65045000  0.55749100  1
  Cu  Cu42  1  0.83499200  0.10467600  0.23562400  1
  Cu  Cu43  1  0.76362200  0.38952900  0.70512000  1
