# generated using pymatgen
data_Cu8(NiC4)5
_symmetry_space_group_name_H-M   'P 1'
_cell_length_a   8.57330581
_cell_length_b   8.78896743
_cell_length_c   8.85434112
_cell_angle_alpha   110.37939228
_cell_angle_beta   109.34283553
_cell_angle_gamma   112.03264862
_symmetry_Int_Tables_number   1
_chemical_formula_structural   Cu8(NiC4)5
_chemical_formula_sum   'Cu8 Ni5 C20'
_cell_volume   491.07362165
_cell_formula_units_Z   1
loop_
 _symmetry_equiv_pos_site_id
 _symmetry_equiv_pos_as_xyz
  1  'x, y, z'
loop_
 _atom_site_type_symbol
 _atom_site_label
 _atom_site_symmetry_multiplicity
 _atom_site_fract_x
 _atom_site_fract_y
 _atom_site_fract_z
 _atom_site_occupancy
  Ni  Ni0  1  0.50454200  0.70037000  0.79867500  1
  Ni  Ni1  1  0.99650200  0.98804700  0.97477600  1
  Ni  Ni2  1  0.32432300  0.22168600  0.59226900  1
  Ni  Ni3  1  0.67410100  0.76786900  0.48919500  1
  Ni  Ni4  1  0.49587600  0.27712700  0.16233700  1
  Cu  Cu5  1  0.15132800  0.82394100  0.66722600  1
  Cu  Cu6  1  0.17762700  0.37707500  0.87835500  1
  Cu  Cu7  1  0.20054600  0.50203900  0.32700100  1
  Cu  Cu8  1  0.31454100  0.87328200  0.16080400  1
  Cu  Cu9  1  0.65814400  0.15531900  0.83137600  1
  Cu  Cu10  1  0.77031800  0.49426300  0.63766400  1
  Cu  Cu11  1  0.82932200  0.67770700  0.17629400  1
  Cu  Cu12  1  0.86698500  0.13695800  0.35579900  1
  C  C13  1  0.08450200  0.70677700  0.36333200  1
  C  C14  1  0.32972600  0.67696500  0.94347600  1
  C  C15  1  0.91121500  0.94167100  0.71286400  1
  C  C16  1  0.99948000  0.76950400  0.99064700  1
  C  C17  1  0.01117000  0.39772100  0.01769400  1
  C  C18  1  0.30276200  0.42871100  0.64319100  1
  C  C19  1  0.38287700  0.78681300  0.66036100  1
  C  C20  1  0.42615300  0.70696000  0.32828500  1
  C  C21  1  0.33701400  0.09534500  0.71698300  1
  C  C22  1  0.26267700  0.25827500  0.13292400  1
  C  C23  1  0.57693300  0.62127200  0.58750600  1
  C  C24  1  0.60383300  0.35240700  0.73510800  1
  C  C25  1  0.74537800  0.87207200  0.34736700  1
  C  C26  1  0.35227000  0.01178400  0.99458800  1
  C  C27  1  0.68256400  0.55723700  0.33341100  1
  C  C28  1  0.59097300  0.21901700  0.35085500  1
  C  C29  1  0.91725500  0.29707100  0.64123100  1
  C  C30  1  0.68521700  0.32877600  0.08663300  1
  C  C31  1  0.74827500  0.92300100  0.98789200  1
  C  C32  1  0.08557100  0.05293800  0.37388000  1
