# generated using pymatgen
data_Cu2Ni4C5
_symmetry_space_group_name_H-M   'P 1'
_cell_length_a   10.02971900
_cell_length_b   6.88005700
_cell_length_c   7.67621528
_cell_angle_alpha   89.02637020
_cell_angle_beta   90.00000000
_cell_angle_gamma   90.00000000
_symmetry_Int_Tables_number   1
_chemical_formula_structural   Cu2Ni4C5
_chemical_formula_sum   'Cu8 Ni16 C20'
_cell_volume   529.62105337
_cell_formula_units_Z   4
loop_
 _symmetry_equiv_pos_site_id
 _symmetry_equiv_pos_as_xyz
  1  'x, y, z'
loop_
 _atom_site_type_symbol
 _atom_site_label
 _atom_site_symmetry_multiplicity
 _atom_site_fract_x
 _atom_site_fract_y
 _atom_site_fract_z
 _atom_site_occupancy
  C  C0  1  0.56219400  0.64858500  0.15894700  1
  C  C1  1  0.06219400  0.35141500  0.34105300  1
  C  C2  1  0.43780600  0.35141500  0.84105300  1
  C  C3  1  0.93780600  0.64858500  0.65894700  1
  C  C4  1  0.19613700  0.65615300  0.98133800  1
  C  C5  1  0.69613700  0.34384700  0.51866200  1
  C  C6  1  0.80386300  0.34384700  0.01866200  1
  C  C7  1  0.30386300  0.65615300  0.48133800  1
  C  C8  1  0.42524200  0.21444200  0.25607000  1
  C  C9  1  0.92524200  0.78555800  0.24393000  1
  C  C10  1  0.57475800  0.78555800  0.74393000  1
  C  C11  1  0.07475800  0.21444200  0.75607000  1
  Ni  Ni12  1  0.88186000  0.04859500  0.43584600  1
  Ni  Ni13  1  0.38186000  0.95140500  0.06415400  1
  Ni  Ni14  1  0.11814000  0.95140500  0.56415400  1
  Ni  Ni15  1  0.61814000  0.04859500  0.93584600  1
  Ni  Ni16  1  0.76768500  0.04579700  0.27989000  1
  Ni  Ni17  1  0.26768500  0.95420300  0.22011000  1
  Ni  Ni18  1  0.23231500  0.95420300  0.72011000  1
  Ni  Ni19  1  0.73231500  0.04579700  0.77989000  1
  Ni  Ni20  1  0.81772300  0.75318300  0.96350200  1
  Ni  Ni21  1  0.31772300  0.24681700  0.53649800  1
  Ni  Ni22  1  0.18227700  0.24681700  0.03649800  1
  Ni  Ni23  1  0.68227700  0.75318300  0.46350200  1
  Ni  Ni24  1  0.94808000  0.89739000  0.94409400  1
  Ni  Ni25  1  0.44808000  0.10261000  0.55590600  1
  Ni  Ni26  1  0.05192000  0.10261000  0.05590600  1
  Ni  Ni27  1  0.55192000  0.89739000  0.44409400  1
  Cu  Cu28  1  0.13319400  0.97937600  0.69387200  1
  Cu  Cu29  1  0.63319400  0.02062400  0.80612800  1
  Cu  Cu30  1  0.86680600  0.02062400  0.30612800  1
  Cu  Cu31  1  0.36680600  0.97937600  0.19387200  1
  Cu  Cu32  1  0.91133100  0.78056100  0.01278400  1
  Cu  Cu33  1  0.41133100  0.21943900  0.48721600  1
  Cu  Cu34  1  0.08866900  0.21943900  0.98721600  1
  Cu  Cu35  1  0.58866900  0.78056100  0.51278400  1
  C  C36  1  0.83069800  0.60866100  0.31535100  1
  C  C37  1  0.33069800  0.39133900  0.18464900  1
  C  C38  1  0.16930200  0.39133900  0.68464900  1
  C  C39  1  0.66930200  0.60866100  0.81535100  1
  C  C40  1  0.08003200  0.77107000  0.30339100  1
  C  C41  1  0.58003200  0.22893000  0.19660900  1
  C  C42  1  0.91996800  0.22893000  0.69660900  1
  C  C43  1  0.41996800  0.77107000  0.80339100  1
