# generated using pymatgen
data_Cu16Ni16C5
_symmetry_space_group_name_H-M   'P 1'
_cell_length_a   11.99134500
_cell_length_b   9.67462900
_cell_length_c   20.92195931
_cell_angle_alpha   81.68903643
_cell_angle_beta   90.00000000
_cell_angle_gamma   90.00000000
_symmetry_Int_Tables_number   1
_chemical_formula_structural   Cu16Ni16C5
_chemical_formula_sum   'Cu64 Ni64 C20'
_cell_volume   2401.70441804
_cell_formula_units_Z   4
loop_
 _symmetry_equiv_pos_site_id
 _symmetry_equiv_pos_as_xyz
  1  'x, y, z'
loop_
 _atom_site_type_symbol
 _atom_site_label
 _atom_site_symmetry_multiplicity
 _atom_site_fract_x
 _atom_site_fract_y
 _atom_site_fract_z
 _atom_site_occupancy
  C  C0  1  0.76755100  0.26553500  0.50355000  1
  C  C1  1  0.64291700  0.18886600  0.31814200  1
  C  C2  1  0.12336100  0.77803800  0.69106100  1
  C  C3  1  0.14291700  0.81113400  0.18185800  1
  C  C4  1  0.85708300  0.18886600  0.81814200  1
  C  C5  1  0.62336100  0.22196200  0.80893900  1
  C  C6  1  0.73244900  0.26553500  0.00355000  1
  C  C7  1  0.26755100  0.73446500  0.99645000  1
  C  C8  1  0.37663900  0.77803800  0.19106100  1
  C  C9  1  0.87663900  0.22196200  0.30893900  1
  C  C10  1  0.73863200  0.52079500  0.42165900  1
  C  C11  1  0.23863200  0.47920500  0.07834100  1
  C  C12  1  0.76136800  0.52079500  0.92165900  1
  C  C13  1  0.35708300  0.81113400  0.68185800  1
  C  C14  1  0.26136800  0.47920500  0.57834100  1
  C  C15  1  0.23244900  0.73446500  0.49645000  1
  C  C16  1  0.75711900  0.29745800  0.38872900  1
  C  C17  1  0.25711900  0.70254200  0.11127100  1
  C  C18  1  0.24288100  0.70254200  0.61127100  1
  C  C19  1  0.74288100  0.29745800  0.88872900  1
  Ni  Ni20  1  0.51580700  0.74438700  0.16759900  1
  Ni  Ni21  1  0.21884400  0.35025500  0.14611200  1
  Ni  Ni22  1  0.98419300  0.74438700  0.66759900  1
  Ni  Ni23  1  0.62702900  0.36329200  0.27574600  1
  Ni  Ni24  1  0.61456500  0.53594500  0.90524500  1
  Ni  Ni25  1  0.13925800  0.89850200  0.25222500  1
  Ni  Ni26  1  0.63874000  0.39938900  0.76961800  1
  Ni  Ni27  1  0.11272000  0.94301000  0.63892000  1
  Ni  Ni28  1  0.49906200  0.80536900  0.65843400  1
  Ni  Ni29  1  0.34311300  0.96264100  0.62143500  1
  Ni  Ni30  1  0.13874000  0.60061100  0.73038200  1
  Ni  Ni31  1  0.38543500  0.46405500  0.09475500  1
  Ni  Ni32  1  0.76214000  0.33796500  0.57825800  1
  Ni  Ni33  1  0.10621700  0.84601600  0.76612400  1
  Ni  Ni34  1  0.70559800  0.08613400  0.02992300  1
  Ni  Ni35  1  0.12702900  0.63670800  0.22425400  1
  Ni  Ni36  1  0.73571000  0.61720700  0.49004900  1
  Ni  Ni37  1  0.38728000  0.94301000  0.13892000  1
  Ni  Ni38  1  0.28115600  0.35025500  0.64611200  1
  Ni  Ni39  1  0.88012800  0.23028000  0.00119400  1
  Ni  Ni40  1  0.26214000  0.66203500  0.92174200  1
  Ni  Ni41  1  0.71884400  0.64974500  0.35388800  1
  Ni  Ni42  1  0.58446900  0.28752100  0.99147600  1
  Ni  Ni43  1  0.00093800  0.80536900  0.15843400  1
  Ni  Ni44  1  0.61987200  0.23028000  0.50119400  1
  Ni  Ni45  1  0.63925800  0.10149800  0.24777500  1
  Ni  Ni46  1  0.09115900  0.51031100  0.07989800  1
  Ni  Ni47  1  0.78115600  0.64974500  0.85388800  1
  Ni  Ni48  1  0.50093800  0.19463100  0.34156600  1
  Ni  Ni49  1  0.86074200  0.10149800  0.74777500  1
  Ni  Ni50  1  0.36126000  0.60061100  0.23038200  1
  Ni  Ni51  1  0.36074200  0.89850200  0.75222500  1
  Ni  Ni52  1  0.59115900  0.48968900  0.42010200  1
  Ni  Ni53  1  0.39378300  0.84601600  0.26612400  1
  Ni  Ni54  1  0.40884100  0.51031100  0.57989800  1
  Ni  Ni55  1  0.87297100  0.36329200  0.77574600  1
  Ni  Ni56  1  0.26429000  0.38279300  0.50995100  1
  Ni  Ni57  1  0.76429000  0.61720700  0.99004900  1
  Ni  Ni58  1  0.37297100  0.63670800  0.72425400  1
  Ni  Ni59  1  0.65688700  0.03735900  0.37856500  1
  Ni  Ni60  1  0.89378300  0.15398400  0.23387600  1
  Ni  Ni61  1  0.20559800  0.91386600  0.47007700  1
  Ni  Ni62  1  0.73786000  0.33796500  0.07825800  1
  Ni  Ni63  1  0.61272000  0.05699000  0.86108000  1
  Ni  Ni64  1  0.88728000  0.05699000  0.36108000  1
  Ni  Ni65  1  0.90884100  0.48968900  0.92010200  1
  Ni  Ni66  1  0.79440200  0.08613400  0.52992300  1
  Ni  Ni67  1  0.29440200  0.91386600  0.97007700  1
  Ni  Ni68  1  0.88543500  0.53594500  0.40524500  1
  Ni  Ni69  1  0.99906200  0.19463100  0.84156600  1
  Ni  Ni70  1  0.84311300  0.03735900  0.87856500  1
  Ni  Ni71  1  0.48419300  0.25561300  0.83240100  1
  Ni  Ni72  1  0.11987200  0.76972000  0.99880600  1
  Ni  Ni73  1  0.01580700  0.25561300  0.33240100  1
  Ni  Ni74  1  0.60621700  0.15398400  0.73387600  1
  Ni  Ni75  1  0.86126000  0.39938900  0.26961800  1
  Ni  Ni76  1  0.41553100  0.71247900  0.00852400  1
  Ni  Ni77  1  0.08446900  0.71247900  0.50852400  1
  Ni  Ni78  1  0.23571000  0.38279300  0.00995100  1
  Ni  Ni79  1  0.91553100  0.28752100  0.49147600  1
  Ni  Ni80  1  0.38012800  0.76972000  0.49880600  1
  Ni  Ni81  1  0.15688700  0.96264100  0.12143500  1
  Ni  Ni82  1  0.23786000  0.66203500  0.42174200  1
  Ni  Ni83  1  0.11456500  0.46405500  0.59475500  1
  Cu  Cu84  1  0.23952400  0.61937900  0.37278200  1
  Cu  Cu85  1  0.02610500  0.79976600  0.99749200  1
  Cu  Cu86  1  0.59746300  0.95168000  0.89426800  1
  Cu  Cu87  1  0.49492800  0.48113000  0.41541800  1
  Cu  Cu88  1  0.39334000  0.27257300  0.84813500  1
  Cu  Cu89  1  0.86462400  0.04869600  0.70140800  1
  Cu  Cu90  1  0.15684300  0.06010400  0.08194200  1
  Cu  Cu91  1  0.34315700  0.06010400  0.58194200  1
  Cu  Cu92  1  0.10666000  0.27257300  0.34813500  1
  Cu  Cu93  1  0.10958200  0.52476400  0.25048500  1
  Cu  Cu94  1  0.51189500  0.70820900  0.01355700  1
  Cu  Cu95  1  0.09746300  0.04832000  0.60573200  1
  Cu  Cu96  1  0.26665800  0.32098200  0.46671600  1
  Cu  Cu97  1  0.52610500  0.20023400  0.50250800  1
  Cu  Cu98  1  0.85868200  0.51325000  0.24313700  1
  Cu  Cu99  1  0.39041800  0.52476400  0.75048500  1
  Cu  Cu100  1  0.09015200  0.88640000  0.81496600  1
  Cu  Cu101  1  0.35868200  0.48675000  0.25686300  1
  Cu  Cu102  1  0.48810500  0.29179100  0.98644300  1
  Cu  Cu103  1  0.79510600  0.73799300  0.81076300  1
  Cu  Cu104  1  0.26047600  0.61937900  0.87278200  1
  Cu  Cu105  1  0.73952400  0.38062100  0.12721800  1
  Cu  Cu106  1  0.01189500  0.29179100  0.48644300  1
  Cu  Cu107  1  0.76047600  0.38062100  0.62721800  1
  Cu  Cu108  1  0.81216100  0.96979000  0.54897200  1
  Cu  Cu109  1  0.29510600  0.26200700  0.68923700  1
  Cu  Cu110  1  0.52203200  0.55609200  0.89026400  1
  Cu  Cu111  1  0.18783900  0.03021000  0.45102800  1
  Cu  Cu112  1  0.02203200  0.44390800  0.60973600  1
  Cu  Cu113  1  0.23334200  0.32098200  0.96671600  1
  Cu  Cu114  1  0.99492800  0.51887000  0.08458200  1
  Cu  Cu115  1  0.90759300  0.80328100  0.14441700  1
  Cu  Cu116  1  0.13537600  0.95130400  0.29859200  1
  Cu  Cu117  1  0.00507200  0.48113000  0.91541800  1
  Cu  Cu118  1  0.09240700  0.19671900  0.85558300  1
  Cu  Cu119  1  0.84315700  0.93989600  0.91805800  1
  Cu  Cu120  1  0.89041800  0.47523600  0.74951500  1
  Cu  Cu121  1  0.47796800  0.44390800  0.10973600  1
  Cu  Cu122  1  0.40759300  0.19671900  0.35558300  1
  Cu  Cu123  1  0.59015200  0.11360000  0.68503400  1
  Cu  Cu124  1  0.63537600  0.04869600  0.20140800  1
  Cu  Cu125  1  0.90253700  0.95168000  0.39426800  1
  Cu  Cu126  1  0.73334200  0.67901800  0.53328400  1
  Cu  Cu127  1  0.90984800  0.11360000  0.18503400  1
  Cu  Cu128  1  0.98810500  0.70820900  0.51355700  1
  Cu  Cu129  1  0.89334000  0.72742700  0.65186500  1
  Cu  Cu130  1  0.14131800  0.48675000  0.75686300  1
  Cu  Cu131  1  0.60666000  0.72742700  0.15186500  1
  Cu  Cu132  1  0.65684300  0.93989600  0.41805800  1
  Cu  Cu133  1  0.76665800  0.67901800  0.03328400  1
  Cu  Cu134  1  0.31216100  0.03021000  0.95102800  1
  Cu  Cu135  1  0.97389500  0.20023400  0.00250800  1
  Cu  Cu136  1  0.64131800  0.51325000  0.74313700  1
  Cu  Cu137  1  0.60958200  0.47523600  0.24951500  1
  Cu  Cu138  1  0.68783900  0.96979000  0.04897200  1
  Cu  Cu139  1  0.36462400  0.95130400  0.79859200  1
  Cu  Cu140  1  0.97796800  0.55609200  0.39026400  1
  Cu  Cu141  1  0.40984800  0.88640000  0.31496600  1
  Cu  Cu142  1  0.59240700  0.80328100  0.64441700  1
  Cu  Cu143  1  0.40253700  0.04832000  0.10573200  1
  Cu  Cu144  1  0.70489400  0.73799300  0.31076300  1
  Cu  Cu145  1  0.50507200  0.51887000  0.58458200  1
  Cu  Cu146  1  0.47389500  0.79976600  0.49749200  1
  Cu  Cu147  1  0.20489400  0.26200700  0.18923700  1
