# generated using pymatgen
data_Cu2(Ni4C5)3
_symmetry_space_group_name_H-M   'P 1'
_cell_length_a   7.85278376
_cell_length_b   9.95138467
_cell_length_c   18.30189149
_cell_angle_alpha   95.56990024
_cell_angle_beta   89.97085827
_cell_angle_gamma   66.80586637
_symmetry_Int_Tables_number   1
_chemical_formula_structural   Cu2(Ni4C5)3
_chemical_formula_sum   'Cu8 Ni48 C60'
_cell_volume   1307.24392431
_cell_formula_units_Z   4
loop_
 _symmetry_equiv_pos_site_id
 _symmetry_equiv_pos_as_xyz
  1  'x, y, z'
loop_
 _atom_site_type_symbol
 _atom_site_label
 _atom_site_symmetry_multiplicity
 _atom_site_fract_x
 _atom_site_fract_y
 _atom_site_fract_z
 _atom_site_occupancy
  C  C0  1  0.50003300  0.99994000  0.49994700  1
  C  C1  1  0.24997400  0.50004400  0.75003700  1
  C  C2  1  0.99996800  0.00005800  0.00005400  1
  C  C3  1  0.75002200  0.49995800  0.24996300  1
  Ni  Ni4  1  0.43777600  0.52397500  0.62799400  1
  Ni  Ni5  1  0.18778700  0.02399400  0.87804800  1
  Ni  Ni6  1  0.93778900  0.52403800  0.12798900  1
  Ni  Ni7  1  0.68777700  0.02400200  0.37793300  1
  Ni  Ni8  1  0.73935800  0.72327200  0.52832900  1
  Ni  Ni9  1  0.48933800  0.22330700  0.77843200  1
  Ni  Ni10  1  0.23933400  0.72332400  0.02844100  1
  Ni  Ni11  1  0.98933300  0.22329100  0.27832400  1
  Ni  Ni12  1  0.98785800  0.42271600  0.67873800  1
  Ni  Ni13  1  0.73783700  0.92272600  0.92877200  1
  Ni  Ni14  1  0.48783400  0.42270200  0.17871500  1
  Ni  Ni15  1  0.23788000  0.92268500  0.42867500  1
  Ni  Ni16  1  0.58938500  0.42294500  0.67855000  1
  Ni  Ni17  1  0.33939900  0.92294900  0.92858900  1
  Ni  Ni18  1  0.08942200  0.42291700  0.17852500  1
  Ni  Ni19  1  0.83941000  0.92291500  0.42848600  1
  Ni  Ni20  1  0.53688800  0.72330200  0.52832900  1
  Ni  Ni21  1  0.28686000  0.22333900  0.77843600  1
  Ni  Ni22  1  0.03686800  0.72334900  0.02844100  1
  Ni  Ni23  1  0.78688300  0.22331700  0.27833700  1
  Ni  Ni24  1  0.03850800  0.52386200  0.62809700  1
  Ni  Ni25  1  0.78847900  0.02388700  0.87815000  1
  Ni  Ni26  1  0.53843600  0.52392900  0.12809200  1
  Ni  Ni27  1  0.28848400  0.02389100  0.37803700  1
  Ni  Ni28  1  0.56221700  0.47597800  0.37195700  1
  Ni  Ni29  1  0.31222200  0.97602200  0.62198700  1
  Ni  Ni30  1  0.06222500  0.47600000  0.87205900  1
  Ni  Ni31  1  0.81220400  0.97598700  0.12203200  1
  Ni  Ni32  1  0.26066300  0.27668700  0.47155100  1
  Ni  Ni33  1  0.01064600  0.77672000  0.72165200  1
  Ni  Ni34  1  0.76064600  0.27671900  0.97168000  1
  Ni  Ni35  1  0.51067800  0.77667900  0.22158900  1
  Ni  Ni36  1  0.01217700  0.57726900  0.32123200  1
  Ni  Ni37  1  0.76214300  0.07728200  0.57124600  1
  Ni  Ni38  1  0.51212800  0.57730500  0.82131200  1
  Ni  Ni39  1  0.26214900  0.07731700  0.07130400  1
  Ni  Ni40  1  0.41060500  0.57705000  0.32142200  1
  Ni  Ni41  1  0.16062000  0.07705400  0.57143500  1
  Ni  Ni42  1  0.91059900  0.57707500  0.82150400  1
  Ni  Ni43  1  0.66055800  0.07709300  0.07148900  1
  Ni  Ni44  1  0.46314400  0.27665300  0.47155000  1
  Ni  Ni45  1  0.21311800  0.77668700  0.72164900  1
  Ni  Ni46  1  0.96310100  0.27669600  0.97168200  1
  Ni  Ni47  1  0.71313600  0.77665400  0.22157700  1
  Ni  Ni48  1  0.96154400  0.47609000  0.37185300  1
  Ni  Ni49  1  0.71149700  0.97613900  0.62188400  1
  Ni  Ni50  1  0.46150600  0.47611700  0.87195500  1
  Ni  Ni51  1  0.21155000  0.97608900  0.12193000  1
  Cu  Cu52  1  0.83591700  0.32810400  0.49735500  1
  Cu  Cu53  1  0.58590400  0.82811700  0.74754700  1
  Cu  Cu54  1  0.33588800  0.32816000  0.99759700  1
  Cu  Cu55  1  0.08592800  0.82808500  0.24739800  1
  Cu  Cu56  1  0.16411000  0.67185500  0.50241000  1
  Cu  Cu57  1  0.91408300  0.17190300  0.75262000  1
  Cu  Cu58  1  0.66408300  0.67189500  0.00263100  1
  Cu  Cu59  1  0.41409100  0.17187800  0.25243800  1
  C  C60  1  0.76869800  0.46226300  0.56451300  1
  C  C61  1  0.51869700  0.96223300  0.81469900  1
  C  C62  1  0.26867200  0.46232100  0.06472200  1
  C  C63  1  0.01866500  0.96232600  0.31451100  1
  C  C64  1  0.23129800  0.53775000  0.43525700  1
  C  C65  1  0.98130300  0.03774400  0.68546500  1
  C  C66  1  0.73133000  0.53767800  0.93550600  1
  C  C67  1  0.48133900  0.03768300  0.18532900  1
  C  C68  1  0.91663900  0.16655000  0.53076100  1
  C  C69  1  0.66662900  0.66655500  0.78094600  1
  C  C70  1  0.41660700  0.16661800  0.03100800  1
  C  C71  1  0.16661000  0.66659800  0.28085200  1
  C  C72  1  0.65977100  0.33781500  0.44518300  1
  C  C73  1  0.40974900  0.83785100  0.69536300  1
  C  C74  1  0.15975300  0.33785300  0.94540800  1
  C  C75  1  0.90982700  0.83772300  0.19521100  1
  C  C76  1  0.00233200  0.33810700  0.44521800  1
  C  C77  1  0.75231800  0.83814200  0.69540200  1
  C  C78  1  0.50232200  0.33814200  0.94544600  1
  C  C79  1  0.25239200  0.83800600  0.19525400  1
  C  C80  1  0.08337100  0.83343700  0.46902900  1
  C  C81  1  0.83337000  0.33344900  0.71920800  1
  C  C82  1  0.58338000  0.83341000  0.96919500  1
  C  C83  1  0.33339500  0.33339000  0.21899700  1
  C  C84  1  0.34027000  0.66210800  0.55459500  1
  C  C85  1  0.09022300  0.16218900  0.80479700  1
  C  C86  1  0.84019900  0.66224100  0.05481000  1
  C  C87  1  0.59020700  0.16221200  0.30463400  1
  C  C88  1  0.99770000  0.66182200  0.55455900  1
  C  C89  1  0.74766300  0.16190400  0.80475900  1
  C  C90  1  0.49764100  0.66195000  0.05477500  1
  C  C91  1  0.24763300  0.16192400  0.30458600  1
  C  C92  1  0.45691900  0.46364700  0.66889400  1
  C  C93  1  0.20692400  0.96365400  0.91894100  1
  C  C94  1  0.95696500  0.46352700  0.16881900  1
  C  C95  1  0.70695300  0.96353000  0.41877900  1
  C  C96  1  0.61242200  0.77485800  0.51310600  1
  C  C97  1  0.36239200  0.27490100  0.76321100  1
  C  C98  1  0.11238900  0.77492000  0.01321900  1
  C  C99  1  0.86239800  0.27486800  0.26309600  1
  C  C100  1  0.07964200  0.46345100  0.66896300  1
  C  C101  1  0.82964200  0.96343500  0.91900000  1
  C  C102  1  0.57967800  0.46336000  0.16890200  1
  C  C103  1  0.32973700  0.96333400  0.41884500  1
  C  C104  1  0.54307300  0.53636600  0.33108200  1
  C  C105  1  0.29309100  0.03634200  0.58108600  1
  C  C106  1  0.04306200  0.53644000  0.83120500  1
  C  C107  1  0.79301400  0.03649300  0.08120000  1
  C  C108  1  0.38761000  0.22509300  0.48677500  1
  C  C109  1  0.13758700  0.72513200  0.73687300  1
  C  C110  1  0.88758300  0.22513700  0.98690400  1
  C  C111  1  0.63761400  0.72510000  0.23682000  1
  C  C112  1  0.92038300  0.53654500  0.33100400  1
  C  C113  1  0.67036400  0.03654200  0.58101800  1
  C  C114  1  0.42028300  0.53664400  0.83113100  1
  C  C115  1  0.17027300  0.03669400  0.08113800  1
