# generated using pymatgen
data_Cu(Ni2C3)4
_symmetry_space_group_name_H-M   'P 1'
_cell_length_a   13.29129600
_cell_length_b   8.83291900
_cell_length_c   12.88133968
_cell_angle_alpha   66.35961814
_cell_angle_beta   90.00000000
_cell_angle_gamma   90.00000000
_symmetry_Int_Tables_number   1
_chemical_formula_structural   Cu(Ni2C3)4
_chemical_formula_sum   'Cu4 Ni32 C48'
_cell_volume   1385.37125460
_cell_formula_units_Z   4
loop_
 _symmetry_equiv_pos_site_id
 _symmetry_equiv_pos_as_xyz
  1  'x, y, z'
loop_
 _atom_site_type_symbol
 _atom_site_label
 _atom_site_symmetry_multiplicity
 _atom_site_fract_x
 _atom_site_fract_y
 _atom_site_fract_z
 _atom_site_occupancy
  C  C0  1  0.77871600  0.15645600  0.91110400  1
  C  C1  1  0.22128400  0.84354400  0.08889600  1
  C  C2  1  0.27871600  0.84354400  0.58889600  1
  C  C3  1  0.65106400  0.42754800  0.83683000  1
  C  C4  1  0.15106400  0.57245200  0.66317000  1
  C  C5  1  0.84893600  0.42754800  0.33683000  1
  C  C6  1  0.34893600  0.57245200  0.16317000  1
  C  C7  1  0.72128400  0.15645600  0.41110400  1
  Ni  Ni8  1  0.92540400  0.35746800  0.46533000  1
  Ni  Ni9  1  0.19054000  0.95606000  0.64043800  1
  Ni  Ni10  1  0.72976200  0.04899900  0.05432000  1
  Ni  Ni11  1  0.93783700  0.32684300  0.27702300  1
  Ni  Ni12  1  0.86808700  0.27270000  0.95932000  1
  Ni  Ni13  1  0.10723900  0.37936200  0.76505800  1
  Ni  Ni14  1  0.11996800  0.96260300  0.10833100  1
  Ni  Ni15  1  0.42540400  0.64253200  0.03467000  1
  Ni  Ni16  1  0.22976200  0.95100100  0.44568000  1
  Ni  Ni17  1  0.38003200  0.96260300  0.60833100  1
  Ni  Ni18  1  0.27023800  0.95100100  0.94568000  1
  Ni  Ni19  1  0.80946000  0.04394000  0.35956200  1
  Ni  Ni20  1  0.61996800  0.03739700  0.39166900  1
  Ni  Ni21  1  0.36808700  0.72730000  0.54068000  1
  Ni  Ni22  1  0.69054000  0.04394000  0.85956200  1
  Ni  Ni23  1  0.23531700  0.45482200  0.61108600  1
  Ni  Ni24  1  0.30946000  0.95606000  0.14043800  1
  Ni  Ni25  1  0.43783700  0.67315700  0.22297700  1
  Ni  Ni26  1  0.60723900  0.62063800  0.73494200  1
  Ni  Ni27  1  0.88003200  0.03739700  0.89166900  1
  Ni  Ni28  1  0.26468300  0.45482200  0.11108600  1
  Ni  Ni29  1  0.39276100  0.37936200  0.26505800  1
  Ni  Ni30  1  0.76468300  0.54517800  0.38891400  1
  Ni  Ni31  1  0.56216300  0.32684300  0.77702300  1
  Ni  Ni32  1  0.13191300  0.72730000  0.04068000  1
  Ni  Ni33  1  0.06216300  0.67315700  0.72297700  1
  Ni  Ni34  1  0.57459600  0.35746800  0.96533000  1
  Ni  Ni35  1  0.07459600  0.64253200  0.53467000  1
  Ni  Ni36  1  0.63191300  0.27270000  0.45932000  1
  Ni  Ni37  1  0.89276100  0.62063800  0.23494200  1
  Ni  Ni38  1  0.77023800  0.04899900  0.55432000  1
  Ni  Ni39  1  0.73531700  0.54517800  0.88891400  1
  Cu  Cu40  1  0.27757400  0.62816400  0.75971800  1
  Cu  Cu41  1  0.72242600  0.37183600  0.24028200  1
  Cu  Cu42  1  0.77757400  0.37183600  0.74028200  1
  Cu  Cu43  1  0.22242600  0.62816400  0.25971800  1
  C  C44  1  0.13474200  0.51667600  0.28437300  1
  C  C45  1  0.42858700  0.65965100  0.51156900  1
  C  C46  1  0.41978000  0.25338500  0.33201900  1
  C  C47  1  0.08022000  0.25338500  0.83201900  1
  C  C48  1  0.07141300  0.65965100  0.01156900  1
  C  C49  1  0.94583200  0.96013100  0.87981800  1
  C  C50  1  0.21741500  0.36584400  0.08558900  1
  C  C51  1  0.86525800  0.48332400  0.71562700  1
  C  C52  1  0.49678500  0.72873300  0.26300600  1
  C  C53  1  0.86217200  0.96640900  0.32888700  1
  C  C54  1  0.36217200  0.03359100  0.17111300  1
  C  C55  1  0.44583200  0.03986900  0.62018200  1
  C  C56  1  0.63474200  0.48332400  0.21562700  1
  C  C57  1  0.28258500  0.36584400  0.58558900  1
  C  C58  1  0.69745500  0.97640700  0.14405700  1
  C  C59  1  0.05416800  0.03986900  0.12018200  1
  C  C60  1  0.91978000  0.74661500  0.16798100  1
  C  C61  1  0.25468100  0.67135200  0.35412900  1
  C  C62  1  0.71741500  0.63415600  0.41441100  1
  C  C63  1  0.24531900  0.67135200  0.85412900  1
  C  C64  1  0.58022000  0.74661500  0.66798100  1
  C  C65  1  0.36525800  0.51667600  0.78437300  1
  C  C66  1  0.92858700  0.34034900  0.98843100  1
  C  C67  1  0.13782800  0.03359100  0.67111300  1
  C  C68  1  0.19745500  0.02359300  0.35594300  1
  C  C69  1  0.55416800  0.96013100  0.37981800  1
  C  C70  1  0.47493200  0.69330600  0.95419700  1
  C  C71  1  0.74531900  0.32864800  0.64587100  1
  C  C72  1  0.97493200  0.30669400  0.54580300  1
  C  C73  1  0.78258500  0.63415600  0.91441100  1
  C  C74  1  0.99678500  0.27126700  0.23699400  1
  C  C75  1  0.00321500  0.72873300  0.76300600  1
  C  C76  1  0.30254500  0.02359300  0.85594300  1
  C  C77  1  0.52506800  0.30669400  0.04580300  1
  C  C78  1  0.02506800  0.69330600  0.45419700  1
  C  C79  1  0.75468100  0.32864800  0.14587100  1
  C  C80  1  0.80254500  0.97640700  0.64405700  1
  C  C81  1  0.57141300  0.34034900  0.48843100  1
  C  C82  1  0.50321500  0.27126700  0.73699400  1
  C  C83  1  0.63782800  0.96640900  0.82888700  1
