# generated using pymatgen
data_Cu18Ni4C7
_symmetry_space_group_name_H-M   'P 1'
_cell_length_a   14.55877600
_cell_length_b   5.19202200
_cell_length_c   9.77382166
_cell_angle_alpha   60.79625469
_cell_angle_beta   90.00000000
_cell_angle_gamma   90.00000000
_symmetry_Int_Tables_number   1
_chemical_formula_structural   Cu18Ni4C7
_chemical_formula_sum   'Cu36 Ni8 C14'
_cell_volume   644.88965279
_cell_formula_units_Z   2
loop_
 _symmetry_equiv_pos_site_id
 _symmetry_equiv_pos_as_xyz
  1  'x, y, z'
loop_
 _atom_site_type_symbol
 _atom_site_label
 _atom_site_symmetry_multiplicity
 _atom_site_fract_x
 _atom_site_fract_y
 _atom_site_fract_z
 _atom_site_occupancy
  C  C0  1  0.00000000  0.00000000  0.00000000  1
  C  C1  1  0.50000000  0.00000000  0.50000000  1
  C  C2  1  0.84699900  0.27746500  0.47389400  1
  C  C3  1  0.65300100  0.27746500  0.97389400  1
  C  C4  1  0.15300100  0.72253500  0.52610600  1
  C  C5  1  0.34699900  0.72253500  0.02610600  1
  C  C6  1  0.82699800  0.87144400  0.95321600  1
  C  C7  1  0.67300200  0.87144400  0.45321600  1
  C  C8  1  0.17300200  0.12855600  0.04678400  1
  C  C9  1  0.32699800  0.12855600  0.54678400  1
  C  C10  1  0.89191200  0.64159300  0.93766100  1
  C  C11  1  0.60808800  0.64159300  0.43766100  1
  C  C12  1  0.10808800  0.35840700  0.06233900  1
  C  C13  1  0.39191200  0.35840700  0.56233900  1
  Ni  Ni14  1  0.06719400  0.40396000  0.32210400  1
  Ni  Ni15  1  0.43280600  0.40396000  0.82210400  1
  Ni  Ni16  1  0.93280600  0.59604000  0.67789600  1
  Ni  Ni17  1  0.56719400  0.59604000  0.17789600  1
  Ni  Ni18  1  0.82920300  0.98787500  0.23020400  1
  Ni  Ni19  1  0.67079700  0.98787500  0.73020400  1
  Ni  Ni20  1  0.17079700  0.01212500  0.76979600  1
  Ni  Ni21  1  0.32920300  0.01212500  0.26979600  1
  Cu  Cu22  1  0.06257900  0.58390100  0.14917600  1
  Cu  Cu23  1  0.43742100  0.58390100  0.64917600  1
  Cu  Cu24  1  0.93742100  0.41609900  0.85082400  1
  Cu  Cu25  1  0.56257900  0.41609900  0.35082400  1
  Cu  Cu26  1  0.97470300  0.37010800  0.39208800  1
  Cu  Cu27  1  0.52529700  0.37010800  0.89208800  1
  Cu  Cu28  1  0.02529700  0.62989200  0.60791200  1
  Cu  Cu29  1  0.47470300  0.62989200  0.10791200  1
  Cu  Cu30  1  0.12981600  0.54616200  0.38520400  1
  Cu  Cu31  1  0.37018400  0.54616200  0.88520400  1
  Cu  Cu32  1  0.87018400  0.45383800  0.61479600  1
  Cu  Cu33  1  0.62981600  0.45383800  0.11479600  1
  Cu  Cu34  1  0.10514500  0.11339500  0.35653100  1
  Cu  Cu35  1  0.39485500  0.11339500  0.85653100  1
  Cu  Cu36  1  0.89485500  0.88660500  0.64346900  1
  Cu  Cu37  1  0.60514500  0.88660500  0.14346900  1
  Cu  Cu38  1  0.79833500  0.67240000  0.30404600  1
  Cu  Cu39  1  0.70166500  0.67240000  0.80404600  1
  Cu  Cu40  1  0.20166500  0.32760000  0.69595400  1
  Cu  Cu41  1  0.29833500  0.32760000  0.19595400  1
  Cu  Cu42  1  0.92812000  0.01836600  0.19835200  1
  Cu  Cu43  1  0.57188000  0.01836600  0.69835200  1
  Cu  Cu44  1  0.07188000  0.98163400  0.80164800  1
  Cu  Cu45  1  0.42812000  0.98163400  0.30164800  1
  Cu  Cu46  1  0.80275500  0.10002700  0.34005200  1
  Cu  Cu47  1  0.69724500  0.10002700  0.84005200  1
  Cu  Cu48  1  0.19724500  0.89997300  0.65994800  1
  Cu  Cu49  1  0.30275500  0.89997300  0.15994800  1
  Cu  Cu50  1  0.77835900  0.15855900  0.07915800  1
  Cu  Cu51  1  0.72164100  0.15855900  0.57915800  1
  Cu  Cu52  1  0.22164100  0.84144100  0.92084200  1
  Cu  Cu53  1  0.27835900  0.84144100  0.42084200  1
  Cu  Cu54  1  0.88603600  0.76828900  0.98612800  1
  Cu  Cu55  1  0.61396400  0.76828900  0.48612800  1
  Cu  Cu56  1  0.11396400  0.23171100  0.01387200  1
  Cu  Cu57  1  0.38603600  0.23171100  0.51387200  1
