# generated using pymatgen
data_CuNiC9
_symmetry_space_group_name_H-M   'P 1'
_cell_length_a   7.28553498
_cell_length_b   7.28553498
_cell_length_c   24.50285078
_cell_angle_alpha   81.62184470
_cell_angle_beta   81.62184470
_cell_angle_gamma   60.63196189
_symmetry_Int_Tables_number   1
_chemical_formula_structural   CuNiC9
_chemical_formula_sum   'Cu8 Ni8 C72'
_cell_volume   1117.18362933
_cell_formula_units_Z   8
loop_
 _symmetry_equiv_pos_site_id
 _symmetry_equiv_pos_as_xyz
  1  'x, y, z'
loop_
 _atom_site_type_symbol
 _atom_site_label
 _atom_site_symmetry_multiplicity
 _atom_site_fract_x
 _atom_site_fract_y
 _atom_site_fract_z
 _atom_site_occupancy
  C  C0  1  0.11693200  0.13595600  0.12159000  1
  C  C1  1  0.50000000  0.50000000  0.00000000  1
  C  C2  1  0.13595600  0.11693200  0.62159000  1
  C  C3  1  0.69919300  0.79581800  0.25255300  1
  C  C4  1  0.88306800  0.86404400  0.87841000  1
  C  C5  1  0.79282300  0.20717700  0.75000000  1
  C  C6  1  0.79581800  0.69919300  0.75255300  1
  C  C7  1  0.00000000  0.00000000  0.00000000  1
  C  C8  1  0.30080700  0.20418200  0.74744700  1
  C  C9  1  0.00000000  0.00000000  0.50000000  1
  C  C10  1  0.20418200  0.30080700  0.24744700  1
  C  C11  1  0.50000000  0.00000000  0.50000000  1
  C  C12  1  0.50000000  0.50000000  0.50000000  1
  C  C13  1  0.00000000  0.50000000  0.00000000  1
  C  C14  1  0.86404400  0.88306800  0.37841000  1
  C  C15  1  0.20717700  0.79282300  0.25000000  1
  Ni  Ni16  1  0.74981800  0.25018200  0.25000000  1
  Ni  Ni17  1  0.25018200  0.74981800  0.75000000  1
  Ni  Ni18  1  0.36115700  0.89170200  0.37413600  1
  Ni  Ni19  1  0.89170200  0.36115700  0.87413600  1
  Ni  Ni20  1  0.63884300  0.10829800  0.62586400  1
  Ni  Ni21  1  0.50000000  0.00000000  0.00000000  1
  Ni  Ni22  1  0.00000000  0.50000000  0.50000000  1
  Ni  Ni23  1  0.10829800  0.63884300  0.12586400  1
  Cu  Cu24  1  0.13654800  0.61039000  0.62590700  1
  Cu  Cu25  1  0.38822900  0.36687500  0.87229500  1
  Cu  Cu26  1  0.38961000  0.86345200  0.87409300  1
  Cu  Cu27  1  0.36687500  0.38822900  0.37229500  1
  Cu  Cu28  1  0.61177100  0.63312500  0.12770500  1
  Cu  Cu29  1  0.86345200  0.38961000  0.37409300  1
  Cu  Cu30  1  0.61039000  0.13654800  0.12590700  1
  Cu  Cu31  1  0.63312500  0.61177100  0.62770500  1
  C  C32  1  0.00363500  0.15044600  0.20946200  1
  C  C33  1  0.15044600  0.00363500  0.70946200  1
  C  C34  1  0.50999300  0.64298300  0.71001600  1
  C  C35  1  0.29257700  0.72333800  0.14020000  1
  C  C36  1  0.14771000  0.64195300  0.70744800  1
  C  C37  1  0.45072700  0.07233900  0.38788900  1
  C  C38  1  0.77855300  0.87669000  0.96946200  1
  C  C39  1  0.57184900  0.76354600  0.04659100  1
  C  C40  1  0.35804700  0.85229000  0.79255200  1
  C  C41  1  0.42815100  0.23645400  0.95340900  1
  C  C42  1  0.91932600  0.92635000  0.61085300  1
  C  C43  1  0.86966000  0.43016600  0.45528100  1
  C  C44  1  0.72333800  0.29257800  0.64020000  1
  C  C45  1  0.27666200  0.70742200  0.35980000  1
  C  C46  1  0.64799200  0.28608700  0.40875900  1
  C  C47  1  0.07233900  0.45072700  0.88788900  1
  C  C48  1  0.35200800  0.71391300  0.59124100  1
  C  C49  1  0.50989900  0.91901700  0.16129300  1
  C  C50  1  0.02137300  0.64762700  0.20041000  1
  C  C51  1  0.35773700  0.29324300  0.64057100  1
  C  C52  1  0.64226300  0.70675700  0.35942900  1
  C  C53  1  0.12331000  0.22144700  0.53053800  1
  C  C54  1  0.84955400  0.99636500  0.29053800  1
  C  C55  1  0.99636500  0.84955400  0.79053800  1
  C  C56  1  0.35701700  0.49000700  0.78998400  1
  C  C57  1  0.49010100  0.08098300  0.83870700  1
  C  C58  1  0.13034000  0.56983400  0.54471900  1
  C  C59  1  0.08098300  0.49010100  0.33870700  1
  C  C60  1  0.92766100  0.54927300  0.11211100  1
  C  C61  1  0.07365000  0.08067400  0.88914700  1
  C  C62  1  0.97862700  0.35237300  0.79959000  1
  C  C63  1  0.71391300  0.35200800  0.09124100  1
  C  C64  1  0.49000700  0.35701700  0.28998400  1
  C  C65  1  0.35237300  0.97862700  0.29959000  1
  C  C66  1  0.19152600  0.63179800  0.05120900  1
  C  C67  1  0.54927300  0.92766100  0.61211100  1
  C  C68  1  0.91901700  0.50989900  0.66129300  1
  C  C69  1  0.70742300  0.27666200  0.85980000  1
  C  C70  1  0.76354600  0.57184900  0.54659100  1
  C  C71  1  0.64762700  0.02137300  0.70041000  1
  C  C72  1  0.29324300  0.35773700  0.14057100  1
  C  C73  1  0.64195300  0.14771000  0.20744800  1
  C  C74  1  0.87669000  0.77855300  0.46946200  1
  C  C75  1  0.56983400  0.13034000  0.04471900  1
  C  C76  1  0.22144700  0.12331000  0.03053800  1
  C  C77  1  0.85229000  0.35804700  0.29255200  1
  C  C78  1  0.70675700  0.64226300  0.85942900  1
  C  C79  1  0.28608700  0.64799200  0.90875900  1
  C  C80  1  0.43016600  0.86966000  0.95528100  1
  C  C81  1  0.63179800  0.19152600  0.55120900  1
  C  C82  1  0.64298300  0.50999300  0.21001600  1
  C  C83  1  0.36820200  0.80847400  0.44879100  1
  C  C84  1  0.08067400  0.07365000  0.38914700  1
  C  C85  1  0.92635000  0.91932600  0.11085300  1
  C  C86  1  0.80847400  0.36820200  0.94879100  1
  C  C87  1  0.23645400  0.42815100  0.45340900  1
