# generated using pymatgen
data_Cu4Ni2C9
_symmetry_space_group_name_H-M   'P 1'
_cell_length_a   5.77036400
_cell_length_b   5.88588700
_cell_length_c   13.84430012
_cell_angle_alpha   88.69114219
_cell_angle_beta   90.00000000
_cell_angle_gamma   90.00000000
_symmetry_Int_Tables_number   1
_chemical_formula_structural   Cu4Ni2C9
_chemical_formula_sum   'Cu16 Ni8 C36'
_cell_volume   470.08111970
_cell_formula_units_Z   4
loop_
 _symmetry_equiv_pos_site_id
 _symmetry_equiv_pos_as_xyz
  1  'x, y, z'
loop_
 _atom_site_type_symbol
 _atom_site_label
 _atom_site_symmetry_multiplicity
 _atom_site_fract_x
 _atom_site_fract_y
 _atom_site_fract_z
 _atom_site_occupancy
  C  C0  1  0.50000000  0.00000000  0.50000000  1
  C  C1  1  0.00000000  0.00000000  0.00000000  1
  C  C2  1  0.00000000  0.50000000  0.50000000  1
  C  C3  1  0.50000000  0.50000000  0.00000000  1
  C  C4  1  0.56368400  0.35357200  0.62961000  1
  C  C5  1  0.06368400  0.64642800  0.87039000  1
  C  C6  1  0.43631600  0.64642800  0.37039000  1
  C  C7  1  0.93631600  0.35357200  0.12961000  1
  C  C8  1  0.31439900  0.49548000  0.64308300  1
  C  C9  1  0.81439900  0.50452000  0.85691700  1
  C  C10  1  0.68560100  0.50452000  0.35691700  1
  C  C11  1  0.18560100  0.49548000  0.14308300  1
  C  C12  1  0.51008300  0.49901500  0.73442600  1
  C  C13  1  0.01008300  0.50098500  0.76557400  1
  C  C14  1  0.48991700  0.50098500  0.26557400  1
  C  C15  1  0.98991700  0.49901500  0.23442600  1
  C  C16  1  0.56762700  0.63537100  0.62549500  1
  C  C17  1  0.06762700  0.36462900  0.87450500  1
  C  C18  1  0.43237300  0.36462900  0.37450500  1
  C  C19  1  0.93237300  0.63537100  0.12549500  1
  C  C20  1  0.98607300  0.98921100  0.73482800  1
  C  C21  1  0.48607300  0.01078900  0.76517200  1
  C  C22  1  0.01392700  0.01078900  0.26517200  1
  C  C23  1  0.51392700  0.98921100  0.23482800  1
  C  C24  1  0.96368600  0.82225200  0.63590700  1
  C  C25  1  0.46368600  0.17774800  0.86409300  1
  C  C26  1  0.03631400  0.17774800  0.36409300  1
  C  C27  1  0.53631400  0.82225200  0.13590700  1
  C  C28  1  0.19150300  0.99669100  0.64654700  1
  C  C29  1  0.69150300  0.00330900  0.85345300  1
  C  C30  1  0.80849700  0.00330900  0.35345300  1
  C  C31  1  0.30849700  0.99669100  0.14654700  1
  C  C32  1  0.92390200  0.10133500  0.62090500  1
  C  C33  1  0.42390200  0.89866500  0.87909500  1
  C  C34  1  0.07609800  0.89866500  0.37909500  1
  C  C35  1  0.57609800  0.10133500  0.12090500  1
  Ni  Ni36  1  0.49111100  0.49580500  0.65909700  1
  Ni  Ni37  1  0.99111100  0.50419500  0.84090300  1
  Ni  Ni38  1  0.50888900  0.50419500  0.34090300  1
  Ni  Ni39  1  0.00888900  0.49580500  0.15909700  1
  Ni  Ni40  1  0.01344100  0.97906000  0.66022800  1
  Ni  Ni41  1  0.51344100  0.02094000  0.83977200  1
  Ni  Ni42  1  0.98655900  0.02094000  0.33977200  1
  Ni  Ni43  1  0.48655900  0.97906000  0.16022800  1
  Cu  Cu44  1  0.47680600  0.00000000  0.64330800  1
  Cu  Cu45  1  0.97680600  0.00000000  0.85669200  1
  Cu  Cu46  1  0.52319400  0.00000000  0.35669200  1
  Cu  Cu47  1  0.02319400  0.00000000  0.14330800  1
  Cu  Cu48  1  0.02050600  0.49430200  0.64560500  1
  Cu  Cu49  1  0.52050600  0.50569800  0.85439500  1
  Cu  Cu50  1  0.97949400  0.50569800  0.35439500  1
  Cu  Cu51  1  0.47949400  0.49430200  0.14560500  1
  Cu  Cu52  1  0.24240000  0.75630300  0.48629800  1
  Cu  Cu53  1  0.74240000  0.24369700  0.01370200  1
  Cu  Cu54  1  0.75760000  0.24369700  0.51370200  1
  Cu  Cu55  1  0.25760000  0.75630300  0.98629800  1
  Cu  Cu56  1  0.25724000  0.25855200  0.48936900  1
  Cu  Cu57  1  0.75724000  0.74144800  0.01063100  1
  Cu  Cu58  1  0.74276000  0.74144800  0.51063100  1
  Cu  Cu59  1  0.24276000  0.25855200  0.98936900  1
