# generated using pymatgen
data_Cu6NiC30
_symmetry_space_group_name_H-M   'P 1'
_cell_length_a   14.19255950
_cell_length_b   14.19255950
_cell_length_c   14.19255983
_cell_angle_alpha   44.60019146
_cell_angle_beta   44.60019146
_cell_angle_gamma   44.60019094
_symmetry_Int_Tables_number   1
_chemical_formula_structural   Cu6NiC30
_chemical_formula_sum   'Cu12 Ni2 C60'
_cell_volume   1281.76816131
_cell_formula_units_Z   2
loop_
 _symmetry_equiv_pos_site_id
 _symmetry_equiv_pos_as_xyz
  1  'x, y, z'
loop_
 _atom_site_type_symbol
 _atom_site_label
 _atom_site_symmetry_multiplicity
 _atom_site_fract_x
 _atom_site_fract_y
 _atom_site_fract_z
 _atom_site_occupancy
  C  C0  1  0.14663900  0.14663900  0.14663900  1
  C  C1  1  0.35336100  0.35336100  0.35336100  1
  C  C2  1  0.75000000  0.13590600  0.36409400  1
  C  C3  1  0.13590600  0.36409400  0.75000000  1
  C  C4  1  0.36409400  0.75000000  0.13590600  1
  C  C5  1  0.63590600  0.25000000  0.86409400  1
  C  C6  1  0.86409400  0.63590600  0.25000000  1
  C  C7  1  0.25000000  0.86409400  0.63590600  1
  C  C8  1  0.64663900  0.64663900  0.64663900  1
  C  C9  1  0.85336100  0.85336100  0.85336100  1
  Ni  Ni10  1  0.00000000  0.00000000  0.00000000  1
  Ni  Ni11  1  0.50000000  0.50000000  0.50000000  1
  C  C12  1  0.25000000  0.25000000  0.25000000  1
  C  C13  1  0.75000000  0.75000000  0.75000000  1
  Cu  Cu14  1  0.61871300  0.02203800  0.26217100  1
  Cu  Cu15  1  0.02203800  0.26217100  0.61871300  1
  Cu  Cu16  1  0.26217100  0.61871300  0.02203800  1
  Cu  Cu17  1  0.52203800  0.11871300  0.76217100  1
  Cu  Cu18  1  0.76217100  0.52203800  0.11871300  1
  Cu  Cu19  1  0.88128700  0.23782900  0.47796200  1
  Cu  Cu20  1  0.11871300  0.76217100  0.52203800  1
  Cu  Cu21  1  0.23782900  0.47796200  0.88128700  1
  Cu  Cu22  1  0.47796200  0.88128700  0.23782900  1
  Cu  Cu23  1  0.73782900  0.38128700  0.97796200  1
  Cu  Cu24  1  0.97796200  0.73782900  0.38128700  1
  Cu  Cu25  1  0.38128700  0.97796200  0.73782900  1
  C  C26  1  0.32120900  0.02817300  0.30251000  1
  C  C27  1  0.02817300  0.30251000  0.32120900  1
  C  C28  1  0.30251000  0.32120900  0.02817300  1
  C  C29  1  0.47182700  0.17879100  0.19749000  1
  C  C30  1  0.17879100  0.19749000  0.47182700  1
  C  C31  1  0.19749000  0.47182700  0.17879100  1
  C  C32  1  0.61773100  0.07017800  0.34746800  1
  C  C33  1  0.19879000  0.00442000  0.89597600  1
  C  C34  1  0.07017800  0.34746800  0.61773100  1
  C  C35  1  0.89597600  0.19879000  0.00442000  1
  C  C36  1  0.40657400  0.14292200  0.61132800  1
  C  C37  1  0.34746800  0.61773100  0.07017800  1
  C  C38  1  0.61132800  0.40657400  0.14292200  1
  C  C39  1  0.35707800  0.09342600  0.88867200  1
  C  C40  1  0.14292200  0.61132800  0.40657400  1
  C  C41  1  0.00442000  0.89597600  0.19879000  1
  C  C42  1  0.88867200  0.35707800  0.09342600  1
  C  C43  1  0.49558000  0.30121000  0.60402400  1
  C  C44  1  0.88226900  0.15253200  0.42982200  1
  C  C45  1  0.57017800  0.11773100  0.84746800  1
  C  C46  1  0.60402400  0.49558000  0.30121000  1
  C  C47  1  0.15253200  0.42982200  0.88226900  1
  C  C48  1  0.30121000  0.60402400  0.49558000  1
  C  C49  1  0.09342600  0.88867200  0.35707800  1
  C  C50  1  0.90657400  0.11132800  0.64292200  1
  C  C51  1  0.69879000  0.39597600  0.50442000  1
  C  C52  1  0.84746800  0.57017800  0.11773100  1
  C  C53  1  0.39597600  0.50442000  0.69879000  1
  C  C54  1  0.42982200  0.88226900  0.15253200  1
  C  C55  1  0.11773100  0.84746800  0.57017800  1
  C  C56  1  0.50442000  0.69879000  0.39597600  1
  C  C57  1  0.11132800  0.64292200  0.90657400  1
  C  C58  1  0.99558000  0.10402400  0.80121000  1
  C  C59  1  0.85707800  0.38867200  0.59342600  1
  C  C60  1  0.64292200  0.90657400  0.11132800  1
  C  C61  1  0.38867200  0.59342600  0.85707800  1
  C  C62  1  0.65253200  0.38226900  0.92982200  1
  C  C63  1  0.59342600  0.85707800  0.38867200  1
  C  C64  1  0.10402400  0.80121000  0.99558000  1
  C  C65  1  0.92982200  0.65253200  0.38226900  1
  C  C66  1  0.80121000  0.99558000  0.10402400  1
  C  C67  1  0.38226900  0.92982200  0.65253200  1
  C  C68  1  0.80251000  0.52817300  0.82120900  1
  C  C69  1  0.82120900  0.80251000  0.52817300  1
  C  C70  1  0.52817300  0.82120900  0.80251000  1
  C  C71  1  0.69749000  0.67879100  0.97182700  1
  C  C72  1  0.97182700  0.69749000  0.67879100  1
  C  C73  1  0.67879100  0.97182700  0.69749000  1
