# generated using pymatgen
data_Cu2NiC6
_symmetry_space_group_name_H-M   'P 1'
_cell_length_a   5.70234800
_cell_length_b   7.06470600
_cell_length_c   12.30351900
_cell_angle_alpha   90.00000000
_cell_angle_beta   90.00000000
_cell_angle_gamma   90.00000000
_symmetry_Int_Tables_number   1
_chemical_formula_structural   Cu2NiC6
_chemical_formula_sum   'Cu8 Ni4 C24'
_cell_volume   495.65233356
_cell_formula_units_Z   4
loop_
 _symmetry_equiv_pos_site_id
 _symmetry_equiv_pos_as_xyz
  1  'x, y, z'
loop_
 _atom_site_type_symbol
 _atom_site_label
 _atom_site_symmetry_multiplicity
 _atom_site_fract_x
 _atom_site_fract_y
 _atom_site_fract_z
 _atom_site_occupancy
  Ni  Ni0  1  0.75000000  0.07818100  0.10189700  1
  Ni  Ni1  1  0.75000000  0.42181900  0.60189700  1
  Ni  Ni2  1  0.25000000  0.57818100  0.39810300  1
  Ni  Ni3  1  0.25000000  0.92181900  0.89810300  1
  Cu  Cu4  1  0.25000000  0.40054200  0.07432600  1
  Cu  Cu5  1  0.75000000  0.61943900  0.20818700  1
  Cu  Cu6  1  0.75000000  0.88056100  0.70818700  1
  Cu  Cu7  1  0.25000000  0.11943900  0.29181300  1
  Cu  Cu8  1  0.75000000  0.59945800  0.92567400  1
  Cu  Cu9  1  0.75000000  0.90054200  0.42567400  1
  Cu  Cu10  1  0.25000000  0.09945800  0.57432600  1
  Cu  Cu11  1  0.25000000  0.38056100  0.79181300  1
  C  C12  1  0.25000000  0.80852100  0.15025700  1
  C  C13  1  0.75000000  0.19147900  0.84974300  1
  C  C14  1  0.75000000  0.30852100  0.34974300  1
  C  C15  1  0.25000000  0.69147900  0.65025700  1
  C  C16  1  0.25000000  0.42076200  0.60168200  1
  C  C17  1  0.75000000  0.57923800  0.39831800  1
  C  C18  1  0.75000000  0.92076200  0.89831800  1
  C  C19  1  0.25000000  0.07923800  0.10168200  1
  C  C20  1  0.99878100  0.86117600  0.27547400  1
  C  C21  1  0.49878100  0.13882400  0.72452600  1
  C  C22  1  0.00121900  0.36117600  0.22452600  1
  C  C23  1  0.50121900  0.63882400  0.77547400  1
  C  C24  1  0.00121900  0.13882400  0.72452600  1
  C  C25  1  0.50121900  0.86117600  0.27547400  1
  C  C26  1  0.99878100  0.63882400  0.77547400  1
  C  C27  1  0.49878100  0.36117600  0.22452600  1
  C  C28  1  0.50044400  0.66132300  0.06625100  1
  C  C29  1  0.00044400  0.33867700  0.93374900  1
  C  C30  1  0.49955600  0.16132300  0.43374900  1
  C  C31  1  0.99955600  0.83867700  0.56625100  1
  C  C32  1  0.00044400  0.16132300  0.43374900  1
  C  C33  1  0.50044400  0.83867700  0.56625100  1
  C  C34  1  0.99955600  0.66132300  0.06625100  1
  C  C35  1  0.49955600  0.33867700  0.93374900  1
