# generated using pymatgen
data_Cu3NiC
_symmetry_space_group_name_H-M   'P 1'
_cell_length_a   5.12924200
_cell_length_b   6.47355893
_cell_length_c   17.70518524
_cell_angle_alpha   82.52805993
_cell_angle_beta   81.80349083
_cell_angle_gamma   66.88929430
_symmetry_Int_Tables_number   1
_chemical_formula_structural   Cu3NiC
_chemical_formula_sum   'Cu24 Ni8 C8'
_cell_volume   533.41322944
_cell_formula_units_Z   8
loop_
 _symmetry_equiv_pos_site_id
 _symmetry_equiv_pos_as_xyz
  1  'x, y, z'
loop_
 _atom_site_type_symbol
 _atom_site_label
 _atom_site_symmetry_multiplicity
 _atom_site_fract_x
 _atom_site_fract_y
 _atom_site_fract_z
 _atom_site_occupancy
  C  C0  1  0.99336200  0.99640100  0.00054300  1
  C  C1  1  0.26710800  0.35141700  0.12612500  1
  C  C2  1  0.50320900  0.75256700  0.25000700  1
  C  C3  1  0.75005700  0.12470200  0.37529300  1
  C  C4  1  0.00020000  0.49975700  0.50039200  1
  C  C5  1  0.24956700  0.87523900  0.62539200  1
  C  C6  1  0.50117400  0.24911600  0.75035000  1
  C  C7  1  0.75745900  0.61767700  0.86847500  1
  Ni  Ni8  1  0.64403500  0.70757300  0.05003100  1
  Ni  Ni9  1  0.12586000  0.43742700  0.31253400  1
  Ni  Ni10  1  0.87462400  0.06268900  0.18833500  1
  Ni  Ni11  1  0.62510800  0.18753000  0.56238800  1
  Ni  Ni12  1  0.37508000  0.81243600  0.43742200  1
  Ni  Ni13  1  0.12961500  0.93874700  0.81097000  1
  Ni  Ni14  1  0.87547200  0.56238000  0.68700000  1
  Ni  Ni15  1  0.37530300  0.31186700  0.93726200  1
  Cu  Cu16  1  0.42929400  0.66855600  0.08149400  1
  Cu  Cu17  1  0.84642200  0.68280600  0.08872800  1
  Cu  Cu18  1  0.65467400  0.78081400  0.98024400  1
  Cu  Cu19  1  0.00358100  0.37656200  0.37355600  1
  Cu  Cu20  1  0.00209000  0.49740500  0.25159600  1
  Cu  Cu21  1  0.37337300  0.43827900  0.31200100  1
  Cu  Cu22  1  0.62556600  0.06473400  0.18972000  1
  Cu  Cu23  1  0.00335100  0.99679200  0.24824000  1
  Cu  Cu24  1  0.99261000  0.12713700  0.12718700  1
  Cu  Cu25  1  0.50163500  0.12669900  0.62326800  1
  Cu  Cu26  1  0.50150100  0.24852500  0.50146100  1
  Cu  Cu27  1  0.87256700  0.18746800  0.56232500  1
  Cu  Cu28  1  0.12775600  0.81248300  0.43735700  1
  Cu  Cu29  1  0.49859200  0.75168900  0.49825000  1
  Cu  Cu30  1  0.49868900  0.87338100  0.37643100  1
  Cu  Cu31  1  0.00746200  0.87739300  0.87181500  1
  Cu  Cu32  1  0.00428400  0.99993200  0.75029100  1
  Cu  Cu33  1  0.37717300  0.93875500  0.81062300  1
  Cu  Cu34  1  0.62792700  0.56254100  0.68738100  1
  Cu  Cu35  1  0.00042400  0.50066500  0.74770500  1
  Cu  Cu36  1  0.99832700  0.62363000  0.62616400  1
  Cu  Cu37  1  0.13018800  0.30747500  0.93716900  1
  Cu  Cu38  1  0.49842100  0.25367200  0.99815600  1
  Cu  Cu39  1  0.49670900  0.37500400  0.87639500  1
