# generated using pymatgen
data_CuNi3C8
_symmetry_space_group_name_H-M   'P 1'
_cell_length_a   21.47816215
_cell_length_b   21.47816215
_cell_length_c   21.47816205
_cell_angle_alpha   30.73005636
_cell_angle_beta   30.73005636
_cell_angle_gamma   30.73005476
_symmetry_Int_Tables_number   1
_chemical_formula_structural   CuNi3C8
_chemical_formula_sum   'Cu8 Ni24 C64'
_cell_volume   2294.16674238
_cell_formula_units_Z   8
loop_
 _symmetry_equiv_pos_site_id
 _symmetry_equiv_pos_as_xyz
  1  'x, y, z'
loop_
 _atom_site_type_symbol
 _atom_site_label
 _atom_site_symmetry_multiplicity
 _atom_site_fract_x
 _atom_site_fract_y
 _atom_site_fract_z
 _atom_site_occupancy
  C  C0  1  0.22426000  0.22426000  0.22426000  1
  C  C1  1  0.04149500  0.04149500  0.04149500  1
  C  C2  1  0.72426000  0.72426000  0.72426000  1
  C  C3  1  0.54149500  0.54149500  0.54149500  1
  C  C4  1  0.77873900  0.85174200  0.23602800  1
  C  C5  1  0.23602800  0.77873900  0.85174200  1
  C  C6  1  0.38749500  0.04971000  0.50214100  1
  C  C7  1  0.88749500  0.00214100  0.54971000  1
  C  C8  1  0.54971000  0.88749500  0.00214100  1
  C  C9  1  0.85174200  0.23602800  0.77873900  1
  C  C10  1  0.04971000  0.50214100  0.38749500  1
  C  C11  1  0.73602800  0.35174200  0.27873900  1
  C  C12  1  0.35174200  0.27873900  0.73602800  1
  C  C13  1  0.00214100  0.54971000  0.88749500  1
  C  C14  1  0.27873900  0.73602800  0.35174200  1
  C  C15  1  0.50214100  0.38749500  0.04971000  1
  C  C16  1  0.42364400  0.37364400  0.98498900  1
  C  C17  1  0.50738600  0.00061000  0.57863000  1
  C  C18  1  0.79537500  0.38889400  0.33706400  1
  C  C19  1  0.37364400  0.98498900  0.42364400  1
  C  C20  1  0.77262500  0.25101900  0.19250400  1
  C  C21  1  0.27262500  0.69250400  0.75101900  1
  C  C22  1  0.92364400  0.48498900  0.87364400  1
  C  C23  1  0.25101900  0.19250400  0.77262500  1
  C  C24  1  0.33706400  0.79537500  0.38889400  1
  C  C25  1  0.07863000  0.50061000  0.00738600  1
  C  C26  1  0.83706400  0.88889400  0.29537500  1
  C  C27  1  0.88889400  0.29537500  0.83706400  1
  C  C28  1  0.75101900  0.27262500  0.69250400  1
  C  C29  1  0.50061000  0.00738600  0.07863000  1
  C  C30  1  0.38889400  0.33706400  0.79537500  1
  C  C31  1  0.00738600  0.07863000  0.50061000  1
  C  C32  1  0.57863000  0.50738600  0.00061000  1
  C  C33  1  0.00061000  0.57863000  0.50738600  1
  C  C34  1  0.69250400  0.75101900  0.27262500  1
  C  C35  1  0.29537500  0.83706400  0.88889400  1
  C  C36  1  0.48498900  0.87364400  0.92364400  1
  C  C37  1  0.87364400  0.92364400  0.48498900  1
  C  C38  1  0.19250400  0.77262500  0.25101900  1
  C  C39  1  0.98498900  0.42364400  0.37364400  1
  C  C40  1  0.86085900  0.13317600  0.75526000  1
  C  C41  1  0.38053400  0.95543600  0.00157500  1
  C  C42  1  0.25526000  0.63317600  0.36085900  1
  C  C43  1  0.88053400  0.50157500  0.45543600  1
  C  C44  1  0.89841500  0.01354400  0.64539300  1
  C  C45  1  0.45543600  0.88053400  0.50157500  1
  C  C46  1  0.13317600  0.75526000  0.86085900  1
  C  C47  1  0.14539300  0.51354400  0.39841500  1
  C  C48  1  0.90820900  0.31224200  0.24955900  1
  C  C49  1  0.95543600  0.00157500  0.38053400  1
  C  C50  1  0.74955900  0.81224200  0.40820900  1
  C  C51  1  0.51354400  0.39841500  0.14539300  1
  C  C52  1  0.31224200  0.24955900  0.90820900  1
  C  C53  1  0.01354400  0.64539300  0.89841500  1
  C  C54  1  0.63317600  0.36085900  0.25526000  1
  C  C55  1  0.75526000  0.86085900  0.13317600  1
  C  C56  1  0.81224200  0.40820900  0.74955900  1
  C  C57  1  0.40820900  0.74955900  0.81224200  1
  C  C58  1  0.36085900  0.25526000  0.63317600  1
  C  C59  1  0.64539300  0.89841500  0.01354400  1
  C  C60  1  0.00157500  0.38053400  0.95543600  1
  C  C61  1  0.50157500  0.45543600  0.88053400  1
  C  C62  1  0.39841500  0.14539300  0.51354400  1
  C  C63  1  0.24955900  0.90820900  0.31224200  1
  Ni  Ni64  1  0.55540400  0.81739300  0.86873500  1
  Ni  Ni65  1  0.71774600  0.44099200  0.40005200  1
  Ni  Ni66  1  0.08216800  0.12741800  0.39987200  1
  Ni  Ni67  1  0.36946300  0.64634800  0.67467500  1
  Ni  Ni68  1  0.39987200  0.08216800  0.12741800  1
  Ni  Ni69  1  0.17467500  0.14634800  0.86946300  1
  Ni  Ni70  1  0.40005200  0.71774600  0.44099200  1
  Ni  Ni71  1  0.31739300  0.05540400  0.36873500  1
  Ni  Ni72  1  0.05540400  0.36873500  0.31739300  1
  Ni  Ni73  1  0.21774600  0.90005200  0.94099200  1
  Ni  Ni74  1  0.86946300  0.17467500  0.14634800  1
  Ni  Ni75  1  0.90005200  0.94099200  0.21774600  1
  Ni  Ni76  1  0.94099200  0.21774600  0.90005200  1
  Ni  Ni77  1  0.12741800  0.39987200  0.08216800  1
  Ni  Ni78  1  0.81739300  0.86873500  0.55540400  1
  Ni  Ni79  1  0.36873500  0.31739300  0.05540400  1
  Ni  Ni80  1  0.62741800  0.58216800  0.89987200  1
  Ni  Ni81  1  0.64634800  0.67467500  0.36946300  1
  Ni  Ni82  1  0.67467500  0.36946300  0.64634800  1
  Ni  Ni83  1  0.89987200  0.62741800  0.58216800  1
  Ni  Ni84  1  0.44099200  0.40005200  0.71774600  1
  Ni  Ni85  1  0.58216800  0.89987200  0.62741800  1
  Ni  Ni86  1  0.14634800  0.86946300  0.17467500  1
  Ni  Ni87  1  0.86873500  0.55540400  0.81739300  1
  Cu  Cu88  1  0.80005800  0.80005800  0.80005800  1
  Cu  Cu89  1  0.12071100  0.06784400  0.72108000  1
  Cu  Cu90  1  0.22108000  0.56784400  0.62071100  1
  Cu  Cu91  1  0.06784400  0.72108000  0.12071100  1
  Cu  Cu92  1  0.62071100  0.22108000  0.56784400  1
  Cu  Cu93  1  0.30005800  0.30005800  0.30005800  1
  Cu  Cu94  1  0.56784400  0.62071100  0.22108000  1
  Cu  Cu95  1  0.72108000  0.12071100  0.06784400  1
