# generated using pymatgen
data_Cu8NiC12
_symmetry_space_group_name_H-M   'P 1'
_cell_length_a   14.23812832
_cell_length_b   14.23812832
_cell_length_c   22.06841302
_cell_angle_alpha   90.00000000
_cell_angle_beta   90.00000000
_cell_angle_gamma   90.00000000
_symmetry_Int_Tables_number   1
_chemical_formula_structural   Cu8NiC12
_chemical_formula_sum   'Cu64 Ni8 C96'
_cell_volume   4473.80353871
_cell_formula_units_Z   8
loop_
 _symmetry_equiv_pos_site_id
 _symmetry_equiv_pos_as_xyz
  1  'x, y, z'
loop_
 _atom_site_type_symbol
 _atom_site_label
 _atom_site_symmetry_multiplicity
 _atom_site_fract_x
 _atom_site_fract_y
 _atom_site_fract_z
 _atom_site_occupancy
  C  C0  1  0.26172270  0.57868927  0.74680668  1
  C  C1  1  0.92927388  0.12573003  0.12465735  1
  C  C2  1  0.37967090  0.13459522  0.84470421  1
  C  C3  1  0.33441139  0.35477290  0.76685802  1
  C  C4  1  0.13459522  0.37967090  0.15529579  1
  C  C5  1  0.43663737  0.60354633  0.62909499  1
  C  C6  1  0.67555305  0.35368969  0.99534187  1
  C  C7  1  0.11698954  0.38369062  0.67419213  1
  C  C8  1  0.49899171  0.98160705  0.96238154  1
  C  C9  1  0.73117798  0.42474026  0.77217394  1
  C  C10  1  0.91769173  0.22964205  0.26881059  1
  C  C11  1  0.76172270  0.92131073  0.00319332  1
  C  C12  1  0.62032910  0.86540478  0.34470421  1
  C  C13  1  0.42474026  0.73117798  0.22782606  1
  C  C14  1  0.73827730  0.42131073  0.24680668  1
  C  C15  1  0.61698954  0.11630938  0.07580787  1
  C  C16  1  0.56577321  0.72321609  0.51503050  1
  C  C17  1  0.16558861  0.85477290  0.48314198  1
  C  C18  1  0.36540478  0.87967090  0.09470421  1
  C  C19  1  0.63459522  0.12032910  0.59470421  1
  C  C20  1  0.38369062  0.11698954  0.32580787  1
  C  C21  1  0.85368969  0.82444695  0.74534187  1
  C  C22  1  0.35368969  0.67555305  0.00465813  1
  C  C23  1  0.89645367  0.93663737  0.87909499  1
  C  C24  1  0.12032910  0.63459522  0.40529579  1
  C  C25  1  0.11630938  0.61698954  0.92419213  1
  C  C26  1  0.32444695  0.64631031  0.49534187  1
  C  C27  1  0.92474026  0.76882202  0.52217394  1
  C  C28  1  0.61630938  0.88301046  0.82580787  1
  C  C29  1  0.22321609  0.93422679  0.26503050  1
  C  C30  1  0.37426997  0.42927388  0.37465735  1
  C  C31  1  0.01839295  0.50100829  0.53761846  1
  C  C32  1  0.07868927  0.23827730  0.49680668  1
  C  C33  1  0.10354633  0.06336263  0.37909499  1
  C  C34  1  0.23117798  0.07525974  0.97782606  1
  C  C35  1  0.76882202  0.92474026  0.47782606  1
  C  C36  1  0.93663737  0.89645367  0.12090501  1
  C  C37  1  0.56336263  0.39645367  0.12909499  1
  C  C38  1  0.00100829  0.48160705  0.28761846  1
  C  C39  1  0.35477290  0.33441139  0.23314198  1
  C  C40  1  0.88369062  0.38301046  0.42419213  1
  C  C41  1  0.77678391  0.06577321  0.76503050  1
  C  C42  1  0.48160705  0.00100829  0.71238154  1
  C  C43  1  0.66558861  0.64522710  0.26685802  1
  C  C44  1  0.07072612  0.87426997  0.62465735  1
  C  C45  1  0.42131073  0.73827730  0.75319332  1
  C  C46  1  0.58230827  0.72964205  0.98118941  1
  C  C47  1  0.60354633  0.43663737  0.37090501  1
  C  C48  1  0.82444695  0.85368969  0.25465813  1
  C  C49  1  0.38301046  0.88369062  0.57580787  1
  C  C50  1  0.97900261  0.86166942  0.37474141  1
  C  C51  1  0.88301046  0.61630938  0.17419213  1
  C  C52  1  0.02099739  0.13833058  0.87474141  1
  C  C53  1  0.41769173  0.27035795  0.48118941  1
  C  C54  1  0.07525974  0.23117798  0.02217394  1
  C  C55  1  0.08230827  0.77035795  0.76881059  1
  C  C56  1  0.14522710  0.83441139  0.01685802  1
  C  C57  1  0.42927388  0.37426997  0.62534265  1
  C  C58  1  0.98160705  0.49899171  0.03761846  1
  C  C59  1  0.14631031  0.17555305  0.24534187  1
  C  C60  1  0.26882202  0.57525974  0.27217394  1
  C  C61  1  0.50100829  0.01839295  0.46238154  1
  C  C62  1  0.13833058  0.02099739  0.12525859  1
  C  C63  1  0.72321609  0.56577321  0.48496950  1
  C  C64  1  0.57525974  0.26882202  0.72782606  1
  C  C65  1  0.92131073  0.76172270  0.99680668  1
  C  C66  1  0.57868927  0.26172270  0.25319332  1
  C  C67  1  0.27035795  0.41769173  0.51881059  1
  C  C68  1  0.47900261  0.63833058  0.37525859  1
  C  C69  1  0.06577321  0.77678391  0.23496950  1
  C  C70  1  0.27678391  0.43422679  0.98496950  1
  C  C71  1  0.83441139  0.14522710  0.98314198  1
  C  C72  1  0.86166942  0.97900261  0.62525859  1
  C  C73  1  0.17555305  0.14631031  0.75465813  1
  C  C74  1  0.22964205  0.91769173  0.73118941  1
  C  C75  1  0.57072612  0.62573003  0.12534265  1
  C  C76  1  0.64631031  0.32444695  0.50465813  1
  C  C77  1  0.06336263  0.10354633  0.62090501  1
  C  C78  1  0.63833058  0.47900261  0.62474141  1
  C  C79  1  0.12573003  0.92927388  0.87534265  1
  C  C80  1  0.39645367  0.56336263  0.87090501  1
  C  C81  1  0.62573003  0.57072612  0.87465735  1
  C  C82  1  0.23827730  0.07868927  0.50319332  1
  C  C83  1  0.87967090  0.36540478  0.90529579  1
  C  C84  1  0.64522710  0.66558861  0.73314198  1
  C  C85  1  0.86540478  0.62032910  0.65529579  1
  C  C86  1  0.43422679  0.27678391  0.01503050  1
  C  C87  1  0.52099739  0.36166942  0.87525859  1
  C  C88  1  0.87426997  0.07072612  0.37534265  1
  C  C89  1  0.51839295  0.99899171  0.21238154  1
  C  C90  1  0.36166942  0.52099739  0.12474141  1
  C  C91  1  0.93422679  0.22321609  0.73496950  1
  C  C92  1  0.77035795  0.08230827  0.23118941  1
  C  C93  1  0.99899171  0.51839295  0.78761846  1
  C  C94  1  0.72964205  0.58230827  0.01881059  1
  C  C95  1  0.85477290  0.16558861  0.51685802  1
  Ni  Ni96  1  0.98992500  0.98992500  0.50000000  1
  Ni  Ni97  1  0.48992500  0.51007500  0.25000000  1
  Ni  Ni98  1  0.50266798  0.50266798  0.00000000  1
  Ni  Ni99  1  0.00266798  0.99733202  0.75000000  1
  Ni  Ni100  1  0.49733202  0.49733202  0.50000000  1
  Ni  Ni101  1  0.99733202  0.00266798  0.25000000  1
  Ni  Ni102  1  0.51007500  0.48992500  0.75000000  1
  Ni  Ni103  1  0.01007500  0.01007500  0.00000000  1
  Cu  Cu104  1  0.73942244  0.77039593  0.10848970  1
  Cu  Cu105  1  0.55209892  0.21694694  0.38728772  1
  Cu  Cu106  1  0.87280400  0.31837346  0.05283745  1
  Cu  Cu107  1  0.22377739  0.27661438  0.88546945  1
  Cu  Cu108  1  0.81837346  0.62719600  0.80283745  1
  Cu  Cu109  1  0.11889081  0.58496140  0.17494671  1
  Cu  Cu110  1  0.67714265  0.91571583  0.68710684  1
  Cu  Cu111  1  0.76057756  0.27039593  0.14151030  1
  Cu  Cu112  1  0.04734835  0.70151590  0.09897753  1
  Cu  Cu113  1  0.72377739  0.22338562  0.86453055  1
  Cu  Cu114  1  0.82285735  0.41571583  0.56289316  1
  Cu  Cu115  1  0.58496140  0.11889081  0.82505329  1
  Cu  Cu116  1  0.78305306  0.44790108  0.11271228  1
  Cu  Cu117  1  0.70151590  0.04734835  0.90102247  1
  Cu  Cu118  1  0.72960407  0.23942244  0.35848970  1
  Cu  Cu119  1  0.79848410  0.54734835  0.34897753  1
  Cu  Cu120  1  0.07746187  0.64066000  0.66282798  1
  Cu  Cu121  1  0.94790108  0.71694694  0.86271228  1
  Cu  Cu122  1  0.05209892  0.28305306  0.36271228  1
  Cu  Cu123  1  0.68162654  0.12719600  0.44716255  1
  Cu  Cu124  1  0.45265165  0.20151590  0.15102247  1
  Cu  Cu125  1  0.37280400  0.18162654  0.69716255  1
  Cu  Cu126  1  0.22338562  0.72377739  0.13546945  1
  Cu  Cu127  1  0.71694694  0.94790108  0.13728772  1
  Cu  Cu128  1  0.57746187  0.85934000  0.08717202  1
  Cu  Cu129  1  0.27661438  0.22377739  0.11453055  1
  Cu  Cu130  1  0.72338562  0.77622261  0.61453055  1
  Cu  Cu131  1  0.22960407  0.26057756  0.39151030  1
  Cu  Cu132  1  0.27039593  0.76057756  0.85848970  1
  Cu  Cu133  1  0.41503860  0.88110919  0.32505329  1
  Cu  Cu134  1  0.21694694  0.55209892  0.61271228  1
  Cu  Cu135  1  0.88110919  0.41503860  0.67494671  1
  Cu  Cu136  1  0.17714265  0.58428417  0.06289316  1
  Cu  Cu137  1  0.77622261  0.72338562  0.38546945  1
  Cu  Cu138  1  0.14066000  0.42253813  0.41282798  1
  Cu  Cu139  1  0.61889081  0.91503860  0.57505329  1
  Cu  Cu140  1  0.12719600  0.68162654  0.55283745  1
  Cu  Cu141  1  0.44790108  0.78305306  0.88728772  1
  Cu  Cu142  1  0.95265165  0.29848410  0.59897753  1
  Cu  Cu143  1  0.41571583  0.82285735  0.43710684  1
  Cu  Cu144  1  0.28305306  0.05209892  0.63728772  1
  Cu  Cu145  1  0.23942244  0.72960407  0.64151030  1
  Cu  Cu146  1  0.54734835  0.79848410  0.65102247  1
  Cu  Cu147  1  0.27622261  0.77661438  0.36453055  1
  Cu  Cu148  1  0.35934000  0.92253813  0.83717202  1
  Cu  Cu149  1  0.91503860  0.61889081  0.42494671  1
  Cu  Cu150  1  0.58428417  0.17714265  0.93710684  1
  Cu  Cu151  1  0.77661438  0.27622261  0.63546945  1
  Cu  Cu152  1  0.18162654  0.37280400  0.30283745  1
  Cu  Cu153  1  0.42253813  0.14066000  0.58717202  1
  Cu  Cu154  1  0.62719600  0.81837346  0.19716255  1
  Cu  Cu155  1  0.64066000  0.07746187  0.33717202  1
  Cu  Cu156  1  0.08496140  0.38110919  0.92494671  1
  Cu  Cu157  1  0.08428417  0.32285735  0.81289316  1
  Cu  Cu158  1  0.91571583  0.67714265  0.31289316  1
  Cu  Cu159  1  0.38110919  0.08496140  0.07505329  1
  Cu  Cu160  1  0.31837346  0.87280400  0.94716255  1
  Cu  Cu161  1  0.77039593  0.73942244  0.89151030  1
  Cu  Cu162  1  0.32285735  0.08428417  0.18710684  1
  Cu  Cu163  1  0.92253813  0.35934000  0.16282798  1
  Cu  Cu164  1  0.29848410  0.95265165  0.40102247  1
  Cu  Cu165  1  0.85934000  0.57746187  0.91282798  1
  Cu  Cu166  1  0.26057756  0.22960407  0.60848970  1
  Cu  Cu167  1  0.20151590  0.45265165  0.84897753  1
