# generated using pymatgen
data_CuNi4C3
_symmetry_space_group_name_H-M   'P 1'
_cell_length_a   12.81013700
_cell_length_b   9.75317300
_cell_length_c   12.05428849
_cell_angle_alpha   71.77055823
_cell_angle_beta   90.00000000
_cell_angle_gamma   90.00000000
_symmetry_Int_Tables_number   1
_chemical_formula_structural   CuNi4C3
_chemical_formula_sum   'Cu16 Ni64 C48'
_cell_volume   1430.46973981
_cell_formula_units_Z   16
loop_
 _symmetry_equiv_pos_site_id
 _symmetry_equiv_pos_as_xyz
  1  'x, y, z'
loop_
 _atom_site_type_symbol
 _atom_site_label
 _atom_site_symmetry_multiplicity
 _atom_site_fract_x
 _atom_site_fract_y
 _atom_site_fract_z
 _atom_site_occupancy
  C  C0  1  0.25570300  0.70666800  0.30663400  1
  C  C1  1  0.75570300  0.29333200  0.19336600  1
  C  C2  1  0.74429700  0.29333200  0.69336600  1
  C  C3  1  0.24429700  0.70666800  0.80663400  1
  C  C4  1  0.26722400  0.30545200  0.18716400  1
  C  C5  1  0.76722400  0.69454800  0.31283600  1
  C  C6  1  0.73277600  0.69454800  0.81283600  1
  C  C7  1  0.23277600  0.30545200  0.68716400  1
  C  C8  1  0.49497400  0.79026300  0.19217300  1
  C  C9  1  0.99497400  0.20973700  0.30782700  1
  C  C10  1  0.50502600  0.20973700  0.80782700  1
  C  C11  1  0.00502600  0.79026300  0.69217300  1
  C  C12  1  0.48132600  0.19186100  0.30917100  1
  C  C13  1  0.98132600  0.80813900  0.19082900  1
  C  C14  1  0.51867400  0.80813900  0.69082900  1
  C  C15  1  0.01867400  0.19186100  0.80917100  1
  C  C16  1  0.32288200  0.96385500  0.89398300  1
  C  C17  1  0.82288200  0.03614500  0.60601700  1
  C  C18  1  0.67711800  0.03614500  0.10601700  1
  C  C19  1  0.17711800  0.96385500  0.39398300  1
  C  C20  1  0.31848900  0.04630100  0.58076600  1
  C  C21  1  0.81848900  0.95369900  0.91923400  1
  C  C22  1  0.68151100  0.95369900  0.41923400  1
  C  C23  1  0.18151100  0.04630100  0.08076600  1
  C  C24  1  0.07112400  0.55060300  0.08719400  1
  C  C25  1  0.93002100  0.53507300  0.59938900  1
  C  C26  1  0.56997900  0.53507300  0.09938900  1
  C  C27  1  0.06997900  0.46492700  0.40061100  1
  C  C28  1  0.42887600  0.55060300  0.58719400  1
  C  C29  1  0.92887600  0.44939700  0.91280600  1
  C  C30  1  0.57112400  0.44939700  0.41280600  1
  C  C31  1  0.43002100  0.46492700  0.90061100  1
  C  C32  1  0.32309500  0.62100900  0.07581600  1
  C  C33  1  0.82309500  0.37899100  0.42418400  1
  C  C34  1  0.67690500  0.37899100  0.92418400  1
  C  C35  1  0.17690500  0.62100900  0.57581600  1
  C  C36  1  0.32524800  0.38226100  0.42487400  1
  C  C37  1  0.82524800  0.61773900  0.07512600  1
  C  C38  1  0.67475200  0.61773900  0.57512600  1
  C  C39  1  0.17475200  0.38226100  0.92487400  1
  C  C40  1  0.42792900  0.87945800  0.42405400  1
  C  C41  1  0.92792900  0.12054200  0.07594600  1
  C  C42  1  0.57207100  0.12054200  0.57594600  1
  C  C43  1  0.07207100  0.87945800  0.92405400  1
  C  C44  1  0.42335900  0.11655800  0.07403200  1
  C  C45  1  0.92335900  0.88344200  0.42596800  1
  C  C46  1  0.57664100  0.88344200  0.92596800  1
  C  C47  1  0.07664100  0.11655800  0.57403200  1
  Ni  Ni48  1  0.08264200  0.47174700  0.94891900  1
  Ni  Ni49  1  0.79811800  0.26063400  0.54077000  1
  Ni  Ni50  1  0.70188200  0.26063400  0.04077000  1
  Ni  Ni51  1  0.20188200  0.73936600  0.45923000  1
  Ni  Ni52  1  0.29867100  0.26220600  0.54081900  1
  Ni  Ni53  1  0.79867100  0.73779400  0.95918100  1
  Ni  Ni54  1  0.70132900  0.73779400  0.45918100  1
  Ni  Ni55  1  0.20132900  0.26220600  0.04081900  1
  Ni  Ni56  1  0.44745500  0.76800800  0.54679000  1
  Ni  Ni57  1  0.94745500  0.23199200  0.95321000  1
  Ni  Ni58  1  0.55254500  0.23199200  0.45321000  1
  Ni  Ni59  1  0.05254500  0.76800800  0.04679000  1
  Ni  Ni60  1  0.45306700  0.24147000  0.96341600  1
  Ni  Ni61  1  0.95306700  0.75853000  0.53658400  1
  Ni  Ni62  1  0.54693300  0.75853000  0.03658400  1
  Ni  Ni63  1  0.04693300  0.24147000  0.46341600  1
  Ni  Ni64  1  0.33676900  0.98175800  0.43252100  1
  Ni  Ni65  1  0.83676900  0.01824200  0.06747900  1
  Ni  Ni66  1  0.66323100  0.01824200  0.56747900  1
  Ni  Ni67  1  0.16323100  0.98175800  0.93252100  1
  Ni  Ni68  1  0.33382300  0.02626500  0.04497400  1
  Ni  Ni69  1  0.83382300  0.97373500  0.45502600  1
  Ni  Ni70  1  0.66617700  0.97373500  0.95502600  1
  Ni  Ni71  1  0.16617700  0.02626500  0.54497400  1
  Ni  Ni72  1  0.41299500  0.52066200  0.05986700  1
  Ni  Ni73  1  0.91299500  0.47933800  0.44013300  1
  Ni  Ni74  1  0.58700500  0.47933800  0.94013300  1
  Ni  Ni75  1  0.08700500  0.52066200  0.55986700  1
  Ni  Ni76  1  0.41735800  0.47174700  0.44891900  1
  Ni  Ni77  1  0.91735800  0.52825300  0.05108100  1
  Ni  Ni78  1  0.58264200  0.52825300  0.55108100  1
  Ni  Ni79  1  0.29811800  0.73936600  0.95923000  1
  Ni  Ni80  1  0.27326800  0.51968200  0.61835500  1
  Ni  Ni81  1  0.77326800  0.48031800  0.88164500  1
  Ni  Ni82  1  0.72673200  0.48031800  0.38164500  1
  Ni  Ni83  1  0.22673200  0.51968200  0.11835500  1
  Ni  Ni84  1  0.26898200  0.48379900  0.88178500  1
  Ni  Ni85  1  0.76898200  0.51620100  0.61821500  1
  Ni  Ni86  1  0.73101800  0.51620100  0.11821500  1
  Ni  Ni87  1  0.23101800  0.48379900  0.38178500  1
  Ni  Ni88  1  0.47475700  0.02172000  0.61639100  1
  Ni  Ni89  1  0.97475700  0.97828000  0.88360900  1
  Ni  Ni90  1  0.52524300  0.97828000  0.38360900  1
  Ni  Ni91  1  0.02524300  0.02172000  0.11639100  1
  Ni  Ni92  1  0.48293400  0.98572100  0.87952600  1
  Ni  Ni93  1  0.98293400  0.01427900  0.62047400  1
  Ni  Ni94  1  0.51706600  0.01427900  0.12047400  1
  Ni  Ni95  1  0.01706600  0.98572100  0.37952600  1
  Ni  Ni96  1  0.11037600  0.17896200  0.67283200  1
  Ni  Ni97  1  0.61037600  0.82103800  0.82716800  1
  Ni  Ni98  1  0.88962400  0.82103800  0.32716800  1
  Ni  Ni99  1  0.38962400  0.17896200  0.17283200  1
  Ni  Ni100  1  0.09503800  0.79848300  0.83540700  1
  Ni  Ni101  1  0.59503800  0.20151700  0.66459300  1
  Ni  Ni102  1  0.90496200  0.20151700  0.16459300  1
  Ni  Ni103  1  0.40496200  0.79848300  0.33540700  1
  Ni  Ni104  1  0.14414100  0.31354000  0.82930100  1
  Ni  Ni105  1  0.64414100  0.68646000  0.67069900  1
  Ni  Ni106  1  0.34869100  0.69374400  0.16974300  1
  Ni  Ni107  1  0.35585900  0.31354000  0.32930100  1
  Ni  Ni108  1  0.15130900  0.69374400  0.66974300  1
  Ni  Ni109  1  0.65130900  0.30625600  0.83025700  1
  Ni  Ni110  1  0.84869100  0.30625600  0.33025700  1
  Ni  Ni111  1  0.85585900  0.68646000  0.17069900  1
  Cu  Cu112  1  0.04955700  0.41405600  0.24527000  1
  Cu  Cu113  1  0.54955700  0.58594400  0.25473000  1
  Cu  Cu114  1  0.95044300  0.58594400  0.75473000  1
  Cu  Cu115  1  0.45044300  0.41405600  0.74527000  1
  Cu  Cu116  1  0.08448700  0.66859100  0.28316900  1
  Cu  Cu117  1  0.58448700  0.33140900  0.21683100  1
  Cu  Cu118  1  0.91551300  0.33140900  0.71683100  1
  Cu  Cu119  1  0.41551300  0.66859100  0.78316900  1
  Cu  Cu120  1  0.16176000  0.16927300  0.27862900  1
  Cu  Cu121  1  0.66176000  0.83072700  0.22137100  1
  Cu  Cu122  1  0.83824000  0.83072700  0.72137100  1
  Cu  Cu123  1  0.33824000  0.16927300  0.77862900  1
  Cu  Cu124  1  0.20190500  0.91126200  0.24068600  1
  Cu  Cu125  1  0.70190500  0.08873800  0.25931400  1
  Cu  Cu126  1  0.79809500  0.08873800  0.75931400  1
  Cu  Cu127  1  0.29809500  0.91126200  0.74068600  1
