# generated using pymatgen
data_Cu17NiC3
_symmetry_space_group_name_H-M   'P 1'
_cell_length_a   15.84461802
_cell_length_b   15.84461802
_cell_length_c   15.84461862
_cell_angle_alpha   90.04463755
_cell_angle_beta   90.04463755
_cell_angle_gamma   90.04463449
_symmetry_Int_Tables_number   1
_chemical_formula_structural   Cu17NiC3
_chemical_formula_sum   'Cu136 Ni8 C24'
_cell_volume   3977.81830914
_cell_formula_units_Z   8
loop_
 _symmetry_equiv_pos_site_id
 _symmetry_equiv_pos_as_xyz
  1  'x, y, z'
loop_
 _atom_site_type_symbol
 _atom_site_label
 _atom_site_symmetry_multiplicity
 _atom_site_fract_x
 _atom_site_fract_y
 _atom_site_fract_z
 _atom_site_occupancy
  C  C0  1  0.19883600  0.49788500  0.31066000  1
  C  C1  1  0.80102100  0.50117200  0.31397900  1
  C  C2  1  0.50111200  0.68959900  0.20171300  1
  C  C3  1  0.68959900  0.20171300  0.50111200  1
  C  C4  1  0.80356900  0.50210200  0.69060300  1
  C  C5  1  0.50210200  0.69060300  0.80356900  1
  C  C6  1  0.18770300  0.29880500  0.99870100  1
  C  C7  1  0.69916800  0.00107200  0.19021900  1
  C  C8  1  0.99870100  0.18770300  0.29880500  1
  C  C9  1  0.29880500  0.99870100  0.18770300  1
  C  C10  1  0.31066000  0.19883600  0.49788500  1
  C  C11  1  0.69899500  0.00239400  0.81166500  1
  C  C12  1  0.80927000  0.30468800  0.00080000  1
  C  C13  1  0.19021900  0.69916800  0.00107200  1
  C  C14  1  0.30468800  0.00080000  0.80927000  1
  C  C15  1  0.00239400  0.81166500  0.69899500  1
  C  C16  1  0.69060300  0.80356900  0.50210200  1
  C  C17  1  0.31397900  0.80102100  0.50117200  1
  C  C18  1  0.00080000  0.80927000  0.30468800  1
  C  C19  1  0.00107200  0.19021900  0.69916800  1
  C  C20  1  0.49788500  0.31066000  0.19883600  1
  C  C21  1  0.50117200  0.31397900  0.80102100  1
  C  C22  1  0.20171300  0.50111200  0.68959900  1
  C  C23  1  0.81166500  0.69899500  0.00239400  1
  Ni  Ni24  1  0.06812400  0.07535700  0.94759400  1
  Ni  Ni25  1  0.07535700  0.94759400  0.06812400  1
  Ni  Ni26  1  0.58214400  0.43299200  0.49429400  1
  Ni  Ni27  1  0.42476500  0.42476500  0.42476500  1
  Ni  Ni28  1  0.43299200  0.49429400  0.58214400  1
  Ni  Ni29  1  0.49429400  0.58214400  0.43299200  1
  Ni  Ni30  1  0.94759400  0.06812400  0.07535700  1
  Ni  Ni31  1  0.94556600  0.94556600  0.94556600  1
  Cu  Cu32  1  0.00172400  0.77279600  0.90966100  1
  Cu  Cu33  1  0.69787800  0.38683800  0.83756400  1
  Cu  Cu34  1  0.83120300  0.16915400  0.16862900  1
  Cu  Cu35  1  0.99928200  0.40551500  0.34281200  1
  Cu  Cu36  1  0.16915400  0.16862900  0.83120300  1
  Cu  Cu37  1  0.69704300  0.61698200  0.16413400  1
  Cu  Cu38  1  0.30014100  0.38518300  0.15262700  1
  Cu  Cu39  1  0.65627800  0.66026100  0.34560200  1
  Cu  Cu40  1  0.50491600  0.72033600  0.58841100  1
  Cu  Cu41  1  0.38788900  0.16068900  0.69477900  1
  Cu  Cu42  1  0.50197000  0.90439800  0.15807300  1
  Cu  Cu43  1  0.59755700  0.65787000  0.00260300  1
  Cu  Cu44  1  0.09407200  0.15629400  0.49936700  1
  Cu  Cu45  1  0.34560200  0.65627800  0.66026100  1
  Cu  Cu46  1  0.69477900  0.38788900  0.16068900  1
  Cu  Cu47  1  0.50056100  0.99792500  0.31591500  1
  Cu  Cu48  1  0.59561000  0.34484500  0.99911100  1
  Cu  Cu49  1  0.23657000  0.90561400  0.99882300  1
  Cu  Cu50  1  0.50084000  0.26308500  0.40435000  1
  Cu  Cu51  1  0.90561400  0.99882300  0.23657000  1
  Cu  Cu52  1  0.40551500  0.34281200  0.99928200  1
  Cu  Cu53  1  0.50058900  0.10006200  0.50596500  1
  Cu  Cu54  1  0.99882300  0.23657000  0.90561400  1
  Cu  Cu55  1  0.83872900  0.16282600  0.83962200  1
  Cu  Cu56  1  0.65588500  0.00052200  0.40655900  1
  Cu  Cu57  1  0.28058800  0.58929000  0.49891400  1
  Cu  Cu58  1  0.66017000  0.20145200  0.88349600  1
  Cu  Cu59  1  0.11638400  0.34483200  0.80033200  1
  Cu  Cu60  1  0.50175700  0.90492500  0.84446700  1
  Cu  Cu61  1  0.90439800  0.15807300  0.50197000  1
  Cu  Cu62  1  0.00260300  0.59755700  0.65787000  1
  Cu  Cu63  1  0.68838000  0.50146700  0.99941000  1
  Cu  Cu64  1  0.83757400  0.83757400  0.83757400  1
  Cu  Cu65  1  0.88349600  0.66017000  0.20145200  1
  Cu  Cu66  1  0.61698200  0.16413400  0.69704300  1
  Cu  Cu67  1  0.11762100  0.34007300  0.19877800  1
  Cu  Cu68  1  0.66548500  0.66548500  0.66548500  1
  Cu  Cu69  1  0.30112600  0.61644900  0.15808500  1
  Cu  Cu70  1  0.99988200  0.50140600  0.18560300  1
  Cu  Cu71  1  0.90492500  0.84446700  0.50175700  1
  Cu  Cu72  1  0.00064200  0.59860000  0.99905900  1
  Cu  Cu73  1  0.31591500  0.50056100  0.99792500  1
  Cu  Cu74  1  0.29868800  0.37999500  0.84330200  1
  Cu  Cu75  1  0.19877800  0.11762100  0.34007300  1
  Cu  Cu76  1  0.34091100  0.66308000  0.33830800  1
  Cu  Cu77  1  0.80238900  0.88376600  0.34327200  1
  Cu  Cu78  1  0.15629400  0.49936700  0.09407200  1
  Cu  Cu79  1  0.40435000  0.50084000  0.26308500  1
  Cu  Cu80  1  0.66052000  0.80252900  0.11553500  1
  Cu  Cu81  1  0.34603300  0.19971800  0.88012600  1
  Cu  Cu82  1  0.09728100  0.84223300  0.50280300  1
  Cu  Cu83  1  0.80033200  0.11638400  0.34483200  1
  Cu  Cu84  1  0.65636300  0.20111800  0.11646900  1
  Cu  Cu85  1  0.99941000  0.68838000  0.50146700  1
  Cu  Cu86  1  0.66037500  0.80311700  0.88577900  1
  Cu  Cu87  1  0.20111800  0.11646900  0.65636300  1
  Cu  Cu88  1  0.88577900  0.66037500  0.80311700  1
  Cu  Cu89  1  0.09432600  0.00184700  0.77083000  1
  Cu  Cu90  1  0.84446700  0.50175700  0.90492500  1
  Cu  Cu91  1  0.84141700  0.29842300  0.62398300  1
  Cu  Cu92  1  0.99737300  0.24194100  0.09222500  1
  Cu  Cu93  1  0.40655900  0.65588500  0.00052200  1
  Cu  Cu94  1  0.84223300  0.50280300  0.09728100  1
  Cu  Cu95  1  0.51085500  0.50178900  0.90863400  1
  Cu  Cu96  1  0.32412900  0.32412900  0.32412900  1
  Cu  Cu97  1  0.34007300  0.19877800  0.11762100  1
  Cu  Cu98  1  0.34484500  0.99911100  0.59561000  1
  Cu  Cu99  1  0.90863400  0.51085500  0.50178900  1
  Cu  Cu100  1  0.66308000  0.33830800  0.34091100  1
  Cu  Cu101  1  0.16282600  0.83962200  0.83872900  1
  Cu  Cu102  1  0.34281200  0.99928200  0.40551500  1
  Cu  Cu103  1  0.50140600  0.18560300  0.99988200  1
  Cu  Cu104  1  0.15476000  0.15476000  0.15476000  1
  Cu  Cu105  1  0.61746000  0.84214100  0.69927000  1
  Cu  Cu106  1  0.10006200  0.50596500  0.50058900  1
  Cu  Cu107  1  0.72033600  0.58841100  0.50491600  1
  Cu  Cu108  1  0.50596500  0.50058900  0.10006200  1
  Cu  Cu109  1  0.58929000  0.49891400  0.28058800  1
  Cu  Cu110  1  0.40760000  0.99546300  0.99987900  1
  Cu  Cu111  1  0.69927000  0.61746000  0.84214100  1
  Cu  Cu112  1  0.16862900  0.83120300  0.16915400  1
  Cu  Cu113  1  0.62398300  0.84141700  0.29842300  1
  Cu  Cu114  1  0.24194100  0.09222500  0.99737300  1
  Cu  Cu115  1  0.26308500  0.40435000  0.50084000  1
  Cu  Cu116  1  0.84214100  0.69927000  0.61746000  1
  Cu  Cu117  1  0.49891400  0.28058800  0.58929000  1
  Cu  Cu118  1  0.50178900  0.90863400  0.51085500  1
  Cu  Cu119  1  0.16068900  0.69477900  0.38788900  1
  Cu  Cu120  1  0.38518300  0.15262700  0.30014100  1
  Cu  Cu121  1  0.99905900  0.00064200  0.59860000  1
  Cu  Cu122  1  0.50146700  0.99941000  0.68838000  1
  Cu  Cu123  1  0.11646900  0.65636300  0.20111800  1
  Cu  Cu124  1  0.99792500  0.31591500  0.50056100  1
  Cu  Cu125  1  0.77279600  0.90966100  0.00172400  1
  Cu  Cu126  1  0.77083000  0.09432600  0.00184700  1
  Cu  Cu127  1  0.50119800  0.81349300  0.00079700  1
  Cu  Cu128  1  0.20145200  0.88349600  0.66017000  1
  Cu  Cu129  1  0.99546300  0.99987900  0.40760000  1
  Cu  Cu130  1  0.15808500  0.30112600  0.61644900  1
  Cu  Cu131  1  0.33830800  0.34091100  0.66308000  1
  Cu  Cu132  1  0.61644900  0.15808500  0.30112600  1
  Cu  Cu133  1  0.15807300  0.50197000  0.90439800  1
  Cu  Cu134  1  0.00052200  0.40655900  0.65588500  1
  Cu  Cu135  1  0.80252900  0.11553500  0.66052000  1
  Cu  Cu136  1  0.16413400  0.69704300  0.61698200  1
  Cu  Cu137  1  0.00079700  0.50119800  0.81349300  1
  Cu  Cu138  1  0.66026100  0.34560200  0.65627800  1
  Cu  Cu139  1  0.11553500  0.66052000  0.80252900  1
  Cu  Cu140  1  0.90966100  0.00172400  0.77279600  1
  Cu  Cu141  1  0.00184700  0.77083000  0.09432600  1
  Cu  Cu142  1  0.19971800  0.88012600  0.34603300  1
  Cu  Cu143  1  0.83962200  0.83872900  0.16282600  1
  Cu  Cu144  1  0.29842300  0.62398300  0.84141700  1
  Cu  Cu145  1  0.59860000  0.99905900  0.00064200  1
  Cu  Cu146  1  0.49936700  0.09407200  0.15629400  1
  Cu  Cu147  1  0.15262700  0.30014100  0.38518300  1
  Cu  Cu148  1  0.99987900  0.40760000  0.99546300  1
  Cu  Cu149  1  0.88376600  0.34327200  0.80238900  1
  Cu  Cu150  1  0.34327200  0.80238900  0.88376600  1
  Cu  Cu151  1  0.34483200  0.80033200  0.11638400  1
  Cu  Cu152  1  0.65787000  0.00260300  0.59755700  1
  Cu  Cu153  1  0.40580500  0.50182900  0.75466000  1
  Cu  Cu154  1  0.09222500  0.99737300  0.24194100  1
  Cu  Cu155  1  0.99911100  0.59561000  0.34484500  1
  Cu  Cu156  1  0.80311700  0.88577900  0.66037500  1
  Cu  Cu157  1  0.83756400  0.69787800  0.38683800  1
  Cu  Cu158  1  0.75466000  0.40580500  0.50182900  1
  Cu  Cu159  1  0.37999500  0.84330200  0.29868800  1
  Cu  Cu160  1  0.50182900  0.75466000  0.40580500  1
  Cu  Cu161  1  0.58841100  0.50491600  0.72033600  1
  Cu  Cu162  1  0.84330200  0.29868800  0.37999500  1
  Cu  Cu163  1  0.81349300  0.00079700  0.50119800  1
  Cu  Cu164  1  0.38683800  0.83756400  0.69787800  1
  Cu  Cu165  1  0.18560300  0.99988200  0.50140600  1
  Cu  Cu166  1  0.50280300  0.09728100  0.84223300  1
  Cu  Cu167  1  0.88012600  0.34603300  0.19971800  1
