# generated using pymatgen
data_Cu3NiC4
_symmetry_space_group_name_H-M   'P 1'
_cell_length_a   7.73986500
_cell_length_b   19.53011900
_cell_length_c   19.69018900
_cell_angle_alpha   90.00000000
_cell_angle_beta   90.00000000
_cell_angle_gamma   90.00000000
_symmetry_Int_Tables_number   1
_chemical_formula_structural   Cu3NiC4
_chemical_formula_sum   'Cu48 Ni16 C64'
_cell_volume   2976.37850902
_cell_formula_units_Z   16
loop_
 _symmetry_equiv_pos_site_id
 _symmetry_equiv_pos_as_xyz
  1  'x, y, z'
loop_
 _atom_site_type_symbol
 _atom_site_label
 _atom_site_symmetry_multiplicity
 _atom_site_fract_x
 _atom_site_fract_y
 _atom_site_fract_z
 _atom_site_occupancy
  Ni  Ni0  1  0.82123300  0.92306700  0.40331600  1
  Ni  Ni1  1  0.32123300  0.57693300  0.59668400  1
  Ni  Ni2  1  0.59534800  0.69738700  0.41054400  1
  Ni  Ni3  1  0.32123300  0.92306700  0.09668400  1
  Ni  Ni4  1  0.67876700  0.42306700  0.40331600  1
  Ni  Ni5  1  0.17876700  0.42306700  0.09668400  1
  Ni  Ni6  1  0.67876700  0.07693300  0.90331600  1
  Ni  Ni7  1  0.09534800  0.69738700  0.08945600  1
  Ni  Ni8  1  0.82123300  0.57693300  0.90331600  1
  Ni  Ni9  1  0.90465200  0.19738700  0.41054400  1
  Ni  Ni10  1  0.90465200  0.30261300  0.91054400  1
  Ni  Ni11  1  0.40465200  0.30261300  0.58945600  1
  Ni  Ni12  1  0.40465200  0.19738700  0.08945600  1
  Ni  Ni13  1  0.09534800  0.80261300  0.58945600  1
  Ni  Ni14  1  0.59534800  0.80261300  0.91054400  1
  Ni  Ni15  1  0.17876700  0.07693300  0.59668400  1
  C  C16  1  0.90784900  0.43360300  0.34180500  1
  C  C17  1  0.40784900  0.06639700  0.65819500  1
  C  C18  1  0.91025800  0.74273100  0.15737100  1
  C  C19  1  0.08974200  0.24273100  0.34262900  1
  C  C20  1  0.08974200  0.25726900  0.84262900  1
  C  C21  1  0.58974200  0.25726900  0.65737100  1
  C  C22  1  0.09215100  0.56639700  0.65819500  1
  C  C23  1  0.91025800  0.75726900  0.65737100  1
  C  C24  1  0.41025800  0.74273100  0.34262900  1
  C  C25  1  0.40784900  0.43360300  0.15819500  1
  C  C26  1  0.59215100  0.56639700  0.84180500  1
  C  C27  1  0.90784900  0.06639700  0.84180500  1
  C  C28  1  0.58974200  0.24273100  0.15737100  1
  C  C29  1  0.09215100  0.93360300  0.15819500  1
  C  C30  1  0.59215100  0.93360300  0.34180500  1
  C  C31  1  0.41025800  0.75726900  0.84262900  1
  Cu  Cu32  1  0.94335700  0.65922100  0.23301800  1
  Cu  Cu33  1  0.51556300  0.47270400  0.90065500  1
  Cu  Cu34  1  0.51556300  0.02729600  0.40065500  1
  Cu  Cu35  1  0.75302600  0.48992400  0.26067500  1
  Cu  Cu36  1  0.75302600  0.01007600  0.76067500  1
  Cu  Cu37  1  0.44335700  0.65922100  0.26698200  1
  Cu  Cu38  1  0.24697400  0.98992400  0.23932500  1
  Cu  Cu39  1  0.48443700  0.52729600  0.09934500  1
  Cu  Cu40  1  0.24697400  0.51007600  0.73932500  1
  Cu  Cu41  1  0.01556300  0.02729600  0.09934500  1
  Cu  Cu42  1  0.85544400  0.31648000  0.27784400  1
  Cu  Cu43  1  0.01556300  0.47270400  0.59934500  1
  Cu  Cu44  1  0.05664300  0.34077900  0.76698200  1
  Cu  Cu45  1  0.98443700  0.52729600  0.40065500  1
  Cu  Cu46  1  0.30466500  0.19286200  0.40130700  1
  Cu  Cu47  1  0.25302600  0.01007600  0.73932500  1
  Cu  Cu48  1  0.19533500  0.69286200  0.40130700  1
  Cu  Cu49  1  0.08402200  0.35573300  0.42212100  1
  Cu  Cu50  1  0.94335700  0.84077900  0.73301800  1
  Cu  Cu51  1  0.35544400  0.18352000  0.72215600  1
  Cu  Cu52  1  0.41597800  0.64426700  0.92212100  1
  Cu  Cu53  1  0.69533500  0.80713800  0.59869300  1
  Cu  Cu54  1  0.74697400  0.98992400  0.26067500  1
  Cu  Cu55  1  0.44335700  0.84077900  0.76698200  1
  Cu  Cu56  1  0.80466500  0.30713800  0.59869300  1
  Cu  Cu57  1  0.14455600  0.81648000  0.22215600  1
  Cu  Cu58  1  0.48443700  0.97270400  0.59934500  1
  Cu  Cu59  1  0.14455600  0.68352000  0.72215600  1
  Cu  Cu60  1  0.80466500  0.19286200  0.09869300  1
  Cu  Cu61  1  0.19533500  0.80713800  0.90130700  1
  Cu  Cu62  1  0.30466500  0.30713800  0.90130700  1
  Cu  Cu63  1  0.05664300  0.15922100  0.26698200  1
  Cu  Cu64  1  0.25302600  0.48992400  0.23932500  1
  Cu  Cu65  1  0.41597800  0.85573300  0.42212100  1
  Cu  Cu66  1  0.91597800  0.64426700  0.57787900  1
  Cu  Cu67  1  0.64455600  0.68352000  0.77784400  1
  Cu  Cu68  1  0.35544400  0.31648000  0.22215600  1
  Cu  Cu69  1  0.98443700  0.97270400  0.90065500  1
  Cu  Cu70  1  0.55664300  0.15922100  0.23301800  1
  Cu  Cu71  1  0.08402200  0.14426700  0.92212100  1
  Cu  Cu72  1  0.64455600  0.81648000  0.27784400  1
  Cu  Cu73  1  0.58402200  0.35573300  0.07787900  1
  Cu  Cu74  1  0.91597800  0.85573300  0.07787900  1
  Cu  Cu75  1  0.74697400  0.51007600  0.76067500  1
  Cu  Cu76  1  0.58402200  0.14426700  0.57787900  1
  Cu  Cu77  1  0.69533500  0.69286200  0.09869300  1
  Cu  Cu78  1  0.55664300  0.34077900  0.73301800  1
  Cu  Cu79  1  0.85544400  0.18352000  0.77784400  1
  C  C80  1  0.77482900  0.59081700  0.96726400  1
  C  C81  1  0.74581000  0.21690900  0.39269600  1
  C  C82  1  0.22517100  0.09081700  0.53273600  1
  C  C83  1  0.74581000  0.28309100  0.89269600  1
  C  C84  1  0.41878400  0.87273000  0.12175300  1
  C  C85  1  0.58121600  0.12727000  0.87824700  1
  C  C86  1  0.41817700  0.12919000  0.09330300  1
  C  C87  1  0.59120400  0.01793100  0.90174300  1
  C  C88  1  0.90879600  0.51793100  0.90174300  1
  C  C89  1  0.77482900  0.90918300  0.46726400  1
  C  C90  1  0.58121600  0.37273000  0.37824700  1
  C  C91  1  0.41817700  0.37081000  0.59330300  1
  C  C92  1  0.44019700  0.21765500  0.02614800  1
  C  C93  1  0.08121600  0.12727000  0.62175300  1
  C  C94  1  0.05980300  0.78234500  0.52614800  1
  C  C95  1  0.91817700  0.37081000  0.90669700  1
  C  C96  1  0.55980300  0.78234500  0.97385200  1
  C  C97  1  0.44019700  0.28234500  0.52614800  1
  C  C98  1  0.24581000  0.21690900  0.10730400  1
  C  C99  1  0.75419000  0.71690900  0.39269600  1
  C  C100  1  0.55980300  0.71765500  0.47385200  1
  C  C101  1  0.91878400  0.87273000  0.37824700  1
  C  C102  1  0.72517100  0.40918300  0.46726400  1
  C  C103  1  0.25419000  0.71690900  0.10730400  1
  C  C104  1  0.75419000  0.78309100  0.89269600  1
  C  C105  1  0.40879600  0.98206900  0.09825700  1
  C  C106  1  0.94019700  0.28234500  0.97385200  1
  C  C107  1  0.91817700  0.12919000  0.40669700  1
  C  C108  1  0.40879600  0.51793100  0.59825700  1
  C  C109  1  0.08182300  0.87081000  0.59330300  1
  C  C110  1  0.09120400  0.01793100  0.59825700  1
  C  C111  1  0.90879600  0.98206900  0.40174300  1
  C  C112  1  0.27482900  0.59081700  0.53273600  1
  C  C113  1  0.09120400  0.48206900  0.09825700  1
  C  C114  1  0.27482900  0.90918300  0.03273600  1
  C  C115  1  0.25419000  0.78309100  0.60730400  1
  C  C116  1  0.94019700  0.21765500  0.47385200  1
  C  C117  1  0.24581000  0.28309100  0.60730400  1
  C  C118  1  0.58182300  0.62919000  0.40669700  1
  C  C119  1  0.41878400  0.62727000  0.62175300  1
  C  C120  1  0.08182300  0.62919000  0.09330300  1
  C  C121  1  0.22517100  0.40918300  0.03273600  1
  C  C122  1  0.05980300  0.71765500  0.02614800  1
  C  C123  1  0.58182300  0.87081000  0.90669700  1
  C  C124  1  0.08121600  0.37273000  0.12175300  1
  C  C125  1  0.91878400  0.62727000  0.87824700  1
  C  C126  1  0.59120400  0.48206900  0.40174300  1
  C  C127  1  0.72517100  0.09081700  0.96726400  1
