# generated using pymatgen
data_Cu2Ni3C11
_symmetry_space_group_name_H-M   'P 1'
_cell_length_a   8.95377900
_cell_length_b   7.43542700
_cell_length_c   12.49765212
_cell_angle_alpha   67.59275022
_cell_angle_beta   90.00000000
_cell_angle_gamma   90.00000000
_symmetry_Int_Tables_number   1
_chemical_formula_structural   Cu2Ni3C11
_chemical_formula_sum   'Cu8 Ni12 C44'
_cell_volume   769.21297758
_cell_formula_units_Z   4
loop_
 _symmetry_equiv_pos_site_id
 _symmetry_equiv_pos_as_xyz
  1  'x, y, z'
loop_
 _atom_site_type_symbol
 _atom_site_label
 _atom_site_symmetry_multiplicity
 _atom_site_fract_x
 _atom_site_fract_y
 _atom_site_fract_z
 _atom_site_occupancy
  C  C0  1  0.91961500  0.25774900  0.20546600  1
  C  C1  1  0.08038500  0.74225100  0.79453400  1
  C  C2  1  0.41961500  0.74225100  0.29453400  1
  C  C3  1  0.58038500  0.25774900  0.70546600  1
  Ni  Ni4  1  0.60294100  0.36047300  0.29173100  1
  Ni  Ni5  1  0.89705900  0.36047300  0.79173100  1
  Ni  Ni6  1  0.38611500  0.29082600  0.48265800  1
  Ni  Ni7  1  0.09858800  0.85867900  0.36263500  1
  Ni  Ni8  1  0.11388500  0.29082600  0.98265800  1
  Ni  Ni9  1  0.88611500  0.70917400  0.01734200  1
  Ni  Ni10  1  0.59858800  0.14132100  0.13736500  1
  Ni  Ni11  1  0.40141200  0.85867900  0.86263500  1
  Ni  Ni12  1  0.61388500  0.70917400  0.51734200  1
  Ni  Ni13  1  0.10294100  0.63952700  0.20826900  1
  Ni  Ni14  1  0.39705900  0.63952700  0.70826900  1
  Ni  Ni15  1  0.90141200  0.14132100  0.63736500  1
  Cu  Cu16  1  0.35464500  0.72149500  0.05030800  1
  Cu  Cu17  1  0.68237400  0.75872600  0.09744700  1
  Cu  Cu18  1  0.85464500  0.27850500  0.44969200  1
  Cu  Cu19  1  0.14535500  0.72149500  0.55030800  1
  Cu  Cu20  1  0.81762600  0.75872600  0.59744700  1
  Cu  Cu21  1  0.18237400  0.24127400  0.40255300  1
  Cu  Cu22  1  0.64535500  0.27850500  0.94969200  1
  Cu  Cu23  1  0.31762600  0.24127400  0.90255300  1
  C  C24  1  0.96942700  0.27032100  0.70694300  1
  C  C25  1  0.42609300  0.71525200  0.99120900  1
  C  C26  1  0.57390700  0.28474800  0.00879100  1
  C  C27  1  0.49721700  0.96839700  0.16158000  1
  C  C28  1  0.23223000  0.68711400  0.68938600  1
  C  C29  1  0.57228300  0.80045800  0.39171700  1
  C  C30  1  0.00278300  0.96839700  0.66158000  1
  C  C31  1  0.26777000  0.68711400  0.18938600  1
  C  C32  1  0.35381800  0.50719300  0.43129900  1
  C  C33  1  0.92609300  0.28474800  0.50879100  1
  C  C34  1  0.14618200  0.50719300  0.93129900  1
  C  C35  1  0.73852100  0.09806100  0.66933600  1
  C  C36  1  0.43401500  0.42513900  0.75203800  1
  C  C37  1  0.25147000  0.17004600  0.46582000  1
  C  C38  1  0.06598500  0.42513900  0.25203800  1
  C  C39  1  0.85381800  0.49280700  0.06870100  1
  C  C40  1  0.97461100  0.24451600  0.91302400  1
  C  C41  1  0.56598500  0.57486100  0.24796200  1
  C  C42  1  0.46942700  0.72967900  0.79305700  1
  C  C43  1  0.52538900  0.24451600  0.41302400  1
  C  C44  1  0.50278300  0.03160300  0.83842000  1
  C  C45  1  0.47461100  0.75548400  0.58697600  1
  C  C46  1  0.26147900  0.90193900  0.33066400  1
  C  C47  1  0.03057300  0.72967900  0.29305700  1
  C  C48  1  0.23852100  0.90193900  0.83066400  1
  C  C49  1  0.76777000  0.31288600  0.31061400  1
  C  C50  1  0.24853000  0.17004600  0.96582000  1
  C  C51  1  0.53057300  0.27032100  0.20694300  1
  C  C52  1  0.07228300  0.19954200  0.10828300  1
  C  C53  1  0.93401500  0.57486100  0.74796200  1
  C  C54  1  0.92771700  0.80045800  0.89171700  1
  C  C55  1  0.73223000  0.31288600  0.81061400  1
  C  C56  1  0.75147000  0.82995400  0.03418000  1
  C  C57  1  0.99721700  0.03160300  0.33842000  1
  C  C58  1  0.64618200  0.49280700  0.56870100  1
  C  C59  1  0.76147900  0.09806100  0.16933600  1
  C  C60  1  0.02538900  0.75548400  0.08697600  1
  C  C61  1  0.07390700  0.71525200  0.49120900  1
  C  C62  1  0.74853000  0.82995400  0.53418000  1
  C  C63  1  0.42771700  0.19954200  0.60828300  1
