# generated using pymatgen
data_Cu2NiC8
_symmetry_space_group_name_H-M   'P 1'
_cell_length_a   6.32926100
_cell_length_b   10.65395000
_cell_length_c   11.23658400
_cell_angle_alpha   90.00000000
_cell_angle_beta   90.00000000
_cell_angle_gamma   90.00000000
_symmetry_Int_Tables_number   1
_chemical_formula_structural   Cu2NiC8
_chemical_formula_sum   'Cu8 Ni4 C32'
_cell_volume   757.70117735
_cell_formula_units_Z   4
loop_
 _symmetry_equiv_pos_site_id
 _symmetry_equiv_pos_as_xyz
  1  'x, y, z'
loop_
 _atom_site_type_symbol
 _atom_site_label
 _atom_site_symmetry_multiplicity
 _atom_site_fract_x
 _atom_site_fract_y
 _atom_site_fract_z
 _atom_site_occupancy
  Ni  Ni0  1  0.39271300  0.62061400  0.25000000  1
  Ni  Ni1  1  0.60728700  0.37938600  0.75000000  1
  Ni  Ni2  1  0.89271300  0.87938600  0.25000000  1
  Ni  Ni3  1  0.10728700  0.12061400  0.75000000  1
  Cu  Cu4  1  0.81961700  0.81488800  0.60007300  1
  Cu  Cu5  1  0.68038300  0.31488800  0.10007300  1
  Cu  Cu6  1  0.68038300  0.31488800  0.39992700  1
  Cu  Cu7  1  0.81961700  0.81488800  0.89992700  1
  Cu  Cu8  1  0.31961800  0.68511200  0.89992700  1
  Cu  Cu9  1  0.31961800  0.68511200  0.60007300  1
  Cu  Cu10  1  0.18038300  0.18511200  0.39992700  1
  Cu  Cu11  1  0.18038300  0.18511200  0.10007300  1
  C  C12  1  0.14518700  0.03688800  0.13947800  1
  C  C13  1  0.05330500  0.72880800  0.94233700  1
  C  C14  1  0.69782000  0.24903300  0.25000000  1
  C  C15  1  0.19782000  0.25096700  0.25000000  1
  C  C16  1  0.64518700  0.46311200  0.36052200  1
  C  C17  1  0.94669500  0.27119200  0.44233700  1
  C  C18  1  0.65191300  0.73344700  0.25000000  1
  C  C19  1  0.44669500  0.22880800  0.44233700  1
  C  C20  1  0.83730800  0.87955000  0.41377300  1
  C  C21  1  0.83730800  0.87955000  0.08622700  1
  C  C22  1  0.55330500  0.77119200  0.94233700  1
  C  C23  1  0.15191300  0.76655300  0.25000000  1
  C  C24  1  0.85481300  0.96311200  0.86052200  1
  C  C25  1  0.66269200  0.37955000  0.91377300  1
  C  C26  1  0.16269200  0.12045000  0.91377300  1
  C  C27  1  0.35481300  0.53688800  0.86052200  1
  C  C28  1  0.35481300  0.53688800  0.63947800  1
  C  C29  1  0.80218000  0.74903300  0.75000000  1
  C  C30  1  0.34808700  0.26655300  0.75000000  1
  C  C31  1  0.64518700  0.46311200  0.13947800  1
  C  C32  1  0.30218000  0.75096700  0.75000000  1
  C  C33  1  0.16269200  0.12045000  0.58622700  1
  C  C34  1  0.33730800  0.62045000  0.08622700  1
  C  C35  1  0.85481300  0.96311200  0.63947800  1
  C  C36  1  0.44669500  0.22880800  0.05766300  1
  C  C37  1  0.94669500  0.27119200  0.05766300  1
  C  C38  1  0.05330500  0.72880800  0.55766300  1
  C  C39  1  0.33730800  0.62045000  0.41377300  1
  C  C40  1  0.84808700  0.23344700  0.75000000  1
  C  C41  1  0.14518700  0.03688800  0.36052200  1
  C  C42  1  0.66269200  0.37955000  0.58622700  1
  C  C43  1  0.55330500  0.77119200  0.55766300  1
