# generated using pymatgen
data_Cu15Ni2C25
_symmetry_space_group_name_H-M   'P 1'
_cell_length_a   5.19239800
_cell_length_b   17.99186000
_cell_length_c   22.42853700
_cell_angle_alpha   90.00000000
_cell_angle_beta   90.00000000
_cell_angle_gamma   90.00000000
_symmetry_Int_Tables_number   1
_chemical_formula_structural   Cu15Ni2C25
_chemical_formula_sum   'Cu60 Ni8 C100'
_cell_volume   2095.29406468
_cell_formula_units_Z   4
loop_
 _symmetry_equiv_pos_site_id
 _symmetry_equiv_pos_as_xyz
  1  'x, y, z'
loop_
 _atom_site_type_symbol
 _atom_site_label
 _atom_site_symmetry_multiplicity
 _atom_site_fract_x
 _atom_site_fract_y
 _atom_site_fract_z
 _atom_site_occupancy
  C  C0  1  0.53196000  0.67394300  0.91950100  1
  C  C1  1  0.46804000  0.17394300  0.58049900  1
  C  C2  1  0.46804000  0.82605700  0.41950100  1
  C  C3  1  0.53196000  0.32605700  0.08049900  1
  Ni  Ni4  1  0.95245200  0.66841500  0.18329700  1
  Ni  Ni5  1  0.55528000  0.95195400  0.11954700  1
  Ni  Ni6  1  0.04754800  0.16841500  0.31670300  1
  Ni  Ni7  1  0.44472000  0.45195400  0.38045300  1
  Ni  Ni8  1  0.44472000  0.54804600  0.61954700  1
  Ni  Ni9  1  0.95245200  0.33158500  0.81670300  1
  Ni  Ni10  1  0.04754800  0.83158500  0.68329700  1
  Ni  Ni11  1  0.55528000  0.04804600  0.88045300  1
  Cu  Cu12  1  0.26654600  0.71118200  0.57949200  1
  Cu  Cu13  1  0.42142200  0.47411600  0.80423200  1
  Cu  Cu14  1  0.80794900  0.50000000  0.00000000  1
  Cu  Cu15  1  0.13541400  0.43306500  0.23387200  1
  Cu  Cu16  1  0.86458600  0.06693500  0.73387200  1
  Cu  Cu17  1  0.73428600  0.46059600  0.89706400  1
  Cu  Cu18  1  0.13541400  0.56693500  0.76612800  1
  Cu  Cu19  1  0.14340700  0.55610700  0.28292900  1
  Cu  Cu20  1  0.82656300  0.67394200  0.75069400  1
  Cu  Cu21  1  0.51594800  0.73868900  0.27103600  1
  Cu  Cu22  1  0.73345400  0.78881800  0.07949200  1
  Cu  Cu23  1  0.79046800  0.88236400  0.88284200  1
  Cu  Cu24  1  0.43812700  0.10297800  0.03834700  1
  Cu  Cu25  1  0.39372900  0.69803000  0.08003300  1
  Cu  Cu26  1  0.79046800  0.11763600  0.11715800  1
  Cu  Cu27  1  0.42142200  0.52588400  0.19576800  1
  Cu  Cu28  1  0.17343700  0.82605800  0.25069400  1
  Cu  Cu29  1  0.85479700  0.65754500  0.32256300  1
  Cu  Cu30  1  0.85659300  0.05610700  0.21707100  1
  Cu  Cu31  1  0.26654600  0.28881800  0.42050800  1
  Cu  Cu32  1  0.14520300  0.84245500  0.82256300  1
  Cu  Cu33  1  0.19205100  0.00000000  0.50000000  1
  Cu  Cu34  1  0.82656300  0.32605800  0.24930600  1
  Cu  Cu35  1  0.85659300  0.94389300  0.78292900  1
  Cu  Cu36  1  0.48405200  0.23868900  0.22896400  1
  Cu  Cu37  1  0.08584300  0.12888700  0.97198800  1
  Cu  Cu38  1  0.55802100  0.71662000  0.66725700  1
  Cu  Cu39  1  0.56187300  0.39702200  0.53834700  1
  Cu  Cu40  1  0.14340700  0.44389300  0.71707100  1
  Cu  Cu41  1  0.08584300  0.87111300  0.02801200  1
  Cu  Cu42  1  0.20953200  0.61763600  0.38284200  1
  Cu  Cu43  1  0.91415700  0.37111300  0.47198800  1
  Cu  Cu44  1  0.56187300  0.60297800  0.46165300  1
  Cu  Cu45  1  0.92797700  0.90261100  0.54576400  1
  Cu  Cu46  1  0.92797700  0.09738900  0.45423600  1
  Cu  Cu47  1  0.60627100  0.80197000  0.58003300  1
  Cu  Cu48  1  0.39372900  0.30197000  0.91996700  1
  Cu  Cu49  1  0.91415700  0.62888700  0.52801200  1
  Cu  Cu50  1  0.14520300  0.15754500  0.17743700  1
  Cu  Cu51  1  0.43812700  0.89702200  0.96165300  1
  Cu  Cu52  1  0.86458600  0.93306500  0.26612800  1
  Cu  Cu53  1  0.26571400  0.96059600  0.60293600  1
  Cu  Cu54  1  0.07202300  0.40261100  0.95423600  1
  Cu  Cu55  1  0.57857800  0.97411600  0.69576800  1
  Cu  Cu56  1  0.44197900  0.21662000  0.83274300  1
  Cu  Cu57  1  0.16925000  0.00000000  0.00000000  1
  Cu  Cu58  1  0.73428600  0.53940400  0.10293600  1
  Cu  Cu59  1  0.17343700  0.17394200  0.74930600  1
  Cu  Cu60  1  0.48405200  0.76131100  0.77103600  1
  Cu  Cu61  1  0.57857800  0.02588400  0.30423200  1
  Cu  Cu62  1  0.60627100  0.19803000  0.41996700  1
  Cu  Cu63  1  0.73345400  0.21118200  0.92050800  1
  Cu  Cu64  1  0.83075000  0.50000000  0.50000000  1
  Cu  Cu65  1  0.26571400  0.03940400  0.39706400  1
  Cu  Cu66  1  0.44197900  0.78338000  0.16725700  1
  Cu  Cu67  1  0.85479700  0.34245500  0.67743700  1
  Cu  Cu68  1  0.07202300  0.59738900  0.04576400  1
  Cu  Cu69  1  0.20953200  0.38236400  0.61715800  1
  Cu  Cu70  1  0.51594800  0.26131100  0.72896400  1
  Cu  Cu71  1  0.55802100  0.28338000  0.33274300  1
  C  C72  1  0.36564800  0.22108700  0.44017900  1
  C  C73  1  0.67517300  0.07620100  0.26495200  1
  C  C74  1  0.33791900  0.45215900  0.19525900  1
  C  C75  1  0.92195600  0.60852800  0.27915700  1
  C  C76  1  0.60013200  0.25586500  0.78640600  1
  C  C77  1  0.62067800  0.82479200  0.12719100  1
  C  C78  1  0.66208100  0.04784100  0.69525900  1
  C  C79  1  0.29819200  0.72567800  0.13208400  1
  C  C80  1  0.65393400  0.46737400  0.54697000  1
  C  C81  1  0.72432700  0.06453800  0.15784400  1
  C  C82  1  0.34994600  0.79390700  0.81698600  1
  C  C83  1  0.65005400  0.70609300  0.31698600  1
  C  C84  1  0.26974900  0.35123000  0.95723200  1
  C  C85  1  0.07804400  0.89147200  0.77915700  1
  C  C86  1  0.64425500  0.86611100  0.93215200  1
  C  C87  1  0.66208100  0.95215900  0.30474100  1
  C  C88  1  0.32482700  0.57620100  0.23504800  1
  C  C89  1  0.34606600  0.96737400  0.95303000  1
  C  C90  1  0.70180800  0.77432200  0.63208400  1
  C  C91  1  0.02395000  0.63502700  0.77735200  1
  C  C92  1  0.97605000  0.86497300  0.27735200  1
  C  C93  1  0.73025100  0.14877000  0.45723200  1
  C  C94  1  0.67517300  0.92379900  0.73504800  1
  C  C95  1  0.35463700  0.00257900  0.44542500  1
  C  C96  1  0.67786400  0.64963200  0.50302900  1
  C  C97  1  0.05559700  0.68651800  0.54985300  1
  C  C98  1  0.70180800  0.22567800  0.36791600  1
  C  C99  1  0.02502400  0.93265300  0.49533700  1
  C  C100  1  0.98955200  0.33884600  0.62400000  1
  C  C101  1  0.05113100  0.52037200  0.72289700  1
  C  C102  1  0.64425500  0.13388900  0.06784800  1
  C  C103  1  0.28785700  0.77336700  0.28831700  1
  C  C104  1  0.02395000  0.36497300  0.22264800  1
  C  C105  1  0.73025100  0.85123000  0.54276800  1
  C  C106  1  0.65005400  0.29390700  0.68301400  1
  C  C107  1  0.97605000  0.13502700  0.72264800  1
  C  C108  1  0.94440300  0.81348200  0.04985300  1
  C  C109  1  0.27567300  0.43546200  0.65784400  1
  C  C110  1  0.27567300  0.56453800  0.34215600  1
  C  C111  1  0.67786400  0.35036800  0.49697100  1
  C  C112  1  0.97497600  0.43265300  0.00466300  1
  C  C113  1  0.37932200  0.67520800  0.62719100  1
  C  C114  1  0.00721100  0.05690800  0.97221900  1
  C  C115  1  0.99278900  0.44309200  0.47221900  1
  C  C116  1  0.36564800  0.77891300  0.55982100  1
  C  C117  1  0.60728900  0.54877200  0.15602700  1
  C  C118  1  0.35463700  0.99742100  0.55457500  1
  C  C119  1  0.26974900  0.64877000  0.04276800  1
  C  C120  1  0.94886900  0.97962800  0.22289700  1
  C  C121  1  0.71214300  0.27336700  0.21168300  1
  C  C122  1  0.37932200  0.32479200  0.37280900  1
  C  C123  1  0.02810500  0.92240700  0.60134700  1
  C  C124  1  0.97497600  0.56734700  0.99533700  1
  C  C125  1  0.01044800  0.16115400  0.12400000  1
  C  C126  1  0.32213600  0.85036800  0.00302900  1
  C  C127  1  0.94440300  0.18651800  0.95014700  1
  C  C128  1  0.63435200  0.72108700  0.05982100  1
  C  C129  1  0.60013200  0.74413500  0.21359400  1
  C  C130  1  0.34994600  0.20609300  0.18301400  1
  C  C131  1  0.35574500  0.36611100  0.56784800  1
  C  C132  1  0.65393400  0.53262600  0.45303000  1
  C  C133  1  0.74034100  0.66480800  0.69385300  1
  C  C134  1  0.02810500  0.07759300  0.39865300  1
  C  C135  1  0.97189600  0.57759300  0.10134700  1
  C  C136  1  0.00721100  0.94309200  0.02778100  1
  C  C137  1  0.25965900  0.16480800  0.80614700  1
  C  C138  1  0.92195600  0.39147200  0.72084300  1
  C  C139  1  0.99278900  0.55690800  0.52778100  1
  C  C140  1  0.72432700  0.93546200  0.84215600  1
  C  C141  1  0.39986800  0.24413500  0.28640600  1
  C  C142  1  0.35574500  0.63388900  0.43215200  1
  C  C143  1  0.64536300  0.50257900  0.05457500  1
  C  C144  1  0.01044800  0.83884600  0.87600000  1
  C  C145  1  0.29819200  0.27432200  0.86791600  1
  C  C146  1  0.32482700  0.42379900  0.76495200  1
  C  C147  1  0.05559700  0.31348200  0.45014700  1
  C  C148  1  0.28785700  0.22663300  0.71168300  1
  C  C149  1  0.60728900  0.45122800  0.84397300  1
  C  C150  1  0.94886900  0.02037200  0.77710300  1
  C  C151  1  0.98955200  0.66115400  0.37600000  1
  C  C152  1  0.05113100  0.47962800  0.27710300  1
  C  C153  1  0.62067800  0.17520800  0.87280900  1
  C  C154  1  0.25965900  0.83519200  0.19385300  1
  C  C155  1  0.64536300  0.49742100  0.94542500  1
  C  C156  1  0.33791900  0.54784100  0.80474100  1
  C  C157  1  0.39986800  0.75586500  0.71359400  1
  C  C158  1  0.63435200  0.27891300  0.94017900  1
  C  C159  1  0.07804400  0.10852800  0.22084300  1
  C  C160  1  0.32213600  0.14963200  0.99697100  1
  C  C161  1  0.71214300  0.72663300  0.78831700  1
  C  C162  1  0.97189600  0.42240700  0.89865300  1
  C  C163  1  0.74034100  0.33519200  0.30614700  1
  C  C164  1  0.39271100  0.95122800  0.65602700  1
  C  C165  1  0.34606600  0.03262600  0.04697000  1
  C  C166  1  0.02502400  0.06734700  0.50466300  1
  C  C167  1  0.39271100  0.04877200  0.34397300  1
