# generated using pymatgen
data_Cu3NiC7
_symmetry_space_group_name_H-M   'P 1'
_cell_length_a   6.47996068
_cell_length_b   6.47996068
_cell_length_c   6.47996090
_cell_angle_alpha   91.94370985
_cell_angle_beta   91.94370985
_cell_angle_gamma   91.94371286
_symmetry_Int_Tables_number   1
_chemical_formula_structural   Cu3NiC7
_chemical_formula_sum   'Cu6 Ni2 C14'
_cell_volume   271.61228062
_cell_formula_units_Z   2
loop_
 _symmetry_equiv_pos_site_id
 _symmetry_equiv_pos_as_xyz
  1  'x, y, z'
loop_
 _atom_site_type_symbol
 _atom_site_label
 _atom_site_symmetry_multiplicity
 _atom_site_fract_x
 _atom_site_fract_y
 _atom_site_fract_z
 _atom_site_occupancy
  Ni  Ni0  1  0.25000000  0.25000000  0.25000000  1
  Ni  Ni1  1  0.75000000  0.75000000  0.75000000  1
  Cu  Cu2  1  0.89459300  0.60540700  0.25000000  1
  Cu  Cu3  1  0.60540700  0.25000000  0.89459300  1
  Cu  Cu4  1  0.75000000  0.10540700  0.39459300  1
  Cu  Cu5  1  0.39459300  0.75000000  0.10540700  1
  Cu  Cu6  1  0.10540700  0.39459300  0.75000000  1
  Cu  Cu7  1  0.25000000  0.89459300  0.60540700  1
  C  C8  1  0.00000000  0.00000000  0.00000000  1
  C  C9  1  0.50000000  0.50000000  0.50000000  1
  C  C10  1  0.79154600  0.45009300  0.57706800  1
  C  C11  1  0.92293200  0.04990700  0.70845400  1
  C  C12  1  0.70845400  0.92293200  0.04990700  1
  C  C13  1  0.04990700  0.70845400  0.92293200  1
  C  C14  1  0.57706800  0.79154600  0.45009300  1
  C  C15  1  0.45009300  0.57706800  0.79154600  1
  C  C16  1  0.42293200  0.20845400  0.54990700  1
  C  C17  1  0.54990700  0.42293200  0.20845400  1
  C  C18  1  0.95009300  0.29154600  0.07706800  1
  C  C19  1  0.29154600  0.07706800  0.95009300  1
  C  C20  1  0.07706800  0.95009300  0.29154600  1
  C  C21  1  0.20845400  0.54990700  0.42293200  1
