# generated using pymatgen
data_Cu2NiC7
_symmetry_space_group_name_H-M   'P 1'
_cell_length_a   6.56401647
_cell_length_b   6.56401647
_cell_length_c   5.34421818
_cell_angle_alpha   76.81031052
_cell_angle_beta   76.81031052
_cell_angle_gamma   84.47387608
_symmetry_Int_Tables_number   1
_chemical_formula_structural   Cu2NiC7
_chemical_formula_sum   'Cu4 Ni2 C14'
_cell_volume   218.03643757
_cell_formula_units_Z   2
loop_
 _symmetry_equiv_pos_site_id
 _symmetry_equiv_pos_as_xyz
  1  'x, y, z'
loop_
 _atom_site_type_symbol
 _atom_site_label
 _atom_site_symmetry_multiplicity
 _atom_site_fract_x
 _atom_site_fract_y
 _atom_site_fract_z
 _atom_site_occupancy
  C  C0  1  0.70091100  0.29908900  0.75000000  1
  C  C1  1  0.29908900  0.70091100  0.25000000  1
  Ni  Ni2  1  0.09996400  0.90003600  0.75000000  1
  Ni  Ni3  1  0.90003600  0.09996400  0.25000000  1
  Cu  Cu4  1  0.80010400  0.61868400  0.23077600  1
  Cu  Cu5  1  0.19989600  0.38131600  0.76922400  1
  Cu  Cu6  1  0.38131600  0.19989600  0.26922400  1
  Cu  Cu7  1  0.61868400  0.80010400  0.73077600  1
  C  C8  1  0.35994200  0.34289400  0.49227000  1
  C  C9  1  0.65710600  0.64005800  0.00773000  1
  C  C10  1  0.64005800  0.65710600  0.50773000  1
  C  C11  1  0.34289400  0.35994200  0.99227000  1
  C  C12  1  0.61647400  0.10172000  0.19842800  1
  C  C13  1  0.89828000  0.38352600  0.30157200  1
  C  C14  1  0.38352600  0.89828000  0.80157200  1
  C  C15  1  0.10172000  0.61647400  0.69842800  1
  C  C16  1  0.03361100  0.19039500  0.86711900  1
  C  C17  1  0.80960500  0.96638900  0.63288100  1
  C  C18  1  0.96638900  0.80960500  0.13288100  1
  C  C19  1  0.19039500  0.03361100  0.36711900  1
