# generated using pymatgen
data_Cu4Ni3C14
_symmetry_space_group_name_H-M   'P 1'
_cell_length_a   7.62885700
_cell_length_b   10.40484900
_cell_length_c   13.72625900
_cell_angle_alpha   90.00000000
_cell_angle_beta   90.00000000
_cell_angle_gamma   90.00000000
_symmetry_Int_Tables_number   1
_chemical_formula_structural   Cu4Ni3C14
_chemical_formula_sum   'Cu16 Ni12 C56'
_cell_volume   1089.55070365
_cell_formula_units_Z   4
loop_
 _symmetry_equiv_pos_site_id
 _symmetry_equiv_pos_as_xyz
  1  'x, y, z'
loop_
 _atom_site_type_symbol
 _atom_site_label
 _atom_site_symmetry_multiplicity
 _atom_site_fract_x
 _atom_site_fract_y
 _atom_site_fract_z
 _atom_site_occupancy
  C  C0  1  0.03935300  0.75000000  0.16808200  1
  C  C1  1  0.18800800  0.75000000  0.48362400  1
  C  C2  1  0.46064700  0.25000000  0.66808200  1
  C  C3  1  0.81199200  0.25000000  0.51637600  1
  C  C4  1  0.31199200  0.25000000  0.98362400  1
  C  C5  1  0.53935300  0.75000000  0.33191800  1
  C  C6  1  0.96064700  0.25000000  0.83191800  1
  C  C7  1  0.68800800  0.75000000  0.01637600  1
  Ni  Ni8  1  0.26566800  0.25000000  0.21844700  1
  Ni  Ni9  1  0.25257500  0.75000000  0.94294700  1
  Ni  Ni10  1  0.74742500  0.25000000  0.05705300  1
  Ni  Ni11  1  0.24742500  0.25000000  0.44294700  1
  Ni  Ni12  1  0.00000000  0.50000000  0.00000000  1
  Ni  Ni13  1  0.75257500  0.75000000  0.55705300  1
  Ni  Ni14  1  0.73433200  0.75000000  0.78155300  1
  Ni  Ni15  1  0.50000000  0.50000000  0.50000000  1
  Ni  Ni16  1  0.50000000  0.00000000  0.50000000  1
  Ni  Ni17  1  0.76566800  0.25000000  0.28155300  1
  Ni  Ni18  1  0.00000000  0.00000000  0.00000000  1
  Ni  Ni19  1  0.23433200  0.75000000  0.71844700  1
  Cu  Cu20  1  0.81974900  0.96905100  0.37617200  1
  Cu  Cu21  1  0.27933900  0.47518600  0.83756400  1
  Cu  Cu22  1  0.31974900  0.96905100  0.12382800  1
  Cu  Cu23  1  0.72066100  0.52481400  0.16243600  1
  Cu  Cu24  1  0.68025100  0.03094900  0.87617200  1
  Cu  Cu25  1  0.31974900  0.53094900  0.12382800  1
  Cu  Cu26  1  0.77933900  0.47518600  0.66243600  1
  Cu  Cu27  1  0.22066100  0.97518600  0.33756400  1
  Cu  Cu28  1  0.27933900  0.02481400  0.83756400  1
  Cu  Cu29  1  0.22066100  0.52481400  0.33756400  1
  Cu  Cu30  1  0.18025100  0.46905100  0.62382800  1
  Cu  Cu31  1  0.81974900  0.53094900  0.37617200  1
  Cu  Cu32  1  0.72066100  0.97518600  0.16243600  1
  Cu  Cu33  1  0.77933900  0.02481400  0.66243600  1
  Cu  Cu34  1  0.18025100  0.03094900  0.62382800  1
  Cu  Cu35  1  0.68025100  0.46905100  0.87617200  1
  C  C36  1  0.79044000  0.37777400  0.38147900  1
  C  C37  1  0.97155200  0.42583000  0.61965000  1
  C  C38  1  0.73540000  0.13207100  0.17033700  1
  C  C39  1  0.73647600  0.91119200  0.27290700  1
  C  C40  1  0.23540000  0.36792900  0.32966300  1
  C  C41  1  0.23647600  0.58880800  0.22709300  1
  C  C42  1  0.70956000  0.87777400  0.88147900  1
  C  C43  1  0.21730700  0.60726400  0.03495900  1
  C  C44  1  0.70956000  0.62222600  0.88147900  1
  C  C45  1  0.86974400  0.90780200  0.09603100  1
  C  C46  1  0.23647600  0.91119200  0.22709300  1
  C  C47  1  0.52844800  0.57417000  0.11965000  1
  C  C48  1  0.73647600  0.58880800  0.27290700  1
  C  C49  1  0.26460000  0.63207100  0.82966300  1
  C  C50  1  0.47155200  0.07417000  0.88035000  1
  C  C51  1  0.86974400  0.59219800  0.09603100  1
  C  C52  1  0.63025600  0.09219800  0.59603100  1
  C  C53  1  0.29044000  0.37777400  0.11852100  1
  C  C54  1  0.76460000  0.63207100  0.67033700  1
  C  C55  1  0.13025600  0.40780200  0.90396900  1
  C  C56  1  0.23540000  0.13207100  0.32966300  1
  C  C57  1  0.76352400  0.08880800  0.77290700  1
  C  C58  1  0.21730700  0.89273600  0.03495900  1
  C  C59  1  0.02844800  0.57417000  0.38035000  1
  C  C60  1  0.71730700  0.60726400  0.46504100  1
  C  C61  1  0.78269300  0.39273600  0.96504100  1
  C  C62  1  0.36974400  0.90780200  0.40396900  1
  C  C63  1  0.76352400  0.41119200  0.77290700  1
  C  C64  1  0.20956000  0.62222600  0.61852100  1
  C  C65  1  0.26352400  0.08880800  0.72709300  1
  C  C66  1  0.97155200  0.07417000  0.61965000  1
  C  C67  1  0.28269300  0.10726400  0.53495900  1
  C  C68  1  0.26460000  0.86792900  0.82966300  1
  C  C69  1  0.36974400  0.59219800  0.40396900  1
  C  C70  1  0.26352400  0.41119200  0.72709300  1
  C  C71  1  0.76460000  0.86792900  0.67033700  1
  C  C72  1  0.13025600  0.09219800  0.90396900  1
  C  C73  1  0.29044000  0.12222600  0.11852100  1
  C  C74  1  0.78269300  0.10726400  0.96504100  1
  C  C75  1  0.63025600  0.40780200  0.59603100  1
  C  C76  1  0.02844800  0.92583000  0.38035000  1
  C  C77  1  0.79044000  0.12222600  0.38147900  1
  C  C78  1  0.28269300  0.39273600  0.53495900  1
  C  C79  1  0.47155200  0.42583000  0.88035000  1
  C  C80  1  0.71730700  0.89273600  0.46504100  1
  C  C81  1  0.73540000  0.36792900  0.17033700  1
  C  C82  1  0.52844800  0.92583000  0.11965000  1
  C  C83  1  0.20956000  0.87777400  0.61852100  1
