# generated using pymatgen
data_Cu4NiC
_symmetry_space_group_name_H-M   'P 1'
_cell_length_a   4.18000344
_cell_length_b   4.18000344
_cell_length_c   6.70992200
_cell_angle_alpha   90.00000000
_cell_angle_beta   90.00000000
_cell_angle_gamma   119.99999106
_symmetry_Int_Tables_number   1
_chemical_formula_structural   Cu4NiC
_chemical_formula_sum   'Cu8 Ni2 C2'
_cell_volume   101.53164437
_cell_formula_units_Z   2
loop_
 _symmetry_equiv_pos_site_id
 _symmetry_equiv_pos_as_xyz
  1  'x, y, z'
loop_
 _atom_site_type_symbol
 _atom_site_label
 _atom_site_symmetry_multiplicity
 _atom_site_fract_x
 _atom_site_fract_y
 _atom_site_fract_z
 _atom_site_occupancy
  C  C0  1  0.66666700  0.33333300  0.50588200  1
  C  C1  1  0.33333300  0.66666700  0.00588200  1
  Ni  Ni2  1  0.66666700  0.33333300  0.05779300  1
  Ni  Ni3  1  0.33333300  0.66666700  0.55779300  1
  Cu  Cu4  1  0.66666700  0.33333300  0.87631100  1
  Cu  Cu5  1  0.33333300  0.66666700  0.37631100  1
  Cu  Cu6  1  0.82532300  0.17467700  0.11833000  1
  Cu  Cu7  1  0.82532300  0.65064600  0.11833000  1
  Cu  Cu8  1  0.34935400  0.17467700  0.11833000  1
  Cu  Cu9  1  0.17467700  0.82532300  0.61833000  1
  Cu  Cu10  1  0.17467700  0.34935400  0.61833000  1
  Cu  Cu11  1  0.65064600  0.82532300  0.61833000  1
