# generated using pymatgen
data_Cu(NiC)2
_symmetry_space_group_name_H-M   'P 1'
_cell_length_a   6.02718575
_cell_length_b   6.02718575
_cell_length_c   11.79973616
_cell_angle_alpha   77.93779251
_cell_angle_beta   77.93779251
_cell_angle_gamma   43.95416306
_symmetry_Int_Tables_number   1
_chemical_formula_structural   Cu(NiC)2
_chemical_formula_sum   'Cu4 Ni8 C8'
_cell_volume   289.86488634
_cell_formula_units_Z   4
loop_
 _symmetry_equiv_pos_site_id
 _symmetry_equiv_pos_as_xyz
  1  'x, y, z'
loop_
 _atom_site_type_symbol
 _atom_site_label
 _atom_site_symmetry_multiplicity
 _atom_site_fract_x
 _atom_site_fract_y
 _atom_site_fract_z
 _atom_site_occupancy
  C  C0  1  0.33967000  0.51570500  0.99986300  1
  C  C1  1  0.48429500  0.66033000  0.50013700  1
  C  C2  1  0.66033000  0.48429500  0.00013700  1
  C  C3  1  0.51570500  0.33967000  0.49986300  1
  Ni  Ni4  1  0.86954600  0.25872200  0.06178300  1
  Ni  Ni5  1  0.74127800  0.13045400  0.43821700  1
  Ni  Ni6  1  0.13045400  0.74127800  0.93821700  1
  Ni  Ni7  1  0.25872200  0.86954600  0.56178300  1
  Ni  Ni8  1  0.26444000  0.43049600  0.48810800  1
  Ni  Ni9  1  0.56950400  0.73556000  0.01189200  1
  Ni  Ni10  1  0.73556000  0.56950400  0.51189200  1
  Ni  Ni11  1  0.43049600  0.26444000  0.98810800  1
  Cu  Cu12  1  0.18985000  0.58712100  0.12168000  1
  Cu  Cu13  1  0.41287900  0.81015000  0.37832000  1
  Cu  Cu14  1  0.81015000  0.41287900  0.87832000  1
  Cu  Cu15  1  0.58712100  0.18985000  0.62168000  1
  C  C16  1  0.08339700  0.63780200  0.21712100  1
  C  C17  1  0.36219800  0.91660300  0.28287900  1
  C  C18  1  0.91660300  0.36219800  0.78287900  1
  C  C19  1  0.63780200  0.08339700  0.71712100  1
