# generated using pymatgen
data_CuNi2C13
_symmetry_space_group_name_H-M   'P 1'
_cell_length_a   9.92532490
_cell_length_b   9.92532490
_cell_length_c   9.92532490
_cell_angle_alpha   109.47122063
_cell_angle_beta   109.47122063
_cell_angle_gamma   109.47122063
_symmetry_Int_Tables_number   1
_chemical_formula_structural   CuNi2C13
_chemical_formula_sum   'Cu4 Ni8 C52'
_cell_volume   752.68334238
_cell_formula_units_Z   4
loop_
 _symmetry_equiv_pos_site_id
 _symmetry_equiv_pos_as_xyz
  1  'x, y, z'
loop_
 _atom_site_type_symbol
 _atom_site_label
 _atom_site_symmetry_multiplicity
 _atom_site_fract_x
 _atom_site_fract_y
 _atom_site_fract_z
 _atom_site_occupancy
  C  C0  1  0.00000000  0.50000000  0.50000000  1
  C  C1  1  0.00000000  0.00000000  0.00000000  1
  C  C2  1  0.50000000  0.50000000  0.00000000  1
  C  C3  1  0.50000000  0.00000000  0.50000000  1
  C  C4  1  0.25410900  0.25410900  0.49121800  1
  C  C5  1  0.00000000  0.49235500  0.23341400  1
  C  C6  1  0.49900300  0.75599600  0.00000000  1
  C  C7  1  0.49235500  0.00000000  0.23341400  1
  C  C8  1  0.76947100  0.76947100  0.00000000  1
  C  C9  1  0.50099700  0.50099700  0.25699300  1
  C  C10  1  0.24400400  0.24400400  0.74300700  1
  C  C11  1  0.49900300  0.00000000  0.75599600  1
  C  C12  1  0.76289100  0.50878200  0.76289100  1
  C  C13  1  0.74105800  0.50764500  0.50764500  1
  C  C14  1  0.74300700  0.24400400  0.24400400  1
  C  C15  1  0.50000000  0.25000000  0.75000000  1
  C  C16  1  0.25000000  0.75000000  0.50000000  1
  C  C17  1  0.49235500  0.23341400  0.00000000  1
  C  C18  1  0.50000000  0.75000000  0.25000000  1
  C  C19  1  0.76658600  0.76658600  0.25894200  1
  C  C20  1  0.50764500  0.74105800  0.50764500  1
  C  C21  1  0.23710900  0.00000000  0.74589100  1
  C  C22  1  0.00000000  0.23052900  0.23052900  1
  C  C23  1  0.23341400  0.00000000  0.49235500  1
  C  C24  1  0.50099700  0.25699300  0.50099700  1
  C  C25  1  0.23710900  0.74589100  0.00000000  1
  C  C26  1  0.23052900  0.00000000  0.23052900  1
  C  C27  1  0.50764500  0.50764500  0.74105800  1
  C  C28  1  0.75000000  0.50000000  0.25000000  1
  C  C29  1  0.49121800  0.25410900  0.25410900  1
  C  C30  1  0.25410900  0.49121800  0.25410900  1
  C  C31  1  0.25894200  0.76658600  0.76658600  1
  C  C32  1  0.74589100  0.23710900  0.00000000  1
  C  C33  1  0.50878200  0.76289100  0.76289100  1
  C  C34  1  0.74589100  0.00000000  0.23710900  1
  C  C35  1  0.76947100  0.00000000  0.76947100  1
  C  C36  1  0.00000000  0.74589100  0.23710900  1
  C  C37  1  0.76658600  0.25894200  0.76658600  1
  C  C38  1  0.75599600  0.49900300  0.00000000  1
  C  C39  1  0.76289100  0.76289100  0.50878200  1
  C  C40  1  0.00000000  0.23341400  0.49235500  1
  C  C41  1  0.25000000  0.50000000  0.75000000  1
  C  C42  1  0.00000000  0.49900300  0.75599600  1
  C  C43  1  0.75599600  0.00000000  0.49900300  1
  C  C44  1  0.24400400  0.74300700  0.24400400  1
  C  C45  1  0.00000000  0.75599600  0.49900300  1
  C  C46  1  0.75000000  0.25000000  0.50000000  1
  C  C47  1  0.00000000  0.23710900  0.74589100  1
  C  C48  1  0.25699300  0.50099700  0.50099700  1
  C  C49  1  0.00000000  0.76947100  0.76947100  1
  C  C50  1  0.23052900  0.23052900  0.00000000  1
  C  C51  1  0.23341400  0.49235500  0.00000000  1
  Ni  Ni52  1  0.00000000  0.27809600  0.00000000  1
  Ni  Ni53  1  0.00000000  0.00000000  0.52553200  1
  Ni  Ni54  1  0.47446800  0.47446800  0.47446800  1
  Ni  Ni55  1  0.00000000  0.00000000  0.27809600  1
  Ni  Ni56  1  0.00000000  0.52553200  0.00000000  1
  Ni  Ni57  1  0.52553200  0.00000000  0.00000000  1
  Ni  Ni58  1  0.27809600  0.00000000  0.00000000  1
  Ni  Ni59  1  0.72190400  0.72190400  0.72190400  1
  Cu  Cu60  1  0.26294600  0.26294600  0.26294600  1
  Cu  Cu61  1  0.73705400  0.00000000  0.00000000  1
  Cu  Cu62  1  0.00000000  0.73705400  0.00000000  1
  Cu  Cu63  1  0.00000000  0.00000000  0.73705400  1
