# generated using pymatgen
data_Cu3Ni2C5
_symmetry_space_group_name_H-M   'P 1'
_cell_length_a   6.79885442
_cell_length_b   6.79885442
_cell_length_c   58.19497600
_cell_angle_alpha   90.00000000
_cell_angle_beta   90.00000000
_cell_angle_gamma   118.49778888
_symmetry_Int_Tables_number   1
_chemical_formula_structural   Cu3Ni2C5
_chemical_formula_sum   'Cu24 Ni16 C40'
_cell_volume   2364.09313334
_cell_formula_units_Z   8
loop_
 _symmetry_equiv_pos_site_id
 _symmetry_equiv_pos_as_xyz
  1  'x, y, z'
loop_
 _atom_site_type_symbol
 _atom_site_label
 _atom_site_symmetry_multiplicity
 _atom_site_fract_x
 _atom_site_fract_y
 _atom_site_fract_z
 _atom_site_occupancy
  Ni  Ni0  1  0.50000000  0.00000000  0.65002800  1
  Ni  Ni1  1  0.00000000  0.50000000  0.55002300  1
  Ni  Ni2  1  0.50000000  0.00000000  0.44997700  1
  Ni  Ni3  1  0.00000000  0.50000000  0.34997200  1
  Ni  Ni4  1  0.50000000  0.00000000  0.24995900  1
  Ni  Ni5  1  0.00000000  0.50000000  0.14998900  1
  Ni  Ni6  1  0.00000000  0.50000000  0.24999700  1
  Ni  Ni7  1  0.50000000  0.00000000  0.04998900  1
  Ni  Ni8  1  0.50000000  0.00000000  0.14999700  1
  Ni  Ni9  1  0.00000000  0.50000000  0.95001100  1
  Ni  Ni10  1  0.00000000  0.50000000  0.05001100  1
  Ni  Ni11  1  0.50000000  0.00000000  0.85001100  1
  Ni  Ni12  1  0.50000000  0.00000000  0.94998900  1
  Ni  Ni13  1  0.00000000  0.50000000  0.75004100  1
  Ni  Ni14  1  0.00000000  0.50000000  0.85000300  1
  Ni  Ni15  1  0.50000000  0.00000000  0.75000300  1
  Cu  Cu16  1  0.24975900  0.24945700  0.70002100  1
  Cu  Cu17  1  0.74955700  0.74948800  0.59998600  1
  Cu  Cu18  1  0.24956200  0.24956200  0.50000000  1
  Cu  Cu19  1  0.00000000  0.50000000  0.65010100  1
  Cu  Cu20  1  0.75024100  0.75054300  0.70002100  1
  Cu  Cu21  1  0.74948800  0.74955700  0.40001400  1
  Cu  Cu22  1  0.50000000  0.00000000  0.55002800  1
  Cu  Cu23  1  0.25044300  0.25051200  0.59998600  1
  Cu  Cu24  1  0.24945700  0.24975900  0.29997900  1
  Cu  Cu25  1  0.00000000  0.50000000  0.44997200  1
  Cu  Cu26  1  0.75043800  0.75043800  0.50000000  1
  Cu  Cu27  1  0.74959200  0.74950500  0.20000400  1
  Cu  Cu28  1  0.50000000  0.00000000  0.34989900  1
  Cu  Cu29  1  0.25051200  0.25044300  0.40001400  1
  Cu  Cu30  1  0.24950400  0.24957600  0.09997500  1
  Cu  Cu31  1  0.75054300  0.75024100  0.29997900  1
  Cu  Cu32  1  0.74966800  0.74966800  0.00000000  1
  Cu  Cu33  1  0.25040800  0.25049500  0.20000400  1
  Cu  Cu34  1  0.24957600  0.24950400  0.90002500  1
  Cu  Cu35  1  0.75049600  0.75042400  0.09997500  1
  Cu  Cu36  1  0.74950500  0.74959200  0.79999600  1
  Cu  Cu37  1  0.25033200  0.25033200  0.00000000  1
  Cu  Cu38  1  0.75042400  0.75049600  0.90002500  1
  Cu  Cu39  1  0.25049500  0.25040800  0.79999600  1
  C  C40  1  0.17042600  0.82819800  0.69982200  1
  C  C41  1  0.50000000  0.50000000  0.66562000  1
  C  C42  1  0.67114400  0.32872800  0.60001700  1
  C  C43  1  0.00000000  0.00000000  0.56561000  1
  C  C44  1  0.50000000  0.50000000  0.73434300  1
  C  C45  1  0.82957400  0.17180200  0.69982200  1
  C  C46  1  0.17122400  0.82877600  0.50000000  1
  C  C47  1  0.50000000  0.50000000  0.46559100  1
  C  C48  1  0.00000000  0.00000000  0.63440100  1
  C  C49  1  0.32885600  0.67127200  0.60001700  1
  C  C50  1  0.67127200  0.32885600  0.39998300  1
  C  C51  1  0.00000000  0.00000000  0.36559900  1
  C  C52  1  0.50000000  0.50000000  0.53440900  1
  C  C53  1  0.82877600  0.17122400  0.50000000  1
  C  C54  1  0.17180200  0.82957400  0.30017800  1
  C  C55  1  0.50000000  0.50000000  0.26565700  1
  C  C56  1  0.00000000  0.00000000  0.43439000  1
  C  C57  1  0.32872800  0.67114400  0.39998300  1
  C  C58  1  0.67088200  0.32901700  0.19999600  1
  C  C59  1  0.00000000  0.00000000  0.16565500  1
  C  C60  1  0.50000000  0.50000000  0.33438000  1
  C  C61  1  0.82819800  0.17042600  0.30017800  1
  C  C62  1  0.17094100  0.82901900  0.10000400  1
  C  C63  1  0.50000000  0.50000000  0.06566500  1
  C  C64  1  0.00000000  0.00000000  0.23434300  1
  C  C65  1  0.32911800  0.67098300  0.19999600  1
  C  C66  1  0.67098100  0.32901900  0.00000000  1
  C  C67  1  0.00000000  0.00000000  0.96565500  1
  C  C68  1  0.50000000  0.50000000  0.13434600  1
  C  C69  1  0.82905900  0.17098100  0.10000400  1
  C  C70  1  0.17098100  0.82905900  0.89999600  1
  C  C71  1  0.50000000  0.50000000  0.86565400  1
  C  C72  1  0.00000000  0.00000000  0.03434500  1
  C  C73  1  0.32901900  0.67098100  0.00000000  1
  C  C74  1  0.67098300  0.32911800  0.80000400  1
  C  C75  1  0.00000000  0.00000000  0.76565700  1
  C  C76  1  0.50000000  0.50000000  0.93433500  1
  C  C77  1  0.82901900  0.17094100  0.89999600  1
  C  C78  1  0.00000000  0.00000000  0.83434500  1
  C  C79  1  0.32901700  0.67088200  0.80000400  1
