# generated using pymatgen
data_Cu2Ni2C15
_symmetry_space_group_name_H-M   'P 1'
_cell_length_a   3.92462800
_cell_length_b   3.92462800
_cell_length_c   15.95445000
_cell_angle_alpha   90.00000000
_cell_angle_beta   90.00000000
_cell_angle_gamma   90.00000000
_symmetry_Int_Tables_number   1
_chemical_formula_structural   Cu2Ni2C15
_chemical_formula_sum   'Cu2 Ni2 C15'
_cell_volume   245.74168580
_cell_formula_units_Z   1
loop_
 _symmetry_equiv_pos_site_id
 _symmetry_equiv_pos_as_xyz
  1  'x, y, z'
loop_
 _atom_site_type_symbol
 _atom_site_label
 _atom_site_symmetry_multiplicity
 _atom_site_fract_x
 _atom_site_fract_y
 _atom_site_fract_z
 _atom_site_occupancy
  C  C0  1  0.00000000  0.00000000  0.76239700  1
  C  C1  1  0.00000000  0.00000000  0.23760300  1
  C  C2  1  0.00000000  0.00000000  0.00000000  1
  C  C3  1  0.00000000  0.00000000  0.50000000  1
  Ni  Ni4  1  0.50000000  0.50000000  0.62463600  1
  Ni  Ni5  1  0.50000000  0.50000000  0.37536400  1
  Cu  Cu6  1  0.50000000  0.50000000  0.10959300  1
  Cu  Cu7  1  0.50000000  0.50000000  0.89040700  1
  C  C8  1  0.50000000  0.50000000  0.74310500  1
  C  C9  1  0.50000000  0.00000000  0.61452100  1
  C  C10  1  0.00000000  0.50000000  0.61452100  1
  C  C11  1  0.00000000  0.50000000  0.38547900  1
  C  C12  1  0.50000000  0.50000000  0.50000000  1
  C  C13  1  0.50000000  0.50000000  0.25689500  1
  C  C14  1  0.00000000  0.50000000  0.09574900  1
  C  C15  1  0.00000000  0.50000000  0.90425100  1
  C  C16  1  0.50000000  0.00000000  0.90425100  1
  C  C17  1  0.50000000  0.00000000  0.38547900  1
  C  C18  1  0.50000000  0.00000000  0.09574900  1
