# generated using pymatgen
data_Cu4Ni4C17
_symmetry_space_group_name_H-M   'P 1'
_cell_length_a   17.28639906
_cell_length_b   17.28639906
_cell_length_c   17.28639906
_cell_angle_alpha   60.00000000
_cell_angle_beta   60.00000000
_cell_angle_gamma   60.00000000
_symmetry_Int_Tables_number   1
_chemical_formula_structural   Cu4Ni4C17
_chemical_formula_sum   'Cu24 Ni24 C102'
_cell_volume   3652.57049054
_cell_formula_units_Z   6
loop_
 _symmetry_equiv_pos_site_id
 _symmetry_equiv_pos_as_xyz
  1  'x, y, z'
loop_
 _atom_site_type_symbol
 _atom_site_label
 _atom_site_symmetry_multiplicity
 _atom_site_fract_x
 _atom_site_fract_y
 _atom_site_fract_z
 _atom_site_occupancy
  Ni  Ni0  1  0.89302800  0.10697200  0.27286500  1
  Ni  Ni1  1  0.39302800  0.77286500  0.60697200  1
  Ni  Ni2  1  0.27286500  0.72713500  0.89302800  1
  Ni  Ni3  1  0.39302800  0.22713500  0.77286500  1
  Ni  Ni4  1  0.10697200  0.27286500  0.89302800  1
  Ni  Ni5  1  0.27286500  0.10697200  0.72713500  1
  Ni  Ni6  1  0.72713500  0.27286500  0.10697200  1
  Ni  Ni7  1  0.72713500  0.89302800  0.27286500  1
  Ni  Ni8  1  0.22713500  0.60697200  0.77286500  1
  Ni  Ni9  1  0.60697200  0.22713500  0.39302800  1
  Ni  Ni10  1  0.60697200  0.77286500  0.22713500  1
  Ni  Ni11  1  0.77286500  0.60697200  0.39302800  1
  Ni  Ni12  1  0.72713500  0.10697200  0.89302800  1
  Ni  Ni13  1  0.89302800  0.72713500  0.10697200  1
  Ni  Ni14  1  0.77286500  0.22713500  0.60697200  1
  Ni  Ni15  1  0.22713500  0.39302800  0.60697200  1
  Ni  Ni16  1  0.77286500  0.39302800  0.22713500  1
  Ni  Ni17  1  0.39302800  0.60697200  0.22713500  1
  Ni  Ni18  1  0.22713500  0.77286500  0.39302800  1
  Ni  Ni19  1  0.60697200  0.39302800  0.77286500  1
  Ni  Ni20  1  0.89302800  0.27286500  0.72713500  1
  Ni  Ni21  1  0.10697200  0.72713500  0.27286500  1
  Ni  Ni22  1  0.10697200  0.89302800  0.72713500  1
  Ni  Ni23  1  0.27286500  0.89302800  0.10697200  1
  Cu  Cu24  1  0.41747100  0.22238800  0.58252900  1
  Cu  Cu25  1  0.91747100  0.72238800  0.27761200  1
  Cu  Cu26  1  0.91747100  0.27761200  0.08252900  1
  Cu  Cu27  1  0.27761200  0.08252900  0.91747100  1
  Cu  Cu28  1  0.72238800  0.08252900  0.27761200  1
  Cu  Cu29  1  0.22238800  0.58252900  0.41747100  1
  Cu  Cu30  1  0.72238800  0.27761200  0.91747100  1
  Cu  Cu31  1  0.08252900  0.91747100  0.27761200  1
  Cu  Cu32  1  0.58252900  0.22238800  0.77761200  1
  Cu  Cu33  1  0.08252900  0.27761200  0.72238800  1
  Cu  Cu34  1  0.91747100  0.08252900  0.72238800  1
  Cu  Cu35  1  0.22238800  0.77761200  0.58252900  1
  Cu  Cu36  1  0.77761200  0.22238800  0.41747100  1
  Cu  Cu37  1  0.27761200  0.91747100  0.72238800  1
  Cu  Cu38  1  0.77761200  0.41747100  0.58252900  1
  Cu  Cu39  1  0.72238800  0.91747100  0.08252900  1
  Cu  Cu40  1  0.22238800  0.41747100  0.77761200  1
  Cu  Cu41  1  0.08252900  0.72238800  0.91747100  1
  Cu  Cu42  1  0.58252900  0.77761200  0.41747100  1
  Cu  Cu43  1  0.41747100  0.58252900  0.77761200  1
  Cu  Cu44  1  0.77761200  0.58252900  0.22238800  1
  Cu  Cu45  1  0.27761200  0.72238800  0.08252900  1
  Cu  Cu46  1  0.41747100  0.77761200  0.22238800  1
  Cu  Cu47  1  0.58252900  0.41747100  0.22238800  1
  C  C48  1  0.84669300  0.82191000  0.28234600  1
  C  C49  1  0.54905100  0.32191000  0.78234600  1
  C  C50  1  0.37280200  0.14446100  0.62719800  1
  C  C51  1  0.29866900  0.70133100  0.99709500  1
  C  C52  1  0.87280200  0.35553900  0.12719800  1
  C  C53  1  0.78234600  0.32191000  0.34669300  1
  C  C54  1  0.45094900  0.67809000  0.21765400  1
  C  C55  1  0.50290500  0.20133100  0.49709500  1
  C  C56  1  0.32191000  0.34669300  0.78234600  1
  C  C57  1  0.29866900  0.00290500  0.70133100  1
  C  C58  1  0.49709500  0.79866900  0.50290500  1
  C  C59  1  0.99709500  0.29866900  0.70133100  1
  C  C60  1  0.12719800  0.35553900  0.64446100  1
  C  C61  1  0.65330700  0.45094900  0.21765400  1
  C  C62  1  0.17809000  0.95094900  0.71765400  1
  C  C63  1  0.00290500  0.99709500  0.70133100  1
  C  C64  1  0.04905100  0.82191000  0.84669300  1
  C  C65  1  0.79866900  0.50290500  0.49709500  1
  C  C66  1  0.04905100  0.28234600  0.82191000  1
  C  C67  1  0.65330700  0.67809000  0.45094900  1
  C  C68  1  0.35553900  0.12719800  0.87280200  1
  C  C69  1  0.82191000  0.04905100  0.28234600  1
  C  C70  1  0.32191000  0.78234600  0.54905100  1
  C  C71  1  0.17809000  0.71765400  0.15330700  1
  C  C72  1  0.95094900  0.15330700  0.71765400  1
  C  C73  1  0.37280200  0.85553900  0.14446100  1
  C  C74  1  0.29866900  0.99709500  0.00290500  1
  C  C75  1  0.71765400  0.95094900  0.15330700  1
  C  C76  1  0.54905100  0.78234600  0.34669300  1
  C  C77  1  0.95094900  0.71765400  0.17809000  1
  C  C78  1  0.49709500  0.20133100  0.79866900  1
  C  C79  1  0.12719800  0.87280200  0.35553900  1
  C  C80  1  0.82191000  0.84669300  0.04905100  1
  C  C81  1  0.99709500  0.70133100  0.00290500  1
  C  C82  1  0.62719800  0.85553900  0.37280200  1
  C  C83  1  0.15330700  0.95094900  0.17809000  1
  C  C84  1  0.50290500  0.49709500  0.79866900  1
  C  C85  1  0.45094900  0.21765400  0.65330700  1
  C  C86  1  0.70133100  0.99709500  0.29866900  1
  C  C87  1  0.95094900  0.17809000  0.15330700  1
  C  C88  1  0.15330700  0.71765400  0.95094900  1
  C  C89  1  0.85553900  0.37280200  0.62719800  1
  C  C90  1  0.32191000  0.54905100  0.34669300  1
  C  C91  1  0.15330700  0.17809000  0.71765400  1
  C  C92  1  0.75000000  0.75000000  0.25000000  1
  C  C93  1  0.14446100  0.85553900  0.62719800  1
  C  C94  1  0.79866900  0.20133100  0.50290500  1
  C  C95  1  0.17809000  0.15330700  0.95094900  1
  C  C96  1  0.35553900  0.87280200  0.64446100  1
  C  C97  1  0.49709500  0.50290500  0.20133100  1
  C  C98  1  0.20133100  0.79866900  0.49709500  1
  C  C99  1  0.25000000  0.25000000  0.75000000  1
  C  C100  1  0.00290500  0.70133100  0.29866900  1
  C  C101  1  0.62719800  0.37280200  0.14446100  1
  C  C102  1  0.54905100  0.34669300  0.32191000  1
  C  C103  1  0.28234600  0.04905100  0.84669300  1
  C  C104  1  0.25000000  0.75000000  0.75000000  1
  C  C105  1  0.70133100  0.00290500  0.99709500  1
  C  C106  1  0.78234600  0.54905100  0.32191000  1
  C  C107  1  0.82191000  0.28234600  0.84669300  1
  C  C108  1  0.21765400  0.45094900  0.67809000  1
  C  C109  1  0.67809000  0.65330700  0.21765400  1
  C  C110  1  0.64446100  0.87280200  0.12719800  1
  C  C111  1  0.28234600  0.82191000  0.04905100  1
  C  C112  1  0.28234600  0.84669300  0.82191000  1
  C  C113  1  0.14446100  0.62719800  0.37280200  1
  C  C114  1  0.65330700  0.21765400  0.67809000  1
  C  C115  1  0.64446100  0.35553900  0.87280200  1
  C  C116  1  0.34669300  0.78234600  0.32191000  1
  C  C117  1  0.14446100  0.37280200  0.85553900  1
  C  C118  1  0.35553900  0.64446100  0.12719800  1
  C  C119  1  0.64446100  0.12719800  0.35553900  1
  C  C120  1  0.20133100  0.50290500  0.79866900  1
  C  C121  1  0.25000000  0.75000000  0.25000000  1
  C  C122  1  0.62719800  0.14446100  0.85553900  1
  C  C123  1  0.37280200  0.62719800  0.85553900  1
  C  C124  1  0.75000000  0.25000000  0.25000000  1
  C  C125  1  0.34669300  0.32191000  0.54905100  1
  C  C126  1  0.50290500  0.79866900  0.20133100  1
  C  C127  1  0.79866900  0.49709500  0.20133100  1
  C  C128  1  0.71765400  0.17809000  0.95094900  1
  C  C129  1  0.67809000  0.45094900  0.65330700  1
  C  C130  1  0.21765400  0.65330700  0.45094900  1
  C  C131  1  0.87280200  0.64446100  0.35553900  1
  C  C132  1  0.67809000  0.21765400  0.45094900  1
  C  C133  1  0.84669300  0.04905100  0.82191000  1
  C  C134  1  0.34669300  0.54905100  0.78234600  1
  C  C135  1  0.20133100  0.49709500  0.50290500  1
  C  C136  1  0.00290500  0.29866900  0.99709500  1
  C  C137  1  0.85553900  0.14446100  0.37280200  1
  C  C138  1  0.78234600  0.34669300  0.54905100  1
  C  C139  1  0.75000000  0.25000000  0.75000000  1
  C  C140  1  0.12719800  0.64446100  0.87280200  1
  C  C141  1  0.99709500  0.00290500  0.29866900  1
  C  C142  1  0.45094900  0.65330700  0.67809000  1
  C  C143  1  0.04905100  0.84669300  0.28234600  1
  C  C144  1  0.70133100  0.29866900  0.00290500  1
  C  C145  1  0.87280200  0.12719800  0.64446100  1
  C  C146  1  0.71765400  0.15330700  0.17809000  1
  C  C147  1  0.21765400  0.67809000  0.65330700  1
  C  C148  1  0.84669300  0.28234600  0.04905100  1
  C  C149  1  0.85553900  0.62719800  0.14446100  1
