# generated using pymatgen
data_Cu4Ni4C19
_symmetry_space_group_name_H-M   'P 1'
_cell_length_a   12.23582800
_cell_length_b   12.35067983
_cell_length_c   12.55172721
_cell_angle_alpha   88.45106845
_cell_angle_beta   89.53360748
_cell_angle_gamma   89.91426515
_symmetry_Int_Tables_number   1
_chemical_formula_structural   Cu4Ni4C19
_chemical_formula_sum   'Cu12 Ni12 C57'
_cell_volume   1896.06952645
_cell_formula_units_Z   3
loop_
 _symmetry_equiv_pos_site_id
 _symmetry_equiv_pos_as_xyz
  1  'x, y, z'
loop_
 _atom_site_type_symbol
 _atom_site_label
 _atom_site_symmetry_multiplicity
 _atom_site_fract_x
 _atom_site_fract_y
 _atom_site_fract_z
 _atom_site_occupancy
  C  C0  1  0.49365400  0.52102900  0.03251500  1
  C  C1  1  0.99202400  0.46751800  0.45580500  1
  C  C2  1  0.51091700  0.03581800  0.49570100  1
  C  C3  1  0.75899400  0.73083100  0.52141900  1
  C  C4  1  0.21305100  0.63243300  0.62369200  1
  C  C5  1  0.90042400  0.11092800  0.90809300  1
  C  C6  1  0.19091800  0.19282200  0.77278000  1
  C  C7  1  0.81912200  0.82438300  0.79644100  1
  C  C8  1  0.16447200  0.85101700  0.82807400  1
  Ni  Ni9  1  0.63367800  0.81708100  0.01877000  1
  Ni  Ni10  1  0.18622200  0.63057000  0.00495500  1
  Ni  Ni11  1  0.00016800  0.36568800  0.17905800  1
  Ni  Ni12  1  0.99879300  0.80883100  0.37187600  1
  Ni  Ni13  1  0.80867900  0.01502300  0.62348300  1
  Ni  Ni14  1  0.98979500  0.18787500  0.62490600  1
  Ni  Ni15  1  0.18919900  0.99117100  0.62098500  1
  Ni  Ni16  1  0.00458800  0.81391800  0.61985200  1
  Ni  Ni17  1  0.63202600  0.99110000  0.82742000  1
  Ni  Ni18  1  0.36643600  0.00461500  0.83854900  1
  Ni  Ni19  1  0.01506400  0.37546300  0.81847700  1
  Ni  Ni20  1  0.00000200  0.63650600  0.83451100  1
  Cu  Cu21  1  0.81861600  0.36902900  0.99672700  1
  Cu  Cu22  1  0.37465100  0.19021600  0.00481100  1
  Cu  Cu23  1  0.80628100  0.62162900  0.01440500  1
  Cu  Cu24  1  0.36984300  0.81964400  0.02047700  1
  Cu  Cu25  1  0.37558300  0.00462300  0.18994600  1
  Cu  Cu26  1  0.99069700  0.61959500  0.18693400  1
  Cu  Cu27  1  0.62873900  0.00707700  0.18941400  1
  Cu  Cu28  1  0.81286000  0.00127800  0.37428100  1
  Cu  Cu29  1  0.00290900  0.17906800  0.37320100  1
  Cu  Cu30  1  0.18967600  0.99720300  0.37733700  1
  Cu  Cu31  1  0.63168000  0.18283300  0.99707800  1
  Cu  Cu32  1  0.19472300  0.37318000  0.99934500  1
  C  C33  1  0.50377300  0.22458100  0.99369100  1
  C  C34  1  0.77172600  0.49458900  0.99186700  1
  C  C35  1  0.31037300  0.30383100  0.01769100  1
  C  C36  1  0.69257900  0.68717900  0.02355300  1
  C  C37  1  0.23353500  0.49820100  0.98094800  1
  C  C38  1  0.30206100  0.70812700  0.03141900  1
  C  C39  1  0.64932100  0.11346800  0.10944800  1
  C  C40  1  0.88279100  0.34080000  0.10452900  1
  C  C41  1  0.11623700  0.35159300  0.09940000  1
  C  C42  1  0.64688000  0.89410500  0.13291500  1
  C  C43  1  0.35546300  0.10732300  0.10683400  1
  C  C44  1  0.87181900  0.63268100  0.12513500  1
  C  C45  1  0.08751500  0.64212100  0.10180000  1
  C  C46  1  0.36015100  0.89118500  0.12951300  1
  C  C47  1  0.50079300  0.01514600  0.23772200  1
  C  C48  1  0.99528400  0.49561500  0.23477500  1
  C  C49  1  0.00700300  0.27900000  0.29002400  1
  C  C50  1  0.29124700  0.00853400  0.28964900  1
  C  C51  1  0.99309300  0.70189600  0.28494900  1
  C  C52  1  0.70771500  0.01650400  0.29297000  1
  C  C53  1  0.89768500  0.10038500  0.34921100  1
  C  C54  1  0.11576500  0.10694500  0.36508000  1
  C  C55  1  0.87322900  0.88449100  0.36460600  1
  C  C56  1  0.11666600  0.89046400  0.36137100  1
  C  C57  1  0.75536700  0.00985800  0.49232800  1
  C  C58  1  0.99223300  0.23090100  0.49094600  1
  C  C59  1  0.99731100  0.74397500  0.50145900  1
  C  C60  1  0.25106200  0.99588800  0.49429900  1
  C  C61  1  0.86573100  0.13384700  0.66573000  1
  C  C62  1  0.10049500  0.09747100  0.64938700  1
  C  C63  1  0.90049500  0.90601100  0.64183900  1
  C  C64  1  0.13838000  0.85882100  0.64999500  1
  C  C65  1  0.26802600  0.00640300  0.73805300  1
  C  C66  1  0.03577200  0.28902700  0.71139400  1
  C  C67  1  0.97337300  0.73096500  0.73192200  1
  C  C68  1  0.70884100  0.96440900  0.71265300  1
  C  C69  1  0.49605900  0.98863100  0.79468300  1
  C  C70  1  0.02344200  0.51074700  0.78307000  1
  C  C71  1  0.66290300  0.11180100  0.89554800  1
  C  C72  1  0.89441700  0.34446600  0.89235300  1
  C  C73  1  0.13780500  0.32652800  0.88945200  1
  C  C74  1  0.69264600  0.88653600  0.90887900  1
  C  C75  1  0.33114300  0.13269500  0.89650800  1
  C  C76  1  0.87930300  0.66785700  0.91136900  1
  C  C77  1  0.12579700  0.68715500  0.88627300  1
  C  C78  1  0.31424300  0.89572100  0.92271900  1
  C  C79  1  0.70750400  0.29166200  0.99432100  1
  C  C80  1  0.49526400  0.79106900  0.99479800  1
