# generated using pymatgen
data_CuNi2C21
_symmetry_space_group_name_H-M   'P 1'
_cell_length_a   6.80350200
_cell_length_b   7.39991941
_cell_length_c   10.83483668
_cell_angle_alpha   98.29728778
_cell_angle_beta   107.42450621
_cell_angle_gamma   93.11241550
_symmetry_Int_Tables_number   1
_chemical_formula_structural   CuNi2C21
_chemical_formula_sum   'Cu2 Ni4 C42'
_cell_volume   512.25103250
_cell_formula_units_Z   2
loop_
 _symmetry_equiv_pos_site_id
 _symmetry_equiv_pos_as_xyz
  1  'x, y, z'
loop_
 _atom_site_type_symbol
 _atom_site_label
 _atom_site_symmetry_multiplicity
 _atom_site_fract_x
 _atom_site_fract_y
 _atom_site_fract_z
 _atom_site_occupancy
  Ni  Ni0  1  0.61807400  0.34512800  0.62437200  1
  Ni  Ni1  1  0.38192600  0.65487200  0.37562800  1
  Ni  Ni2  1  0.56845200  0.30972300  0.14766300  1
  Ni  Ni3  1  0.43154800  0.69027700  0.85233700  1
  Cu  Cu4  1  0.78376700  0.81538500  0.23602400  1
  Cu  Cu5  1  0.21623300  0.18461500  0.76397600  1
  C  C6  1  0.14772000  0.97831800  0.95953600  1
  C  C7  1  0.85228000  0.02168200  0.04046400  1
  C  C8  1  0.80498700  0.01519000  0.57472600  1
  C  C9  1  0.19501300  0.98481000  0.42527400  1
  C  C10  1  0.65893200  0.14268500  0.86110800  1
  C  C11  1  0.34106800  0.85731500  0.13889200  1
  C  C12  1  0.67803800  0.35626500  0.91872200  1
  C  C13  1  0.32196200  0.64373500  0.08127800  1
  C  C14  1  0.88906700  0.48406200  0.36992500  1
  C  C15  1  0.11093300  0.51593800  0.63007500  1
  C  C16  1  0.86414000  0.64958200  0.47168200  1
  C  C17  1  0.13586000  0.35041800  0.52831800  1
  C  C18  1  0.58003200  0.10295100  0.38027400  1
  C  C19  1  0.41996800  0.89704900  0.61972600  1
  C  C20  1  0.81903900  0.11980700  0.39317300  1
  C  C21  1  0.18096100  0.88019300  0.60682700  1
  C  C22  1  0.92870000  0.51049800  0.10842700  1
  C  C23  1  0.07130000  0.48950200  0.89157300  1
  C  C24  1  0.85001700  0.62091500  0.99079400  1
  C  C25  1  0.14998300  0.37908500  0.00920600  1
  C  C26  1  0.86072200  0.81845800  0.75437200  1
  C  C27  1  0.13927800  0.18154200  0.24562800  1
  C  C28  1  0.14656100  0.92757700  0.86707400  1
  C  C29  1  0.85343900  0.07242300  0.13292600  1
  C  C30  1  0.85909200  0.04864800  0.67293400  1
  C  C31  1  0.14090800  0.95135200  0.32706600  1
  C  C32  1  0.00077300  0.71888300  0.63737800  1
  C  C33  1  0.99922700  0.28111700  0.36262200  1
  C  C34  1  0.75923400  0.94986400  0.87946800  1
  C  C35  1  0.24076600  0.05013600  0.12053200  1
  C  C36  1  0.87446200  0.60914300  0.83437400  1
  C  C37  1  0.12553800  0.39085700  0.16562600  1
  C  C38  1  0.59688700  0.73732200  0.63957400  1
  C  C39  1  0.40311300  0.26267800  0.36042600  1
  C  C40  1  0.58028100  0.25561800  0.86064200  1
  C  C41  1  0.41971900  0.74438200  0.13935800  1
  C  C42  1  0.80960700  0.59322200  0.37690800  1
  C  C43  1  0.19039300  0.40677800  0.62309200  1
  C  C44  1  0.70826200  0.03772500  0.40717600  1
  C  C45  1  0.29173800  0.96227500  0.59282400  1
  C  C46  1  0.81136300  0.58086000  0.06554300  1
  C  C47  1  0.18863700  0.41914000  0.93445700  1
