# generated using pymatgen
data_CuNi2C7
_symmetry_space_group_name_H-M   'P 1'
_cell_length_a   6.06019216
_cell_length_b   6.06019216
_cell_length_c   6.10259241
_cell_angle_alpha   59.98007311
_cell_angle_beta   59.98007311
_cell_angle_gamma   59.96048240
_symmetry_Int_Tables_number   1
_chemical_formula_structural   CuNi2C7
_chemical_formula_sum   'Cu1 Ni2 C7'
_cell_volume   158.38406724
_cell_formula_units_Z   1
loop_
 _symmetry_equiv_pos_site_id
 _symmetry_equiv_pos_as_xyz
  1  'x, y, z'
loop_
 _atom_site_type_symbol
 _atom_site_label
 _atom_site_symmetry_multiplicity
 _atom_site_fract_x
 _atom_site_fract_y
 _atom_site_fract_z
 _atom_site_occupancy
  Ni  Ni0  1  0.75140600  0.75140600  0.24607000  1
  Ni  Ni1  1  0.24859400  0.24859400  0.75393000  1
  Cu  Cu2  1  0.00000000  0.00000000  0.50000000  1
  C  C3  1  0.50000000  0.50000000  0.00000000  1
  C  C4  1  0.27035700  0.27035700  0.27461300  1
  C  C5  1  0.72964300  0.72964300  0.72538700  1
  C  C6  1  0.70773000  0.24492400  0.79477600  1
  C  C7  1  0.75507600  0.29227000  0.20522400  1
  C  C8  1  0.29227000  0.75507600  0.20522400  1
  C  C9  1  0.24492400  0.70773000  0.79477600  1
