# generated using pymatgen
data_CuNi3C4
_symmetry_space_group_name_H-M   'P 1'
_cell_length_a   6.02865893
_cell_length_b   23.49068430
_cell_length_c   10.61789492
_cell_angle_alpha   82.63743098
_cell_angle_beta   99.60471329
_cell_angle_gamma   88.52922207
_symmetry_Int_Tables_number   1
_chemical_formula_structural   CuNi3C4
_chemical_formula_sum   'Cu16 Ni48 C64'
_cell_volume   1468.67295709
_cell_formula_units_Z   16
loop_
 _symmetry_equiv_pos_site_id
 _symmetry_equiv_pos_as_xyz
  1  'x, y, z'
loop_
 _atom_site_type_symbol
 _atom_site_label
 _atom_site_symmetry_multiplicity
 _atom_site_fract_x
 _atom_site_fract_y
 _atom_site_fract_z
 _atom_site_occupancy
  C  C0  1  0.00002400  0.99999500  0.00000600  1
  C  C1  1  0.75010000  0.25000500  0.99999400  1
  C  C2  1  0.50000400  0.50000400  0.99999300  1
  C  C3  1  0.24993300  0.74999500  0.00000500  1
  C  C4  1  0.12525300  0.37486700  0.49977800  1
  C  C5  1  0.87458400  0.62513600  0.50025000  1
  C  C6  1  0.37536900  0.12465000  0.49988200  1
  C  C7  1  0.62437900  0.87530100  0.50022400  1
  Ni  Ni8  1  0.63325800  0.07326300  0.36159300  1
  Ni  Ni9  1  0.38318900  0.32326100  0.36160400  1
  Ni  Ni10  1  0.13224400  0.57352900  0.36190100  1
  Ni  Ni11  1  0.88204800  0.82361800  0.36194500  1
  Ni  Ni12  1  0.11786000  0.17639700  0.63810500  1
  Ni  Ni13  1  0.86780400  0.42646900  0.63806700  1
  Ni  Ni14  1  0.61685000  0.67673900  0.63835100  1
  Ni  Ni15  1  0.36663900  0.92675200  0.63845200  1
  Ni  Ni16  1  0.73866500  0.05226200  0.52215100  1
  Ni  Ni17  1  0.48837500  0.30224200  0.52217000  1
  Ni  Ni18  1  0.23754600  0.55249700  0.52234900  1
  Ni  Ni19  1  0.98731800  0.80263000  0.52233200  1
  Ni  Ni20  1  0.01260100  0.19738000  0.47764400  1
  Ni  Ni21  1  0.76248900  0.44750300  0.47765400  1
  Ni  Ni22  1  0.51165700  0.69776000  0.47782200  1
  Ni  Ni23  1  0.26124300  0.94775000  0.47781900  1
  Ni  Ni24  1  0.74836700  0.09302800  0.18115400  1
  Ni  Ni25  1  0.49834800  0.34300500  0.18123400  1
  Ni  Ni26  1  0.24829700  0.59302300  0.18135400  1
  Ni  Ni27  1  0.99827000  0.84304300  0.18135000  1
  Ni  Ni28  1  0.58822500  0.03963400  0.18107800  1
  Ni  Ni29  1  0.33823700  0.28959700  0.18113600  1
  Ni  Ni30  1  0.08817200  0.53964800  0.18128500  1
  Ni  Ni31  1  0.83813200  0.78967800  0.18132000  1
  Ni  Ni32  1  0.00174800  0.15695700  0.81863600  1
  Ni  Ni33  1  0.75172700  0.40698100  0.81863900  1
  Ni  Ni34  1  0.50166200  0.65699700  0.81875500  1
  Ni  Ni35  1  0.25163700  0.90697000  0.81882500  1
  Ni  Ni36  1  0.16188500  0.21032800  0.81866300  1
  Ni  Ni37  1  0.91183800  0.46035800  0.81870300  1
  Ni  Ni38  1  0.66179300  0.71039800  0.81887100  1
  Ni  Ni39  1  0.41180500  0.96036200  0.81892600  1
  Ni  Ni40  1  0.06598300  0.02945000  0.64741700  1
  Ni  Ni41  1  0.81578400  0.27936300  0.64726200  1
  Ni  Ni42  1  0.56563100  0.52945500  0.64734000  1
  Ni  Ni43  1  0.31562600  0.77957400  0.64734100  1
  Ni  Ni44  1  0.65641300  0.22616600  0.64726300  1
  Ni  Ni45  1  0.40620600  0.47628000  0.64720400  1
  Ni  Ni46  1  0.15611500  0.72640600  0.64733600  1
  Ni  Ni47  1  0.90638000  0.97628700  0.64751500  1
  Ni  Ni48  1  0.68438500  0.22041800  0.35267000  1
  Ni  Ni49  1  0.43439000  0.47055300  0.35263100  1
  Ni  Ni50  1  0.18423300  0.72064000  0.35270800  1
  Ni  Ni51  1  0.93402100  0.97053900  0.35259300  1
  Ni  Ni52  1  0.09360800  0.02370700  0.35245800  1
  Ni  Ni53  1  0.84388400  0.27359100  0.35265100  1
  Ni  Ni54  1  0.59382400  0.52372500  0.35278600  1
  Ni  Ni55  1  0.34360700  0.77383400  0.35271800  1
  Cu  Cu56  1  0.62289300  0.11688300  0.75762400  1
  Cu  Cu57  1  0.37297500  0.36693800  0.75752000  1
  Cu  Cu58  1  0.12283000  0.61698600  0.75786300  1
  Cu  Cu59  1  0.87278900  0.86703100  0.75793100  1
  Cu  Cu60  1  0.46744600  0.06504300  0.75785700  1
  Cu  Cu61  1  0.21743200  0.31510200  0.75762500  1
  Cu  Cu62  1  0.96727500  0.56516100  0.75791500  1
  Cu  Cu63  1  0.71716300  0.81523300  0.75788100  1
  Cu  Cu64  1  0.12720900  0.13295900  0.24209500  1
  Cu  Cu65  1  0.87719200  0.38302600  0.24211700  1
  Cu  Cu66  1  0.62705600  0.63307500  0.24245700  1
  Cu  Cu67  1  0.37710700  0.88310200  0.24240700  1
  Cu  Cu68  1  0.28286800  0.18474900  0.24219000  1
  Cu  Cu69  1  0.03273100  0.43485400  0.24204800  1
  Cu  Cu70  1  0.78258700  0.68491400  0.24232100  1
  Cu  Cu71  1  0.53257800  0.93493600  0.24220800  1
  C  C72  1  0.61995600  0.07579100  0.45600100  1
  C  C73  1  0.36996100  0.32585900  0.45600400  1
  C  C74  1  0.11908800  0.57613200  0.45627100  1
  C  C75  1  0.86890500  0.82627400  0.45626700  1
  C  C76  1  0.13095700  0.17373100  0.54376000  1
  C  C77  1  0.88097200  0.42387100  0.54370800  1
  C  C78  1  0.63010500  0.67414800  0.54396500  1
  C  C79  1  0.37989700  0.92421300  0.54402600  1
  C  C80  1  0.61420100  0.07715200  0.21351000  1
  C  C81  1  0.36411100  0.32712400  0.21352600  1
  C  C82  1  0.11398200  0.57718800  0.21363300  1
  C  C83  1  0.86396200  0.82722700  0.21363200  1
  C  C84  1  0.13604900  0.17277800  0.78634900  1
  C  C85  1  0.88604400  0.42281400  0.78636600  1
  C  C86  1  0.63590100  0.67287600  0.78646500  1
  C  C87  1  0.38580100  0.92285000  0.78647000  1
  C  C88  1  0.90828200  0.01848800  0.64588800  1
  C  C89  1  0.65818400  0.26835500  0.64586200  1
  C  C90  1  0.40796800  0.51845600  0.64587700  1
  C  C91  1  0.15792900  0.76858500  0.64586200  1
  C  C92  1  0.84207300  0.23141200  0.35412700  1
  C  C93  1  0.59205600  0.48154900  0.35410200  1
  C  C94  1  0.34183400  0.73164300  0.35411400  1
  C  C95  1  0.09171500  0.98150500  0.35409900  1
  C  C96  1  0.59592600  0.15076300  0.64893100  1
  C  C97  1  0.34601000  0.40085700  0.64889300  1
  C  C98  1  0.09547700  0.65101900  0.64939600  1
  C  C99  1  0.84548600  0.90109100  0.64945800  1
  C  C100  1  0.33343800  0.06319200  0.64930400  1
  C  C101  1  0.08334200  0.31332500  0.64908100  1
  C  C102  1  0.83284800  0.56349400  0.64943100  1
  C  C103  1  0.58277100  0.81359200  0.64936600  1
  C  C104  1  0.15443000  0.09890400  0.35057200  1
  C  C105  1  0.90459300  0.34899200  0.35058800  1
  C  C106  1  0.65405500  0.59915600  0.35108700  1
  C  C107  1  0.40399900  0.84922800  0.35111200  1
  C  C108  1  0.41719300  0.18639300  0.35071800  1
  C  C109  1  0.16719600  0.43652400  0.35052000  1
  C  C110  1  0.91670900  0.68669200  0.35087000  1
  C  C111  1  0.66651900  0.93679100  0.35078000  1
  C  C112  1  0.76062000  0.12289600  0.85557500  1
  C  C113  1  0.51072400  0.37289200  0.85550700  1
  C  C114  1  0.26100300  0.62284400  0.85578500  1
  C  C115  1  0.01089500  0.87286700  0.85584800  1
  C  C116  1  0.47960800  0.02917400  0.85599600  1
  C  C117  1  0.22963200  0.27918200  0.85566800  1
  C  C118  1  0.97976400  0.52916700  0.85582600  1
  C  C119  1  0.72956900  0.77922200  0.85576800  1
  C  C120  1  0.98914800  0.12712900  0.14415000  1
  C  C121  1  0.73900800  0.37716200  0.14421300  1
  C  C122  1  0.48928300  0.62711400  0.14448800  1
  C  C123  1  0.23944600  0.87708900  0.14443800  1
  C  C124  1  0.27053000  0.22076300  0.14429700  1
  C  C125  1  0.02020400  0.47084600  0.14412800  1
  C  C126  1  0.77035900  0.72082400  0.14428100  1
  C  C127  1  0.52048100  0.97080200  0.14406700  1
