# generated using pymatgen
data_Cu4NiC2
_symmetry_space_group_name_H-M   'P 1'
_cell_length_a   4.78362291
_cell_length_b   4.78362291
_cell_length_c   8.89304833
_cell_angle_alpha   72.37258164
_cell_angle_beta   72.37258164
_cell_angle_gamma   60.85395157
_symmetry_Int_Tables_number   1
_chemical_formula_structural   Cu4NiC2
_chemical_formula_sum   'Cu8 Ni2 C4'
_cell_volume   166.41197373
_cell_formula_units_Z   2
loop_
 _symmetry_equiv_pos_site_id
 _symmetry_equiv_pos_as_xyz
  1  'x, y, z'
loop_
 _atom_site_type_symbol
 _atom_site_label
 _atom_site_symmetry_multiplicity
 _atom_site_fract_x
 _atom_site_fract_y
 _atom_site_fract_z
 _atom_site_occupancy
  C  C0  1  0.47484900  0.80038800  0.35783600  1
  C  C1  1  0.19961200  0.52515100  0.14216400  1
  C  C2  1  0.52515100  0.19961200  0.64216400  1
  C  C3  1  0.80038800  0.47484900  0.85783600  1
  Ni  Ni4  1  0.07033200  0.92966800  0.25000000  1
  Ni  Ni5  1  0.92966800  0.07033200  0.75000000  1
  Cu  Cu6  1  0.28232700  0.74960900  0.38381600  1
  Cu  Cu7  1  0.25039100  0.71767300  0.11618400  1
  Cu  Cu8  1  0.71767300  0.25039100  0.61618400  1
  Cu  Cu9  1  0.74960900  0.28232700  0.88381600  1
  Cu  Cu10  1  0.75929400  0.92697400  0.32329300  1
  Cu  Cu11  1  0.07302600  0.24070600  0.17670700  1
  Cu  Cu12  1  0.24070600  0.07302600  0.67670700  1
  Cu  Cu13  1  0.92697400  0.75929400  0.82329300  1
