# generated using pymatgen
data_Cu3Ni17C40
_symmetry_space_group_name_H-M   'P 1'
_cell_length_a   19.11783876
_cell_length_b   19.11783876
_cell_length_c   24.72613671
_cell_angle_alpha   50.30096941
_cell_angle_beta   50.30096941
_cell_angle_gamma   10.31575831
_symmetry_Int_Tables_number   1
_chemical_formula_structural   Cu3Ni17C40
_chemical_formula_sum   'Cu3 Ni17 C40'
_cell_volume   1241.64852276
_cell_formula_units_Z   1
loop_
 _symmetry_equiv_pos_site_id
 _symmetry_equiv_pos_as_xyz
  1  'x, y, z'
loop_
 _atom_site_type_symbol
 _atom_site_label
 _atom_site_symmetry_multiplicity
 _atom_site_fract_x
 _atom_site_fract_y
 _atom_site_fract_z
 _atom_site_occupancy
  Ni  Ni0  1  0.59122200  0.59122200  0.40606000  1
  Ni  Ni1  1  0.00000000  0.00000000  0.50000000  1
  Ni  Ni2  1  0.40877800  0.40877800  0.59394000  1
  Ni  Ni3  1  0.79989200  0.79989200  0.95092100  1
  Ni  Ni4  1  0.20010800  0.20010800  0.04907900  1
  Ni  Ni5  1  0.20964300  0.20964300  0.79068100  1
  Ni  Ni6  1  0.00013800  0.00013800  0.24997000  1
  Ni  Ni7  1  0.59070300  0.59070300  0.91003800  1
  Ni  Ni8  1  0.60019700  0.60019700  0.14936000  1
  Ni  Ni9  1  0.79964900  0.79964900  0.45009200  1
  Ni  Ni10  1  0.79035700  0.79035700  0.20931900  1
  Ni  Ni11  1  0.39957500  0.39957500  0.34980300  1
  Ni  Ni12  1  0.40929700  0.40929700  0.08996200  1
  Ni  Ni13  1  0.20035100  0.20035100  0.54990800  1
  Ni  Ni14  1  0.60042500  0.60042500  0.65019700  1
  Ni  Ni15  1  0.99986200  0.99986200  0.75003000  1
  Ni  Ni16  1  0.39980300  0.39980300  0.85064000  1
  Cu  Cu17  1  0.79202100  0.79202100  0.70619300  1
  Cu  Cu18  1  0.00000000  0.00000000  0.00000000  1
  Cu  Cu19  1  0.20797900  0.20797900  0.29380700  1
  C  C20  1  0.33358800  0.33358800  0.97924400  1
  C  C21  1  0.67066000  0.67066000  0.27890000  1
  C  C22  1  0.73291800  0.73291800  0.07875600  1
  C  C23  1  0.06669000  0.06669000  0.36643300  1
  C  C24  1  0.13367600  0.13367600  0.17788000  1
  C  C25  1  0.46745100  0.46745100  0.46801400  1
  C  C26  1  0.53367400  0.53367400  0.27822700  1
  C  C27  1  0.53254900  0.53254900  0.53198600  1
  C  C28  1  0.86349600  0.86349600  0.58491000  1
  C  C29  1  0.86632400  0.86632400  0.82212000  1
  C  C30  1  0.93331000  0.93331000  0.63356700  1
  C  C31  1  0.93324800  0.93324800  0.37838100  1
  C  C32  1  0.26832100  0.26832100  0.66710000  1
  C  C33  1  0.26708200  0.26708200  0.92124400  1
  C  C34  1  0.32934000  0.32934000  0.72110000  1
  C  C35  1  0.33359100  0.33359100  0.47794800  1
  C  C36  1  0.66605400  0.66605400  0.77909100  1
  C  C37  1  0.66641200  0.66641200  0.02075600  1
  C  C38  1  0.73367300  0.73367300  0.57866200  1
  C  C39  1  0.73377600  0.73377600  0.83188500  1
  C  C40  1  0.06641200  0.06641200  0.12109100  1
  C  C41  1  0.06360100  0.06360100  0.87228900  1
  C  C42  1  0.13381200  0.13381200  0.67889300  1
  C  C43  1  0.13171600  0.13171600  0.92434800  1
  C  C44  1  0.46648700  0.46648700  0.22166700  1
  C  C45  1  0.47251400  0.47251400  0.96577200  1
  C  C46  1  0.52748600  0.52748600  0.03422800  1
  C  C47  1  0.53351300  0.53351300  0.77833300  1
  C  C48  1  0.86618800  0.86618800  0.32110700  1
  C  C49  1  0.86828400  0.86828400  0.07565200  1
  C  C50  1  0.93358800  0.93358800  0.87890900  1
  C  C51  1  0.93639900  0.93639900  0.12771100  1
  C  C52  1  0.26622400  0.26622400  0.16811500  1
  C  C53  1  0.26632700  0.26632700  0.42133800  1
  C  C54  1  0.33394600  0.33394600  0.22090900  1
  C  C55  1  0.66640900  0.66640900  0.52205200  1
  C  C56  1  0.73167900  0.73167900  0.33290000  1
  C  C57  1  0.06675200  0.06675200  0.62161900  1
  C  C58  1  0.13650400  0.13650400  0.41509000  1
  C  C59  1  0.46632600  0.46632600  0.72177300  1
