# generated using pymatgen
data_Cu9Ni10C3
_symmetry_space_group_name_H-M   'P 1'
_cell_length_a   9.70306407
_cell_length_b   9.70306407
_cell_length_c   25.75984500
_cell_angle_alpha   90.00000000
_cell_angle_beta   90.00000000
_cell_angle_gamma   120.00000048
_symmetry_Int_Tables_number   1
_chemical_formula_structural   Cu9Ni10C3
_chemical_formula_sum   'Cu54 Ni60 C18'
_cell_volume   2100.35001040
_cell_formula_units_Z   6
loop_
 _symmetry_equiv_pos_site_id
 _symmetry_equiv_pos_as_xyz
  1  'x, y, z'
loop_
 _atom_site_type_symbol
 _atom_site_label
 _atom_site_symmetry_multiplicity
 _atom_site_fract_x
 _atom_site_fract_y
 _atom_site_fract_z
 _atom_site_occupancy
  C  C0  1  0.01127800  0.86348400  0.40040700  1
  C  C1  1  0.71506400  0.63716300  0.91534800  1
  C  C2  1  0.28493600  0.92209900  0.41798600  1
  C  C3  1  0.36283700  0.07790100  0.24868100  1
  C  C4  1  0.59588200  0.88088100  0.02096200  1
  C  C5  1  0.71500200  0.11911900  0.64570400  1
  C  C6  1  0.88088100  0.59588200  0.97903800  1
  C  C7  1  0.85220700  0.98872200  0.06707400  1
  C  C8  1  0.86348400  0.01127800  0.59959300  1
  C  C9  1  0.11911900  0.71500200  0.35429600  1
  C  C10  1  0.40411800  0.28499800  0.31237100  1
  C  C11  1  0.28499800  0.40411800  0.68762900  1
  C  C12  1  0.13651600  0.14779300  0.73374000  1
  C  C13  1  0.63716300  0.71506400  0.08465200  1
  C  C14  1  0.14779300  0.13651600  0.26626000  1
  C  C15  1  0.92209900  0.28493600  0.58201400  1
  C  C16  1  0.98872200  0.85220700  0.93292600  1
  C  C17  1  0.07790100  0.36283700  0.75131900  1
  Ni  Ni18  1  0.81447000  0.08888300  0.11906200  1
  Ni  Ni19  1  0.05819500  0.25108000  0.68680800  1
  Ni  Ni20  1  0.55842700  0.75873800  0.14172900  1
  Ni  Ni21  1  0.24126200  0.79968900  0.47506300  1
  Ni  Ni22  1  0.18553000  0.27441300  0.21427100  1
  Ni  Ni23  1  0.80711500  0.74892000  0.97985900  1
  Ni  Ni24  1  0.27441300  0.18553000  0.78572900  1
  Ni  Ni25  1  0.02553700  0.03617600  0.42761600  1
  Ni  Ni26  1  0.75873800  0.55842700  0.85827100  1
  Ni  Ni27  1  0.27006400  0.70129500  0.32112600  1
  Ni  Ni28  1  0.15125700  0.96291900  0.97455200  1
  Ni  Ni29  1  0.70129500  0.27006400  0.67887400  1
  Ni  Ni30  1  0.65296200  0.02615100  0.97209600  1
  Ni  Ni31  1  0.18833900  0.03708100  0.69211400  1
  Ni  Ni32  1  0.84874300  0.81166100  0.35878100  1
  Ni  Ni33  1  0.64161000  0.75248500  0.88613100  1
  Ni  Ni34  1  0.49985300  0.44740700  0.26714500  1
  Ni  Ni35  1  0.94755400  0.50014700  0.93381200  1
  Ni  Ni36  1  0.62681100  0.97384900  0.69457100  1
  Ni  Ni37  1  0.96382400  0.98936000  0.76094900  1
  Ni  Ni38  1  0.97446300  0.01064000  0.90571700  1
  Ni  Ni39  1  0.75248500  0.64161000  0.11386900  1
  Ni  Ni40  1  0.93919600  0.46886800  0.59910200  1
  Ni  Ni41  1  0.53113200  0.47032800  0.93243500  1
  Ni  Ni42  1  0.79968900  0.24126200  0.52493700  1
  Ni  Ni43  1  0.06080400  0.52967200  0.73423100  1
  Ni  Ni44  1  0.35839000  0.11087500  0.44720200  1
  Ni  Ni45  1  0.37318900  0.34703800  0.63876300  1
  Ni  Ni46  1  0.05244600  0.55259300  0.39952200  1
  Ni  Ni47  1  0.72558700  0.91111700  0.54760400  1
  Ni  Ni48  1  0.88912500  0.24751500  0.78053500  1
  Ni  Ni49  1  0.02615100  0.65296200  0.02790400  1
  Ni  Ni50  1  0.11087500  0.35839000  0.55279800  1
  Ni  Ni51  1  0.98936000  0.96382400  0.23905100  1
  Ni  Ni52  1  0.03708100  0.18833900  0.30788600  1
  Ni  Ni53  1  0.55259300  0.05244600  0.60047800  1
  Ni  Ni54  1  0.52967200  0.06080400  0.26576900  1
  Ni  Ni55  1  0.25108000  0.05819500  0.31319200  1
  Ni  Ni56  1  0.44740700  0.49985300  0.73285500  1
  Ni  Ni57  1  0.47032800  0.53113200  0.06756500  1
  Ni  Ni58  1  0.24751500  0.88912500  0.21946500  1
  Ni  Ni59  1  0.91111700  0.72558700  0.45239600  1
  Ni  Ni60  1  0.20031100  0.44157300  0.80839600  1
  Ni  Ni61  1  0.72993600  0.43123100  0.01220800  1
  Ni  Ni62  1  0.50014700  0.94755400  0.06618800  1
  Ni  Ni63  1  0.01064000  0.97446300  0.09428300  1
  Ni  Ni64  1  0.97384900  0.62681100  0.30542900  1
  Ni  Ni65  1  0.44157300  0.20031100  0.19160400  1
  Ni  Ni66  1  0.74892000  0.80711500  0.02014100  1
  Ni  Ni67  1  0.81166100  0.84874300  0.64121900  1
  Ni  Ni68  1  0.56876900  0.29870500  0.34554100  1
  Ni  Ni69  1  0.96291900  0.15125700  0.02544800  1
  Ni  Ni70  1  0.19288500  0.94180500  0.35347400  1
  Ni  Ni71  1  0.29870500  0.56876900  0.65445900  1
  Ni  Ni72  1  0.34703800  0.37318900  0.36123700  1
  Ni  Ni73  1  0.94180500  0.19288500  0.64652600  1
  Ni  Ni74  1  0.43123100  0.72993600  0.98779200  1
  Ni  Ni75  1  0.46886800  0.93919600  0.40089800  1
  Ni  Ni76  1  0.03617600  0.02553700  0.57238400  1
  Ni  Ni77  1  0.08888300  0.81447000  0.88093800  1
  Cu  Cu78  1  0.02882400  0.14546600  0.44698300  1
  Cu  Cu79  1  0.76626000  0.17576600  0.80038500  1
  Cu  Cu80  1  0.72223200  0.21391300  0.48802700  1
  Cu  Cu81  1  0.49168100  0.27776800  0.15469400  1
  Cu  Cu82  1  0.77473200  0.73714000  0.66661500  1
  Cu  Cu83  1  0.01234400  0.44945500  0.42902000  1
  Cu  Cu84  1  0.63850000  0.84303500  0.51393700  1
  Cu  Cu85  1  0.44945500  0.01234400  0.57098000  1
  Cu  Cu86  1  0.59049400  0.82423400  0.86628200  1
  Cu  Cu87  1  0.94877000  0.59033800  0.60798900  1
  Cu  Cu88  1  0.82423400  0.59049400  0.13371800  1
  Cu  Cu89  1  0.79546500  0.15696500  0.15273000  1
  Cu  Cu90  1  0.20453500  0.36150000  0.18060400  1
  Cu  Cu91  1  0.97117600  0.11664100  0.88635000  1
  Cu  Cu92  1  0.23374000  0.40950600  0.53294900  1
  Cu  Cu93  1  0.63451600  0.32074900  0.03455600  1
  Cu  Cu94  1  0.21391300  0.72223200  0.51197300  1
  Cu  Cu95  1  0.98765600  0.43711100  0.90431400  1
  Cu  Cu96  1  0.11664100  0.97117600  0.11365000  1
  Cu  Cu97  1  0.32074900  0.63451600  0.96544400  1
  Cu  Cu98  1  0.78608700  0.50831900  0.82136100  1
  Cu  Cu99  1  0.03759200  0.26286000  0.00005200  1
  Cu  Cu100  1  0.15696500  0.79546500  0.84727000  1
  Cu  Cu101  1  0.43977300  0.31828400  0.60701700  1
  Cu  Cu102  1  0.05123000  0.64156900  0.72534400  1
  Cu  Cu103  1  0.43711100  0.98765600  0.09568600  1
  Cu  Cu104  1  0.17576600  0.76626000  0.19961500  1
  Cu  Cu105  1  0.56022700  0.87851100  0.72631600  1
  Cu  Cu106  1  0.67925100  0.31376700  0.36788900  1
  Cu  Cu107  1  0.14546600  0.02882400  0.55301700  1
  Cu  Cu108  1  0.26286000  0.03759200  0.99994800  1
  Cu  Cu109  1  0.31828400  0.43977300  0.39298300  1
  Cu  Cu110  1  0.68623300  0.36548400  0.70122300  1
  Cu  Cu111  1  0.87851100  0.56022700  0.27368400  1
  Cu  Cu112  1  0.40966200  0.35843100  0.94132300  1
  Cu  Cu113  1  0.22526800  0.96240800  0.66671800  1
  Cu  Cu114  1  0.68171600  0.12148900  0.94035000  1
  Cu  Cu115  1  0.27776800  0.49168100  0.84530600  1
  Cu  Cu116  1  0.12148900  0.68171600  0.05965000  1
  Cu  Cu117  1  0.73714000  0.77473200  0.33338500  1
  Cu  Cu118  1  0.84303500  0.63850000  0.48606300  1
  Cu  Cu119  1  0.35843100  0.40966200  0.05867700  1
  Cu  Cu120  1  0.88335900  0.85453400  0.21968400  1
  Cu  Cu121  1  0.36548400  0.68623300  0.29877700  1
  Cu  Cu122  1  0.56288900  0.55054500  0.23764700  1
  Cu  Cu123  1  0.40950600  0.23374000  0.46705100  1
  Cu  Cu124  1  0.59033800  0.94877000  0.39201100  1
  Cu  Cu125  1  0.31376700  0.67925100  0.63211100  1
  Cu  Cu126  1  0.50831900  0.78608700  0.17863900  1
  Cu  Cu127  1  0.55054500  0.56288900  0.76235300  1
  Cu  Cu128  1  0.64156900  0.05123000  0.27465600  1
  Cu  Cu129  1  0.85453400  0.88335900  0.78031600  1
  Cu  Cu130  1  0.96240800  0.22526800  0.33328200  1
  Cu  Cu131  1  0.36150000  0.20453500  0.81939600  1
