# generated using pymatgen
data_CuNi2C3
_symmetry_space_group_name_H-M   'P 1'
_cell_length_a   7.14929314
_cell_length_b   7.14929314
_cell_length_c   19.00275738
_cell_angle_alpha   81.68411725
_cell_angle_beta   81.68411725
_cell_angle_gamma   98.71774296
_symmetry_Int_Tables_number   1
_chemical_formula_structural   CuNi2C3
_chemical_formula_sum   'Cu12 Ni24 C36'
_cell_volume   936.08601256
_cell_formula_units_Z   12
loop_
 _symmetry_equiv_pos_site_id
 _symmetry_equiv_pos_as_xyz
  1  'x, y, z'
loop_
 _atom_site_type_symbol
 _atom_site_label
 _atom_site_symmetry_multiplicity
 _atom_site_fract_x
 _atom_site_fract_y
 _atom_site_fract_z
 _atom_site_occupancy
  Ni  Ni0  1  0.17569000  0.31594100  0.83772300  1
  Ni  Ni1  1  0.16647800  0.27628500  0.49059000  1
  Ni  Ni2  1  0.57852100  0.42147900  0.75000000  1
  Ni  Ni3  1  0.15996900  0.35381900  0.16673900  1
  Ni  Ni4  1  0.35381900  0.15996900  0.66673900  1
  Ni  Ni5  1  0.96644000  0.51713200  0.67373700  1
  Ni  Ni6  1  0.31594100  0.17569000  0.33772300  1
  Ni  Ni7  1  0.07326300  0.89982600  0.91297900  1
  Ni  Ni8  1  0.03356000  0.48286800  0.32626300  1
  Ni  Ni9  1  0.27628500  0.16647800  0.99059000  1
  Ni  Ni10  1  0.10017400  0.92673700  0.58702100  1
  Ni  Ni11  1  0.00000000  0.50000000  0.00000000  1
  Ni  Ni12  1  0.48286800  0.03356000  0.82626300  1
  Ni  Ni13  1  0.50000000  0.00000000  0.50000000  1
  Ni  Ni14  1  0.51713200  0.96644000  0.17373700  1
  Ni  Ni15  1  0.89982600  0.07326300  0.41297900  1
  Ni  Ni16  1  0.72371500  0.83352200  0.00941000  1
  Ni  Ni17  1  0.92673700  0.10017400  0.08702100  1
  Ni  Ni18  1  0.68405900  0.82431000  0.66227700  1
  Ni  Ni19  1  0.64618100  0.84003100  0.33326100  1
  Ni  Ni20  1  0.84003100  0.64618100  0.83326100  1
  Ni  Ni21  1  0.42147900  0.57852100  0.25000000  1
  Ni  Ni22  1  0.83352200  0.72371500  0.50941000  1
  Ni  Ni23  1  0.82431000  0.68405900  0.16227700  1
  Cu  Cu24  1  0.61517600  0.44189900  0.41276200  1
  Cu  Cu25  1  0.55810100  0.38482400  0.08723800  1
  Cu  Cu26  1  0.72955500  0.21531000  0.92058000  1
  Cu  Cu27  1  0.78469000  0.27044500  0.57942000  1
  Cu  Cu28  1  0.74428700  0.25571300  0.25000000  1
  Cu  Cu29  1  0.08188400  0.91811600  0.25000000  1
  Cu  Cu30  1  0.91811600  0.08188400  0.75000000  1
  Cu  Cu31  1  0.25571300  0.74428700  0.75000000  1
  Cu  Cu32  1  0.21531000  0.72955500  0.42058000  1
  Cu  Cu33  1  0.27044500  0.78469000  0.07942000  1
  Cu  Cu34  1  0.44189900  0.61517600  0.91276200  1
  Cu  Cu35  1  0.38482400  0.55810100  0.58723800  1
  C  C36  1  0.98878100  0.19801100  0.95600300  1
  C  C37  1  0.04837800  0.22082900  0.63302100  1
  C  C38  1  0.69805300  0.51836400  0.96545500  1
  C  C39  1  0.03034100  0.20175500  0.28418600  1
  C  C40  1  0.67701200  0.53294700  0.61852600  1
  C  C41  1  0.46705300  0.32298800  0.88147400  1
  C  C42  1  0.71971100  0.52735500  0.29223500  1
  C  C43  1  0.48163600  0.30194700  0.53454500  1
  C  C44  1  0.86645500  0.33938000  0.80172900  1
  C  C45  1  0.20175500  0.03034100  0.78418600  1
  C  C46  1  0.47264500  0.28028900  0.20776500  1
  C  C47  1  0.87800400  0.40126400  0.45711600  1
  C  C48  1  0.19801100  0.98878100  0.45600300  1
  C  C49  1  0.83640700  0.37541400  0.12963400  1
  C  C50  1  0.66062000  0.13354500  0.69827100  1
  C  C51  1  0.40126400  0.87800400  0.95711600  1
  C  C52  1  0.22082900  0.04837800  0.13302100  1
  C  C53  1  0.62458600  0.16359300  0.37036600  1
  C  C54  1  0.37541400  0.83640700  0.62963400  1
  C  C55  1  0.77917100  0.95162200  0.86697900  1
  C  C56  1  0.59873600  0.12199600  0.04288400  1
  C  C57  1  0.33938000  0.86645500  0.30172900  1
  C  C58  1  0.16359300  0.62458600  0.87036600  1
  C  C59  1  0.80198900  0.01121900  0.54399700  1
  C  C60  1  0.12199600  0.59873600  0.54288400  1
  C  C61  1  0.52735500  0.71971100  0.79223500  1
  C  C62  1  0.79824500  0.96965900  0.21581400  1
  C  C63  1  0.13354500  0.66062000  0.19827100  1
  C  C64  1  0.51836400  0.69805300  0.46545500  1
  C  C65  1  0.28028900  0.47264500  0.70776500  1
  C  C66  1  0.53294700  0.67701200  0.11852600  1
  C  C67  1  0.32298800  0.46705300  0.38147400  1
  C  C68  1  0.96965900  0.79824500  0.71581400  1
  C  C69  1  0.30194700  0.48163600  0.03454500  1
  C  C70  1  0.95162200  0.77917100  0.36697900  1
  C  C71  1  0.01121900  0.80198900  0.04399700  1
