# generated using pymatgen
data_Cu15Ni3C13
_symmetry_space_group_name_H-M   'P 1'
_cell_length_a   12.01494027
_cell_length_b   12.01494027
_cell_length_c   12.01494027
_cell_angle_alpha   109.47122063
_cell_angle_beta   109.47122063
_cell_angle_gamma   109.47122063
_symmetry_Int_Tables_number   1
_chemical_formula_structural   Cu15Ni3C13
_chemical_formula_sum   'Cu60 Ni12 C52'
_cell_volume   1335.18965197
_cell_formula_units_Z   4
loop_
 _symmetry_equiv_pos_site_id
 _symmetry_equiv_pos_as_xyz
  1  'x, y, z'
loop_
 _atom_site_type_symbol
 _atom_site_label
 _atom_site_symmetry_multiplicity
 _atom_site_fract_x
 _atom_site_fract_y
 _atom_site_fract_z
 _atom_site_occupancy
  C  C0  1  0.00000000  0.50000000  0.00000000  1
  C  C1  1  0.50000000  0.00000000  0.00000000  1
  C  C2  1  0.00000000  0.00000000  0.50000000  1
  C  C3  1  0.50000000  0.50000000  0.50000000  1
  C  C4  1  0.91913400  0.62162500  0.87262800  1
  C  C5  1  0.25100300  0.87837500  0.79750800  1
  C  C6  1  0.24899700  0.04650500  0.62737200  1
  C  C7  1  0.58086600  0.45349500  0.70249200  1
  C  C8  1  0.87262800  0.91913400  0.62162500  1
  C  C9  1  0.79750800  0.25100300  0.87837500  1
  C  C10  1  0.62737200  0.24899700  0.04650500  1
  C  C11  1  0.70249200  0.58086600  0.45349500  1
  C  C12  1  0.62162500  0.87262800  0.91913400  1
  C  C13  1  0.87837500  0.79750800  0.25100300  1
  C  C14  1  0.04650500  0.62737200  0.24899700  1
  C  C15  1  0.45349500  0.70249200  0.58086600  1
  C  C16  1  0.08086600  0.37837500  0.12737200  1
  C  C17  1  0.74899700  0.12162500  0.20249200  1
  C  C18  1  0.75100300  0.95349500  0.37262800  1
  C  C19  1  0.41913400  0.54650500  0.29750800  1
  C  C20  1  0.12737200  0.08086600  0.37837500  1
  C  C21  1  0.20249200  0.74899700  0.12162500  1
  C  C22  1  0.37262800  0.75100300  0.95349500  1
  C  C23  1  0.29750800  0.41913400  0.54650500  1
  C  C24  1  0.37837500  0.12737200  0.08086600  1
  C  C25  1  0.12162500  0.20249200  0.74899700  1
  C  C26  1  0.95349500  0.37262800  0.75100300  1
  C  C27  1  0.54650500  0.29750800  0.41913400  1
  C  C28  1  0.88306500  0.64764100  0.99414500  1
  C  C29  1  0.34650300  0.85235900  0.73542400  1
  C  C30  1  0.15349700  0.88892000  0.50585500  1
  C  C31  1  0.61693500  0.61108000  0.76457600  1
  C  C32  1  0.99414500  0.88306500  0.64764100  1
  C  C33  1  0.73542400  0.34650300  0.85235900  1
  C  C34  1  0.50585500  0.15349700  0.88892000  1
  C  C35  1  0.76457600  0.61693500  0.61108000  1
  C  C36  1  0.64764100  0.99414500  0.88306500  1
  C  C37  1  0.85235900  0.73542400  0.34650300  1
  C  C38  1  0.88892000  0.50585500  0.15349700  1
  C  C39  1  0.61108000  0.76457600  0.61693500  1
  C  C40  1  0.11693500  0.35235900  0.00585500  1
  C  C41  1  0.65349700  0.14764100  0.26457600  1
  C  C42  1  0.84650300  0.11108000  0.49414500  1
  C  C43  1  0.38306500  0.38892000  0.23542400  1
  C  C44  1  0.00585500  0.11693500  0.35235900  1
  C  C45  1  0.26457600  0.65349700  0.14764100  1
  C  C46  1  0.49414500  0.84650300  0.11108000  1
  C  C47  1  0.23542400  0.38306500  0.38892000  1
  C  C48  1  0.35235900  0.00585500  0.11693500  1
  C  C49  1  0.14764100  0.26457600  0.65349700  1
  C  C50  1  0.11108000  0.49414500  0.84650300  1
  C  C51  1  0.38892000  0.23542400  0.38306500  1
  Ni  Ni52  1  0.21533500  0.96533500  0.25000000  1
  Ni  Ni53  1  0.28466500  0.53466500  0.75000000  1
  Ni  Ni54  1  0.25000000  0.21533500  0.96533500  1
  Ni  Ni55  1  0.75000000  0.28466500  0.53466500  1
  Ni  Ni56  1  0.96533500  0.25000000  0.21533500  1
  Ni  Ni57  1  0.53466500  0.75000000  0.28466500  1
  Ni  Ni58  1  0.78466500  0.03466500  0.75000000  1
  Ni  Ni59  1  0.71533500  0.46533500  0.25000000  1
  Ni  Ni60  1  0.75000000  0.78466500  0.03466500  1
  Ni  Ni61  1  0.25000000  0.71533500  0.46533500  1
  Ni  Ni62  1  0.03466500  0.75000000  0.78466500  1
  Ni  Ni63  1  0.46533500  0.25000000  0.71533500  1
  Cu  Cu64  1  0.91935700  0.59838600  0.94463400  1
  Cu  Cu65  1  0.34624900  0.90161400  0.82097100  1
  Cu  Cu66  1  0.15375100  0.97472200  0.55536600  1
  Cu  Cu67  1  0.58064300  0.52527800  0.67902900  1
  Cu  Cu68  1  0.94463400  0.91935700  0.59838600  1
  Cu  Cu69  1  0.82097100  0.34624900  0.90161400  1
  Cu  Cu70  1  0.55536600  0.15375100  0.97472200  1
  Cu  Cu71  1  0.67902900  0.58064300  0.52527800  1
  Cu  Cu72  1  0.59838600  0.94463400  0.91935700  1
  Cu  Cu73  1  0.90161400  0.82097100  0.34624900  1
  Cu  Cu74  1  0.97472200  0.55536600  0.15375100  1
  Cu  Cu75  1  0.52527800  0.67902900  0.58064300  1
  Cu  Cu76  1  0.08064300  0.40161400  0.05536600  1
  Cu  Cu77  1  0.65375100  0.09838600  0.17902900  1
  Cu  Cu78  1  0.84624900  0.02527800  0.44463400  1
  Cu  Cu79  1  0.41935700  0.47472200  0.32097100  1
  Cu  Cu80  1  0.05536600  0.08064300  0.40161400  1
  Cu  Cu81  1  0.17902900  0.65375100  0.09838600  1
  Cu  Cu82  1  0.44463400  0.84624900  0.02527800  1
  Cu  Cu83  1  0.32097100  0.41935700  0.47472200  1
  Cu  Cu84  1  0.40161400  0.05536600  0.08064300  1
  Cu  Cu85  1  0.09838600  0.17902900  0.65375100  1
  Cu  Cu86  1  0.02527800  0.44463400  0.84624900  1
  Cu  Cu87  1  0.47472200  0.32097100  0.41935700  1
  Cu  Cu88  1  0.27977300  0.93321200  0.19022100  1
  Cu  Cu89  1  0.25700900  0.56678800  0.84656000  1
  Cu  Cu90  1  0.24299100  0.08955200  0.30977900  1
  Cu  Cu91  1  0.22022700  0.41044800  0.65344000  1
  Cu  Cu92  1  0.19022100  0.27977300  0.93321200  1
  Cu  Cu93  1  0.84656000  0.25700900  0.56678800  1
  Cu  Cu94  1  0.30977900  0.24299100  0.08955200  1
  Cu  Cu95  1  0.65344000  0.22022700  0.41044800  1
  Cu  Cu96  1  0.93321200  0.19022100  0.27977300  1
  Cu  Cu97  1  0.56678800  0.84656000  0.25700900  1
  Cu  Cu98  1  0.08955200  0.30977900  0.24299100  1
  Cu  Cu99  1  0.41044800  0.65344000  0.22022700  1
  Cu  Cu100  1  0.72022700  0.06678800  0.80977900  1
  Cu  Cu101  1  0.74299100  0.43321200  0.15344000  1
  Cu  Cu102  1  0.75700900  0.91044800  0.69022100  1
  Cu  Cu103  1  0.77977300  0.58955200  0.34656000  1
  Cu  Cu104  1  0.80977900  0.72022700  0.06678800  1
  Cu  Cu105  1  0.15344000  0.74299100  0.43321200  1
  Cu  Cu106  1  0.69022100  0.75700900  0.91044800  1
  Cu  Cu107  1  0.34656000  0.77977300  0.58955200  1
  Cu  Cu108  1  0.06678800  0.80977900  0.72022700  1
  Cu  Cu109  1  0.43321200  0.15344000  0.74299100  1
  Cu  Cu110  1  0.91044800  0.69022100  0.75700900  1
  Cu  Cu111  1  0.58955200  0.34656000  0.77977300  1
  Cu  Cu112  1  0.12598600  0.87598600  0.25000000  1
  Cu  Cu113  1  0.37401400  0.62401400  0.75000000  1
  Cu  Cu114  1  0.25000000  0.12598600  0.87598600  1
  Cu  Cu115  1  0.75000000  0.37401400  0.62401400  1
  Cu  Cu116  1  0.87598600  0.25000000  0.12598600  1
  Cu  Cu117  1  0.62401400  0.75000000  0.37401400  1
  Cu  Cu118  1  0.87401400  0.12401400  0.75000000  1
  Cu  Cu119  1  0.62598600  0.37598600  0.25000000  1
  Cu  Cu120  1  0.75000000  0.87401400  0.12401400  1
  Cu  Cu121  1  0.25000000  0.62598600  0.37598600  1
  Cu  Cu122  1  0.12401400  0.75000000  0.87401400  1
  Cu  Cu123  1  0.37598600  0.25000000  0.62598600  1
