# generated using pymatgen
data_Cu2NiC10
_symmetry_space_group_name_H-M   'P 1'
_cell_length_a   6.09356300
_cell_length_b   8.45080900
_cell_length_c   13.40717500
_cell_angle_alpha   90.00000000
_cell_angle_beta   90.00000000
_cell_angle_gamma   90.00000000
_symmetry_Int_Tables_number   1
_chemical_formula_structural   Cu2NiC10
_chemical_formula_sum   'Cu8 Ni4 C40'
_cell_volume   690.40967685
_cell_formula_units_Z   4
loop_
 _symmetry_equiv_pos_site_id
 _symmetry_equiv_pos_as_xyz
  1  'x, y, z'
loop_
 _atom_site_type_symbol
 _atom_site_label
 _atom_site_symmetry_multiplicity
 _atom_site_fract_x
 _atom_site_fract_y
 _atom_site_fract_z
 _atom_site_occupancy
  C  C0  1  0.75000000  0.12738900  0.24871600  1
  C  C1  1  0.75000000  0.37261100  0.74871600  1
  C  C2  1  0.25000000  0.87261100  0.75128400  1
  C  C3  1  0.25000000  0.62738900  0.25128400  1
  C  C4  1  0.00000000  0.50000000  0.50000000  1
  C  C5  1  0.50000000  0.00000000  0.00000000  1
  C  C6  1  0.50000000  0.50000000  0.50000000  1
  C  C7  1  0.00000000  0.00000000  0.00000000  1
  C  C8  1  0.25000000  0.21297200  0.61311900  1
  C  C9  1  0.25000000  0.28702800  0.11311900  1
  C  C10  1  0.75000000  0.78702800  0.38688100  1
  C  C11  1  0.75000000  0.71297200  0.88688100  1
  Ni  Ni12  1  0.25000000  0.97520200  0.16348100  1
  Ni  Ni13  1  0.25000000  0.52479800  0.66348100  1
  Ni  Ni14  1  0.75000000  0.02479800  0.83651900  1
  Ni  Ni15  1  0.75000000  0.47520200  0.33651900  1
  Cu  Cu16  1  0.25000000  0.22460200  0.82910700  1
  Cu  Cu17  1  0.25000000  0.27539800  0.32910700  1
  Cu  Cu18  1  0.75000000  0.77539800  0.17089300  1
  Cu  Cu19  1  0.75000000  0.72460200  0.67089300  1
  Cu  Cu20  1  0.75000000  0.12059300  0.52503600  1
  Cu  Cu21  1  0.75000000  0.37940700  0.02503600  1
  Cu  Cu22  1  0.25000000  0.87940700  0.47496400  1
  Cu  Cu23  1  0.25000000  0.62059300  0.97496400  1
  C  C24  1  0.75000000  0.54020400  0.60778700  1
  C  C25  1  0.75000000  0.95979600  0.10778700  1
  C  C26  1  0.25000000  0.45979600  0.39221300  1
  C  C27  1  0.25000000  0.04020400  0.89221300  1
  C  C28  1  0.25000000  0.97002500  0.59050400  1
  C  C29  1  0.25000000  0.52997500  0.09050400  1
  C  C30  1  0.75000000  0.02997500  0.40949600  1
  C  C31  1  0.75000000  0.47002500  0.90949600  1
  C  C32  1  0.96041600  0.69581900  0.75586700  1
  C  C33  1  0.53958400  0.80418100  0.25586700  1
  C  C34  1  0.46041600  0.30418100  0.24413300  1
  C  C35  1  0.03958400  0.19581900  0.74413300  1
  C  C36  1  0.03958400  0.30418100  0.24413300  1
  C  C37  1  0.46041600  0.19581900  0.74413300  1
  C  C38  1  0.53958400  0.69581900  0.75586700  1
  C  C39  1  0.96041600  0.80418100  0.25586700  1
  C  C40  1  0.97280200  0.24903900  0.51357900  1
  C  C41  1  0.52719800  0.25096100  0.01357900  1
  C  C42  1  0.47280200  0.75096100  0.48642100  1
  C  C43  1  0.02719800  0.74903900  0.98642100  1
  C  C44  1  0.02719800  0.75096100  0.48642100  1
  C  C45  1  0.47280200  0.74903900  0.98642100  1
  C  C46  1  0.52719800  0.24903900  0.51357900  1
  C  C47  1  0.97280200  0.25096100  0.01357900  1
  C  C48  1  0.25000000  0.04057000  0.10300900  1
  C  C49  1  0.25000000  0.45943000  0.60300900  1
  C  C50  1  0.75000000  0.95943000  0.89699100  1
  C  C51  1  0.75000000  0.54057000  0.39699100  1
