# generated using pymatgen
data_Cu2(Ni2C3)3
_symmetry_space_group_name_H-M   'P 1'
_cell_length_a   6.95888484
_cell_length_b   6.95888484
_cell_length_c   9.12393470
_cell_angle_alpha   74.58561640
_cell_angle_beta   74.58561640
_cell_angle_gamma   105.50469919
_symmetry_Int_Tables_number   1
_chemical_formula_structural   Cu2(Ni2C3)3
_chemical_formula_sum   'Cu4 Ni12 C18'
_cell_volume   382.50703575
_cell_formula_units_Z   2
loop_
 _symmetry_equiv_pos_site_id
 _symmetry_equiv_pos_as_xyz
  1  'x, y, z'
loop_
 _atom_site_type_symbol
 _atom_site_label
 _atom_site_symmetry_multiplicity
 _atom_site_fract_x
 _atom_site_fract_y
 _atom_site_fract_z
 _atom_site_occupancy
  C  C0  1  0.14693500  0.85735800  0.93859400  1
  C  C1  1  0.85735800  0.14693500  0.43859400  1
  Ni  Ni2  1  0.90886000  0.83795700  0.66758500  1
  Ni  Ni3  1  0.83795700  0.90886000  0.16758500  1
  Ni  Ni4  1  0.07153900  0.66134100  0.25867400  1
  Ni  Ni5  1  0.66134100  0.07153900  0.75867400  1
  Ni  Ni6  1  0.60431600  0.52805000  0.79002100  1
  Ni  Ni7  1  0.52805000  0.60431600  0.29002100  1
  Ni  Ni8  1  0.62370100  0.53322800  0.58906400  1
  Ni  Ni9  1  0.53322800  0.62370100  0.08906400  1
  Ni  Ni10  1  0.46903300  0.99830300  0.17616200  1
  Ni  Ni11  1  0.99830300  0.46903300  0.67616200  1
  Ni  Ni12  1  0.23081500  0.90658000  0.35606100  1
  Ni  Ni13  1  0.90658000  0.23081500  0.85606100  1
  Cu  Cu14  1  0.64280200  0.63226300  0.66365000  1
  Cu  Cu15  1  0.63226300  0.64280200  0.16365000  1
  Cu  Cu16  1  0.29359000  0.94221800  0.22408200  1
  Cu  Cu17  1  0.94221800  0.29359000  0.72408200  1
  C  C18  1  0.43403900  0.75631900  0.66979700  1
  C  C19  1  0.75631900  0.43403900  0.16979700  1
  C  C20  1  0.22153300  0.17177300  0.12612600  1
  C  C21  1  0.17177300  0.22153300  0.62612600  1
  C  C22  1  0.43364700  0.83235400  0.81652500  1
  C  C23  1  0.83235400  0.43364700  0.31652500  1
  C  C24  1  0.54972100  0.95190800  0.51013800  1
  C  C25  1  0.95190800  0.54972100  0.01013800  1
  C  C26  1  0.84774100  0.79138400  0.58928300  1
  C  C27  1  0.79138400  0.84774100  0.08928300  1
  C  C28  1  0.24772500  0.15072200  0.95905300  1
  C  C29  1  0.15072200  0.24772500  0.45905300  1
  C  C30  1  0.97700000  0.08523000  0.22685800  1
  C  C31  1  0.08523000  0.97700000  0.72685800  1
  C  C32  1  0.21158600  0.76883000  0.17788500  1
  C  C33  1  0.76883000  0.21158600  0.67788500  1
