# generated using pymatgen
data_CuNiC6
_symmetry_space_group_name_H-M   'P 1'
_cell_length_a   4.96259500
_cell_length_b   9.96591100
_cell_length_c   14.00428000
_cell_angle_alpha   90.00000000
_cell_angle_beta   90.00000000
_cell_angle_gamma   90.00000000
_symmetry_Int_Tables_number   1
_chemical_formula_structural   CuNiC6
_chemical_formula_sum   'Cu8 Ni8 C48'
_cell_volume   692.60659641
_cell_formula_units_Z   8
loop_
 _symmetry_equiv_pos_site_id
 _symmetry_equiv_pos_as_xyz
  1  'x, y, z'
loop_
 _atom_site_type_symbol
 _atom_site_label
 _atom_site_symmetry_multiplicity
 _atom_site_fract_x
 _atom_site_fract_y
 _atom_site_fract_z
 _atom_site_occupancy
  C  C0  1  0.97153700  0.72783500  0.69994900  1
  C  C1  1  0.02846300  0.27216500  0.19994900  1
  C  C2  1  0.02846300  0.22783500  0.69994900  1
  C  C3  1  0.97153700  0.77216500  0.19994900  1
  C  C4  1  0.46836800  0.73251200  0.83106800  1
  C  C5  1  0.53163200  0.26748800  0.33106800  1
  C  C6  1  0.53163200  0.23251200  0.83106800  1
  C  C7  1  0.46836800  0.76748800  0.33106800  1
  C  C8  1  0.47792300  0.99699000  0.95778800  1
  C  C9  1  0.00787700  0.01074900  0.07448800  1
  C  C10  1  0.99212300  0.98925100  0.57448800  1
  C  C11  1  0.99212300  0.51074900  0.07448800  1
  C  C12  1  0.52207700  0.00301000  0.45778800  1
  C  C13  1  0.47792300  0.50301000  0.45778800  1
  C  C14  1  0.52207700  0.49699000  0.95778800  1
  C  C15  1  0.00787700  0.48925100  0.57448800  1
  Ni  Ni16  1  0.99297500  0.76822200  0.44972400  1
  Ni  Ni17  1  0.00702500  0.23177800  0.94972400  1
  Ni  Ni18  1  0.00702500  0.26822200  0.44972400  1
  Ni  Ni19  1  0.99297500  0.73177800  0.94972400  1
  Ni  Ni20  1  0.47357700  0.98629800  0.70544100  1
  Ni  Ni21  1  0.52642300  0.01370200  0.20544100  1
  Ni  Ni22  1  0.52642300  0.48629800  0.70544100  1
  Ni  Ni23  1  0.47357700  0.51370200  0.20544100  1
  Cu  Cu24  1  0.97431700  0.98320900  0.82573000  1
  Cu  Cu25  1  0.49091200  0.76611600  0.08000200  1
  Cu  Cu26  1  0.50908800  0.23388400  0.58000200  1
  Cu  Cu27  1  0.50908800  0.26611600  0.08000200  1
  Cu  Cu28  1  0.49091200  0.73388400  0.58000200  1
  Cu  Cu29  1  0.97431700  0.51679100  0.32573000  1
  Cu  Cu30  1  0.02568300  0.48320900  0.82573000  1
  Cu  Cu31  1  0.02568300  0.01679100  0.32573000  1
  C  C32  1  0.11976300  0.91384400  0.41215400  1
  C  C33  1  0.70341700  0.51112500  0.80410500  1
  C  C34  1  0.29658300  0.48887500  0.30410500  1
  C  C35  1  0.29658300  0.01112500  0.80410500  1
  C  C36  1  0.70341700  0.98887500  0.30410500  1
  C  C37  1  0.20200800  0.51316000  0.72799700  1
  C  C38  1  0.79799200  0.48684000  0.22799700  1
  C  C39  1  0.79799200  0.01316000  0.72799700  1
  C  C40  1  0.20200800  0.98684000  0.22799700  1
  C  C41  1  0.62048300  0.59295000  0.62093000  1
  C  C42  1  0.37951700  0.40705000  0.12093000  1
  C  C43  1  0.37951700  0.09295000  0.62093000  1
  C  C44  1  0.62048300  0.90705000  0.12093000  1
  C  C45  1  0.11976300  0.58615600  0.91215400  1
  C  C46  1  0.88023700  0.41384400  0.41215400  1
  C  C47  1  0.88023700  0.08615600  0.91215400  1
  C  C48  1  0.22686600  0.69267900  0.51462000  1
  C  C49  1  0.77313400  0.30732100  0.01462000  1
  C  C50  1  0.77313400  0.19267900  0.51462000  1
  C  C51  1  0.22686600  0.80732100  0.01462000  1
  C  C52  1  0.72429200  0.69182100  0.01506200  1
  C  C53  1  0.27570800  0.30817900  0.51506200  1
  C  C54  1  0.27570800  0.19182100  0.01506200  1
  C  C55  1  0.72429200  0.80817900  0.51506200  1
  C  C56  1  0.91454200  0.82614500  0.85710100  1
  C  C57  1  0.08545800  0.17385500  0.35710100  1
  C  C58  1  0.08545800  0.32614500  0.85710100  1
  C  C59  1  0.91454200  0.67385500  0.35710100  1
  C  C60  1  0.40275800  0.66913200  0.16984000  1
  C  C61  1  0.59724200  0.16913200  0.16984000  1
  C  C62  1  0.59724200  0.33086800  0.66984000  1
  C  C63  1  0.40275800  0.83086800  0.66984000  1
