# generated using pymatgen
data_Cu2Ni2C9
_symmetry_space_group_name_H-M   'P 1'
_cell_length_a   7.80844700
_cell_length_b   8.15174200
_cell_length_c   8.86151700
_cell_angle_alpha   90.00000000
_cell_angle_beta   90.00000000
_cell_angle_gamma   90.00000000
_symmetry_Int_Tables_number   1
_chemical_formula_structural   Cu2Ni2C9
_chemical_formula_sum   'Cu8 Ni8 C36'
_cell_volume   564.05722669
_cell_formula_units_Z   4
loop_
 _symmetry_equiv_pos_site_id
 _symmetry_equiv_pos_as_xyz
  1  'x, y, z'
loop_
 _atom_site_type_symbol
 _atom_site_label
 _atom_site_symmetry_multiplicity
 _atom_site_fract_x
 _atom_site_fract_y
 _atom_site_fract_z
 _atom_site_occupancy
  C  C0  1  0.25000000  0.11196300  0.57611700  1
  C  C1  1  0.75000000  0.88803700  0.42388300  1
  C  C2  1  0.25000000  0.61196300  0.92388300  1
  C  C3  1  0.75000000  0.38803700  0.07611700  1
  Ni  Ni4  1  0.05520900  0.55476200  0.30798800  1
  Ni  Ni5  1  0.55520900  0.44523800  0.69201200  1
  Ni  Ni6  1  0.44479100  0.05476200  0.19201200  1
  Ni  Ni7  1  0.94479100  0.94523800  0.80798800  1
  Ni  Ni8  1  0.94479100  0.44523800  0.69201200  1
  Ni  Ni9  1  0.44479100  0.55476200  0.30798800  1
  Ni  Ni10  1  0.55520900  0.94523800  0.80798800  1
  Ni  Ni11  1  0.05520900  0.05476200  0.19201200  1
  Cu  Cu12  1  0.57948600  0.26009800  0.41829700  1
  Cu  Cu13  1  0.57948600  0.76009800  0.08170300  1
  Cu  Cu14  1  0.07948600  0.23990200  0.91829700  1
  Cu  Cu15  1  0.92051400  0.26009800  0.41829700  1
  Cu  Cu16  1  0.42051400  0.73990200  0.58170300  1
  Cu  Cu17  1  0.07948600  0.73990200  0.58170300  1
  Cu  Cu18  1  0.92051400  0.76009800  0.08170300  1
  Cu  Cu19  1  0.42051400  0.23990200  0.91829700  1
  C  C20  1  0.25000000  0.31397800  0.92744400  1
  C  C21  1  0.75000000  0.18602200  0.42744400  1
  C  C22  1  0.25000000  0.81397800  0.57255600  1
  C  C23  1  0.75000000  0.68602200  0.07255600  1
  C  C24  1  0.25000000  0.98868800  0.16499300  1
  C  C25  1  0.75000000  0.01131200  0.83500700  1
  C  C26  1  0.25000000  0.48868800  0.33500700  1
  C  C27  1  0.75000000  0.51131200  0.66499300  1
  C  C28  1  0.92218600  0.90024400  0.18684600  1
  C  C29  1  0.42218600  0.09975600  0.81315400  1
  C  C30  1  0.57781400  0.40024400  0.31315400  1
  C  C31  1  0.07781400  0.59975600  0.68684600  1
  C  C32  1  0.00271200  0.19305400  0.06651600  1
  C  C33  1  0.50271200  0.80694600  0.93348400  1
  C  C34  1  0.49728800  0.69305400  0.43348400  1
  C  C35  1  0.99728800  0.30694600  0.56651600  1
  C  C36  1  0.99728800  0.80694600  0.93348400  1
  C  C37  1  0.49728800  0.19305400  0.06651600  1
  C  C38  1  0.50271200  0.30694600  0.56651600  1
  C  C39  1  0.00271200  0.69305400  0.43348400  1
  C  C40  1  0.04116300  0.12803900  0.36432200  1
  C  C41  1  0.54116300  0.87196100  0.63567800  1
  C  C42  1  0.45883700  0.62803900  0.13567800  1
  C  C43  1  0.95883700  0.37196100  0.86432200  1
  C  C44  1  0.95883700  0.87196100  0.63567800  1
  C  C45  1  0.45883700  0.12803900  0.36432200  1
  C  C46  1  0.54116300  0.37196100  0.86432200  1
  C  C47  1  0.04116300  0.62803900  0.13567800  1
  C  C48  1  0.92218600  0.40024400  0.31315400  1
  C  C49  1  0.42218600  0.59975600  0.68684600  1
  C  C50  1  0.57781400  0.90024400  0.18684600  1
  C  C51  1  0.07781400  0.09975600  0.81315400  1
