# generated using pymatgen
data_Cu3Ni8C7
_symmetry_space_group_name_H-M   'P 1'
_cell_length_a   9.16654900
_cell_length_b   9.19762600
_cell_length_c   10.92377900
_cell_angle_alpha   90.00000000
_cell_angle_beta   90.00000000
_cell_angle_gamma   90.00000000
_symmetry_Int_Tables_number   1
_chemical_formula_structural   Cu3Ni8C7
_chemical_formula_sum   'Cu12 Ni32 C28'
_cell_volume   920.98915373
_cell_formula_units_Z   4
loop_
 _symmetry_equiv_pos_site_id
 _symmetry_equiv_pos_as_xyz
  1  'x, y, z'
loop_
 _atom_site_type_symbol
 _atom_site_label
 _atom_site_symmetry_multiplicity
 _atom_site_fract_x
 _atom_site_fract_y
 _atom_site_fract_z
 _atom_site_occupancy
  C  C0  1  0.03006400  0.27758900  0.50000000  1
  C  C1  1  0.04849000  0.80657400  0.00000000  1
  C  C2  1  0.24001300  0.51730300  0.00000000  1
  C  C3  1  0.25998700  0.01730300  0.50000000  1
  C  C4  1  0.45151000  0.30657400  0.50000000  1
  C  C5  1  0.46993600  0.77758900  0.00000000  1
  C  C6  1  0.53006400  0.22241100  0.00000000  1
  C  C7  1  0.54849000  0.69342600  0.50000000  1
  C  C8  1  0.74001300  0.98269700  0.50000000  1
  C  C9  1  0.75998700  0.48269700  0.00000000  1
  C  C10  1  0.95151000  0.19342600  0.00000000  1
  C  C11  1  0.96993600  0.72241100  0.50000000  1
  C  C12  1  0.24879400  0.24502800  0.18530500  1
  C  C13  1  0.24879400  0.24502800  0.81469500  1
  C  C14  1  0.25120600  0.74502800  0.31469500  1
  C  C15  1  0.25120600  0.74502800  0.68530500  1
  C  C16  1  0.74879400  0.25497200  0.31469500  1
  C  C17  1  0.74879400  0.25497200  0.68530500  1
  C  C18  1  0.75120600  0.75497200  0.18530500  1
  C  C19  1  0.75120600  0.75497200  0.81469500  1
  C  C20  1  0.00000000  0.00000000  0.74275500  1
  C  C21  1  0.00000000  0.00000000  0.25724500  1
  C  C22  1  0.50000000  0.50000000  0.75724500  1
  C  C23  1  0.50000000  0.50000000  0.24275500  1
  C  C24  1  0.50000000  0.00000000  0.74810800  1
  C  C25  1  0.50000000  0.00000000  0.25189200  1
  C  C26  1  0.00000000  0.50000000  0.75189200  1
  C  C27  1  0.00000000  0.50000000  0.24810800  1
  Ni  Ni28  1  0.09259300  0.59763000  0.33296900  1
  Ni  Ni29  1  0.09259300  0.59763000  0.66703100  1
  Ni  Ni30  1  0.09172900  0.09662900  0.16964400  1
  Ni  Ni31  1  0.09172900  0.09662900  0.83035600  1
  Ni  Ni32  1  0.09666300  0.40531200  0.16256900  1
  Ni  Ni33  1  0.09689900  0.90554100  0.65841300  1
  Ni  Ni34  1  0.09666300  0.40531200  0.83743100  1
  Ni  Ni35  1  0.09689900  0.90554100  0.34158700  1
  Ni  Ni36  1  0.40333700  0.90531200  0.66256900  1
  Ni  Ni37  1  0.40333700  0.90531200  0.33743100  1
  Ni  Ni38  1  0.40310100  0.40554100  0.15841300  1
  Ni  Ni39  1  0.40310100  0.40554100  0.84158700  1
  Ni  Ni40  1  0.40827100  0.59662900  0.33035600  1
  Ni  Ni41  1  0.40827100  0.59662900  0.66964400  1
  Ni  Ni42  1  0.40740700  0.09763000  0.16703100  1
  Ni  Ni43  1  0.40740700  0.09763000  0.83296900  1
  Ni  Ni44  1  0.59259300  0.90237000  0.16703100  1
  Ni  Ni45  1  0.59259300  0.90237000  0.83296900  1
  Ni  Ni46  1  0.59172900  0.40337100  0.33035600  1
  Ni  Ni47  1  0.59172900  0.40337100  0.66964400  1
  Ni  Ni48  1  0.59689900  0.59445900  0.15841300  1
  Ni  Ni49  1  0.59689900  0.59445900  0.84158700  1
  Ni  Ni50  1  0.59666300  0.09468800  0.66256900  1
  Ni  Ni51  1  0.59666300  0.09468800  0.33743100  1
  Ni  Ni52  1  0.90333700  0.59468800  0.16256900  1
  Ni  Ni53  1  0.90333700  0.59468800  0.83743100  1
  Ni  Ni54  1  0.90310100  0.09445900  0.65841300  1
  Ni  Ni55  1  0.90310100  0.09445900  0.34158700  1
  Ni  Ni56  1  0.90827100  0.90337100  0.16964400  1
  Ni  Ni57  1  0.90827100  0.90337100  0.83035600  1
  Ni  Ni58  1  0.90740700  0.40237000  0.33296900  1
  Ni  Ni59  1  0.90740700  0.40237000  0.66703100  1
  Cu  Cu60  1  0.24908000  0.23869800  0.37041000  1
  Cu  Cu61  1  0.24908000  0.23869800  0.62959000  1
  Cu  Cu62  1  0.24619800  0.24872500  0.00000000  1
  Cu  Cu63  1  0.25380200  0.74872500  0.50000000  1
  Cu  Cu64  1  0.25092000  0.73869800  0.12959000  1
  Cu  Cu65  1  0.25092000  0.73869800  0.87041000  1
  Cu  Cu66  1  0.74908000  0.26130200  0.12959000  1
  Cu  Cu67  1  0.74908000  0.26130200  0.87041000  1
  Cu  Cu68  1  0.74619800  0.25127500  0.50000000  1
  Cu  Cu69  1  0.75380200  0.75127500  0.00000000  1
  Cu  Cu70  1  0.75092000  0.76130200  0.37041000  1
  Cu  Cu71  1  0.75092000  0.76130200  0.62959000  1
