# generated using pymatgen
data_CuNiC2
_symmetry_space_group_name_H-M   'P 1'
_cell_length_a   21.47816215
_cell_length_b   21.47816215
_cell_length_c   21.47816205
_cell_angle_alpha   30.73005636
_cell_angle_beta   30.73005636
_cell_angle_gamma   30.73005476
_symmetry_Int_Tables_number   1
_chemical_formula_structural   CuNiC2
_chemical_formula_sum   'Cu24 Ni24 C48'
_cell_volume   2294.16674238
_cell_formula_units_Z   24
loop_
 _symmetry_equiv_pos_site_id
 _symmetry_equiv_pos_as_xyz
  1  'x, y, z'
loop_
 _atom_site_type_symbol
 _atom_site_label
 _atom_site_symmetry_multiplicity
 _atom_site_fract_x
 _atom_site_fract_y
 _atom_site_fract_z
 _atom_site_occupancy
  C  C0  1  0.22426000  0.22426000  0.22426000  1
  C  C1  1  0.04149500  0.04149500  0.04149500  1
  C  C2  1  0.72426000  0.72426000  0.72426000  1
  C  C3  1  0.54149500  0.54149500  0.54149500  1
  C  C4  1  0.77873900  0.85174200  0.23602800  1
  C  C5  1  0.23602800  0.77873900  0.85174200  1
  C  C6  1  0.38749500  0.04971000  0.50214100  1
  C  C7  1  0.88749500  0.00214100  0.54971000  1
  C  C8  1  0.54971000  0.88749500  0.00214100  1
  C  C9  1  0.85174200  0.23602800  0.77873900  1
  C  C10  1  0.04971000  0.50214100  0.38749500  1
  C  C11  1  0.73602800  0.35174200  0.27873900  1
  C  C12  1  0.35174200  0.27873900  0.73602800  1
  C  C13  1  0.00214100  0.54971000  0.88749500  1
  C  C14  1  0.27873900  0.73602800  0.35174200  1
  C  C15  1  0.50214100  0.38749500  0.04971000  1
  Ni  Ni16  1  0.42364400  0.37364400  0.98498900  1
  Ni  Ni17  1  0.50738600  0.00061000  0.57863000  1
  Ni  Ni18  1  0.79537500  0.38889400  0.33706400  1
  Ni  Ni19  1  0.37364400  0.98498900  0.42364400  1
  Ni  Ni20  1  0.77262500  0.25101900  0.19250400  1
  Ni  Ni21  1  0.27262500  0.69250400  0.75101900  1
  Ni  Ni22  1  0.92364400  0.48498900  0.87364400  1
  Ni  Ni23  1  0.25101900  0.19250400  0.77262500  1
  Ni  Ni24  1  0.33706400  0.79537500  0.38889400  1
  Ni  Ni25  1  0.07863000  0.50061000  0.00738600  1
  Ni  Ni26  1  0.83706400  0.88889400  0.29537500  1
  Ni  Ni27  1  0.88889400  0.29537500  0.83706400  1
  Ni  Ni28  1  0.75101900  0.27262500  0.69250400  1
  Ni  Ni29  1  0.50061000  0.00738600  0.07863000  1
  Ni  Ni30  1  0.38889400  0.33706400  0.79537500  1
  Ni  Ni31  1  0.00738600  0.07863000  0.50061000  1
  Ni  Ni32  1  0.57863000  0.50738600  0.00061000  1
  Ni  Ni33  1  0.00061000  0.57863000  0.50738600  1
  Ni  Ni34  1  0.69250400  0.75101900  0.27262500  1
  Ni  Ni35  1  0.29537500  0.83706400  0.88889400  1
  Ni  Ni36  1  0.48498900  0.87364400  0.92364400  1
  Ni  Ni37  1  0.87364400  0.92364400  0.48498900  1
  Ni  Ni38  1  0.19250400  0.77262500  0.25101900  1
  Ni  Ni39  1  0.98498900  0.42364400  0.37364400  1
  Cu  Cu40  1  0.86085900  0.13317600  0.75526000  1
  Cu  Cu41  1  0.38053400  0.95543600  0.00157500  1
  Cu  Cu42  1  0.25526000  0.63317600  0.36085900  1
  Cu  Cu43  1  0.88053400  0.50157500  0.45543600  1
  Cu  Cu44  1  0.89841500  0.01354400  0.64539300  1
  Cu  Cu45  1  0.45543600  0.88053400  0.50157500  1
  Cu  Cu46  1  0.13317600  0.75526000  0.86085900  1
  Cu  Cu47  1  0.14539300  0.51354400  0.39841500  1
  Cu  Cu48  1  0.90820900  0.31224200  0.24955900  1
  Cu  Cu49  1  0.95543600  0.00157500  0.38053400  1
  Cu  Cu50  1  0.74955900  0.81224200  0.40820900  1
  Cu  Cu51  1  0.51354400  0.39841500  0.14539300  1
  Cu  Cu52  1  0.31224200  0.24955900  0.90820900  1
  Cu  Cu53  1  0.01354400  0.64539300  0.89841500  1
  Cu  Cu54  1  0.63317600  0.36085900  0.25526000  1
  Cu  Cu55  1  0.75526000  0.86085900  0.13317600  1
  Cu  Cu56  1  0.81224200  0.40820900  0.74955900  1
  Cu  Cu57  1  0.40820900  0.74955900  0.81224200  1
  Cu  Cu58  1  0.36085900  0.25526000  0.63317600  1
  Cu  Cu59  1  0.64539300  0.89841500  0.01354400  1
  Cu  Cu60  1  0.00157500  0.38053400  0.95543600  1
  Cu  Cu61  1  0.50157500  0.45543600  0.88053400  1
  Cu  Cu62  1  0.39841500  0.14539300  0.51354400  1
  Cu  Cu63  1  0.24955900  0.90820900  0.31224200  1
  C  C64  1  0.55540400  0.81739300  0.86873500  1
  C  C65  1  0.71774600  0.44099200  0.40005200  1
  C  C66  1  0.08216800  0.12741800  0.39987200  1
  C  C67  1  0.36946300  0.64634800  0.67467500  1
  C  C68  1  0.39987200  0.08216800  0.12741800  1
  C  C69  1  0.17467500  0.14634800  0.86946300  1
  C  C70  1  0.40005200  0.71774600  0.44099200  1
  C  C71  1  0.31739300  0.05540400  0.36873500  1
  C  C72  1  0.05540400  0.36873500  0.31739300  1
  C  C73  1  0.21774600  0.90005200  0.94099200  1
  C  C74  1  0.86946300  0.17467500  0.14634800  1
  C  C75  1  0.90005200  0.94099200  0.21774600  1
  C  C76  1  0.94099200  0.21774600  0.90005200  1
  C  C77  1  0.12741800  0.39987200  0.08216800  1
  C  C78  1  0.81739300  0.86873500  0.55540400  1
  C  C79  1  0.36873500  0.31739300  0.05540400  1
  C  C80  1  0.62741800  0.58216800  0.89987200  1
  C  C81  1  0.64634800  0.67467500  0.36946300  1
  C  C82  1  0.67467500  0.36946300  0.64634800  1
  C  C83  1  0.89987200  0.62741800  0.58216800  1
  C  C84  1  0.44099200  0.40005200  0.71774600  1
  C  C85  1  0.58216800  0.89987200  0.62741800  1
  C  C86  1  0.14634800  0.86946300  0.17467500  1
  C  C87  1  0.86873500  0.55540400  0.81739300  1
  C  C88  1  0.80005800  0.80005800  0.80005800  1
  C  C89  1  0.12071100  0.06784400  0.72108000  1
  C  C90  1  0.22108000  0.56784400  0.62071100  1
  C  C91  1  0.06784400  0.72108000  0.12071100  1
  C  C92  1  0.62071100  0.22108000  0.56784400  1
  C  C93  1  0.30005800  0.30005800  0.30005800  1
  C  C94  1  0.56784400  0.62071100  0.22108000  1
  C  C95  1  0.72108000  0.12071100  0.06784400  1
