# generated using pymatgen
data_Cu5Ni5C2
_symmetry_space_group_name_H-M   'P 1'
_cell_length_a   9.15926700
_cell_length_b   10.05481196
_cell_length_c   10.55866419
_cell_angle_alpha   117.06946396
_cell_angle_beta   92.42683595
_cell_angle_gamma   92.99118858
_symmetry_Int_Tables_number   1
_chemical_formula_structural   Cu5Ni5C2
_chemical_formula_sum   'Cu20 Ni20 C8'
_cell_volume   862.30511031
_cell_formula_units_Z   4
loop_
 _symmetry_equiv_pos_site_id
 _symmetry_equiv_pos_as_xyz
  1  'x, y, z'
loop_
 _atom_site_type_symbol
 _atom_site_label
 _atom_site_symmetry_multiplicity
 _atom_site_fract_x
 _atom_site_fract_y
 _atom_site_fract_z
 _atom_site_occupancy
  C  C0  1  0.24918400  0.71820500  0.07002700  1
  C  C1  1  0.75711000  0.75596000  0.59055900  1
  C  C2  1  0.75081600  0.28179500  0.92997300  1
  C  C3  1  0.24289000  0.24404000  0.40944100  1
  C  C4  1  0.16035300  0.99955400  0.15722600  1
  C  C5  1  0.83964700  0.00044600  0.84277400  1
  Ni  Ni6  1  0.60917400  0.21536600  0.01369700  1
  Ni  Ni7  1  0.30978700  0.40035400  0.57824400  1
  Ni  Ni8  1  0.37552700  0.78690100  0.23366000  1
  Ni  Ni9  1  0.20774800  0.10737800  0.48049800  1
  Ni  Ni10  1  0.43040600  0.18110300  0.36774700  1
  Ni  Ni11  1  0.90289500  0.29698800  0.82532600  1
  Ni  Ni12  1  0.73452200  0.64702600  0.69260300  1
  Ni  Ni13  1  0.04647900  0.28626000  0.43070400  1
  Ni  Ni14  1  0.62447300  0.21309900  0.76634000  1
  Ni  Ni15  1  0.26547800  0.35297400  0.30739700  1
  Ni  Ni16  1  0.11803300  0.67192900  0.91331800  1
  Ni  Ni17  1  0.79225200  0.89262200  0.51950200  1
  Ni  Ni18  1  0.30399800  0.52711400  0.99847900  1
  Ni  Ni19  1  0.69021300  0.59964600  0.42175600  1
  Ni  Ni20  1  0.56959400  0.81889700  0.63225300  1
  Ni  Ni21  1  0.95352100  0.71374000  0.56929600  1
  Ni  Ni22  1  0.09710500  0.70301200  0.17467400  1
  Ni  Ni23  1  0.69600200  0.47288600  0.00152100  1
  Ni  Ni24  1  0.39082600  0.78463400  0.98630300  1
  Ni  Ni25  1  0.88196700  0.32807100  0.08668200  1
  C  C26  1  0.83631000  0.95201300  0.10052300  1
  C  C27  1  0.16369000  0.04798700  0.89947700  1
  Cu  Cu28  1  0.35627500  0.50121300  0.68459200  1
  Cu  Cu29  1  0.47952300  0.82294900  0.93235000  1
  Cu  Cu30  1  0.71703800  0.57369200  0.74972300  1
  Cu  Cu31  1  0.54833600  0.14510500  0.34606800  1
  Cu  Cu32  1  0.07359800  0.68463300  0.54963600  1
  Cu  Cu33  1  0.92640200  0.31536700  0.45036400  1
  Cu  Cu34  1  0.52047700  0.17705100  0.06765000  1
  Cu  Cu35  1  0.45500100  0.82584500  0.33457400  1
  Cu  Cu36  1  0.03914400  0.63798100  0.81292900  1
  Cu  Cu37  1  0.64372500  0.49878700  0.31540800  1
  Cu  Cu38  1  0.99724800  0.30646100  0.75929600  1
  Cu  Cu39  1  0.81414900  0.97720200  0.47495500  1
  Cu  Cu40  1  0.45166400  0.85489500  0.65393200  1
  Cu  Cu41  1  0.34062000  0.40612800  0.94913600  1
  Cu  Cu42  1  0.18585100  0.02279800  0.52504500  1
  Cu  Cu43  1  0.28296200  0.42630800  0.25027700  1
  Cu  Cu44  1  0.00275200  0.69353900  0.24070400  1
  Cu  Cu45  1  0.96085600  0.36201900  0.18707100  1
  Cu  Cu46  1  0.65938000  0.59387200  0.05086400  1
  Cu  Cu47  1  0.54499900  0.17415500  0.66542600  1
