# generated using pymatgen
data_CuNiC7
_symmetry_space_group_name_H-M   'P 1'
_cell_length_a   5.55962656
_cell_length_b   5.55962656
_cell_length_c   12.43273900
_cell_angle_alpha   90.00000000
_cell_angle_beta   90.00000000
_cell_angle_gamma   120.00000668
_symmetry_Int_Tables_number   1
_chemical_formula_structural   CuNiC7
_chemical_formula_sum   'Cu2 Ni2 C14'
_cell_volume   332.80409492
_cell_formula_units_Z   2
loop_
 _symmetry_equiv_pos_site_id
 _symmetry_equiv_pos_as_xyz
  1  'x, y, z'
loop_
 _atom_site_type_symbol
 _atom_site_label
 _atom_site_symmetry_multiplicity
 _atom_site_fract_x
 _atom_site_fract_y
 _atom_site_fract_z
 _atom_site_occupancy
  C  C0  1  0.00000000  0.00000000  0.00000000  1
  C  C1  1  0.00000000  0.00000000  0.50000000  1
  Ni  Ni2  1  0.66666700  0.33333300  0.25000000  1
  Ni  Ni3  1  0.33333300  0.66666700  0.75000000  1
  Cu  Cu4  1  0.33333300  0.66666700  0.25000000  1
  Cu  Cu5  1  0.66666700  0.33333300  0.75000000  1
  C  C6  1  0.63670000  0.59707000  0.65889100  1
  C  C7  1  0.63670000  0.03963000  0.84110900  1
  C  C8  1  0.96037000  0.59707000  0.84110900  1
  C  C9  1  0.40293000  0.36330000  0.84110900  1
  C  C10  1  0.03963000  0.40293000  0.34110900  1
  C  C11  1  0.40293000  0.03963000  0.65889100  1
  C  C12  1  0.36330000  0.96037000  0.34110900  1
  C  C13  1  0.36330000  0.40293000  0.15889100  1
  C  C14  1  0.96037000  0.36330000  0.65889100  1
  C  C15  1  0.59707000  0.96037000  0.15889100  1
  C  C16  1  0.03963000  0.63670000  0.15889100  1
  C  C17  1  0.59707000  0.63670000  0.34110900  1
