# generated using pymatgen
data_Cu4Ni9C
_symmetry_space_group_name_H-M   'P 1'
_cell_length_a   8.04611706
_cell_length_b   8.04611706
_cell_length_c   8.04611706
_cell_angle_alpha   121.11268862
_cell_angle_beta   121.11268862
_cell_angle_gamma   88.08333436
_symmetry_Int_Tables_number   1
_chemical_formula_structural   Cu4Ni9C
_chemical_formula_sum   'Cu8 Ni18 C2'
_cell_volume   361.92125161
_cell_formula_units_Z   2
loop_
 _symmetry_equiv_pos_site_id
 _symmetry_equiv_pos_as_xyz
  1  'x, y, z'
loop_
 _atom_site_type_symbol
 _atom_site_label
 _atom_site_symmetry_multiplicity
 _atom_site_fract_x
 _atom_site_fract_y
 _atom_site_fract_z
 _atom_site_occupancy
  C  C0  1  0.25000000  0.25000000  0.00000000  1
  C  C1  1  0.75000000  0.75000000  0.00000000  1
  Ni  Ni2  1  0.70137300  0.56372500  0.26509800  1
  Ni  Ni3  1  0.43896000  0.93896000  0.73843800  1
  Ni  Ni4  1  0.50000000  0.00000000  0.50000000  1
  Ni  Ni5  1  0.70052200  0.43896000  0.50000000  1
  Ni  Ni6  1  0.06104000  0.79947800  0.50000000  1
  Ni  Ni7  1  0.20137300  0.93627500  0.13764800  1
  Ni  Ni8  1  0.56104000  0.06104000  0.26156200  1
  Ni  Ni9  1  0.29862700  0.43627500  0.73490200  1
  Ni  Ni10  1  0.79947800  0.29947800  0.73843800  1
  Ni  Ni11  1  0.93627500  0.79862700  0.73490200  1
  Ni  Ni12  1  0.93896000  0.20052200  0.50000000  1
  Ni  Ni13  1  0.06372500  0.20137300  0.26509800  1
  Ni  Ni14  1  0.79862700  0.06372500  0.86235200  1
  Ni  Ni15  1  0.56372500  0.29862700  0.86235200  1
  Ni  Ni16  1  0.00000000  0.50000000  0.50000000  1
  Ni  Ni17  1  0.20052200  0.70052200  0.26156200  1
  Ni  Ni18  1  0.29947800  0.56104000  0.50000000  1
  Ni  Ni19  1  0.43627500  0.70137300  0.13764800  1
  Cu  Cu20  1  0.44378500  0.29628900  0.50000000  1
  Cu  Cu21  1  0.20371100  0.05621500  0.50000000  1
  Cu  Cu22  1  0.05621500  0.55621500  0.85250400  1
  Cu  Cu23  1  0.70371100  0.20371100  0.14749600  1
  Cu  Cu24  1  0.79628900  0.94378500  0.50000000  1
  Cu  Cu25  1  0.29628900  0.79628900  0.85250400  1
  Cu  Cu26  1  0.55621500  0.70371100  0.50000000  1
  Cu  Cu27  1  0.94378500  0.44378500  0.14749600  1
