# generated using pymatgen
data_CuNi7C15
_symmetry_space_group_name_H-M   'P 1'
_cell_length_a   6.52594900
_cell_length_b   8.26490800
_cell_length_c   11.04560405
_cell_angle_alpha   61.29235097
_cell_angle_beta   90.00000000
_cell_angle_gamma   90.00000000
_symmetry_Int_Tables_number   1
_chemical_formula_structural   CuNi7C15
_chemical_formula_sum   'Cu2 Ni14 C30'
_cell_volume   522.53019443
_cell_formula_units_Z   2
loop_
 _symmetry_equiv_pos_site_id
 _symmetry_equiv_pos_as_xyz
  1  'x, y, z'
loop_
 _atom_site_type_symbol
 _atom_site_label
 _atom_site_symmetry_multiplicity
 _atom_site_fract_x
 _atom_site_fract_y
 _atom_site_fract_z
 _atom_site_occupancy
  C  C0  1  0.52818100  0.93517100  0.12424600  1
  C  C1  1  0.47181900  0.93517100  0.62424600  1
  C  C2  1  0.00833200  0.97131900  0.58319200  1
  C  C3  1  0.99166800  0.97131900  0.08319200  1
  C  C4  1  0.17807800  0.04658100  0.29928600  1
  C  C5  1  0.82192200  0.04658100  0.79928600  1
  C  C6  1  0.30442200  0.10235300  0.76233600  1
  C  C7  1  0.69557800  0.10235300  0.26233600  1
  Ni  Ni8  1  0.26717900  0.66402500  0.66502700  1
  Ni  Ni9  1  0.73282100  0.66402500  0.16502700  1
  Ni  Ni10  1  0.04271800  0.24564700  0.84926200  1
  Ni  Ni11  1  0.95728200  0.24564700  0.34926200  1
  Ni  Ni12  1  0.01058500  0.63393600  0.83729100  1
  Ni  Ni13  1  0.98941500  0.63393600  0.33729100  1
  Ni  Ni14  1  0.32924100  0.70027700  0.51925800  1
  Ni  Ni15  1  0.67075900  0.70027700  0.01925800  1
  Ni  Ni16  1  0.15157200  0.83212900  0.82507100  1
  Ni  Ni17  1  0.84842800  0.83212900  0.32507100  1
  Ni  Ni18  1  0.43820600  0.45014100  0.53459700  1
  Ni  Ni19  1  0.56179400  0.45014100  0.03459700  1
  Ni  Ni20  1  0.23866100  0.50825200  0.44127900  1
  Ni  Ni21  1  0.76133900  0.50825200  0.94127900  1
  Cu  Cu22  1  0.25653900  0.59619900  0.14644700  1
  Cu  Cu23  1  0.74346100  0.59619900  0.64644700  1
  C  C24  1  0.65095900  0.55457600  0.97814100  1
  C  C25  1  0.34904100  0.55457600  0.47814100  1
  C  C26  1  0.93691100  0.11547300  0.37217400  1
  C  C27  1  0.06308900  0.11547300  0.87217400  1
  C  C28  1  0.01597200  0.82955700  0.78660100  1
  C  C29  1  0.98402800  0.82955700  0.28660100  1
  C  C30  1  0.29933500  0.76965300  0.57491400  1
  C  C31  1  0.70066500  0.76965300  0.07491400  1
  C  C32  1  0.43388600  0.02037400  0.24700200  1
  C  C33  1  0.56611400  0.02037400  0.74700200  1
  C  C34  1  0.01325400  0.49428100  0.36031400  1
  C  C35  1  0.98674600  0.49428100  0.86031400  1
  C  C36  1  0.26066600  0.79543700  0.11900300  1
  C  C37  1  0.73933400  0.79543700  0.61900300  1
  C  C38  1  0.24689900  0.10533100  0.58444200  1
  C  C39  1  0.75310100  0.10533100  0.08444200  1
  C  C40  1  0.77212800  0.58382200  0.52148200  1
  C  C41  1  0.22787200  0.58382200  0.02148200  1
  C  C42  1  0.97191000  0.51796400  0.71977100  1
  C  C43  1  0.02809000  0.51796400  0.21977100  1
  C  C44  1  0.58813800  0.48380300  0.74246400  1
  C  C45  1  0.41186200  0.48380300  0.24246400  1
