# generated using pymatgen
data_CuNi3C5
_symmetry_space_group_name_H-M   'P 1'
_cell_length_a   7.26271300
_cell_length_b   13.56476600
_cell_length_c   19.99274059
_cell_angle_alpha   82.22808102
_cell_angle_beta   90.00000000
_cell_angle_gamma   90.00000000
_symmetry_Int_Tables_number   1
_chemical_formula_structural   CuNi3C5
_chemical_formula_sum   'Cu12 Ni36 C60'
_cell_volume   1951.53236351
_cell_formula_units_Z   12
loop_
 _symmetry_equiv_pos_site_id
 _symmetry_equiv_pos_as_xyz
  1  'x, y, z'
loop_
 _atom_site_type_symbol
 _atom_site_label
 _atom_site_symmetry_multiplicity
 _atom_site_fract_x
 _atom_site_fract_y
 _atom_site_fract_z
 _atom_site_occupancy
  Ni  Ni0  1  0.49001700  0.10199100  0.62879600  1
  Ni  Ni1  1  0.13181300  0.24167700  0.58183900  1
  Ni  Ni2  1  0.33110600  0.34871800  0.85918500  1
  Ni  Ni3  1  0.82822500  0.60649000  0.30080700  1
  Ni  Ni4  1  0.66640700  0.27654900  0.69563800  1
  Ni  Ni5  1  0.52405500  0.88794700  0.99045300  1
  Ni  Ni6  1  0.79822100  0.25754100  0.85711500  1
  Ni  Ni7  1  0.13634900  0.03110800  0.41735200  1
  Ni  Ni8  1  0.99001700  0.39800900  0.37120400  1
  Ni  Ni9  1  0.55462700  0.53777600  0.93496500  1
  Ni  Ni10  1  0.36365100  0.53110800  0.41735200  1
  Ni  Ni11  1  0.86365100  0.96889200  0.58264800  1
  Ni  Ni12  1  0.63634900  0.46889200  0.58264800  1
  Ni  Ni13  1  0.50998300  0.89800900  0.37120400  1
  Ni  Ni14  1  0.83359300  0.77654900  0.69563800  1
  Ni  Ni15  1  0.70177900  0.75754100  0.85711500  1
  Ni  Ni16  1  0.83110600  0.15128200  0.14081500  1
  Ni  Ni17  1  0.86818700  0.75832300  0.41816100  1
  Ni  Ni18  1  0.16640700  0.22345100  0.30436200  1
  Ni  Ni19  1  0.94537300  0.03777600  0.93496500  1
  Ni  Ni20  1  0.16889400  0.84871800  0.85918500  1
  Ni  Ni21  1  0.36818700  0.74167700  0.58183900  1
  Ni  Ni22  1  0.17177500  0.39351000  0.69919300  1
  Ni  Ni23  1  0.00998300  0.60199100  0.62879600  1
  Ni  Ni24  1  0.63181300  0.25832300  0.41816100  1
  Ni  Ni25  1  0.05462700  0.96222400  0.06503500  1
  Ni  Ni26  1  0.44537300  0.46222400  0.06503500  1
  Ni  Ni27  1  0.67177500  0.10649000  0.30080700  1
  Ni  Ni28  1  0.29822100  0.24245900  0.14288500  1
  Ni  Ni29  1  0.33359300  0.72345100  0.30436200  1
  Ni  Ni30  1  0.97594500  0.38794700  0.99045300  1
  Ni  Ni31  1  0.02405500  0.61205300  0.00954700  1
  Ni  Ni32  1  0.66889400  0.65128200  0.14081500  1
  Ni  Ni33  1  0.32822500  0.89351000  0.69919300  1
  Ni  Ni34  1  0.20177900  0.74245900  0.14288500  1
  Ni  Ni35  1  0.47594500  0.11205300  0.00954700  1
  Cu  Cu36  1  0.67305500  0.50048600  0.75386100  1
  Cu  Cu37  1  0.32694500  0.49951400  0.24613900  1
  Cu  Cu38  1  0.51004000  0.94517100  0.15868600  1
  Cu  Cu39  1  0.01004000  0.55482900  0.84131400  1
  Cu  Cu40  1  0.65441200  0.35069000  0.24355200  1
  Cu  Cu41  1  0.17305500  0.99951400  0.24613900  1
  Cu  Cu42  1  0.15441200  0.14931000  0.75644800  1
  Cu  Cu43  1  0.34558800  0.64931000  0.75644800  1
  Cu  Cu44  1  0.98996000  0.44517100  0.15868600  1
  Cu  Cu45  1  0.48996000  0.05482900  0.84131400  1
  Cu  Cu46  1  0.82694500  0.00048600  0.75386100  1
  Cu  Cu47  1  0.84558800  0.85069000  0.24355200  1
  C  C48  1  0.60004500  0.32796400  0.98429200  1
  C  C49  1  0.25376900  0.97354100  0.56112700  1
  C  C50  1  0.10004500  0.17203600  0.01570800  1
  C  C51  1  0.89995500  0.82796400  0.98429200  1
  C  C52  1  0.39995500  0.67203600  0.01570800  1
  C  C53  1  0.74623100  0.02645900  0.43887300  1
  C  C54  1  0.74056100  0.25052300  0.56030000  1
  C  C55  1  0.24056100  0.24947700  0.43970000  1
  C  C56  1  0.75943900  0.75052300  0.56030000  1
  C  C57  1  0.75376900  0.52645900  0.43887300  1
  C  C58  1  0.25943900  0.74947700  0.43970000  1
  C  C59  1  0.24623100  0.47354100  0.56112700  1
  C  C60  1  0.46921500  0.61842700  0.23650400  1
  C  C61  1  0.68615900  0.96885300  0.67864400  1
  C  C62  1  0.01485800  0.26382700  0.76807100  1
  C  C63  1  0.18615900  0.53114700  0.32135600  1
  C  C64  1  0.13603600  0.38890400  0.09366300  1
  C  C65  1  0.65862300  0.11632300  0.76556000  1
  C  C66  1  0.49081400  0.41067800  0.30751000  1
  C  C67  1  0.65377600  0.03075900  0.09537200  1
  C  C68  1  0.34137700  0.88367700  0.23444000  1
  C  C69  1  0.49080100  0.44040000  0.17987600  1
  C  C70  1  0.03078500  0.11842700  0.23650400  1
  C  C71  1  0.48514200  0.76382700  0.76807100  1
  C  C72  1  0.99081400  0.08932200  0.69249000  1
  C  C73  1  0.81384100  0.46885300  0.67864400  1
  C  C74  1  0.15862300  0.38367700  0.23444000  1
  C  C75  1  0.29507500  0.21362200  0.68187900  1
  C  C76  1  0.84060200  0.44124800  0.82837600  1
  C  C77  1  0.50918600  0.58932200  0.69249000  1
  C  C78  1  0.96921500  0.88157300  0.76349600  1
  C  C79  1  0.36396400  0.88890400  0.09366300  1
  C  C80  1  0.53078500  0.38157300  0.76349600  1
  C  C81  1  0.82323200  0.47122100  0.23559700  1
  C  C82  1  0.79507500  0.28637800  0.31812100  1
  C  C83  1  0.67676800  0.97122100  0.23559700  1
  C  C84  1  0.84137700  0.61632300  0.76556000  1
  C  C85  1  0.32434800  0.17502500  0.83166000  1
  C  C86  1  0.15377600  0.46924100  0.90462800  1
  C  C87  1  0.50919900  0.55960000  0.82012400  1
  C  C88  1  0.99080100  0.05960000  0.82012400  1
  C  C89  1  0.63603600  0.11109600  0.90633700  1
  C  C90  1  0.70492500  0.78637800  0.31812100  1
  C  C91  1  0.15939800  0.55875200  0.17162400  1
  C  C92  1  0.51485800  0.23617300  0.23192900  1
  C  C93  1  0.67565200  0.82497500  0.16834000  1
  C  C94  1  0.34622400  0.96924100  0.90462800  1
  C  C95  1  0.86396400  0.61109600  0.90633700  1
  C  C96  1  0.84622400  0.53075900  0.09537200  1
  C  C97  1  0.82434800  0.32497500  0.16834000  1
  C  C98  1  0.17676800  0.52877900  0.76440300  1
  C  C99  1  0.20492500  0.71362200  0.68187900  1
  C  C100  1  0.00919900  0.94040000  0.17987600  1
  C  C101  1  0.32323200  0.02877900  0.76440300  1
  C  C102  1  0.31384100  0.03114700  0.32135600  1
  C  C103  1  0.65939800  0.94124800  0.82837600  1
  C  C104  1  0.17565200  0.67502500  0.83166000  1
  C  C105  1  0.00918600  0.91067800  0.30751000  1
  C  C106  1  0.98514200  0.73617300  0.23192900  1
  C  C107  1  0.34060200  0.05875200  0.17162400  1
