# generated using pymatgen
data_Cu3NiC
_symmetry_space_group_name_H-M   'P 1'
_cell_length_a   4.94286777
_cell_length_b   4.94286777
_cell_length_c   5.62169204
_cell_angle_alpha   72.80355151
_cell_angle_beta   72.80355151
_cell_angle_gamma   60.26117942
_symmetry_Int_Tables_number   1
_chemical_formula_structural   Cu3NiC
_chemical_formula_sum   'Cu6 Ni2 C2'
_cell_volume   112.07515008
_cell_formula_units_Z   2
loop_
 _symmetry_equiv_pos_site_id
 _symmetry_equiv_pos_as_xyz
  1  'x, y, z'
loop_
 _atom_site_type_symbol
 _atom_site_label
 _atom_site_symmetry_multiplicity
 _atom_site_fract_x
 _atom_site_fract_y
 _atom_site_fract_z
 _atom_site_occupancy
  C  C0  1  0.07739100  0.48954700  0.99393600  1
  C  C1  1  0.48954700  0.07739100  0.49393600  1
  Ni  Ni2  1  0.78485800  0.17370700  0.87451100  1
  Ni  Ni3  1  0.17370700  0.78485800  0.37451100  1
  Cu  Cu4  1  0.95714800  0.75473000  0.31126600  1
  Cu  Cu5  1  0.37291800  0.55214400  0.50889600  1
  Cu  Cu6  1  0.18503100  0.05252500  0.30889100  1
  Cu  Cu7  1  0.75473000  0.95714800  0.81126600  1
  Cu  Cu8  1  0.55214400  0.37291800  0.00889600  1
  Cu  Cu9  1  0.05252500  0.18503100  0.80889100  1
