# generated using pymatgen
data_Cu(NiC6)2
_symmetry_space_group_name_H-M   'P 1'
_cell_length_a   13.95458511
_cell_length_b   13.95458511
_cell_length_c   3.94970800
_cell_angle_alpha   90.00000000
_cell_angle_beta   90.00000000
_cell_angle_gamma   163.81379556
_symmetry_Int_Tables_number   1
_chemical_formula_structural   Cu(NiC6)2
_chemical_formula_sum   'Cu1 Ni2 C12'
_cell_volume   214.40214033
_cell_formula_units_Z   1
loop_
 _symmetry_equiv_pos_site_id
 _symmetry_equiv_pos_as_xyz
  1  'x, y, z'
loop_
 _atom_site_type_symbol
 _atom_site_label
 _atom_site_symmetry_multiplicity
 _atom_site_fract_x
 _atom_site_fract_y
 _atom_site_fract_z
 _atom_site_occupancy
  Ni  Ni0  1  0.63701900  0.36298100  0.50000000  1
  Ni  Ni1  1  0.36298100  0.63701900  0.50000000  1
  Cu  Cu2  1  0.50000000  0.50000000  0.50000000  1
  C  C3  1  0.06506100  0.93493900  0.00000000  1
  C  C4  1  0.93493900  0.06506100  0.00000000  1
  C  C5  1  0.21300200  0.78699800  0.00000000  1
  C  C6  1  0.78699800  0.21300200  0.00000000  1
  C  C7  1  0.71857900  0.28142100  0.00000000  1
  C  C8  1  0.28142100  0.71857900  0.00000000  1
  C  C9  1  0.55578600  0.44421400  0.00000000  1
  C  C10  1  0.44421400  0.55578600  0.00000000  1
  C  C11  1  0.05634500  0.94365500  0.50000000  1
  C  C12  1  0.94365500  0.05634500  0.50000000  1
  C  C13  1  0.14629600  0.85370400  0.00000000  1
  C  C14  1  0.85370400  0.14629600  0.00000000  1
