# generated using pymatgen
data_Cu11(NiC2)6
_symmetry_space_group_name_H-M   'P 1'
_cell_length_a   11.44672200
_cell_length_b   6.77606700
_cell_length_c   35.19397392
_cell_angle_alpha   85.97714308
_cell_angle_beta   90.00000000
_cell_angle_gamma   90.00000000
_symmetry_Int_Tables_number   1
_chemical_formula_structural   Cu11(NiC2)6
_chemical_formula_sum   'Cu44 Ni24 C48'
_cell_volume   2723.05099803
_cell_formula_units_Z   4
loop_
 _symmetry_equiv_pos_site_id
 _symmetry_equiv_pos_as_xyz
  1  'x, y, z'
loop_
 _atom_site_type_symbol
 _atom_site_label
 _atom_site_symmetry_multiplicity
 _atom_site_fract_x
 _atom_site_fract_y
 _atom_site_fract_z
 _atom_site_occupancy
  C  C0  1  0.37715300  0.30129200  0.84612400  1
  C  C1  1  0.62851900  0.27610100  0.44562700  1
  C  C2  1  0.12001300  0.26614000  0.44331800  1
  C  C3  1  0.62001300  0.73386000  0.05668200  1
  C  C4  1  0.37207600  0.68291100  0.65273900  1
  C  C5  1  0.37148100  0.72389900  0.55437300  1
  C  C6  1  0.87207600  0.31708900  0.84726100  1
  C  C7  1  0.37998700  0.26614000  0.94331800  1
  C  C8  1  0.87715300  0.69870800  0.65387600  1
  C  C9  1  0.12792400  0.68291100  0.15273900  1
  C  C10  1  0.87148100  0.27610100  0.94562700  1
  C  C11  1  0.12851900  0.72389900  0.05437300  1
  C  C12  1  0.12284700  0.30129200  0.34612400  1
  C  C13  1  0.87998700  0.73386000  0.55668200  1
  C  C14  1  0.62792400  0.31708900  0.34726100  1
  C  C15  1  0.62284700  0.69870800  0.15387600  1
  C  C16  1  0.87043900  0.79839500  0.99171900  1
  C  C17  1  0.62804500  0.19478900  0.01434200  1
  C  C18  1  0.62027200  0.71532100  0.71048400  1
  C  C19  1  0.38200500  0.83870200  0.82055400  1
  C  C20  1  0.63577500  0.98521500  0.91142100  1
  C  C21  1  0.86422500  0.98521500  0.41142100  1
  C  C22  1  0.92095200  0.06270500  0.09580100  1
  C  C23  1  0.12956100  0.20160500  0.00828100  1
  C  C24  1  0.38253600  0.17378400  0.66998700  1
  C  C25  1  0.37195500  0.80521100  0.98565800  1
  C  C26  1  0.87195500  0.19478900  0.51434200  1
  C  C27  1  0.42095200  0.93729500  0.40419900  1
  C  C28  1  0.87107300  0.28408700  0.28770500  1
  C  C29  1  0.61746400  0.82621600  0.33001300  1
  C  C30  1  0.88253600  0.82621600  0.83001300  1
  C  C31  1  0.11746400  0.17378400  0.16998700  1
  C  C32  1  0.11799500  0.83870200  0.32055400  1
  C  C33  1  0.12892700  0.71591300  0.71229500  1
  C  C34  1  0.07904800  0.93729500  0.90419900  1
  C  C35  1  0.36422500  0.01478500  0.08857900  1
  C  C36  1  0.12027200  0.28467900  0.78951600  1
  C  C37  1  0.13577500  0.01478500  0.58857900  1
  C  C38  1  0.37972800  0.28467900  0.28951600  1
  C  C39  1  0.87972800  0.71532100  0.21048400  1
  C  C40  1  0.88200500  0.16129800  0.67944600  1
  C  C41  1  0.61799500  0.16129800  0.17944600  1
  C  C42  1  0.62956100  0.79839500  0.49171900  1
  C  C43  1  0.37043900  0.20160500  0.50828100  1
  C  C44  1  0.62892700  0.28408700  0.78770500  1
  C  C45  1  0.12804500  0.80521100  0.48565800  1
  C  C46  1  0.57904800  0.06270500  0.59580100  1
  C  C47  1  0.37107300  0.71591300  0.21229500  1
  Ni  Ni48  1  0.12633300  0.62540400  0.96407400  1
  Ni  Ni49  1  0.87010300  0.64477900  0.31901100  1
  Ni  Ni50  1  0.13905500  0.35993900  0.54159100  1
  Ni  Ni51  1  0.12989700  0.35522100  0.68098900  1
  Ni  Ni52  1  0.62989700  0.64477900  0.81901100  1
  Ni  Ni53  1  0.11985500  0.52837100  0.24829900  1
  Ni  Ni54  1  0.11441600  0.72650600  0.39359700  1
  Ni  Ni55  1  0.86564000  0.34557300  0.18211400  1
  Ni  Ni56  1  0.36094500  0.35993900  0.04159100  1
  Ni  Ni57  1  0.37010300  0.35522100  0.18098900  1
  Ni  Ni58  1  0.87366700  0.37459600  0.03592600  1
  Ni  Ni59  1  0.88014500  0.47162900  0.75170100  1
  Ni  Ni60  1  0.63905500  0.64006100  0.95840900  1
  Ni  Ni61  1  0.86094500  0.64006100  0.45840900  1
  Ni  Ni62  1  0.38558400  0.72650600  0.89359700  1
  Ni  Ni63  1  0.13436000  0.65442700  0.81788600  1
  Ni  Ni64  1  0.88558400  0.27349400  0.60640300  1
  Ni  Ni65  1  0.38014500  0.52837100  0.74829900  1
  Ni  Ni66  1  0.61441600  0.27349400  0.10640300  1
  Ni  Ni67  1  0.37366700  0.62540400  0.46407400  1
  Ni  Ni68  1  0.62633300  0.37459600  0.53592600  1
  Ni  Ni69  1  0.63436000  0.34557300  0.68211400  1
  Ni  Ni70  1  0.36564000  0.65442700  0.31788600  1
  Ni  Ni71  1  0.61985500  0.47162900  0.25170100  1
  Cu  Cu72  1  0.00187400  0.83391900  0.16283100  1
  Cu  Cu73  1  0.99864900  0.09889200  0.45726100  1
  Cu  Cu74  1  0.86861200  0.81111000  0.60561600  1
  Cu  Cu75  1  0.50292800  0.85364300  0.16851500  1
  Cu  Cu76  1  0.58567700  0.79296500  0.38967900  1
  Cu  Cu77  1  0.73029800  0.90003600  0.03689000  1
  Cu  Cu78  1  0.75640200  0.10422800  0.96191500  1
  Cu  Cu79  1  0.49002300  0.89655900  0.54334400  1
  Cu  Cu80  1  0.91432300  0.79296500  0.88967900  1
  Cu  Cu81  1  0.49812600  0.83391900  0.66283100  1
  Cu  Cu82  1  0.76970200  0.90003600  0.53689000  1
  Cu  Cu83  1  0.84360800  0.21643100  0.89595100  1
  Cu  Cu84  1  0.23348200  0.14389900  0.32674000  1
  Cu  Cu85  1  0.49707200  0.14635700  0.83148500  1
  Cu  Cu86  1  0.73425700  0.15463500  0.32849800  1
  Cu  Cu87  1  0.13138800  0.18889000  0.39438400  1
  Cu  Cu88  1  0.99002300  0.10344100  0.95665600  1
  Cu  Cu89  1  0.00292800  0.14635700  0.33148500  1
  Cu  Cu90  1  0.50997700  0.10344100  0.45665600  1
  Cu  Cu91  1  0.24359800  0.89577200  0.03808500  1
  Cu  Cu92  1  0.99707200  0.85364300  0.66851500  1
  Cu  Cu93  1  0.15639200  0.78356900  0.10404900  1
  Cu  Cu94  1  0.26574300  0.84536500  0.67150200  1
  Cu  Cu95  1  0.76651800  0.85610100  0.67326000  1
  Cu  Cu96  1  0.74359800  0.10422800  0.46191500  1
  Cu  Cu97  1  0.23029800  0.09996400  0.46311000  1
  Cu  Cu98  1  0.99812600  0.16608100  0.83716900  1
  Cu  Cu99  1  0.63138800  0.81111000  0.10561600  1
  Cu  Cu100  1  0.26651800  0.14389900  0.82674000  1
  Cu  Cu101  1  0.00997700  0.89655900  0.04334400  1
  Cu  Cu102  1  0.76574300  0.15463500  0.82849800  1
  Cu  Cu103  1  0.08567700  0.20703500  0.11032100  1
  Cu  Cu104  1  0.25640200  0.89577200  0.53808500  1
  Cu  Cu105  1  0.00135100  0.90110800  0.54273900  1
  Cu  Cu106  1  0.41432300  0.20703500  0.61032100  1
  Cu  Cu107  1  0.65639200  0.21643100  0.39595100  1
  Cu  Cu108  1  0.26970200  0.09996400  0.96311000  1
  Cu  Cu109  1  0.73348200  0.85610100  0.17326000  1
  Cu  Cu110  1  0.50135100  0.09889200  0.95726100  1
  Cu  Cu111  1  0.50187400  0.16608100  0.33716900  1
  Cu  Cu112  1  0.49864900  0.90110800  0.04273900  1
  Cu  Cu113  1  0.23425700  0.84536500  0.17150200  1
  Cu  Cu114  1  0.34360800  0.78356900  0.60404900  1
  Cu  Cu115  1  0.36861200  0.18889000  0.89438400  1
