# generated using pymatgen
data_Cu2Ni3C4
_symmetry_space_group_name_H-M   'P 1'
_cell_length_a   7.23927600
_cell_length_b   10.51602100
_cell_length_c   16.71371400
_cell_angle_alpha   90.00000000
_cell_angle_beta   90.00000000
_cell_angle_gamma   90.00000000
_symmetry_Int_Tables_number   1
_chemical_formula_structural   Cu2Ni3C4
_chemical_formula_sum   'Cu8 Ni12 C16'
_cell_volume   1272.38794454
_cell_formula_units_Z   4
loop_
 _symmetry_equiv_pos_site_id
 _symmetry_equiv_pos_as_xyz
  1  'x, y, z'
loop_
 _atom_site_type_symbol
 _atom_site_label
 _atom_site_symmetry_multiplicity
 _atom_site_fract_x
 _atom_site_fract_y
 _atom_site_fract_z
 _atom_site_occupancy
  C  C0  1  0.94986500  0.02579400  0.64928700  1
  C  C1  1  0.44986500  0.47420600  0.14928700  1
  C  C2  1  0.55013500  0.52579400  0.85071300  1
  C  C3  1  0.18104800  0.86780200  0.25000000  1
  C  C4  1  0.05013500  0.97420600  0.14928700  1
  C  C5  1  0.74644100  0.75537400  0.25000000  1
  C  C6  1  0.25355900  0.24462600  0.75000000  1
  C  C7  1  0.31895200  0.36780200  0.25000000  1
  C  C8  1  0.44986500  0.47420600  0.35071300  1
  C  C9  1  0.75355900  0.25537400  0.25000000  1
  C  C10  1  0.81895200  0.13219800  0.75000000  1
  C  C11  1  0.05013500  0.97420600  0.35071300  1
  C  C12  1  0.55013500  0.52579400  0.64928700  1
  C  C13  1  0.24644100  0.74462600  0.75000000  1
  C  C14  1  0.94986500  0.02579400  0.85071300  1
  C  C15  1  0.68104800  0.63219800  0.75000000  1
  Ni  Ni16  1  0.25668900  0.60946300  0.85746100  1
  Ni  Ni17  1  0.74331100  0.39053700  0.35746100  1
  Ni  Ni18  1  0.53638400  0.82396300  0.75000000  1
  Ni  Ni19  1  0.46361600  0.17603700  0.25000000  1
  Ni  Ni20  1  0.24331100  0.10946300  0.85746100  1
  Ni  Ni21  1  0.96361600  0.32396300  0.75000000  1
  Ni  Ni22  1  0.75668900  0.89053700  0.14253900  1
  Ni  Ni23  1  0.25668900  0.60946300  0.64253900  1
  Ni  Ni24  1  0.24331100  0.10946300  0.64253900  1
  Ni  Ni25  1  0.03638400  0.67603700  0.25000000  1
  Ni  Ni26  1  0.74331100  0.39053700  0.14253900  1
  Ni  Ni27  1  0.75668900  0.89053700  0.35746100  1
  Cu  Cu28  1  0.28167600  0.35582700  0.45795600  1
  Cu  Cu29  1  0.78167600  0.14417300  0.54204400  1
  Cu  Cu30  1  0.71832400  0.64417300  0.95795600  1
  Cu  Cu31  1  0.28167600  0.35582700  0.04204400  1
  Cu  Cu32  1  0.21832400  0.85582700  0.04204400  1
  Cu  Cu33  1  0.78167600  0.14417300  0.95795600  1
  Cu  Cu34  1  0.71832400  0.64417300  0.54204400  1
  Cu  Cu35  1  0.21832400  0.85582700  0.45795600  1
