# generated using pymatgen
data_Cu17Ni17C8
_symmetry_space_group_name_H-M   'P 1'
_cell_length_a   11.45650800
_cell_length_b   15.06718400
_cell_length_c   17.82307400
_cell_angle_alpha   90.00000000
_cell_angle_beta   90.00000000
_cell_angle_gamma   90.00000000
_symmetry_Int_Tables_number   1
_chemical_formula_structural   Cu17Ni17C8
_chemical_formula_sum   'Cu68 Ni68 C32'
_cell_volume   3076.57116170
_cell_formula_units_Z   4
loop_
 _symmetry_equiv_pos_site_id
 _symmetry_equiv_pos_as_xyz
  1  'x, y, z'
loop_
 _atom_site_type_symbol
 _atom_site_label
 _atom_site_symmetry_multiplicity
 _atom_site_fract_x
 _atom_site_fract_y
 _atom_site_fract_z
 _atom_site_occupancy
  C  C0  1  0.95578400  0.06326400  0.18477700  1
  C  C1  1  0.62639000  0.80418700  0.10573600  1
  C  C2  1  0.54421600  0.93673600  0.68477700  1
  C  C3  1  0.37361000  0.30418700  0.39426400  1
  C  C4  1  0.25549200  0.40032900  0.89728900  1
  C  C5  1  0.74450800  0.90032900  0.60271100  1
  C  C6  1  0.95926700  0.00539900  0.57692900  1
  C  C7  1  0.45926700  0.49460100  0.42307100  1
  C  C8  1  0.04073300  0.50539900  0.92307100  1
  C  C9  1  0.72251400  0.07205400  0.69431600  1
  C  C10  1  0.24450800  0.59967100  0.39728900  1
  C  C11  1  0.45578400  0.43673600  0.81522300  1
  C  C12  1  0.75549200  0.09967100  0.10271100  1
  C  C13  1  0.22251400  0.42794600  0.30568400  1
  C  C14  1  0.04421600  0.56326400  0.31522300  1
  C  C15  1  0.02299700  0.59489400  0.77045300  1
  C  C16  1  0.87361000  0.19581300  0.60573600  1
  C  C17  1  0.12639000  0.69581300  0.89426400  1
  C  C18  1  0.54073300  0.99460100  0.07692900  1
  C  C19  1  0.77748600  0.92794600  0.19431600  1
  C  C20  1  0.27748600  0.57205400  0.80568400  1
  C  C21  1  0.52299700  0.90510600  0.22954700  1
  C  C22  1  0.47700300  0.40510600  0.27045300  1
  C  C23  1  0.97700300  0.09489400  0.72954700  1
  Ni  Ni24  1  0.29662700  0.22107800  0.33297800  1
  Ni  Ni25  1  0.93980000  0.89426900  0.52403400  1
  Ni  Ni26  1  0.44748400  0.29988400  0.21527600  1
  Ni  Ni27  1  0.86815200  0.11862000  0.26708600  1
  Ni  Ni28  1  0.34834000  0.37862400  0.98570300  1
  Ni  Ni29  1  0.98842900  0.76514900  0.89078600  1
  Ni  Ni30  1  0.25632500  0.71016700  0.37762100  1
  Ni  Ni31  1  0.32528600  0.24714000  0.48464500  1
  Ni  Ni32  1  0.46433400  0.97016200  0.31369800  1
  Ni  Ni33  1  0.98268200  0.56838400  0.00806500  1
  Ni  Ni34  1  0.79662700  0.27892200  0.66702200  1
  Ni  Ni35  1  0.88481800  0.47265800  0.89702600  1
  Ni  Ni36  1  0.05251600  0.70011600  0.71527600  1
  Ni  Ni37  1  0.01017800  0.99491300  0.09782500  1
  Ni  Ni38  1  0.39903100  0.65445700  0.81244100  1
  Ni  Ni39  1  0.01731800  0.06838400  0.49193500  1
  Ni  Ni40  1  0.74367500  0.21016700  0.12237900  1
  Ni  Ni41  1  0.79301600  0.92840900  0.29975800  1
  Ni  Ni42  1  0.51157100  0.23485100  0.39078600  1
  Ni  Ni43  1  0.56344500  0.49282200  0.74639000  1
  Ni  Ni44  1  0.48268200  0.93161600  0.99193500  1
  Ni  Ni45  1  0.70698400  0.07159100  0.79975800  1
  Ni  Ni46  1  0.56020000  0.10573100  0.02403400  1
  Ni  Ni47  1  0.96433400  0.52983800  0.68630200  1
  Ni  Ni48  1  0.60096900  0.15445700  0.68755900  1
  Ni  Ni49  1  0.45337900  0.83807600  0.66231200  1
  Ni  Ni50  1  0.43980000  0.60573100  0.47596600  1
  Ni  Ni51  1  0.98982200  0.49491300  0.40217500  1
  Ni  Ni52  1  0.53566600  0.47016200  0.18630200  1
  Ni  Ni53  1  0.67471400  0.74714000  0.01535500  1
  Ni  Ni54  1  0.75632500  0.78983300  0.62237900  1
  Ni  Ni55  1  0.38481800  0.02734200  0.10297400  1
  Ni  Ni56  1  0.01157100  0.26514900  0.60921400  1
  Ni  Ni57  1  0.48982200  0.00508700  0.59782500  1
  Ni  Ni58  1  0.03566600  0.02983800  0.81369800  1
  Ni  Ni59  1  0.51017800  0.50508700  0.90217500  1
  Ni  Ni60  1  0.37129900  0.86691800  0.20545400  1
  Ni  Ni61  1  0.43655500  0.99282200  0.75361000  1
  Ni  Ni62  1  0.61518200  0.52734200  0.39702600  1
  Ni  Ni63  1  0.24367500  0.28983300  0.87762100  1
  Ni  Ni64  1  0.48842900  0.73485100  0.10921400  1
  Ni  Ni65  1  0.36815200  0.38138000  0.73291400  1
  Ni  Ni66  1  0.70337300  0.72107800  0.16702200  1
  Ni  Ni67  1  0.04662100  0.16192400  0.16231200  1
  Ni  Ni68  1  0.84834000  0.12137600  0.01429700  1
  Ni  Ni69  1  0.06344500  0.00717800  0.25361000  1
  Ni  Ni70  1  0.63184800  0.88138000  0.76708600  1
  Ni  Ni71  1  0.65166000  0.87862400  0.51429700  1
  Ni  Ni72  1  0.20698400  0.42840900  0.20024200  1
  Ni  Ni73  1  0.82528600  0.25286000  0.51535500  1
  Ni  Ni74  1  0.55251600  0.79988400  0.28472400  1
  Ni  Ni75  1  0.10096900  0.34554300  0.31244100  1
  Ni  Ni76  1  0.11518200  0.97265800  0.60297400  1
  Ni  Ni77  1  0.20337300  0.77892200  0.83297800  1
  Ni  Ni78  1  0.62870100  0.36691800  0.29454600  1
  Ni  Ni79  1  0.06020000  0.39426900  0.97596600  1
  Ni  Ni80  1  0.12870100  0.13308200  0.70545400  1
  Ni  Ni81  1  0.93655500  0.50717800  0.24639000  1
  Ni  Ni82  1  0.13184800  0.61862000  0.23291400  1
  Ni  Ni83  1  0.15166000  0.62137600  0.48570300  1
  Ni  Ni84  1  0.54662100  0.33807600  0.83768800  1
  Ni  Ni85  1  0.89903100  0.84554300  0.18755900  1
  Ni  Ni86  1  0.95337900  0.66192400  0.33768800  1
  Ni  Ni87  1  0.51731800  0.43161600  0.50806500  1
  Ni  Ni88  1  0.87129900  0.63308200  0.79454600  1
  Ni  Ni89  1  0.17471400  0.75286000  0.98464500  1
  Ni  Ni90  1  0.94748400  0.20011600  0.78472400  1
  Ni  Ni91  1  0.29301600  0.57159100  0.70024200  1
  C  C92  1  0.73758100  0.92607500  0.05937800  1
  C  C93  1  0.26241900  0.42607500  0.44062200  1
  C  C94  1  0.87975500  0.95564800  0.70009400  1
  C  C95  1  0.12024500  0.45564800  0.79990600  1
  C  C96  1  0.23758100  0.57392500  0.94062200  1
  C  C97  1  0.37975500  0.54435200  0.29990600  1
  C  C98  1  0.76241900  0.07392500  0.55937800  1
  C  C99  1  0.62024500  0.04435200  0.20009400  1
  Cu  Cu100  1  0.45073400  0.04442600  0.54803800  1
  Cu  Cu101  1  0.17628500  0.65212100  0.18220400  1
  Cu  Cu102  1  0.30587700  0.56666900  0.63560300  1
  Cu  Cu103  1  0.79372600  0.29173900  0.46294900  1
  Cu  Cu104  1  0.62879600  0.52501000  0.70503900  1
  Cu  Cu105  1  0.22441100  0.15359200  0.69278100  1
  Cu  Cu106  1  0.40868600  0.68733300  0.10617800  1
  Cu  Cu107  1  0.21102600  0.95410200  0.61604300  1
  Cu  Cu108  1  0.54926600  0.54442600  0.95196200  1
  Cu  Cu109  1  0.97612700  0.79487400  0.18414300  1
  Cu  Cu110  1  0.90688400  0.13585800  0.96291300  1
  Cu  Cu111  1  0.02387300  0.29487400  0.31585700  1
  Cu  Cu112  1  0.82371500  0.15212100  0.31779600  1
  Cu  Cu113  1  0.42841000  0.00853800  0.36508700  1
  Cu  Cu114  1  0.74803500  0.66376100  0.19993000  1
  Cu  Cu115  1  0.92841000  0.49146200  0.63491300  1
  Cu  Cu116  1  0.29372600  0.20826100  0.53705100  1
  Cu  Cu117  1  0.09311600  0.63585800  0.53708700  1
  Cu  Cu118  1  0.95073400  0.45557400  0.45196200  1
  Cu  Cu119  1  0.25196500  0.16376100  0.30007000  1
  Cu  Cu120  1  0.40688400  0.36414200  0.03708700  1
  Cu  Cu121  1  0.80587700  0.93333100  0.36439700  1
  Cu  Cu122  1  0.43923500  0.23686700  0.17851900  1
  Cu  Cu123  1  0.28897400  0.04589800  0.11604300  1
  Cu  Cu124  1  0.10602300  0.22543400  0.14674000  1
  Cu  Cu125  1  0.52387300  0.20512600  0.68414300  1
  Cu  Cu126  1  0.75196500  0.33623900  0.69993000  1
  Cu  Cu127  1  0.55479500  0.39681600  0.56100500  1
  Cu  Cu128  1  0.05479500  0.10318400  0.43899500  1
  Cu  Cu129  1  0.73323900  0.27711800  0.86080900  1
  Cu  Cu130  1  0.20627400  0.79173900  0.03705100  1
  Cu  Cu131  1  0.72441100  0.34640800  0.30721900  1
  Cu  Cu132  1  0.89397700  0.72543400  0.35326000  1
  Cu  Cu133  1  0.32371500  0.34787900  0.68220400  1
  Cu  Cu134  1  0.45862800  0.66874300  0.51146300  1
  Cu  Cu135  1  0.95862800  0.83125700  0.48853700  1
  Cu  Cu136  1  0.07159000  0.99146200  0.86508700  1
  Cu  Cu137  1  0.09131400  0.31266700  0.60617800  1
  Cu  Cu138  1  0.60602300  0.27456600  0.85326000  1
  Cu  Cu139  1  0.54137200  0.16874300  0.98853700  1
  Cu  Cu140  1  0.59131400  0.18733300  0.39382200  1
  Cu  Cu141  1  0.06076500  0.76313300  0.67851900  1
  Cu  Cu142  1  0.93923500  0.26313300  0.82148100  1
  Cu  Cu143  1  0.12879600  0.97499000  0.29496100  1
  Cu  Cu144  1  0.39397700  0.77456600  0.64674000  1
  Cu  Cu145  1  0.24803500  0.83623900  0.80007000  1
  Cu  Cu146  1  0.69412300  0.06666900  0.86439700  1
  Cu  Cu147  1  0.67628500  0.84787900  0.81779600  1
  Cu  Cu148  1  0.23323900  0.22288200  0.13919100  1
  Cu  Cu149  1  0.87120400  0.47499000  0.20503900  1
  Cu  Cu150  1  0.59311600  0.86414200  0.46291300  1
  Cu  Cu151  1  0.76676100  0.72288200  0.36080900  1
  Cu  Cu152  1  0.77558900  0.65359200  0.80721900  1
  Cu  Cu153  1  0.37120400  0.02501000  0.79496100  1
  Cu  Cu154  1  0.94520500  0.60318400  0.06100500  1
  Cu  Cu155  1  0.04926600  0.95557400  0.04803800  1
  Cu  Cu156  1  0.19412300  0.43333100  0.13560300  1
  Cu  Cu157  1  0.47612700  0.70512600  0.81585700  1
  Cu  Cu158  1  0.71102600  0.54589800  0.38395700  1
  Cu  Cu159  1  0.57159000  0.50853800  0.13491300  1
  Cu  Cu160  1  0.70627400  0.70826100  0.96294900  1
  Cu  Cu161  1  0.56076500  0.73686700  0.32148100  1
  Cu  Cu162  1  0.78897400  0.45410200  0.88395700  1
  Cu  Cu163  1  0.44520500  0.89681600  0.93899500  1
  Cu  Cu164  1  0.26676100  0.77711800  0.63919100  1
  Cu  Cu165  1  0.27558900  0.84640800  0.19278100  1
  Cu  Cu166  1  0.90868600  0.81266700  0.89382200  1
  Cu  Cu167  1  0.04137200  0.33125700  0.01146300  1
