# generated using pymatgen
data_Cu3Ni2C9
_symmetry_space_group_name_H-M   'P 1'
_cell_length_a   4.04387210
_cell_length_b   4.04387210
_cell_length_c   37.25649600
_cell_angle_alpha   90.00000000
_cell_angle_beta   90.00000000
_cell_angle_gamma   120.00000168
_symmetry_Int_Tables_number   1
_chemical_formula_structural   Cu3Ni2C9
_chemical_formula_sum   'Cu6 Ni4 C18'
_cell_volume   527.62753788
_cell_formula_units_Z   2
loop_
 _symmetry_equiv_pos_site_id
 _symmetry_equiv_pos_as_xyz
  1  'x, y, z'
loop_
 _atom_site_type_symbol
 _atom_site_label
 _atom_site_symmetry_multiplicity
 _atom_site_fract_x
 _atom_site_fract_y
 _atom_site_fract_z
 _atom_site_occupancy
  C  C0  1  0.00000000  0.00000000  0.80289900  1
  C  C1  1  0.00000000  0.00000000  0.30289900  1
  C  C2  1  0.00000000  0.00000000  0.90855500  1
  C  C3  1  0.00000000  0.00000000  0.09144500  1
  C  C4  1  0.00000000  0.00000000  0.40855500  1
  C  C5  1  0.00000000  0.00000000  0.59144500  1
  C  C6  1  0.00000000  0.00000000  0.69710100  1
  C  C7  1  0.00000000  0.00000000  0.19710100  1
  Ni  Ni8  1  0.66666700  0.33333300  0.47567400  1
  Ni  Ni9  1  0.33333300  0.66666700  0.97567400  1
  Ni  Ni10  1  0.33333300  0.66666700  0.52432600  1
  Ni  Ni11  1  0.66666700  0.33333300  0.02432600  1
  Cu  Cu12  1  0.33333300  0.66666700  0.75000000  1
  Cu  Cu13  1  0.66666700  0.33333300  0.64385600  1
  Cu  Cu14  1  0.33333300  0.66666700  0.35614400  1
  Cu  Cu15  1  0.66666700  0.33333300  0.25000000  1
  Cu  Cu16  1  0.33333300  0.66666700  0.14385600  1
  Cu  Cu17  1  0.66666700  0.33333300  0.85614400  1
  C  C18  1  0.66666700  0.33333300  0.35559000  1
  C  C19  1  0.66666700  0.33333300  0.54381700  1
  C  C20  1  0.33333300  0.66666700  0.85559000  1
  C  C21  1  0.33333300  0.66666700  0.45618300  1
  C  C22  1  0.66666700  0.33333300  0.95618300  1
  C  C23  1  0.66666700  0.33333300  0.14441000  1
  C  C24  1  0.33333300  0.66666700  0.04381700  1
  C  C25  1  0.66666700  0.33333300  0.75000000  1
  C  C26  1  0.33333300  0.66666700  0.64441000  1
  C  C27  1  0.33333300  0.66666700  0.25000000  1
