# generated using pymatgen
data_CuNiC6
_symmetry_space_group_name_H-M   'P 1'
_cell_length_a   7.51924300
_cell_length_b   10.25924100
_cell_length_c   15.79716200
_cell_angle_alpha   90.00000000
_cell_angle_beta   90.00000000
_cell_angle_gamma   90.00000000
_symmetry_Int_Tables_number   1
_chemical_formula_structural   CuNiC6
_chemical_formula_sum   'Cu8 Ni8 C48'
_cell_volume   1218.62034376
_cell_formula_units_Z   8
loop_
 _symmetry_equiv_pos_site_id
 _symmetry_equiv_pos_as_xyz
  1  'x, y, z'
loop_
 _atom_site_type_symbol
 _atom_site_label
 _atom_site_symmetry_multiplicity
 _atom_site_fract_x
 _atom_site_fract_y
 _atom_site_fract_z
 _atom_site_occupancy
  Ni  Ni0  1  0.84259000  0.49173800  0.61756400  1
  Ni  Ni1  1  0.84259000  0.00826200  0.88243600  1
  Ni  Ni2  1  0.65741000  0.50826200  0.11756400  1
  Ni  Ni3  1  0.34259000  0.49173800  0.88243600  1
  Ni  Ni4  1  0.15741000  0.50826200  0.38243600  1
  Ni  Ni5  1  0.15741000  0.99173800  0.11756400  1
  Ni  Ni6  1  0.34259000  0.00826200  0.61756400  1
  Ni  Ni7  1  0.65741000  0.99173800  0.38243600  1
  Cu  Cu8  1  0.88577700  0.23654000  0.45310200  1
  Cu  Cu9  1  0.88577700  0.26346000  0.04689800  1
  Cu  Cu10  1  0.38577700  0.23654000  0.04689800  1
  Cu  Cu11  1  0.61422300  0.73654000  0.54689800  1
  Cu  Cu12  1  0.11422300  0.73654000  0.95310200  1
  Cu  Cu13  1  0.38577700  0.26346000  0.45310200  1
  Cu  Cu14  1  0.61422300  0.76346000  0.95310200  1
  Cu  Cu15  1  0.11422300  0.76346000  0.54689800  1
  C  C16  1  0.69957600  0.01323500  0.09453400  1
  C  C17  1  0.69957600  0.48676500  0.40546600  1
  C  C18  1  0.80042400  0.98676500  0.59453400  1
  C  C19  1  0.19957600  0.48676500  0.09453400  1
  C  C20  1  0.30042400  0.98676500  0.90546600  1
  C  C21  1  0.80042400  0.51323500  0.90546600  1
  C  C22  1  0.19957600  0.01323500  0.40546600  1
  C  C23  1  0.30042400  0.51323500  0.59453400  1
  C  C24  1  0.54035300  0.70868000  0.12404600  1
  C  C25  1  0.33366700  0.42287200  0.28263700  1
  C  C26  1  0.45964700  0.29132000  0.87595400  1
  C  C27  1  0.16633300  0.57712800  0.78263700  1
  C  C28  1  0.66633300  0.57712800  0.71736300  1
  C  C29  1  0.16633300  0.92287200  0.71736300  1
  C  C30  1  0.54035300  0.79132000  0.37595400  1
  C  C31  1  0.66633300  0.92287200  0.78263700  1
  C  C32  1  0.45964700  0.20868000  0.62404600  1
  C  C33  1  0.95964700  0.29132000  0.62404600  1
  C  C34  1  0.04035300  0.70868000  0.37595400  1
  C  C35  1  0.04035300  0.79132000  0.12404600  1
  C  C36  1  0.33366700  0.07712800  0.21736300  1
  C  C37  1  0.95964700  0.20868000  0.87595400  1
  C  C38  1  0.83366700  0.42287200  0.21736300  1
  C  C39  1  0.83366700  0.07712800  0.28263700  1
  C  C40  1  0.68794600  0.94224000  0.98042100  1
  C  C41  1  0.31205400  0.44224000  0.48042100  1
  C  C42  1  0.18794600  0.94224000  0.51957900  1
  C  C43  1  0.06584500  0.58480400  0.58159400  1
  C  C44  1  0.36279500  0.81091000  0.94034600  1
  C  C45  1  0.13720500  0.31091000  0.05965400  1
  C  C46  1  0.68794600  0.55776000  0.51957900  1
  C  C47  1  0.43415500  0.08480400  0.41840600  1
  C  C48  1  0.63720500  0.18909000  0.05965400  1
  C  C49  1  0.81205400  0.05776000  0.48042100  1
  C  C50  1  0.31205400  0.05776000  0.01957900  1
  C  C51  1  0.56584500  0.58480400  0.91840600  1
  C  C52  1  0.63720500  0.31091000  0.44034600  1
  C  C53  1  0.86279500  0.68909000  0.94034600  1
  C  C54  1  0.18794600  0.55776000  0.98042100  1
  C  C55  1  0.43415500  0.41519600  0.08159400  1
  C  C56  1  0.13720500  0.18909000  0.44034600  1
  C  C57  1  0.36279500  0.68909000  0.55965400  1
  C  C58  1  0.93415500  0.08480400  0.08159400  1
  C  C59  1  0.86279500  0.81091000  0.55965400  1
  C  C60  1  0.56584500  0.91519600  0.58159400  1
  C  C61  1  0.06584500  0.91519600  0.91840600  1
  C  C62  1  0.93415500  0.41519600  0.41840600  1
  C  C63  1  0.81205400  0.44224000  0.01957900  1
