# generated using pymatgen
data_Cu6Ni9C10
_symmetry_space_group_name_H-M   'P 1'
_cell_length_a   14.07020100
_cell_length_b   9.77934700
_cell_length_c   12.75531790
_cell_angle_alpha   59.91663332
_cell_angle_beta   90.00000000
_cell_angle_gamma   90.00000000
_symmetry_Int_Tables_number   1
_chemical_formula_structural   Cu6Ni9C10
_chemical_formula_sum   'Cu24 Ni36 C40'
_cell_volume   1518.68124875
_cell_formula_units_Z   4
loop_
 _symmetry_equiv_pos_site_id
 _symmetry_equiv_pos_as_xyz
  1  'x, y, z'
loop_
 _atom_site_type_symbol
 _atom_site_label
 _atom_site_symmetry_multiplicity
 _atom_site_fract_x
 _atom_site_fract_y
 _atom_site_fract_z
 _atom_site_occupancy
  C  C0  1  0.98434000  0.59078600  0.23164000  1
  C  C1  1  0.51566000  0.59078600  0.73164000  1
  C  C2  1  0.01566000  0.40921400  0.76836000  1
  C  C3  1  0.48434000  0.40921400  0.26836000  1
  Ni  Ni4  1  0.03386800  0.93857500  0.30048900  1
  Ni  Ni5  1  0.46613200  0.93857500  0.80048900  1
  Ni  Ni6  1  0.96613200  0.06142500  0.69951100  1
  Ni  Ni7  1  0.53386800  0.06142500  0.19951100  1
  Ni  Ni8  1  0.02582900  0.12375500  0.16110300  1
  Ni  Ni9  1  0.47417100  0.12375500  0.66110300  1
  Ni  Ni10  1  0.97417100  0.87624500  0.83889700  1
  Ni  Ni11  1  0.52582900  0.87624500  0.33889700  1
  Ni  Ni12  1  0.12163400  0.09062300  0.26430600  1
  Ni  Ni13  1  0.37836600  0.09062300  0.76430600  1
  Ni  Ni14  1  0.87836600  0.90937700  0.73569400  1
  Ni  Ni15  1  0.62163400  0.90937700  0.23569400  1
  Ni  Ni16  1  0.63067600  0.95765800  0.98662200  1
  Ni  Ni17  1  0.86932400  0.95765800  0.48662200  1
  Ni  Ni18  1  0.36932400  0.04234200  0.01337800  1
  Ni  Ni19  1  0.13067600  0.04234200  0.51337800  1
  Ni  Ni20  1  0.73822500  0.92885400  0.92522500  1
  Ni  Ni21  1  0.76177500  0.92885400  0.42522500  1
  Ni  Ni22  1  0.26177500  0.07114600  0.07477500  1
  Ni  Ni23  1  0.23822500  0.07114600  0.57477500  1
  Ni  Ni24  1  0.66427300  0.76155300  0.02083700  1
  Ni  Ni25  1  0.83572700  0.76155300  0.52083700  1
  Ni  Ni26  1  0.33572700  0.23844700  0.97916300  1
  Ni  Ni27  1  0.16427300  0.23844700  0.47916300  1
  Ni  Ni28  1  0.33267400  0.82873700  0.36475500  1
  Ni  Ni29  1  0.16732600  0.82873700  0.86475500  1
  Ni  Ni30  1  0.66732600  0.17126300  0.63524500  1
  Ni  Ni31  1  0.83267400  0.17126300  0.13524500  1
  Ni  Ni32  1  0.30110200  0.62723000  0.41127600  1
  Ni  Ni33  1  0.19889800  0.62723000  0.91127600  1
  Ni  Ni34  1  0.69889800  0.37277000  0.58872400  1
  Ni  Ni35  1  0.80110200  0.37277000  0.08872400  1
  Ni  Ni36  1  0.22469200  0.74592800  0.44700200  1
  Ni  Ni37  1  0.27530800  0.74592800  0.94700200  1
  Ni  Ni38  1  0.77530800  0.25407200  0.55299800  1
  Ni  Ni39  1  0.72469200  0.25407200  0.05299800  1
  Cu  Cu40  1  0.04678700  0.06573100  0.25665000  1
  Cu  Cu41  1  0.45321300  0.06573100  0.75665000  1
  Cu  Cu42  1  0.95321300  0.93426900  0.74335000  1
  Cu  Cu43  1  0.54678700  0.93426900  0.24335000  1
  Cu  Cu44  1  0.68992300  0.87718200  0.00296100  1
  Cu  Cu45  1  0.81007700  0.87718200  0.50296100  1
  Cu  Cu46  1  0.31007700  0.12281800  0.99703900  1
  Cu  Cu47  1  0.18992300  0.12281800  0.49703900  1
  Cu  Cu48  1  0.27431100  0.74685600  0.38041600  1
  Cu  Cu49  1  0.22568900  0.74685600  0.88041600  1
  Cu  Cu50  1  0.72568900  0.25314400  0.61958400  1
  Cu  Cu51  1  0.77431100  0.25314400  0.11958400  1
  Cu  Cu52  1  0.98893100  0.27305200  0.28883100  1
  Cu  Cu53  1  0.51106900  0.27305200  0.78883100  1
  Cu  Cu54  1  0.01106900  0.72694800  0.71116900  1
  Cu  Cu55  1  0.48893100  0.72694800  0.21116900  1
  Cu  Cu56  1  0.81621900  0.76932600  0.14742700  1
  Cu  Cu57  1  0.68378100  0.76932600  0.64742700  1
  Cu  Cu58  1  0.18378100  0.23067400  0.85257300  1
  Cu  Cu59  1  0.31621900  0.23067400  0.35257300  1
  Cu  Cu60  1  0.15079900  0.73253800  0.25676200  1
  Cu  Cu61  1  0.34920100  0.73253800  0.75676200  1
  Cu  Cu62  1  0.84920100  0.26746200  0.74323800  1
  Cu  Cu63  1  0.65079900  0.26746200  0.24323800  1
  C  C64  1  0.05920400  0.40869100  0.17723000  1
  C  C65  1  0.44079600  0.40869100  0.67723000  1
  C  C66  1  0.94079600  0.59130900  0.82277000  1
  C  C67  1  0.55920400  0.59130900  0.32277000  1
  C  C68  1  0.91631000  0.33061200  0.36581000  1
  C  C69  1  0.58369000  0.33061200  0.86581000  1
  C  C70  1  0.08369000  0.66938800  0.63419000  1
  C  C71  1  0.41631000  0.66938800  0.13419000  1
  C  C72  1  0.86401300  0.68250200  0.07314400  1
  C  C73  1  0.63598700  0.68250200  0.57314400  1
  C  C74  1  0.13598700  0.31749800  0.92685600  1
  C  C75  1  0.36401300  0.31749800  0.42685600  1
  C  C76  1  0.86911200  0.74177400  0.27614500  1
  C  C77  1  0.63088800  0.74177400  0.77614500  1
  C  C78  1  0.13088800  0.25822600  0.72385500  1
  C  C79  1  0.36911200  0.25822600  0.22385500  1
  C  C80  1  0.09708400  0.80738200  0.11959100  1
  C  C81  1  0.40291600  0.80738200  0.61959100  1
  C  C82  1  0.90291600  0.19261800  0.88040900  1
  C  C83  1  0.59708400  0.19261800  0.38040900  1
  C  C84  1  0.10352400  0.57102700  0.37767200  1
  C  C85  1  0.39647600  0.57102700  0.87767200  1
  C  C86  1  0.89647600  0.42897300  0.62232800  1
  C  C87  1  0.60352400  0.42897300  0.12232800  1
  C  C88  1  0.98719200  0.12018600  0.32137700  1
  C  C89  1  0.51280800  0.12018600  0.82137700  1
  C  C90  1  0.01280800  0.87981400  0.67862300  1
  C  C91  1  0.48719200  0.87981400  0.17862300  1
  C  C92  1  0.73846300  0.85906600  0.10988100  1
  C  C93  1  0.76153700  0.85906600  0.60988100  1
  C  C94  1  0.26153700  0.14093400  0.89011900  1
  C  C95  1  0.23846300  0.14093400  0.39011900  1
  C  C96  1  0.22748800  0.80774400  0.26383900  1
  C  C97  1  0.27251200  0.80774400  0.76383900  1
  C  C98  1  0.77251200  0.19225600  0.73616100  1
  C  C99  1  0.72748800  0.19225600  0.23616100  1
