# generated using pymatgen
data_CuNiC6
_symmetry_space_group_name_H-M   'P 1'
_cell_length_a   6.69802765
_cell_length_b   6.69802765
_cell_length_c   6.80428000
_cell_angle_alpha   90.00000000
_cell_angle_beta   90.00000000
_cell_angle_gamma   119.99999655
_symmetry_Int_Tables_number   1
_chemical_formula_structural   CuNiC6
_chemical_formula_sum   'Cu3 Ni3 C18'
_cell_volume   264.36666699
_cell_formula_units_Z   3
loop_
 _symmetry_equiv_pos_site_id
 _symmetry_equiv_pos_as_xyz
  1  'x, y, z'
loop_
 _atom_site_type_symbol
 _atom_site_label
 _atom_site_symmetry_multiplicity
 _atom_site_fract_x
 _atom_site_fract_y
 _atom_site_fract_z
 _atom_site_occupancy
  C  C0  1  0.00000000  0.60207300  0.16666700  1
  C  C1  1  0.60207300  0.00000000  0.83333300  1
  C  C2  1  0.39792700  0.39792700  0.50000000  1
  Ni  Ni3  1  0.89823300  0.89823300  0.50000000  1
  Ni  Ni4  1  0.00000000  0.10176700  0.16666700  1
  Ni  Ni5  1  0.10176700  0.00000000  0.83333300  1
  Cu  Cu6  1  0.00000000  0.58243000  0.66666700  1
  Cu  Cu7  1  0.58243000  0.00000000  0.33333300  1
  Cu  Cu8  1  0.41757000  0.41757000  0.00000000  1
  C  C9  1  0.00000000  0.04657400  0.66666700  1
  C  C10  1  0.95342600  0.95342600  0.00000000  1
  C  C11  1  0.04657400  0.00000000  0.33333300  1
  C  C12  1  0.46488600  0.60290800  0.84935700  1
  C  C13  1  0.39709200  0.86197900  0.18269000  1
  C  C14  1  0.13802100  0.53511400  0.51602300  1
  C  C15  1  0.34896200  0.19224600  0.87236400  1
  C  C16  1  0.80775400  0.15671600  0.20569700  1
  C  C17  1  0.84328400  0.65103800  0.53903100  1
  C  C18  1  0.15671600  0.80775400  0.79430300  1
  C  C19  1  0.65103800  0.84328400  0.46096900  1
  C  C20  1  0.19224600  0.34896200  0.12763600  1
  C  C21  1  0.60290800  0.46488600  0.15064300  1
  C  C22  1  0.53511400  0.13802100  0.48397700  1
  C  C23  1  0.86197900  0.39709200  0.81731000  1
