# generated using pymatgen
data_Cu40Ni31C13
_symmetry_space_group_name_H-M   'P 1'
_cell_length_a   20.21344352
_cell_length_b   20.21344324
_cell_length_c   9.39300467
_cell_angle_alpha   90.00000000
_cell_angle_beta   90.00000000
_cell_angle_gamma   120.00000046
_symmetry_Int_Tables_number   1
_chemical_formula_structural   Cu40Ni31C13
_chemical_formula_sum   'Cu80 Ni62 C26'
_cell_volume   3323.65374043
_cell_formula_units_Z   2
loop_
 _symmetry_equiv_pos_site_id
 _symmetry_equiv_pos_as_xyz
  1  'x, y, z'
loop_
 _atom_site_type_symbol
 _atom_site_label
 _atom_site_symmetry_multiplicity
 _atom_site_fract_x
 _atom_site_fract_y
 _atom_site_fract_z
 _atom_site_occupancy
  C  C0  1  0.57680627  0.15361254  0.50000000  1
  C  C1  1  0.42319373  0.57680627  0.50000000  1
  C  C2  1  0.84638746  0.42319373  0.50000000  1
  C  C3  1  0.51381745  0.75690873  0.00000000  1
  C  C4  1  0.72924796  0.00000000  0.71091004  1
  C  C5  1  0.72924796  0.00000000  0.28908996  1
  C  C6  1  0.24309127  0.48618255  0.00000000  1
  C  C7  1  0.00000000  0.00000000  0.20867547  1
  C  C8  1  0.27075204  0.00000000  0.28908996  1
  C  C9  1  0.15361254  0.57680627  0.50000000  1
  C  C10  1  0.24309127  0.75690873  0.00000000  1
  C  C11  1  0.57680627  0.42319373  0.50000000  1
  C  C12  1  0.72924796  0.72924796  0.71091004  1
  C  C13  1  0.27075204  0.27075204  0.28908996  1
  C  C14  1  0.27075204  0.00000000  0.71091004  1
  C  C15  1  0.00000000  0.72924796  0.71091004  1
  C  C16  1  0.00000000  0.72924796  0.28908996  1
  C  C17  1  0.00000000  0.27075204  0.28908996  1
  C  C18  1  0.75690873  0.51381745  0.00000000  1
  C  C19  1  0.27075204  0.27075204  0.71091004  1
  C  C20  1  0.75690873  0.24309127  0.00000000  1
  C  C21  1  0.00000000  0.27075204  0.71091004  1
  C  C22  1  0.72924796  0.72924796  0.28908996  1
  C  C23  1  0.42319373  0.84638746  0.50000000  1
  C  C24  1  0.48618255  0.24309127  0.00000000  1
  C  C25  1  0.00000000  0.00000000  0.79132453  1
  Ni  Ni26  1  0.82268118  0.64536235  0.76830658  1
  Ni  Ni27  1  0.60704741  0.21409481  0.81382899  1
  Ni  Ni28  1  0.60704741  0.21409481  0.18617101  1
  Ni  Ni29  1  0.39295259  0.60704741  0.18617101  1
  Ni  Ni30  1  0.12592406  0.41132023  0.50000000  1
  Ni  Ni31  1  0.00000000  0.50000000  0.73979210  1
  Ni  Ni32  1  0.17731882  0.82268118  0.23169342  1
  Ni  Ni33  1  0.35463765  0.17731882  0.23169342  1
  Ni  Ni34  1  0.50000000  0.00000000  0.26020790  1
  Ni  Ni35  1  0.00000000  0.16198910  0.00000000  1
  Ni  Ni36  1  0.28539617  0.41132023  0.50000000  1
  Ni  Ni37  1  0.82268118  0.64536235  0.23169342  1
  Ni  Ni38  1  0.71460383  0.12592406  0.50000000  1
  Ni  Ni39  1  0.16198910  0.16198910  0.00000000  1
  Ni  Ni40  1  0.58867977  0.71460383  0.50000000  1
  Ni  Ni41  1  0.21409481  0.60704741  0.18617101  1
  Ni  Ni42  1  0.85405678  0.00000000  0.50000000  1
  Ni  Ni43  1  0.00000000  0.50000000  0.26020790  1
  Ni  Ni44  1  0.33333300  0.66666700  0.50000000  1
  Ni  Ni45  1  0.60704741  0.39295259  0.18617101  1
  Ni  Ni46  1  0.83801090  0.00000000  0.00000000  1
  Ni  Ni47  1  0.85405678  0.85405678  0.50000000  1
  Ni  Ni48  1  0.82268118  0.17731882  0.23169342  1
  Ni  Ni49  1  0.64536235  0.82268118  0.76830658  1
  Ni  Ni50  1  0.60704741  0.39295259  0.81382899  1
  Ni  Ni51  1  0.14594322  0.00000000  0.50000000  1
  Ni  Ni52  1  0.66666700  0.33333300  0.50000000  1
  Ni  Ni53  1  0.41132023  0.28539617  0.50000000  1
  Ni  Ni54  1  0.50000000  0.00000000  0.73979210  1
  Ni  Ni55  1  0.35463765  0.17731882  0.76830658  1
  Ni  Ni56  1  0.78590519  0.39295259  0.18617101  1
  Ni  Ni57  1  1.00000000  0.85405678  0.50000000  1
  Ni  Ni58  1  1.00000000  0.83801090  0.00000000  1
  Ni  Ni59  1  0.14594322  0.14594322  0.50000000  1
  Ni  Ni60  1  0.39295259  0.60704741  0.81382899  1
  Ni  Ni61  1  0.50000000  0.50000000  0.73979210  1
  Ni  Ni62  1  0.82268118  0.17731882  0.76830658  1
  Ni  Ni63  1  0.12592406  0.71460383  0.50000000  1
  Ni  Ni64  1  0.83801090  0.83801090  0.00000000  1
  Ni  Ni65  1  0.87407594  0.28539617  0.50000000  1
  Ni  Ni66  1  0.39295259  0.78590519  0.18617101  1
  Ni  Ni67  1  0.00000000  0.61275258  0.00000000  1
  Ni  Ni68  1  0.17731882  0.35463765  0.23169342  1
  Ni  Ni69  1  0.00000000  0.14594322  0.50000000  1
  Ni  Ni70  1  0.50000000  0.50000000  0.26020790  1
  Ni  Ni71  1  0.38724742  0.00000000  0.00000000  1
  Ni  Ni72  1  0.64536235  0.82268118  0.23169342  1
  Ni  Ni73  1  0.17731882  0.35463765  0.76830658  1
  Ni  Ni74  1  0.39295259  0.78590519  0.81382899  1
  Ni  Ni75  1  0.21409481  0.60704741  0.81382899  1
  Ni  Ni76  1  0.78590519  0.39295259  0.81382899  1
  Ni  Ni77  1  0.58867977  0.87407594  0.50000000  1
  Ni  Ni78  1  0.71460383  0.58867977  0.50000000  1
  Ni  Ni79  1  0.41132023  0.12592406  0.50000000  1
  Ni  Ni80  1  0.17731882  0.82268118  0.76830658  1
  Ni  Ni81  1  0.38724742  0.38724742  0.00000000  1
  Ni  Ni82  1  0.87407594  0.58867977  0.50000000  1
  Ni  Ni83  1  0.16198910  0.00000000  0.00000000  1
  Ni  Ni84  1  0.28539617  0.87407594  0.50000000  1
  Ni  Ni85  1  0.61275258  0.61275258  0.00000000  1
  Ni  Ni86  1  0.61275258  0.00000000  0.00000000  1
  Ni  Ni87  1  1.00000000  0.38724742  0.00000000  1
  Cu  Cu88  1  0.10576703  0.65841698  0.77889359  1
  Cu  Cu89  1  0.26045193  0.73954807  0.65281949  1
  Cu  Cu90  1  0.73954807  0.26045193  0.34718051  1
  Cu  Cu91  1  0.32071493  0.23572018  0.00000000  1
  Cu  Cu92  1  0.57706026  0.00000000  0.50000000  1
  Cu  Cu93  1  0.44735005  0.34158302  0.22110641  1
  Cu  Cu94  1  0.47909614  0.73954807  0.65281949  1
  Cu  Cu95  1  0.08911028  0.54455514  0.00000000  1
  Cu  Cu96  1  0.54455514  0.45544486  0.00000000  1
  Cu  Cu97  1  0.26045193  0.73954807  0.34718051  1
  Cu  Cu98  1  0.91500525  0.67928507  0.00000000  1
  Cu  Cu99  1  0.82489564  0.91244782  0.24329765  1
  Cu  Cu100  1  0.65841698  0.55264995  0.22110641  1
  Cu  Cu101  1  0.91244782  0.08755218  0.75670235  1
  Cu  Cu102  1  0.89423297  0.34158302  0.77889359  1
  Cu  Cu103  1  0.73954807  0.47909614  0.34718051  1
  Cu  Cu104  1  0.55264995  0.65841698  0.22110641  1
  Cu  Cu105  1  0.08499475  0.76427982  0.00000000  1
  Cu  Cu106  1  0.65841698  0.10576703  0.22110641  1
  Cu  Cu107  1  0.73954807  0.47909614  0.65281949  1
  Cu  Cu108  1  0.67928507  0.76427982  0.00000000  1
  Cu  Cu109  1  0.14211402  0.85788598  0.50000000  1
  Cu  Cu110  1  0.91244782  0.82489564  0.24329765  1
  Cu  Cu111  1  0.26045193  0.52090386  0.65281949  1
  Cu  Cu112  1  0.55264995  0.65841698  0.77889359  1
  Cu  Cu113  1  0.76427982  0.67928507  0.00000000  1
  Cu  Cu114  1  0.89423297  0.34158302  0.22110641  1
  Cu  Cu115  1  0.65841698  0.55264995  0.77889359  1
  Cu  Cu116  1  0.52090386  0.26045193  0.34718051  1
  Cu  Cu117  1  0.08755218  0.17510436  0.75670235  1
  Cu  Cu118  1  0.08755218  0.17510436  0.24329765  1
  Cu  Cu119  1  0.85788598  0.71577196  0.50000000  1
  Cu  Cu120  1  0.33333300  0.66666700  0.00000000  1
  Cu  Cu121  1  0.14211402  0.28422804  0.50000000  1
  Cu  Cu122  1  0.45544486  0.91088972  0.00000000  1
  Cu  Cu123  1  0.82489564  0.91244782  0.75670235  1
  Cu  Cu124  1  0.91244782  0.08755218  0.24329765  1
  Cu  Cu125  1  0.45544486  0.54455514  0.00000000  1
  Cu  Cu126  1  0.26045193  0.52090386  0.34718051  1
  Cu  Cu127  1  0.65841698  0.10576703  0.77889359  1
  Cu  Cu128  1  0.91244782  0.82489564  0.75670235  1
  Cu  Cu129  1  0.17510436  0.08755218  0.75670235  1
  Cu  Cu130  1  0.52090386  0.26045193  0.65281949  1
  Cu  Cu131  1  0.34158302  0.89423297  0.22110641  1
  Cu  Cu132  1  0.57706026  0.57706026  0.50000000  1
  Cu  Cu133  1  0.23572018  0.91500525  0.00000000  1
  Cu  Cu134  1  0.32071493  0.08499475  0.00000000  1
  Cu  Cu135  1  0.00000000  0.42293974  0.50000000  1
  Cu  Cu136  1  0.85788598  0.14211402  0.50000000  1
  Cu  Cu137  1  0.42293974  0.42293974  0.50000000  1
  Cu  Cu138  1  0.66666700  0.33333300  0.00000000  1
  Cu  Cu139  1  0.17510436  0.08755218  0.24329765  1
  Cu  Cu140  1  0.42293974  0.00000000  0.50000000  1
  Cu  Cu141  1  0.71577196  0.85788598  0.50000000  1
  Cu  Cu142  1  0.08755218  0.91244782  0.24329765  1
  Cu  Cu143  1  0.54455514  0.08911028  0.00000000  1
  Cu  Cu144  1  0.34158302  0.44735005  0.22110641  1
  Cu  Cu145  1  0.08499475  0.32071493  0.00000000  1
  Cu  Cu146  1  0.34158302  0.89423297  0.77889359  1
  Cu  Cu147  1  0.76427982  0.08499475  0.00000000  1
  Cu  Cu148  1  0.44735005  0.10576703  0.22110641  1
  Cu  Cu149  1  0.44735005  0.34158302  0.77889359  1
  Cu  Cu150  1  0.28422804  0.14211402  0.50000000  1
  Cu  Cu151  1  0.34158302  0.44735005  0.77889359  1
  Cu  Cu152  1  0.67928507  0.91500525  0.00000000  1
  Cu  Cu153  1  0.44735005  0.10576703  0.77889359  1
  Cu  Cu154  1  0.89423297  0.55264995  0.77889359  1
  Cu  Cu155  1  0.73954807  0.26045193  0.65281949  1
  Cu  Cu156  1  0.10576703  0.65841698  0.22110641  1
  Cu  Cu157  1  0.23572018  0.32071493  0.00000000  1
  Cu  Cu158  1  0.55264995  0.89423297  0.22110641  1
  Cu  Cu159  1  0.08755218  0.91244782  0.75670235  1
  Cu  Cu160  1  0.10576703  0.44735005  0.22110641  1
  Cu  Cu161  1  0.10576703  0.44735005  0.77889359  1
  Cu  Cu162  1  0.91500525  0.23572018  0.00000000  1
  Cu  Cu163  1  0.55264995  0.89423297  0.77889359  1
  Cu  Cu164  1  0.89423297  0.55264995  0.22110641  1
  Cu  Cu165  1  0.00000000  0.57706026  0.50000000  1
  Cu  Cu166  1  0.47909614  0.73954807  0.34718051  1
  Cu  Cu167  1  0.91088972  0.45544486  0.00000000  1
