# generated using pymatgen
data_Cu12Ni4C9
_symmetry_space_group_name_H-M   'P 1'
_cell_length_a   8.62193718
_cell_length_b   8.62193718
_cell_length_c   8.62193770
_cell_angle_alpha   107.51095338
_cell_angle_beta   107.51095338
_cell_angle_gamma   107.51095329
_symmetry_Int_Tables_number   1
_chemical_formula_structural   Cu12Ni4C9
_chemical_formula_sum   'Cu12 Ni4 C9'
_cell_volume   526.16035513
_cell_formula_units_Z   1
loop_
 _symmetry_equiv_pos_site_id
 _symmetry_equiv_pos_as_xyz
  1  'x, y, z'
loop_
 _atom_site_type_symbol
 _atom_site_label
 _atom_site_symmetry_multiplicity
 _atom_site_fract_x
 _atom_site_fract_y
 _atom_site_fract_z
 _atom_site_occupancy
  C  C0  1  0.90073400  0.74389100  0.26954600  1
  C  C1  1  0.26954600  0.90073400  0.74389100  1
  C  C2  1  0.58049400  0.78674400  0.52812800  1
  C  C3  1  0.78674400  0.52812800  0.58049400  1
  C  C4  1  0.74389100  0.26954600  0.90073400  1
  C  C5  1  0.52812800  0.58049400  0.78674400  1
  C  C6  1  0.67159200  0.05560400  0.19958300  1
  C  C7  1  0.05560400  0.19958300  0.67159200  1
  C  C8  1  0.19958300  0.67159200  0.05560400  1
  Ni  Ni9  1  0.43149900  0.36699300  0.14501100  1
  Ni  Ni10  1  0.14501100  0.43149900  0.36699300  1
  Ni  Ni11  1  0.36699300  0.14501100  0.43149900  1
  Ni  Ni12  1  0.99486100  0.99486100  0.99486100  1
  Cu  Cu13  1  0.68664700  0.62052300  0.36399300  1
  Cu  Cu14  1  0.62052300  0.36399300  0.68664700  1
  Cu  Cu15  1  0.36399300  0.68664700  0.62052300  1
  Cu  Cu16  1  0.04476900  0.76949600  0.81937800  1
  Cu  Cu17  1  0.47547300  0.93112000  0.35109200  1
  Cu  Cu18  1  0.93112000  0.35109200  0.47547300  1
  Cu  Cu19  1  0.35109200  0.47547300  0.93112000  1
  Cu  Cu20  1  0.51235100  0.16044900  0.97752900  1
  Cu  Cu21  1  0.81937800  0.04476900  0.76949600  1
  Cu  Cu22  1  0.97752900  0.51235100  0.16044900  1
  Cu  Cu23  1  0.76949600  0.81937800  0.04476900  1
  Cu  Cu24  1  0.16044900  0.97752900  0.51235100  1
