# generated using pymatgen
data_Cu4NiC2
_symmetry_space_group_name_H-M   'P 1'
_cell_length_a   9.12856412
_cell_length_b   9.12856412
_cell_length_c   21.07829700
_cell_angle_alpha   90.00000000
_cell_angle_beta   90.00000000
_cell_angle_gamma   105.71340822
_symmetry_Int_Tables_number   1
_chemical_formula_structural   Cu4NiC2
_chemical_formula_sum   'Cu48 Ni12 C24'
_cell_volume   1690.82682326
_cell_formula_units_Z   12
loop_
 _symmetry_equiv_pos_site_id
 _symmetry_equiv_pos_as_xyz
  1  'x, y, z'
loop_
 _atom_site_type_symbol
 _atom_site_label
 _atom_site_symmetry_multiplicity
 _atom_site_fract_x
 _atom_site_fract_y
 _atom_site_fract_z
 _atom_site_occupancy
  C  C0  1  0.66932000  0.66932000  0.39173900  1
  C  C1  1  0.80692400  0.30692400  0.25000000  1
  C  C2  1  0.69711500  0.30288500  0.00000000  1
  C  C3  1  0.69307600  0.19307600  0.75000000  1
  C  C4  1  0.30692400  0.80692400  0.25000000  1
  C  C5  1  0.80288500  0.19711500  0.50000000  1
  C  C6  1  0.83068000  0.83068000  0.89173900  1
  C  C7  1  0.33068000  0.33068000  0.60826100  1
  C  C8  1  0.30288500  0.69711500  0.00000000  1
  C  C9  1  0.19307600  0.69307600  0.75000000  1
  C  C10  1  0.16932000  0.16932000  0.10826100  1
  C  C11  1  0.19711500  0.80288500  0.50000000  1
  C  C12  1  0.81635200  0.56959900  0.61602500  1
  C  C13  1  0.46899200  0.46899200  0.85174500  1
  C  C14  1  0.18364800  0.43040100  0.38397500  1
  C  C15  1  0.06959900  0.31635200  0.88397500  1
  C  C16  1  0.53100800  0.53100800  0.14825500  1
  C  C17  1  0.43040100  0.18364800  0.38397500  1
  C  C18  1  0.56959900  0.81635200  0.61602500  1
  C  C19  1  0.68364800  0.93040100  0.11602500  1
  C  C20  1  0.93040100  0.68364800  0.11602500  1
  C  C21  1  0.96899200  0.96899200  0.64825500  1
  C  C22  1  0.03100800  0.03100800  0.35174500  1
  C  C23  1  0.31635200  0.06959900  0.88397500  1
  Ni  Ni24  1  0.76606800  0.96967400  0.61855800  1
  Ni  Ni25  1  0.63064300  0.63064300  0.63456200  1
  Ni  Ni26  1  0.26606800  0.46967400  0.88144200  1
  Ni  Ni27  1  0.36935700  0.36935700  0.36543800  1
  Ni  Ni28  1  0.86935700  0.86935700  0.13456200  1
  Ni  Ni29  1  0.96967400  0.76606800  0.61855800  1
  Ni  Ni30  1  0.03032600  0.23393200  0.38144200  1
  Ni  Ni31  1  0.46967400  0.26606800  0.88144200  1
  Ni  Ni32  1  0.73393200  0.53032600  0.11855800  1
  Ni  Ni33  1  0.13064300  0.13064300  0.86543800  1
  Ni  Ni34  1  0.53032600  0.73393200  0.11855800  1
  Ni  Ni35  1  0.23393200  0.03032600  0.38144200  1
  Cu  Cu36  1  0.82238300  0.00516900  0.32538600  1
  Cu  Cu37  1  0.91877200  0.70965500  0.02444600  1
  Cu  Cu38  1  0.09887600  0.09887600  0.26647700  1
  Cu  Cu39  1  0.51605200  0.01601500  0.09507800  1
  Cu  Cu40  1  0.31332800  0.64043000  0.38668000  1
  Cu  Cu41  1  0.01605200  0.51601500  0.40492200  1
  Cu  Cu42  1  0.51601500  0.01605200  0.40492200  1
  Cu  Cu43  1  0.85004500  0.53150800  0.70454400  1
  Cu  Cu44  1  0.94580400  0.94580400  0.43318600  1
  Cu  Cu45  1  0.01601500  0.51605200  0.09507800  1
  Cu  Cu46  1  0.58122800  0.79034500  0.52444600  1
  Cu  Cu47  1  0.98398500  0.48394800  0.90492200  1
  Cu  Cu48  1  0.50516900  0.32238300  0.17461400  1
  Cu  Cu49  1  0.59887600  0.59887600  0.23352300  1
  Cu  Cu50  1  0.55419600  0.55419600  0.93318600  1
  Cu  Cu51  1  0.53150800  0.85004500  0.70454400  1
  Cu  Cu52  1  0.35004500  0.03150800  0.79545600  1
  Cu  Cu53  1  0.44580400  0.44580400  0.06681400  1
  Cu  Cu54  1  0.96849200  0.64995500  0.20454400  1
  Cu  Cu55  1  0.17761700  0.99483100  0.67461400  1
  Cu  Cu56  1  0.70965500  0.91877200  0.02444600  1
  Cu  Cu57  1  0.18667200  0.85957000  0.88668000  1
  Cu  Cu58  1  0.14043000  0.81332800  0.11332000  1
  Cu  Cu59  1  0.79034500  0.58122800  0.52444600  1
  Cu  Cu60  1  0.98394800  0.48398500  0.59507800  1
  Cu  Cu61  1  0.99483100  0.17761700  0.67461400  1
  Cu  Cu62  1  0.64043000  0.31332800  0.38668000  1
  Cu  Cu63  1  0.49483100  0.67761700  0.82538600  1
  Cu  Cu64  1  0.40112400  0.40112400  0.76647700  1
  Cu  Cu65  1  0.08122800  0.29034500  0.97555400  1
  Cu  Cu66  1  0.64995500  0.96849200  0.20454400  1
  Cu  Cu67  1  0.46849200  0.14995500  0.29545600  1
  Cu  Cu68  1  0.35957000  0.68667200  0.61332000  1
  Cu  Cu69  1  0.14995500  0.46849200  0.29545600  1
  Cu  Cu70  1  0.81332800  0.14043000  0.11332000  1
  Cu  Cu71  1  0.29034500  0.08122800  0.97555400  1
  Cu  Cu72  1  0.20965500  0.41877200  0.47555400  1
  Cu  Cu73  1  0.00516900  0.82238300  0.32538600  1
  Cu  Cu74  1  0.85957000  0.18667200  0.88668000  1
  Cu  Cu75  1  0.48394800  0.98398500  0.90492200  1
  Cu  Cu76  1  0.48398500  0.98394800  0.59507800  1
  Cu  Cu77  1  0.41877200  0.20965500  0.47555400  1
  Cu  Cu78  1  0.90112400  0.90112400  0.73352300  1
  Cu  Cu79  1  0.32238300  0.50516900  0.17461400  1
  Cu  Cu80  1  0.03150800  0.35004500  0.79545600  1
  Cu  Cu81  1  0.67761700  0.49483100  0.82538600  1
  Cu  Cu82  1  0.05419600  0.05419600  0.56681400  1
  Cu  Cu83  1  0.68667200  0.35957000  0.61332000  1
