# generated using pymatgen
data_CuNi9C4
_symmetry_space_group_name_H-M   'P 1'
_cell_length_a   7.17138000
_cell_length_b   7.53598781
_cell_length_c   11.56621489
_cell_angle_alpha   91.58039391
_cell_angle_beta   93.37949406
_cell_angle_gamma   110.20015376
_symmetry_Int_Tables_number   1
_chemical_formula_structural   CuNi9C4
_chemical_formula_sum   'Cu4 Ni36 C16'
_cell_volume   584.84352512
_cell_formula_units_Z   4
loop_
 _symmetry_equiv_pos_site_id
 _symmetry_equiv_pos_as_xyz
  1  'x, y, z'
loop_
 _atom_site_type_symbol
 _atom_site_label
 _atom_site_symmetry_multiplicity
 _atom_site_fract_x
 _atom_site_fract_y
 _atom_site_fract_z
 _atom_site_occupancy
  Ni  Ni0  1  0.33376300  0.95828200  0.82784400  1
  Ni  Ni1  1  0.35450400  0.99255800  0.69198600  1
  Ni  Ni2  1  0.66830300  0.02355000  0.14576800  1
  Ni  Ni3  1  0.83665300  0.01226900  0.23459000  1
  Ni  Ni4  1  0.97328600  0.14464800  0.82082500  1
  Ni  Ni5  1  0.79639700  0.93312300  0.74933300  1
  Ni  Ni6  1  0.06400400  0.02193000  0.74407500  1
  Ni  Ni7  1  0.99731400  0.84527500  0.31231000  1
  Ni  Ni8  1  0.13485900  0.00122000  0.23708000  1
  Ni  Ni9  1  0.59691600  0.81337500  0.83568600  1
  Ni  Ni10  1  0.65950700  0.67921600  0.74703400  1
  Ni  Ni11  1  0.46542900  0.17738400  0.20771600  1
  Ni  Ni12  1  0.43362500  0.18447800  0.34036400  1
  Ni  Ni13  1  0.63072700  0.37288800  0.67726300  1
  Ni  Ni14  1  0.82859900  0.48963400  0.75448300  1
  Ni  Ni15  1  0.14534300  0.48537100  0.25669700  1
  Ni  Ni16  1  0.33471900  0.39630400  0.25811900  1
  Ni  Ni17  1  0.36616100  0.59240200  0.33904300  1
  Ni  Ni18  1  0.12399700  0.54088400  0.83979800  1
  Ni  Ni19  1  0.13515900  0.70775000  0.75557100  1
  Ni  Ni20  1  0.85351100  0.29199100  0.24497400  1
  Ni  Ni21  1  0.90261100  0.48043900  0.33449400  1
  Ni  Ni22  1  0.33365300  0.54145200  0.55582200  1
  Ni  Ni23  1  0.18457400  0.49340000  0.66859000  1
  Ni  Ni24  1  0.65807700  0.64378700  0.10612900  1
  Ni  Ni25  1  0.79900900  0.52483000  0.15811900  1
  Ni  Ni26  1  0.61094500  0.69259100  0.46876600  1
  Ni  Ni27  1  0.47596800  0.82066000  0.47500400  1
  Ni  Ni28  1  0.57133100  0.36723000  0.86018700  1
  Ni  Ni29  1  0.60291800  0.41009100  0.00681900  1
  Ni  Ni30  1  0.37025700  0.31033100  0.94253000  1
  Ni  Ni31  1  0.86905500  0.16971700  0.49194500  1
  Ni  Ni32  1  0.01224300  0.05195000  0.48843800  1
  Ni  Ni33  1  0.14575000  0.32473700  0.55392100  1
  Ni  Ni34  1  0.00154500  0.93604400  0.97287800  1
  Ni  Ni35  1  0.92086100  0.72473300  0.99998900  1
  Cu  Cu36  1  0.92473500  0.71015800  0.48654400  1
  Cu  Cu37  1  0.08604600  0.29461000  0.98193000  1
  Cu  Cu38  1  0.53627000  0.13355100  0.52298700  1
  Cu  Cu39  1  0.47380700  0.83778200  0.99508600  1
  C  C40  1  0.25850800  0.95091400  0.75200300  1
  C  C41  1  0.73530300  0.07697100  0.22316000  1
  C  C42  1  0.94782600  0.06844600  0.74439900  1
  C  C43  1  0.00149600  0.90257800  0.23626300  1
  C  C44  1  0.63786200  0.80342100  0.75368300  1
  C  C45  1  0.37911400  0.20521800  0.26260500  1
  C  C46  1  0.68012000  0.45558600  0.74890800  1
  C  C47  1  0.30248200  0.51871800  0.26217500  1
  C  C48  1  0.08607400  0.56638300  0.76006200  1
  C  C49  1  0.92812700  0.43678000  0.25729200  1
  C  C50  1  0.25331300  0.43921400  0.60635300  1
  C  C51  1  0.71414300  0.54453400  0.09114300  1
  C  C52  1  0.46816000  0.68674600  0.46120400  1
  C  C53  1  0.51437200  0.31600200  0.93677900  1
  C  C54  1  0.00853200  0.18114100  0.47988600  1
  C  C55  1  0.96905600  0.80880700  0.93700800  1
