# generated using pymatgen
data_Cu3(NiC2)2
_symmetry_space_group_name_H-M   'P 1'
_cell_length_a   6.46005800
_cell_length_b   6.69280300
_cell_length_c   7.42330300
_cell_angle_alpha   90.00000000
_cell_angle_beta   90.00000000
_cell_angle_gamma   90.00000000
_symmetry_Int_Tables_number   1
_chemical_formula_structural   Cu3(NiC2)2
_chemical_formula_sum   'Cu12 Ni8 C16'
_cell_volume   320.95315324
_cell_formula_units_Z   4
loop_
 _symmetry_equiv_pos_site_id
 _symmetry_equiv_pos_as_xyz
  1  'x, y, z'
loop_
 _atom_site_type_symbol
 _atom_site_label
 _atom_site_symmetry_multiplicity
 _atom_site_fract_x
 _atom_site_fract_y
 _atom_site_fract_z
 _atom_site_occupancy
  C  C0  1  0.91943800  0.66430100  0.49557400  1
  C  C1  1  0.91943800  0.83569900  0.99557400  1
  C  C2  1  0.41943800  0.33569900  0.50442600  1
  C  C3  1  0.41943800  0.16430100  0.00442600  1
  C  C4  1  0.01303400  0.61177700  0.79397200  1
  C  C5  1  0.43127400  0.86280900  0.34902600  1
  C  C6  1  0.66495000  0.81625000  0.01675700  1
  C  C7  1  0.51303400  0.38822300  0.20602800  1
  C  C8  1  0.93127400  0.13719100  0.65097400  1
  C  C9  1  0.16495000  0.18375000  0.98324300  1
  C  C10  1  0.93127400  0.36280900  0.15097400  1
  C  C11  1  0.16495000  0.31625000  0.48324300  1
  C  C12  1  0.51303400  0.11177700  0.70602800  1
  C  C13  1  0.66495000  0.68375000  0.51675700  1
  C  C14  1  0.43127400  0.63719100  0.84902600  1
  C  C15  1  0.01303400  0.88822300  0.29397200  1
  Ni  Ni16  1  0.28381100  0.18097900  0.07573900  1
  Ni  Ni17  1  0.28381100  0.31902100  0.57573900  1
  Ni  Ni18  1  0.78381100  0.81902100  0.92426100  1
  Ni  Ni19  1  0.78381100  0.68097900  0.42426100  1
  Ni  Ni20  1  0.25845700  0.51223400  0.66564500  1
  Ni  Ni21  1  0.25845700  0.98776600  0.16564500  1
  Ni  Ni22  1  0.75845700  0.48776600  0.33435500  1
  Ni  Ni23  1  0.75845700  0.01223400  0.83435500  1
  Cu  Cu24  1  0.24819300  0.66988200  0.57346300  1
  Cu  Cu25  1  0.24819300  0.83011800  0.07346300  1
  Cu  Cu26  1  0.74819300  0.33011800  0.42653700  1
  Cu  Cu27  1  0.74819300  0.16988200  0.92653700  1
  Cu  Cu28  1  0.06923800  0.47544800  0.77560300  1
  Cu  Cu29  1  0.43618500  0.99616200  0.29215200  1
  Cu  Cu30  1  0.56923800  0.52455200  0.22439700  1
  Cu  Cu31  1  0.93618500  0.00383800  0.70784800  1
  Cu  Cu32  1  0.93618500  0.49616200  0.20784800  1
  Cu  Cu33  1  0.56923800  0.97544800  0.72439700  1
  Cu  Cu34  1  0.43618500  0.50383800  0.79215200  1
  Cu  Cu35  1  0.06923800  0.02455200  0.27560300  1
