# generated using pymatgen
data_Cu2NiC5
_symmetry_space_group_name_H-M   'P 1'
_cell_length_a   7.32833400
_cell_length_b   7.69678600
_cell_length_c   7.74001300
_cell_angle_alpha   90.00000000
_cell_angle_beta   90.00000000
_cell_angle_gamma   90.00000000
_symmetry_Int_Tables_number   1
_chemical_formula_structural   Cu2NiC5
_chemical_formula_sum   'Cu8 Ni4 C20'
_cell_volume   436.57248072
_cell_formula_units_Z   4
loop_
 _symmetry_equiv_pos_site_id
 _symmetry_equiv_pos_as_xyz
  1  'x, y, z'
loop_
 _atom_site_type_symbol
 _atom_site_label
 _atom_site_symmetry_multiplicity
 _atom_site_fract_x
 _atom_site_fract_y
 _atom_site_fract_z
 _atom_site_occupancy
  C  C0  1  0.16965500  0.25256400  0.31275000  1
  C  C1  1  0.33034500  0.74743600  0.81275000  1
  C  C2  1  0.83034500  0.75256400  0.18725000  1
  C  C3  1  0.66965500  0.24743600  0.68725000  1
  Ni  Ni4  1  0.32349500  0.73222900  0.26549700  1
  Ni  Ni5  1  0.17650500  0.26777100  0.76549700  1
  Ni  Ni6  1  0.82349500  0.76777100  0.73450300  1
  Ni  Ni7  1  0.67650500  0.23222900  0.23450300  1
  Cu  Cu8  1  0.61496700  0.64614000  0.56955700  1
  Cu  Cu9  1  0.38503300  0.14614000  0.93044300  1
  Cu  Cu10  1  0.43273400  0.52293800  0.42782500  1
  Cu  Cu11  1  0.93273400  0.97706200  0.57217500  1
  Cu  Cu12  1  0.11496700  0.85386000  0.43044300  1
  Cu  Cu13  1  0.88503300  0.35386000  0.06955700  1
  Cu  Cu14  1  0.06726600  0.47706200  0.92782500  1
  Cu  Cu15  1  0.56726600  0.02293800  0.07217500  1
  C  C16  1  0.78707000  0.39333500  0.14987400  1
  C  C17  1  0.92546800  0.84816800  0.56281100  1
  C  C18  1  0.69251800  0.90264300  0.80146200  1
  C  C19  1  0.71293000  0.60666500  0.64987400  1
  C  C20  1  0.57453200  0.15183200  0.06281100  1
  C  C21  1  0.30748200  0.40264300  0.69853800  1
  C  C22  1  0.19251800  0.59735700  0.19853800  1
  C  C23  1  0.03732000  0.18930200  0.64483900  1
  C  C24  1  0.07453200  0.34816800  0.93718900  1
  C  C25  1  0.42546800  0.65183200  0.43718900  1
  C  C26  1  0.21293000  0.89333500  0.35012600  1
  C  C27  1  0.53732000  0.31069800  0.35516100  1
  C  C28  1  0.28707000  0.10666500  0.85012600  1
  C  C29  1  0.96268000  0.68930200  0.85516100  1
  C  C30  1  0.46268000  0.81069800  0.14483900  1
  C  C31  1  0.80748200  0.09735700  0.30146200  1
