# generated using pymatgen
data_Cu2Ni
_symmetry_space_group_name_H-M   'P 1'
_cell_length_a   4.65040040
_cell_length_b   4.65040040
_cell_length_c   110.03646500
_cell_angle_alpha   90.00000000
_cell_angle_beta   90.00000000
_cell_angle_gamma   120.00000570
_symmetry_Int_Tables_number   1
_chemical_formula_structural   Cu2Ni
_chemical_formula_sum   'Cu30 Ni15'
_cell_volume   2060.85734937
_cell_formula_units_Z   15
loop_
 _symmetry_equiv_pos_site_id
 _symmetry_equiv_pos_as_xyz
  1  'x, y, z'
loop_
 _atom_site_type_symbol
 _atom_site_label
 _atom_site_symmetry_multiplicity
 _atom_site_fract_x
 _atom_site_fract_y
 _atom_site_fract_z
 _atom_site_occupancy
  Ni  Ni0  1  0.00000000  0.00000000  0.01664600  1
  Ni  Ni1  1  0.33333300  0.66666700  0.94998900  1
  Ni  Ni2  1  0.33333300  0.66666700  0.61668100  1
  Ni  Ni3  1  0.33333300  0.66666700  0.41664300  1
  Ni  Ni4  1  0.33333300  0.66666700  0.48330900  1
  Ni  Ni5  1  0.33333300  0.66666700  0.81668800  1
  Ni  Ni6  1  0.00000000  0.00000000  0.35004800  1
  Ni  Ni7  1  0.33333300  0.66666700  0.68334000  1
  Ni  Ni8  1  0.33333300  0.66666700  0.21663200  1
  Ni  Ni9  1  0.00000000  0.00000000  0.55001700  1
  Ni  Ni10  1  0.33333300  0.66666700  0.08335300  1
  Ni  Ni11  1  0.33333300  0.66666700  0.28329600  1
  Ni  Ni12  1  0.00000000  0.00000000  0.15001200  1
  Ni  Ni13  1  0.33333300  0.66666700  0.88333800  1
  Ni  Ni14  1  0.00000000  0.00000000  0.75000300  1
  Cu  Cu15  1  0.33333300  0.66666700  0.73294200  1
  Cu  Cu16  1  0.66666700  0.33333300  0.56709900  1
  Cu  Cu17  1  0.66666700  0.33333300  0.16706900  1
  Cu  Cu18  1  0.66666700  0.33333300  0.36708800  1
  Cu  Cu19  1  0.66666700  0.33333300  0.90042100  1
  Cu  Cu20  1  0.66666700  0.33333300  0.96707900  1
  Cu  Cu21  1  0.66666700  0.33333300  0.63377400  1
  Cu  Cu22  1  0.00000000  0.00000000  0.26624400  1
  Cu  Cu23  1  0.66666700  0.33333300  0.23372100  1
  Cu  Cu24  1  0.33333300  0.66666700  0.53292200  1
  Cu  Cu25  1  0.00000000  0.00000000  0.39959000  1
  Cu  Cu26  1  0.66666700  0.33333300  0.70038700  1
  Cu  Cu27  1  0.00000000  0.00000000  0.86624500  1
  Cu  Cu28  1  0.66666700  0.33333300  0.76710000  1
  Cu  Cu29  1  0.00000000  0.00000000  0.46626000  1
  Cu  Cu30  1  0.66666700  0.33333300  0.43373700  1
  Cu  Cu31  1  0.00000000  0.00000000  0.19957100  1
  Cu  Cu32  1  0.66666700  0.33333300  0.10045300  1
  Cu  Cu33  1  0.00000000  0.00000000  0.59958700  1
  Cu  Cu34  1  0.33333300  0.66666700  0.99956900  1
  Cu  Cu35  1  0.33333300  0.66666700  0.13290500  1
  Cu  Cu36  1  0.00000000  0.00000000  0.06624500  1
  Cu  Cu37  1  0.66666700  0.33333300  0.03371800  1
  Cu  Cu38  1  0.66666700  0.33333300  0.30040300  1
  Cu  Cu39  1  0.33333300  0.66666700  0.33293300  1
  Cu  Cu40  1  0.00000000  0.00000000  0.93291200  1
  Cu  Cu41  1  0.66666700  0.33333300  0.83378000  1
  Cu  Cu42  1  0.00000000  0.00000000  0.66625200  1
  Cu  Cu43  1  0.00000000  0.00000000  0.79961000  1
  Cu  Cu44  1  0.66666700  0.33333300  0.50039000  1
