# generated using pymatgen
data_Cu2NiC6
_symmetry_space_group_name_H-M   'P 1'
_cell_length_a   5.77159900
_cell_length_b   7.17136200
_cell_length_c   12.46346400
_cell_angle_alpha   90.00000000
_cell_angle_beta   90.00000000
_cell_angle_gamma   90.00000000
_symmetry_Int_Tables_number   1
_chemical_formula_structural   Cu2NiC6
_chemical_formula_sum   'Cu8 Ni4 C24'
_cell_volume   515.86558856
_cell_formula_units_Z   4
loop_
 _symmetry_equiv_pos_site_id
 _symmetry_equiv_pos_as_xyz
  1  'x, y, z'
loop_
 _atom_site_type_symbol
 _atom_site_label
 _atom_site_symmetry_multiplicity
 _atom_site_fract_x
 _atom_site_fract_y
 _atom_site_fract_z
 _atom_site_occupancy
  Ni  Ni0  1  0.25000000  0.57712900  0.39850900  1
  Ni  Ni1  1  0.75000000  0.42287100  0.60149100  1
  Ni  Ni2  1  0.75000000  0.07712900  0.10149100  1
  Ni  Ni3  1  0.25000000  0.92287100  0.89850900  1
  Cu  Cu4  1  0.25000000  0.10083500  0.57445000  1
  Cu  Cu5  1  0.75000000  0.89916500  0.42555000  1
  Cu  Cu6  1  0.75000000  0.60083500  0.92555000  1
  Cu  Cu7  1  0.25000000  0.39916500  0.07445000  1
  Cu  Cu8  1  0.25000000  0.38178200  0.79193400  1
  Cu  Cu9  1  0.75000000  0.61821800  0.20806600  1
  Cu  Cu10  1  0.75000000  0.88178200  0.70806600  1
  Cu  Cu11  1  0.25000000  0.11821800  0.29193400  1
  C  C12  1  0.25000000  0.80835700  0.14973200  1
  C  C13  1  0.75000000  0.19164300  0.85026800  1
  C  C14  1  0.75000000  0.30835700  0.35026800  1
  C  C15  1  0.25000000  0.69164300  0.64973200  1
  C  C16  1  0.25000000  0.42568000  0.60013800  1
  C  C17  1  0.75000000  0.57432000  0.39986200  1
  C  C18  1  0.75000000  0.92568000  0.89986200  1
  C  C19  1  0.25000000  0.07432000  0.10013800  1
  C  C20  1  0.00072800  0.85742700  0.27520600  1
  C  C21  1  0.50072800  0.14257300  0.72479400  1
  C  C22  1  0.99927200  0.35742700  0.22479400  1
  C  C23  1  0.49927200  0.64257300  0.77520600  1
  C  C24  1  0.99927200  0.14257300  0.72479400  1
  C  C25  1  0.49927200  0.85742700  0.27520600  1
  C  C26  1  0.00072800  0.64257300  0.77520600  1
  C  C27  1  0.50072800  0.35742700  0.22479400  1
  C  C28  1  0.49789300  0.66336700  0.06612500  1
  C  C29  1  0.99789300  0.33663300  0.93387500  1
  C  C30  1  0.50210700  0.16336700  0.43387500  1
  C  C31  1  0.00210700  0.83663300  0.56612500  1
  C  C32  1  0.99789300  0.16336700  0.43387500  1
  C  C33  1  0.49789300  0.83663300  0.56612500  1
  C  C34  1  0.00210700  0.66336700  0.06612500  1
  C  C35  1  0.50210700  0.33663300  0.93387500  1
