# generated using pymatgen
data_CuNiC28
_symmetry_space_group_name_H-M   'P 1'
_cell_length_a   14.31043917
_cell_length_b   14.31043917
_cell_length_c   5.31539212
_cell_angle_alpha   86.45888115
_cell_angle_beta   86.45888115
_cell_angle_gamma   35.18871852
_symmetry_Int_Tables_number   1
_chemical_formula_structural   CuNiC28
_chemical_formula_sum   'Cu2 Ni2 C56'
_cell_volume   625.97168706
_cell_formula_units_Z   2
loop_
 _symmetry_equiv_pos_site_id
 _symmetry_equiv_pos_as_xyz
  1  'x, y, z'
loop_
 _atom_site_type_symbol
 _atom_site_label
 _atom_site_symmetry_multiplicity
 _atom_site_fract_x
 _atom_site_fract_y
 _atom_site_fract_z
 _atom_site_occupancy
  C  C0  1  0.03464600  0.63282600  0.33223100  1
  C  C1  1  0.36717400  0.96535400  0.66776900  1
  C  C2  1  0.69710000  0.30290000  0.00000000  1
  C  C3  1  0.29583900  0.70416100  0.50000000  1
  C  C4  1  0.63287300  0.03170000  0.83567100  1
  C  C5  1  0.96830000  0.36712700  0.16432900  1
  Ni  Ni6  1  0.23754300  0.42998600  0.83315500  1
  Ni  Ni7  1  0.57001400  0.76245700  0.16684500  1
  Cu  Cu8  1  0.09270200  0.90729800  0.00000000  1
  Cu  Cu9  1  0.90230800  0.09769200  0.50000000  1
  C  C10  1  0.14357300  0.32868700  0.54134700  1
  C  C11  1  0.00130200  0.19469900  0.78663600  1
  C  C12  1  0.47877200  0.66179200  0.87427800  1
  C  C13  1  0.33820800  0.52122800  0.12572200  1
  C  C14  1  0.80530100  0.99869800  0.21336400  1
  C  C15  1  0.33027700  0.14438800  0.05072500  1
  C  C16  1  0.42707300  0.23914300  0.33280300  1
  C  C17  1  0.67131300  0.85642800  0.45865300  1
  C  C18  1  0.18465400  0.00682200  0.28843600  1
  C  C19  1  0.66453600  0.47534900  0.38796900  1
  C  C20  1  0.76085700  0.57292700  0.66719700  1
  C  C21  1  0.52465100  0.33546400  0.61203100  1
  C  C22  1  0.99317800  0.81534600  0.71156400  1
  C  C23  1  0.85561200  0.66972300  0.94927500  1
  C  C24  1  0.10309700  0.13249300  0.52141200  1
  C  C25  1  0.23006600  0.36270000  0.50044900  1
  C  C26  1  0.44327900  0.45097200  0.85845100  1
  C  C27  1  0.28465100  0.80768500  0.86497800  1
  C  C28  1  0.14309500  0.62484800  0.68539900  1
  C  C29  1  0.56512100  0.69534200  0.82880700  1
  C  C30  1  0.20668500  0.23022100  0.81159800  1
  C  C31  1  0.03288100  0.89705400  0.69707900  1
  C  C32  1  0.76977900  0.79331500  0.18840200  1
  C  C33  1  0.30465800  0.43487900  0.17119300  1
  C  C34  1  0.12174400  0.11408800  0.02423000  1
  C  C35  1  0.19231500  0.71534900  0.13502200  1
  C  C36  1  0.61007400  0.14015000  0.19183300  1
  C  C37  1  0.04474100  0.52298300  0.98421400  1
  C  C38  1  0.47701700  0.95525900  0.01578600  1
  C  C39  1  0.88039500  0.04462900  0.19318800  1
  C  C40  1  0.54902800  0.55672100  0.14154900  1
  C  C41  1  0.38202400  0.21438700  0.05800700  1
  C  C42  1  0.63730000  0.76993400  0.49955100  1
  C  C43  1  0.46349800  0.44398700  0.35432200  1
  C  C44  1  0.10294600  0.96711900  0.30292100  1
  C  C45  1  0.52695100  0.05319900  0.47392600  1
  C  C46  1  0.94680100  0.47304900  0.52607400  1
  C  C47  1  0.37515200  0.85690500  0.31460100  1
  C  C48  1  0.80806900  0.28307100  0.36154400  1
  C  C49  1  0.86750700  0.89690300  0.47858800  1
  C  C50  1  0.71922400  0.54267300  0.39179600  1
  C  C51  1  0.22201100  0.20496700  0.31080900  1
  C  C52  1  0.95537100  0.11960500  0.80681200  1
  C  C53  1  0.79503300  0.77798900  0.68919100  1
  C  C54  1  0.45732700  0.28077600  0.60820400  1
  C  C55  1  0.85985000  0.38992600  0.80816700  1
  C  C56  1  0.71692900  0.19193100  0.63845600  1
  C  C57  1  0.55601300  0.53650200  0.64567800  1
  C  C58  1  0.78561300  0.61797600  0.94199300  1
  C  C59  1  0.88591200  0.87825600  0.97577000  1
