# generated using pymatgen
data_Cu4Ni3C
_symmetry_space_group_name_H-M   'P 1'
_cell_length_a   5.96703800
_cell_length_b   9.91720700
_cell_length_c   14.08381400
_cell_angle_alpha   90.00000000
_cell_angle_beta   90.00000000
_cell_angle_gamma   90.00000000
_symmetry_Int_Tables_number   1
_chemical_formula_structural   Cu4Ni3C
_chemical_formula_sum   'Cu32 Ni24 C8'
_cell_volume   833.42872100
_cell_formula_units_Z   8
loop_
 _symmetry_equiv_pos_site_id
 _symmetry_equiv_pos_as_xyz
  1  'x, y, z'
loop_
 _atom_site_type_symbol
 _atom_site_label
 _atom_site_symmetry_multiplicity
 _atom_site_fract_x
 _atom_site_fract_y
 _atom_site_fract_z
 _atom_site_occupancy
  C  C0  1  0.07904200  0.39492700  0.64140800  1
  C  C1  1  0.92095800  0.89492700  0.85859200  1
  C  C2  1  0.57904200  0.10507300  0.35859200  1
  C  C3  1  0.57904200  0.39492700  0.85859200  1
  C  C4  1  0.07904200  0.10507300  0.14140800  1
  C  C5  1  0.42095800  0.60507300  0.14140800  1
  C  C6  1  0.92095800  0.60507300  0.35859200  1
  C  C7  1  0.42095800  0.89492700  0.64140800  1
  Ni  Ni8  1  0.40278100  0.41173400  0.30122000  1
  Ni  Ni9  1  0.40278100  0.08826600  0.80122000  1
  Ni  Ni10  1  0.09721900  0.58826600  0.80122000  1
  Ni  Ni11  1  0.09721900  0.91173400  0.30122000  1
  Ni  Ni12  1  0.34436600  0.35715200  0.46107000  1
  Ni  Ni13  1  0.65563400  0.85715200  0.03893000  1
  Ni  Ni14  1  0.90278100  0.08826600  0.69878000  1
  Ni  Ni15  1  0.40686900  0.31594200  0.37052900  1
  Ni  Ni16  1  0.90686900  0.18405800  0.62947100  1
  Ni  Ni17  1  0.34436600  0.14284800  0.96107000  1
  Ni  Ni18  1  0.84436600  0.14284800  0.53893000  1
  Ni  Ni19  1  0.59313100  0.81594200  0.12947100  1
  Ni  Ni20  1  0.90686900  0.31594200  0.12947100  1
  Ni  Ni21  1  0.40686900  0.18405800  0.87052900  1
  Ni  Ni22  1  0.15563400  0.85715200  0.46107000  1
  Ni  Ni23  1  0.09313100  0.68405800  0.87052900  1
  Ni  Ni24  1  0.59721900  0.91173400  0.19878000  1
  Ni  Ni25  1  0.65563400  0.64284800  0.53893000  1
  Ni  Ni26  1  0.59313100  0.68405800  0.62947100  1
  Ni  Ni27  1  0.09313100  0.81594200  0.37052900  1
  Ni  Ni28  1  0.59721900  0.58826600  0.69878000  1
  Ni  Ni29  1  0.90278100  0.41173400  0.19878000  1
  Ni  Ni30  1  0.84436600  0.35715200  0.03893000  1
  Ni  Ni31  1  0.15563400  0.64284800  0.96107000  1
  Cu  Cu32  1  0.91065700  0.13501400  0.78168400  1
  Cu  Cu33  1  0.11065600  0.72801800  0.02315500  1
  Cu  Cu34  1  0.38934400  0.22801800  0.02315500  1
  Cu  Cu35  1  0.08934300  0.86498600  0.21831600  1
  Cu  Cu36  1  0.88934400  0.22801800  0.47684500  1
  Cu  Cu37  1  0.26224400  0.53706400  0.97791700  1
  Cu  Cu38  1  0.09670500  0.03654200  0.31696400  1
  Cu  Cu39  1  0.09670500  0.46345800  0.81696400  1
  Cu  Cu40  1  0.73775600  0.46293600  0.02208300  1
  Cu  Cu41  1  0.23775600  0.03706400  0.97791700  1
  Cu  Cu42  1  0.40329500  0.53654200  0.31696400  1
  Cu  Cu43  1  0.90329500  0.96345800  0.68303600  1
  Cu  Cu44  1  0.11065600  0.77198200  0.52315500  1
  Cu  Cu45  1  0.59670500  0.46345800  0.68303600  1
  Cu  Cu46  1  0.08934300  0.63501400  0.71831600  1
  Cu  Cu47  1  0.23775600  0.46293600  0.47791700  1
  Cu  Cu48  1  0.90329500  0.53654200  0.18303600  1
  Cu  Cu49  1  0.58934300  0.63501400  0.78168400  1
  Cu  Cu50  1  0.59670500  0.03654200  0.18303600  1
  Cu  Cu51  1  0.91065700  0.36498600  0.28168400  1
  Cu  Cu52  1  0.61065600  0.72801800  0.47684500  1
  Cu  Cu53  1  0.73775600  0.03706400  0.52208300  1
  Cu  Cu54  1  0.38934400  0.27198200  0.52315500  1
  Cu  Cu55  1  0.88934400  0.27198200  0.97684500  1
  Cu  Cu56  1  0.41065700  0.36498600  0.21831600  1
  Cu  Cu57  1  0.40329500  0.96345800  0.81696400  1
  Cu  Cu58  1  0.76224400  0.53706400  0.52208300  1
  Cu  Cu59  1  0.61065600  0.77198200  0.97684500  1
  Cu  Cu60  1  0.76224400  0.96293600  0.02208300  1
  Cu  Cu61  1  0.41065700  0.13501400  0.71831600  1
  Cu  Cu62  1  0.58934300  0.86498600  0.28168400  1
  Cu  Cu63  1  0.26224400  0.96293600  0.47791700  1
