# generated using pymatgen
data_Cu5Ni17C97
_symmetry_space_group_name_H-M   'P 1'
_cell_length_a   9.16066100
_cell_length_b   9.24451847
_cell_length_c   22.45105395
_cell_angle_alpha   90.53786122
_cell_angle_beta   90.34276529
_cell_angle_gamma   119.46149194
_symmetry_Int_Tables_number   1
_chemical_formula_structural   Cu5Ni17C97
_chemical_formula_sum   'Cu5 Ni17 C97'
_cell_volume   1655.22983426
_cell_formula_units_Z   1
loop_
 _symmetry_equiv_pos_site_id
 _symmetry_equiv_pos_as_xyz
  1  'x, y, z'
loop_
 _atom_site_type_symbol
 _atom_site_label
 _atom_site_symmetry_multiplicity
 _atom_site_fract_x
 _atom_site_fract_y
 _atom_site_fract_z
 _atom_site_occupancy
  Ni  Ni0  1  0.32353100  0.67048000  0.67098600  1
  Ni  Ni1  1  0.78934200  0.20288500  0.96469000  1
  Ni  Ni2  1  0.23571900  0.11784800  0.87277800  1
  Ni  Ni3  1  0.67512400  0.32694300  0.83017200  1
  Ni  Ni4  1  0.66299000  0.34016100  0.33457000  1
  Ni  Ni5  1  0.53512100  0.44705700  0.70543400  1
  Ni  Ni6  1  0.70888300  0.67659700  0.91995400  1
  Ni  Ni7  1  0.57196000  0.78531200  0.53622000  1
  Ni  Ni8  1  0.00564500  0.99450300  0.49889100  1
  Ni  Ni9  1  0.41973500  0.20994800  0.45971500  1
  Ni  Ni10  1  0.87478300  0.11914500  0.37305700  1
  Ni  Ni11  1  0.03833000  0.33721500  0.58258500  1
  Ni  Ni12  1  0.90660800  0.45414600  0.20329700  1
  Ni  Ni13  1  0.33898600  0.66128800  0.16593200  1
  Ni  Ni14  1  0.76051100  0.88185600  0.12349400  1
  Ni  Ni15  1  0.20377100  0.79326200  0.03922200  1
  Ni  Ni16  1  0.36966900  0.00291300  0.24931100  1
  C  C17  1  0.19032100  0.38288600  0.95477200  1
  C  C18  1  0.47173000  0.93802200  0.87867200  1
  C  C19  1  0.51997600  0.05248000  0.62029300  1
  C  C20  1  0.81578600  0.61489900  0.54661400  1
  C  C21  1  0.87555300  0.73446700  0.78339600  1
  C  C22  1  0.85303800  0.71912400  0.28733800  1
  C  C23  1  0.15004800  0.28084100  0.21362400  1
  Cu  Cu24  1  0.12933400  0.26763800  0.71971800  1
  Cu  Cu25  1  0.20744900  0.40912500  0.44923800  1
  Cu  Cu26  1  0.46224600  0.92546800  0.38531900  1
  Cu  Cu27  1  0.53873800  0.07490400  0.11695500  1
  Cu  Cu28  1  0.80087000  0.60212900  0.05253300  1
  C  C29  1  0.90030300  0.09903400  0.84633500  1
  C  C30  1  0.29664200  0.00736600  0.74895700  1
  C  C31  1  0.23676100  0.76532300  0.51373500  1
  C  C32  1  0.62462100  0.66526900  0.41676200  1
  C  C33  1  0.57055600  0.43260800  0.18017300  1
  C  C34  1  0.95807200  0.33549600  0.08450800  1
  C  C35  1  0.47451300  0.23706400  0.98593800  1
  C  C36  1  0.86313800  0.43012100  0.68082900  1
  C  C37  1  0.03743600  0.66331600  0.91678900  1
  C  C38  1  0.42900700  0.56307700  0.81771200  1
  C  C39  1  0.80676500  0.90516400  0.65216100  1
  C  C40  1  0.19601700  0.09774600  0.34835300  1
  C  C41  1  0.37258100  0.33662100  0.58294700  1
  C  C42  1  0.76410600  0.23168700  0.48522400  1
  C  C43  1  0.13784500  0.56860000  0.31891000  1
  C  C44  1  0.52814400  0.76495800  0.01501300  1
  C  C45  1  0.70640400  0.00330200  0.24965900  1
  C  C46  1  0.09716300  0.89729100  0.15283700  1
  C  C47  1  0.45394600  0.73993100  0.83126800  1
  C  C48  1  0.55201100  0.87685500  0.96012500  1
  C  C49  1  0.02020700  0.18200700  0.90571300  1
  C  C50  1  0.21221100  0.81847200  0.90592100  1
  C  C51  1  0.98615100  0.20709100  0.78849600  1
  C  C52  1  0.72166600  0.09325500  0.86132000  1
  C  C53  1  0.37985200  0.95811300  0.69379800  1
  C  C54  1  0.41029600  0.04352100  0.81053000  1
  C  C55  1  0.50366500  0.15829100  0.92791100  1
  C  C56  1  0.70721000  0.25707200  0.66955700  1
  C  C57  1  0.02732200  0.42410800  0.68594500  1
  C  C58  1  0.06128000  0.51077100  0.92642500  1
  C  C59  1  0.28197300  0.17309400  0.73992100  1
  C  C60  1  0.78165100  0.40546600  0.49857800  1
  C  C61  1  0.31477600  0.24906700  0.97323200  1
  C  C62  1  0.63080000  0.40949400  0.99397100  1
  C  C63  1  0.82034500  0.50034700  0.73768700  1
  C  C64  1  0.88067600  0.53791200  0.62596100  1
  C  C65  1  0.91450900  0.62342200  0.86247400  1
  C  C66  1  0.35876000  0.84226500  0.57373100  1
  C  C67  1  0.54751500  0.49071400  0.57307800  1
  C  C68  1  0.95846600  0.69983500  0.97101700  1
  C  C69  1  0.32767100  0.88750800  0.45790400  1
  C  C70  1  0.05705600  0.76004000  0.52469100  1
  C  C71  1  0.60426500  0.57319200  0.81045100  1
  C  C72  1  0.34761100  0.45524700  0.87299200  1
  C  C73  1  0.71340900  0.62513900  0.36058500  1
  C  C74  1  0.11179600  0.84490000  0.76049100  1
  C  C75  1  0.33207600  0.50012000  0.75852700  1
  C  C76  1  0.74380300  0.70931500  0.47749800  1
  C  C77  1  0.78039200  0.79075700  0.70631400  1
  C  C78  1  0.83028600  0.82563200  0.59408000  1
  C  C79  1  0.04175700  0.92454000  0.33611400  1
  C  C80  1  0.36280500  0.09364700  0.35494200  1
  C  C81  1  0.87985100  0.91195500  0.83842700  1
  C  C82  1  0.40245000  0.18624000  0.59339500  1
  C  C83  1  0.61087100  0.83344800  0.40743200  1
  C  C84  1  0.11453800  0.07138900  0.16576900  1
  C  C85  1  0.64007500  0.90867200  0.64207300  1
  C  C86  1  0.95776000  0.07909200  0.66078500  1
  C  C87  1  0.15858600  0.16684100  0.40607700  1
  C  C88  1  0.21499300  0.20409500  0.29289200  1
  C  C89  1  0.25165500  0.28756300  0.52824600  1
  C  C90  1  0.69186100  0.50849200  0.24037100  1
  C  C91  1  0.88058400  0.15783100  0.23987700  1
  C  C92  1  0.29392800  0.37599400  0.63720900  1
  C  C93  1  0.66015200  0.55338200  0.12430200  1
  C  C94  1  0.39031000  0.42641200  0.19128500  1
  C  C95  1  0.93577200  0.23885700  0.47722800  1
  C  C96  1  0.67968700  0.12245800  0.54023400  1
  C  C97  1  0.04043900  0.30139000  0.02503100  1
  C  C98  1  0.44544900  0.49923400  0.42854600  1
  C  C99  1  0.65857700  0.16712100  0.42672800  1
  C  C100  1  0.07726700  0.37594100  0.14428200  1
  C  C101  1  0.11017700  0.45496600  0.37240300  1
  C  C102  1  0.16353700  0.49227700  0.26025900  1
  C  C103  1  0.37161600  0.59407300  0.00099900  1
  C  C104  1  0.68792200  0.75176100  0.02179500  1
  C  C105  1  0.21590600  0.58002700  0.50617600  1
  C  C106  1  0.73551800  0.85299300  0.26017200  1
  C  C107  1  0.94155300  0.50098900  0.07491600  1
  C  C108  1  0.97268000  0.57508000  0.30812000  1
  C  C109  1  0.28945800  0.74435100  0.32748000  1
  C  C110  1  0.49077100  0.83426400  0.07266200  1
  C  C111  1  0.58576100  0.95522400  0.19492000  1
  C  C112  1  0.62685800  0.04197600  0.30425800  1
  C  C113  1  0.27024200  0.90681400  0.14436100  1
  C  C114  1  0.01615300  0.79056900  0.20870100  1
  C  C115  1  0.77652700  0.16780500  0.09249500  1
  C  C116  1  0.98980100  0.82739400  0.09595600  1
  C  C117  1  0.44550100  0.12262500  0.03907100  1
  C  C118  1  0.54906200  0.24654900  0.17306500  1
