# generated using pymatgen
data_Cu5NiC12
_symmetry_space_group_name_H-M   'P 1'
_cell_length_a   7.79429300
_cell_length_b   12.63115300
_cell_length_c   12.73005900
_cell_angle_alpha   90.00000000
_cell_angle_beta   90.00000000
_cell_angle_gamma   90.00000000
_symmetry_Int_Tables_number   1
_chemical_formula_structural   Cu5NiC12
_chemical_formula_sum   'Cu20 Ni4 C48'
_cell_volume   1253.28585993
_cell_formula_units_Z   4
loop_
 _symmetry_equiv_pos_site_id
 _symmetry_equiv_pos_as_xyz
  1  'x, y, z'
loop_
 _atom_site_type_symbol
 _atom_site_label
 _atom_site_symmetry_multiplicity
 _atom_site_fract_x
 _atom_site_fract_y
 _atom_site_fract_z
 _atom_site_occupancy
  C  C0  1  0.48264000  0.36397400  0.82236400  1
  C  C1  1  0.01736000  0.86397400  0.82236400  1
  C  C2  1  0.51736000  0.63602600  0.32236400  1
  C  C3  1  0.98264000  0.13602600  0.32236400  1
  Ni  Ni4  1  0.86499600  0.57137200  0.50119400  1
  Ni  Ni5  1  0.13500400  0.42862800  0.00119400  1
  Ni  Ni6  1  0.36499600  0.92862800  0.00119400  1
  Ni  Ni7  1  0.63500400  0.07137200  0.50119400  1
  Cu  Cu8  1  0.91875400  0.99783500  0.84968100  1
  Cu  Cu9  1  0.08124600  0.00216500  0.34968100  1
  Cu  Cu10  1  0.13815100  0.73673200  0.79598700  1
  Cu  Cu11  1  0.31640300  0.68265700  0.26052700  1
  Cu  Cu12  1  0.89883700  0.08423800  0.19261100  1
  Cu  Cu13  1  0.43447200  0.68890200  0.45155700  1
  Cu  Cu14  1  0.81640300  0.81734300  0.76052700  1
  Cu  Cu15  1  0.86184900  0.26326800  0.29598700  1
  Cu  Cu16  1  0.39883700  0.41576200  0.69261100  1
  Cu  Cu17  1  0.18359700  0.18265700  0.26052700  1
  Cu  Cu18  1  0.06552800  0.18890200  0.45155700  1
  Cu  Cu19  1  0.63815100  0.76326800  0.29598700  1
  Cu  Cu20  1  0.60116300  0.58423800  0.19261100  1
  Cu  Cu21  1  0.36184900  0.23673200  0.79598700  1
  Cu  Cu22  1  0.58124600  0.49783500  0.84968100  1
  Cu  Cu23  1  0.10116300  0.91576200  0.69261100  1
  Cu  Cu24  1  0.56552800  0.31109800  0.95155700  1
  Cu  Cu25  1  0.68359700  0.31734300  0.76052700  1
  Cu  Cu26  1  0.41875400  0.50216500  0.34968100  1
  Cu  Cu27  1  0.93447200  0.81109800  0.95155700  1
  C  C28  1  0.12334000  0.22305300  0.52752100  1
  C  C29  1  0.28098700  0.16295600  0.77786300  1
  C  C30  1  0.21901300  0.66295600  0.77786300  1
  C  C31  1  0.31243100  0.20992200  0.22491400  1
  C  C32  1  0.68756900  0.79007800  0.72491400  1
  C  C33  1  0.37666000  0.72305300  0.52752100  1
  C  C34  1  0.25355800  0.42949000  0.87620600  1
  C  C35  1  0.86366700  0.08069700  0.86562700  1
  C  C36  1  0.78098700  0.33704400  0.27786300  1
  C  C37  1  0.34372000  0.44735600  0.61497000  1
  C  C38  1  0.71901300  0.83704400  0.27786300  1
  C  C39  1  0.84372000  0.05264400  0.11497000  1
  C  C40  1  0.62334000  0.27694700  0.02752100  1
  C  C41  1  0.24644200  0.92949000  0.87620600  1
  C  C42  1  0.15628000  0.94735600  0.61497000  1
  C  C43  1  0.36366700  0.41930300  0.36562700  1
  C  C44  1  0.63633300  0.58069700  0.86562700  1
  C  C45  1  0.74644200  0.57051000  0.37620600  1
  C  C46  1  0.13633300  0.91930300  0.36562700  1
  C  C47  1  0.75355800  0.07051000  0.37620600  1
  C  C48  1  0.87666000  0.77694700  0.02752100  1
  C  C49  1  0.65628000  0.55264400  0.11497000  1
  C  C50  1  0.81243100  0.29007800  0.72491400  1
  C  C51  1  0.18756900  0.70992200  0.22491400  1
  C  C52  1  0.49344200  0.93339100  0.12778600  1
  C  C53  1  0.50655800  0.06660900  0.62778600  1
  C  C54  1  0.33134400  0.43718800  0.09183100  1
  C  C55  1  0.41903800  0.08070900  0.43185100  1
  C  C56  1  0.16865600  0.93718800  0.09183100  1
  C  C57  1  0.08096200  0.58070900  0.43185100  1
  C  C58  1  0.91903800  0.41929100  0.93185100  1
  C  C59  1  0.86715300  0.72185700  0.51876100  1
  C  C60  1  0.38815700  0.07853700  0.00154800  1
  C  C61  1  0.13284700  0.27814300  0.01876100  1
  C  C62  1  0.88815700  0.42146300  0.50154800  1
  C  C63  1  0.66865600  0.56281200  0.59183100  1
  C  C64  1  0.58096200  0.91929100  0.93185100  1
  C  C65  1  0.61184300  0.92146300  0.50154800  1
  C  C66  1  0.83134400  0.06281200  0.59183100  1
  C  C67  1  0.00655800  0.43339100  0.12778600  1
  C  C68  1  0.11184300  0.57853700  0.00154800  1
  C  C69  1  0.63284700  0.22185700  0.51876100  1
  C  C70  1  0.36715300  0.77814300  0.01876100  1
  C  C71  1  0.99344200  0.56660900  0.62778600  1
