# generated using pymatgen
data_CuNiC6
_symmetry_space_group_name_H-M   'P 1'
_cell_length_a   12.13546700
_cell_length_b   7.88511200
_cell_length_c   10.65923211
_cell_angle_alpha   84.12372515
_cell_angle_beta   90.00000000
_cell_angle_gamma   90.00000000
_symmetry_Int_Tables_number   1
_chemical_formula_structural   CuNiC6
_chemical_formula_sum   'Cu4 Ni4 C24'
_cell_volume   1014.61709049
_cell_formula_units_Z   4
loop_
 _symmetry_equiv_pos_site_id
 _symmetry_equiv_pos_as_xyz
  1  'x, y, z'
loop_
 _atom_site_type_symbol
 _atom_site_label
 _atom_site_symmetry_multiplicity
 _atom_site_fract_x
 _atom_site_fract_y
 _atom_site_fract_z
 _atom_site_occupancy
  Ni  Ni0  1  0.77335100  0.49667400  0.72058600  1
  Ni  Ni1  1  0.72664900  0.49667400  0.22058600  1
  Ni  Ni2  1  0.27335100  0.50332600  0.77941400  1
  Ni  Ni3  1  0.22664900  0.50332600  0.27941400  1
  Cu  Cu4  1  0.96252400  0.19038400  0.35006800  1
  Cu  Cu5  1  0.53747600  0.19038400  0.85006800  1
  Cu  Cu6  1  0.03747600  0.80961600  0.64993200  1
  Cu  Cu7  1  0.46252400  0.80961600  0.14993200  1
  C  C8  1  0.43282000  0.00814000  0.30847700  1
  C  C9  1  0.90004000  0.52140500  0.17883300  1
  C  C10  1  0.65955500  0.70455900  0.31585100  1
  C  C11  1  0.12954000  0.50045400  0.44803600  1
  C  C12  1  0.87046000  0.49954600  0.55196400  1
  C  C13  1  0.06718000  0.00814000  0.80847700  1
  C  C14  1  0.37046000  0.50045400  0.94803600  1
  C  C15  1  0.09996000  0.47859500  0.82116700  1
  C  C16  1  0.15955500  0.29544100  0.18414900  1
  C  C17  1  0.40004000  0.47859500  0.32116700  1
  C  C18  1  0.59996000  0.52140500  0.67883300  1
  C  C19  1  0.62954000  0.49954600  0.05196400  1
  C  C20  1  0.63435200  0.98762200  0.04029800  1
  C  C21  1  0.71543500  0.25391700  0.33496500  1
  C  C22  1  0.21543500  0.74608300  0.16503500  1
  C  C23  1  0.36564800  0.01237800  0.95970200  1
  C  C24  1  0.28456500  0.74608300  0.66503500  1
  C  C25  1  0.93282000  0.99186000  0.19152300  1
  C  C26  1  0.34044500  0.29544100  0.68414900  1
  C  C27  1  0.78456500  0.25391700  0.83496500  1
  C  C28  1  0.13435200  0.01237800  0.45970200  1
  C  C29  1  0.84044500  0.70455900  0.81585100  1
  C  C30  1  0.56718000  0.99186000  0.69152300  1
  C  C31  1  0.86564800  0.98762200  0.54029800  1
