# generated using pymatgen
data_Cu2(Ni3C4)3
_symmetry_space_group_name_H-M   'P 1'
_cell_length_a   7.08509715
_cell_length_b   7.20863746
_cell_length_c   9.73219995
_cell_angle_alpha   77.02677274
_cell_angle_beta   106.17192775
_cell_angle_gamma   113.60463590
_symmetry_Int_Tables_number   1
_chemical_formula_structural   Cu2(Ni3C4)3
_chemical_formula_sum   'Cu4 Ni18 C24'
_cell_volume   433.83051545
_cell_formula_units_Z   2
loop_
 _symmetry_equiv_pos_site_id
 _symmetry_equiv_pos_as_xyz
  1  'x, y, z'
loop_
 _atom_site_type_symbol
 _atom_site_label
 _atom_site_symmetry_multiplicity
 _atom_site_fract_x
 _atom_site_fract_y
 _atom_site_fract_z
 _atom_site_occupancy
  C  C0  1  0.99986500  0.99984400  0.00012100  1
  C  C1  1  0.00007000  0.50039300  0.50003300  1
  C  C2  1  0.50031400  0.00054100  0.50011300  1
  C  C3  1  0.49958900  0.49933700  0.00016500  1
  Ni  Ni4  1  0.00025800  0.25056100  0.24999600  1
  Ni  Ni5  1  0.00015000  0.75019100  0.75008200  1
  Ni  Ni6  1  0.86727300  0.55144000  0.18695700  1
  Ni  Ni7  1  0.86772300  0.05174000  0.68674400  1
  Ni  Ni8  1  0.13218200  0.44815100  0.81326200  1
  Ni  Ni9  1  0.13255500  0.94834400  0.31306600  1
  Ni  Ni10  1  0.75247700  0.66825500  0.24219900  1
  Ni  Ni11  1  0.75282200  0.16840300  0.74170900  1
  Ni  Ni12  1  0.24711100  0.33150500  0.75816600  1
  Ni  Ni13  1  0.24741500  0.83161800  0.25780100  1
  Ni  Ni14  1  0.57771600  0.17334100  0.16481900  1
  Ni  Ni15  1  0.57784400  0.67366900  0.66485400  1
  Ni  Ni16  1  0.42217400  0.82636100  0.83522800  1
  Ni  Ni17  1  0.42227300  0.32667600  0.33516400  1
  Ni  Ni18  1  0.59974100  0.20595900  0.00001900  1
  Ni  Ni19  1  0.59986100  0.70626200  0.50000200  1
  Ni  Ni20  1  0.40020500  0.79374600  0.00005600  1
  Ni  Ni21  1  0.40052000  0.29412300  0.49997100  1
  Cu  Cu22  1  0.79491400  0.46926000  0.83657000  1
  Cu  Cu23  1  0.79509100  0.96937400  0.33654600  1
  Cu  Cu24  1  0.20487900  0.53049800  0.16331400  1
  Cu  Cu25  1  0.20497100  0.03074700  0.66333700  1
  C  C26  1  0.76630200  0.62487700  0.15597100  1
  C  C27  1  0.76726800  0.12580800  0.65538700  1
  C  C28  1  0.23288100  0.37433200  0.84452400  1
  C  C29  1  0.23371200  0.87506700  0.34396500  1
  C  C30  1  0.51005200  0.20672900  0.06389400  1
  C  C31  1  0.51010600  0.70701700  0.56392900  1
  C  C32  1  0.48983600  0.79295600  0.93611100  1
  C  C33  1  0.49012300  0.29336600  0.43603600  1
  C  C34  1  0.69549100  0.57479400  0.85426200  1
  C  C35  1  0.69576700  0.07507300  0.35421500  1
  C  C36  1  0.30417900  0.42472500  0.14584700  1
  C  C37  1  0.30432500  0.92517700  0.64564400  1
  C  C38  1  0.75203800  0.27841400  0.88092600  1
  C  C39  1  0.75203700  0.77842900  0.38094500  1
  C  C40  1  0.24784800  0.72138100  0.11900700  1
  C  C41  1  0.24799400  0.22160200  0.61906600  1
  C  C42  1  0.95175700  0.56546500  0.76643300  1
  C  C43  1  0.95187400  0.06536100  0.26632300  1
  C  C44  1  0.04814500  0.43450000  0.23363600  1
  C  C45  1  0.04827500  0.93458900  0.73358600  1
