# generated using pymatgen
data_Cu4(NiC3)3
_symmetry_space_group_name_H-M   'P 1'
_cell_length_a   7.53263600
_cell_length_b   8.20365279
_cell_length_c   9.61256669
_cell_angle_alpha   96.58848646
_cell_angle_beta   100.34146329
_cell_angle_gamma   106.20998482
_symmetry_Int_Tables_number   1
_chemical_formula_structural   Cu4(NiC3)3
_chemical_formula_sum   'Cu8 Ni6 C18'
_cell_volume   552.51881248
_cell_formula_units_Z   2
loop_
 _symmetry_equiv_pos_site_id
 _symmetry_equiv_pos_as_xyz
  1  'x, y, z'
loop_
 _atom_site_type_symbol
 _atom_site_label
 _atom_site_symmetry_multiplicity
 _atom_site_fract_x
 _atom_site_fract_y
 _atom_site_fract_z
 _atom_site_occupancy
  Ni  Ni0  1  0.26574400  0.71705500  0.98887400  1
  Ni  Ni1  1  0.61142700  0.75052700  0.37305700  1
  Ni  Ni2  1  0.63585200  0.56422200  0.05014000  1
  Ni  Ni3  1  0.96684400  0.09016100  0.41494200  1
  Ni  Ni4  1  0.90486900  0.35564900  0.90480000  1
  Ni  Ni5  1  0.58108600  0.07965500  0.63665000  1
  Cu  Cu6  1  0.55808200  0.11292400  0.08663900  1
  Cu  Cu7  1  0.94453700  0.94990700  0.02588900  1
  Cu  Cu8  1  0.10379100  0.62636000  0.64843300  1
  Cu  Cu9  1  0.58152800  0.58848900  0.69949600  1
  Cu  Cu10  1  0.24261900  0.35631100  0.28783500  1
  Cu  Cu11  1  0.17430500  0.79991400  0.35084700  1
  Cu  Cu12  1  0.21487300  0.16488700  0.77666100  1
  Cu  Cu13  1  0.72956000  0.37015900  0.41710700  1
  C  C14  1  0.18508300  0.04878600  0.24474700  1
  C  C15  1  0.17658700  0.96885400  0.57631000  1
  C  C16  1  0.43490300  0.75824800  0.58162200  1
  C  C17  1  0.63313900  0.05364200  0.37084300  1
  C  C18  1  0.30058200  0.62575400  0.21210200  1
  C  C19  1  0.60290000  0.84916000  0.00743800  1
  C  C20  1  0.06466100  0.50103800  0.42024100  1
  C  C21  1  0.28792500  0.49463000  0.81313600  1
  C  C22  1  0.79923800  0.64406500  0.55799000  1
  C  C23  1  0.86947200  0.76842100  0.25411400  1
  C  C24  1  0.88699700  0.65163800  0.90192800  1
  C  C25  1  0.44885200  0.35560700  0.51483400  1
  C  C26  1  0.52152500  0.37463000  0.20787400  1
  C  C27  1  0.25159800  0.99099500  0.94223700  1
  C  C28  1  0.56446400  0.26268100  0.88011200  1
  C  C29  1  0.90226000  0.22041800  0.14634300  1
  C  C30  1  0.89110700  0.32572500  0.63408600  1
  C  C31  1  0.91819300  0.07889000  0.82667300  1
