# generated using pymatgen
data_Cu6Ni2C41
_symmetry_space_group_name_H-M   'P 1'
_cell_length_a   9.95325000
_cell_length_b   9.96546268
_cell_length_c   15.23303727
_cell_angle_alpha   80.38177519
_cell_angle_beta   80.23499089
_cell_angle_gamma   68.77544899
_symmetry_Int_Tables_number   1
_chemical_formula_structural   Cu6Ni2C41
_chemical_formula_sum   'Cu12 Ni4 C82'
_cell_volume   1378.83528972
_cell_formula_units_Z   2
loop_
 _symmetry_equiv_pos_site_id
 _symmetry_equiv_pos_as_xyz
  1  'x, y, z'
loop_
 _atom_site_type_symbol
 _atom_site_label
 _atom_site_symmetry_multiplicity
 _atom_site_fract_x
 _atom_site_fract_y
 _atom_site_fract_z
 _atom_site_occupancy
  Ni  Ni0  1  0.43616100  0.86376900  0.85225400  1
  Ni  Ni1  1  0.49027500  0.51776900  0.99868300  1
  Ni  Ni2  1  0.50624500  0.49033900  0.49929800  1
  Ni  Ni3  1  0.26255800  0.23324600  0.47043100  1
  Cu  Cu4  1  0.00346900  0.99527800  0.99498100  1
  Cu  Cu5  1  0.75105000  0.73495000  0.55111400  1
  Cu  Cu6  1  0.45849700  0.84645500  0.34895700  1
  Cu  Cu7  1  0.73417200  0.74701600  0.05109100  1
  Cu  Cu8  1  0.84036500  0.45780300  0.84812100  1
  Cu  Cu9  1  0.85239000  0.45238500  0.34756700  1
  Cu  Cu10  1  0.15919900  0.53802300  0.64751400  1
  Cu  Cu11  1  0.15329900  0.54480900  0.15247200  1
  Cu  Cu12  1  0.26549800  0.25102000  0.94678400  1
  Cu  Cu13  1  0.54310100  0.14802400  0.65679000  1
  Cu  Cu14  1  0.00358100  0.00035500  0.50070000  1
  Cu  Cu15  1  0.53811600  0.16057200  0.15258100  1
  C  C16  1  0.51519600  0.48476200  0.74978500  1
  C  C17  1  0.48860600  0.51256500  0.25033400  1
  C  C18  1  0.83441800  0.82914000  0.77061400  1
  C  C19  1  0.83402900  0.84815800  0.26839700  1
  C  C20  1  0.36617500  0.84591300  0.60437300  1
  C  C21  1  0.34788400  0.86574100  0.09307000  1
  C  C22  1  0.14943900  0.63749700  0.89694200  1
  C  C23  1  0.13795500  0.65477900  0.40341000  1
  C  C24  1  0.86864600  0.34402100  0.59248500  1
  C  C25  1  0.84978400  0.36147500  0.10229700  1
  C  C26  1  0.65540000  0.13287400  0.90485300  1
  C  C27  1  0.63108900  0.15191100  0.39906400  1
  C  C28  1  0.16814500  0.15981500  0.73149300  1
  C  C29  1  0.15776000  0.16525500  0.23113600  1
  C  C30  1  0.87721700  0.91953100  0.65253900  1
  C  C31  1  0.75161900  0.99347800  0.48000800  1
  C  C32  1  0.99369200  0.74381000  0.98604400  1
  C  C33  1  0.63372400  0.90560000  0.74926000  1
  C  C34  1  0.25377400  0.00302700  0.99301900  1
  C  C35  1  0.92272600  0.89792400  0.15210600  1
  C  C36  1  0.51563000  0.93671400  0.59441700  1
  C  C37  1  0.26470700  0.95692200  0.70720600  1
  C  C38  1  0.77883700  0.72294600  0.88352000  1
  C  C39  1  0.47403900  0.97437600  0.09022200  1
  C  C40  1  0.65659400  0.88195800  0.21332800  1
  C  C41  1  0.86987600  0.65494800  0.71308800  1
  C  C42  1  0.19316800  0.99159500  0.17368600  1
  C  C43  1  0.73362000  0.76840000  0.37788400  1
  C  C44  1  0.23425100  0.78109500  0.89337600  1
  C  C45  1  0.49151300  0.73678200  0.50733400  1
  C  C46  1  0.90644100  0.65004300  0.23583200  1
  C  C47  1  0.48662600  0.69061400  0.68599600  1
  C  C48  1  0.22134800  0.75761100  0.61227900  1
  C  C49  1  0.23642800  0.78865100  0.40928500  1
  C  C50  1  0.96966400  0.47836700  0.58747500  1
  C  C51  1  0.44394600  0.73712400  0.19691800  1
  C  C52  1  0.49606400  0.74804600  0.00861200  1
  C  C53  1  0.57515200  0.54072600  0.85164800  1
  C  C54  1  0.04330000  0.73853900  0.79204100  1
  C  C55  1  0.94370200  0.50617000  0.09525100  1
  C  C56  1  0.99993700  0.81749300  0.33129300  1
  C  C57  1  0.22299100  0.75852000  0.08902200  1
  C  C58  1  0.74338100  0.49479800  0.50965000  1
  C  C59  1  0.56094400  0.57024600  0.35063300  1
  C  C60  1  0.00843800  0.73829900  0.51243200  1
  C  C61  1  0.74460400  0.42874300  0.69952700  1
  C  C62  1  0.25834700  0.50993000  0.99332200  1
  C  C63  1  0.30064400  0.51553600  0.81057100  1
  C  C64  1  0.70389900  0.48005000  0.19273600  1
  C  C65  1  0.73745300  0.49264000  0.00972300  1
  C  C66  1  0.26049200  0.58347100  0.29213400  1
  C  C67  1  0.99736000  0.26308100  0.48704400  1
  C  C68  1  0.44071000  0.42743500  0.65046200  1
  C  C69  1  0.26141900  0.50969500  0.48492800  1
  C  C70  1  0.78632500  0.23237400  0.91095900  1
  C  C71  1  0.00384000  0.18569800  0.66629400  1
  C  C72  1  0.06087700  0.48706900  0.90561500  1
  C  C73  1  0.95364700  0.25120400  0.20494700  1
  C  C74  1  0.43032200  0.44238300  0.14788100  1
  C  C75  1  0.50664900  0.26007700  0.98699900  1
  C  C76  1  0.57742800  0.25513300  0.79526900  1
  C  C77  1  0.01975400  0.54137200  0.40426000  1
  C  C78  1  0.76049400  0.21880600  0.59046200  1
  C  C79  1  0.76938300  0.24797800  0.39383300  1
  C  C80  1  0.52144700  0.30201100  0.30651500  1
  C  C81  1  0.07800900  0.36198200  0.75755900  1
  C  C82  1  0.51034300  0.25552300  0.49681400  1
  C  C83  1  0.75113700  0.22778000  0.10813200  1
  C  C84  1  0.27008900  0.23984300  0.62508600  1
  C  C85  1  0.81427500  0.99457100  0.83274200  1
  C  C86  1  0.11662600  0.35039800  0.27595600  1
  C  C87  1  0.33474000  0.14341600  0.79035900  1
  C  C88  1  0.52133300  0.03529800  0.90968800  1
  C  C89  1  0.24070000  0.26077700  0.11936100  1
  C  C90  1  0.74122300  0.05126200  0.29260500  1
  C  C91  1  0.49171900  0.05533400  0.40507200  1
  C  C92  1  0.07929700  0.10907700  0.84675600  1
  C  C93  1  0.73764800  0.00127700  0.01247000  1
  C  C94  1  0.35633900  0.08484500  0.25998400  1
  C  C95  1  0.00269000  0.25139900  0.01565900  1
  C  C96  1  0.25538900  0.99708900  0.51877900  1
  C  C97  1  0.09750000  0.08537300  0.34650200  1
