# generated using pymatgen
data_Cu3Ni8C7
_symmetry_space_group_name_H-M   'P 1'
_cell_length_a   18.85394900
_cell_length_b   6.43187600
_cell_length_c   15.85544635
_cell_angle_alpha   73.62426791
_cell_angle_beta   90.00000000
_cell_angle_gamma   90.00000000
_symmetry_Int_Tables_number   1
_chemical_formula_structural   Cu3Ni8C7
_chemical_formula_sum   'Cu12 Ni32 C28'
_cell_volume   1844.73221024
_cell_formula_units_Z   4
loop_
 _symmetry_equiv_pos_site_id
 _symmetry_equiv_pos_as_xyz
  1  'x, y, z'
loop_
 _atom_site_type_symbol
 _atom_site_label
 _atom_site_symmetry_multiplicity
 _atom_site_fract_x
 _atom_site_fract_y
 _atom_site_fract_z
 _atom_site_occupancy
  C  C0  1  0.47971700  0.53440300  0.75185300  1
  C  C1  1  0.97971700  0.46559700  0.74814700  1
  C  C2  1  0.02028300  0.53440300  0.25185300  1
  C  C3  1  0.52028300  0.46559700  0.24814700  1
  C  C4  1  0.66091900  0.00250800  0.04686000  1
  C  C5  1  0.33649700  0.07647300  0.55017100  1
  C  C6  1  0.73816200  0.66605700  0.04093400  1
  C  C7  1  0.83649700  0.92352700  0.94982900  1
  C  C8  1  0.70510600  0.96720100  0.60174900  1
  C  C9  1  0.16350300  0.07647300  0.05017100  1
  C  C10  1  0.79734200  0.95905200  0.39481600  1
  C  C11  1  0.16091900  0.99749200  0.45314000  1
  C  C12  1  0.33908100  0.99749200  0.95314000  1
  C  C13  1  0.25921700  0.74011000  0.54426900  1
  C  C14  1  0.24078300  0.74011000  0.04426900  1
  C  C15  1  0.83908100  0.00250800  0.54686000  1
  C  C16  1  0.23816200  0.33394300  0.45906600  1
  C  C17  1  0.74078300  0.25989000  0.45573100  1
  C  C18  1  0.75921700  0.25989000  0.95573100  1
  C  C19  1  0.76183800  0.66605700  0.54093400  1
  C  C20  1  0.66350300  0.92352700  0.44982900  1
  C  C21  1  0.29489400  0.03279900  0.39825100  1
  C  C22  1  0.26183800  0.33394300  0.95906600  1
  C  C23  1  0.29734200  0.04094800  0.10518400  1
  C  C24  1  0.20510600  0.03279900  0.89825100  1
  C  C25  1  0.79489400  0.96720100  0.10174900  1
  C  C26  1  0.20265800  0.04094800  0.60518400  1
  C  C27  1  0.70265800  0.95905200  0.89481600  1
  Ni  Ni28  1  0.21949800  0.73290100  0.39419700  1
  Ni  Ni29  1  0.28050200  0.73290100  0.89419700  1
  Ni  Ni30  1  0.77791600  0.65869000  0.89098600  1
  Ni  Ni31  1  0.86054800  0.65690900  0.08862900  1
  Ni  Ni32  1  0.79643100  0.19717800  0.81996500  1
  Ni  Ni33  1  0.86307100  0.26883200  0.40799300  1
  Ni  Ni34  1  0.38247400  0.27959400  0.01189000  1
  Ni  Ni35  1  0.27791600  0.34131000  0.60901400  1
  Ni  Ni36  1  0.71949800  0.26709900  0.10580300  1
  Ni  Ni37  1  0.13692900  0.73116800  0.59200700  1
  Ni  Ni38  1  0.87981900  0.20586100  0.00830800  1
  Ni  Ni39  1  0.79884800  0.72918800  0.67683200  1
  Ni  Ni40  1  0.63945200  0.65690900  0.58862900  1
  Ni  Ni41  1  0.36054800  0.34309100  0.41137100  1
  Ni  Ni42  1  0.37981900  0.79413900  0.49169200  1
  Ni  Ni43  1  0.62018100  0.20586100  0.50830800  1
  Ni  Ni44  1  0.70115200  0.72918800  0.17683200  1
  Ni  Ni45  1  0.11752600  0.27959400  0.51189000  1
  Ni  Ni46  1  0.29643100  0.80282200  0.68003500  1
  Ni  Ni47  1  0.70356900  0.19717800  0.31996500  1
  Ni  Ni48  1  0.12018100  0.79413900  0.99169200  1
  Ni  Ni49  1  0.29884800  0.27081200  0.82316800  1
  Ni  Ni50  1  0.20356900  0.80282200  0.18003500  1
  Ni  Ni51  1  0.61752600  0.72040600  0.98811000  1
  Ni  Ni52  1  0.72208400  0.65869000  0.39098600  1
  Ni  Ni53  1  0.78050200  0.26709900  0.60580300  1
  Ni  Ni54  1  0.13945200  0.34309100  0.91137100  1
  Ni  Ni55  1  0.88247400  0.72040600  0.48811000  1
  Ni  Ni56  1  0.20115200  0.27081200  0.32316800  1
  Ni  Ni57  1  0.36307100  0.73116800  0.09200700  1
  Ni  Ni58  1  0.63692900  0.26883200  0.90799300  1
  Ni  Ni59  1  0.22208400  0.34131000  0.10901400  1
  Cu  Cu60  1  0.13256200  0.03251100  0.75281900  1
  Cu  Cu61  1  0.54112900  0.05265900  0.11563500  1
  Cu  Cu62  1  0.86743800  0.96748900  0.24718100  1
  Cu  Cu63  1  0.45887100  0.94734100  0.88436500  1
  Cu  Cu64  1  0.36743800  0.03251100  0.25281900  1
  Cu  Cu65  1  0.54357300  0.87396300  0.38150900  1
  Cu  Cu66  1  0.63256200  0.96748900  0.74718100  1
  Cu  Cu67  1  0.45642700  0.12603700  0.61849100  1
  Cu  Cu68  1  0.04112900  0.94734100  0.38436500  1
  Cu  Cu69  1  0.95887100  0.05265900  0.61563500  1
  Cu  Cu70  1  0.04357300  0.12603700  0.11849100  1
  Cu  Cu71  1  0.95642700  0.87396300  0.88150900  1
