# generated using pymatgen
data_Cu2Ni2C3
_symmetry_space_group_name_H-M   'P 1'
_cell_length_a   6.95886226
_cell_length_b   6.95886226
_cell_length_c   6.95886226
_cell_angle_alpha   109.47122063
_cell_angle_beta   109.47122063
_cell_angle_gamma   109.47122063
_symmetry_Int_Tables_number   1
_chemical_formula_structural   Cu2Ni2C3
_chemical_formula_sum   'Cu4 Ni4 C6'
_cell_volume   259.41365380
_cell_formula_units_Z   2
loop_
 _symmetry_equiv_pos_site_id
 _symmetry_equiv_pos_as_xyz
  1  'x, y, z'
loop_
 _atom_site_type_symbol
 _atom_site_label
 _atom_site_symmetry_multiplicity
 _atom_site_fract_x
 _atom_site_fract_y
 _atom_site_fract_z
 _atom_site_occupancy
  C  C0  1  0.26768700  0.25000000  0.51768700  1
  C  C1  1  0.23231300  0.75000000  0.98231300  1
  C  C2  1  0.98231300  0.23231300  0.75000000  1
  C  C3  1  0.75000000  0.98231300  0.23231300  1
  C  C4  1  0.51768700  0.26768700  0.25000000  1
  C  C5  1  0.25000000  0.51768700  0.26768700  1
  Ni  Ni6  1  0.00835900  0.00835900  0.00835900  1
  Ni  Ni7  1  0.50000000  0.00000000  0.49164100  1
  Ni  Ni8  1  0.49164100  0.50000000  0.00000000  1
  Ni  Ni9  1  0.00000000  0.49164100  0.50000000  1
  Cu  Cu10  1  0.95969000  0.50000000  0.00000000  1
  Cu  Cu11  1  0.50000000  0.00000000  0.95969000  1
  Cu  Cu12  1  0.00000000  0.95969000  0.50000000  1
  Cu  Cu13  1  0.54031000  0.54031000  0.54031000  1
