# generated using pymatgen
data_Cu28Ni5C12
_symmetry_space_group_name_H-M   'P 1'
_cell_length_a   10.61511726
_cell_length_b   10.61511726
_cell_length_c   24.38082300
_cell_angle_alpha   90.00000000
_cell_angle_beta   90.00000000
_cell_angle_gamma   119.99999540
_symmetry_Int_Tables_number   1
_chemical_formula_structural   Cu28Ni5C12
_chemical_formula_sum   'Cu56 Ni10 C24'
_cell_volume   2379.18714976
_cell_formula_units_Z   2
loop_
 _symmetry_equiv_pos_site_id
 _symmetry_equiv_pos_as_xyz
  1  'x, y, z'
loop_
 _atom_site_type_symbol
 _atom_site_label
 _atom_site_symmetry_multiplicity
 _atom_site_fract_x
 _atom_site_fract_y
 _atom_site_fract_z
 _atom_site_occupancy
  C  C0  1  0.79233400  0.10775900  0.42869600  1
  C  C1  1  0.79897100  0.11555900  0.18902300  1
  C  C2  1  0.79246200  0.09609300  0.67183000  1
  C  C3  1  0.79893200  0.10598500  0.92733500  1
  C  C4  1  0.88444100  0.68341200  0.18902300  1
  C  C5  1  0.89224100  0.68457500  0.42869600  1
  C  C6  1  0.90390700  0.69636900  0.67183000  1
  C  C7  1  0.89401500  0.69294700  0.92733500  1
  C  C8  1  0.31658800  0.20102900  0.18902300  1
  C  C9  1  0.31542500  0.20766600  0.42869600  1
  C  C10  1  0.30363100  0.20753800  0.67183000  1
  C  C11  1  0.30705300  0.20106800  0.92733500  1
  C  C12  1  0.03501100  0.47122100  0.06129600  1
  C  C13  1  0.01945800  0.46366800  0.30791200  1
  C  C14  1  0.01092200  0.45320600  0.54496300  1
  C  C15  1  0.02735500  0.46504300  0.80346000  1
  C  C16  1  0.43621000  0.96498900  0.06129600  1
  C  C17  1  0.44421000  0.98054200  0.30791200  1
  C  C18  1  0.44228300  0.98907800  0.54496300  1
  C  C19  1  0.43768800  0.97264500  0.80346000  1
  C  C20  1  0.52877900  0.56379000  0.06129600  1
  C  C21  1  0.53633200  0.55579000  0.30791200  1
  C  C22  1  0.54679400  0.55771700  0.54496300  1
  C  C23  1  0.53495700  0.56231200  0.80346000  1
  Ni  Ni24  1  0.00000000  0.00000000  0.07625800  1
  Ni  Ni25  1  0.00000000  0.00000000  0.32717100  1
  Ni  Ni26  1  0.00000000  0.00000000  0.57283200  1
  Ni  Ni27  1  0.00000000  0.00000000  0.82178900  1
  Ni  Ni28  1  0.33333300  0.66666700  0.20531100  1
  Ni  Ni29  1  0.33333300  0.66666700  0.45019300  1
  Ni  Ni30  1  0.33333300  0.66666700  0.69806200  1
  Ni  Ni31  1  0.33333300  0.66666700  0.95277400  1
  Ni  Ni32  1  0.66666700  0.33333300  0.73430000  1
  Ni  Ni33  1  0.66666700  0.33333300  0.98598800  1
  Cu  Cu34  1  0.75339100  0.19401700  0.03764800  1
  Cu  Cu35  1  0.76116100  0.17220800  0.30086400  1
  Cu  Cu36  1  0.75348000  0.18505800  0.79282900  1
  Cu  Cu37  1  0.75583300  0.16330600  0.55210600  1
  Cu  Cu38  1  0.77211600  0.85512300  0.36432500  1
  Cu  Cu39  1  0.77161700  0.85955800  0.11255400  1
  Cu  Cu40  1  0.77123700  0.84823000  0.61112100  1
  Cu  Cu41  1  0.77211800  0.85467600  0.85987700  1
  Cu  Cu42  1  0.08794100  0.22838300  0.11255400  1
  Cu  Cu43  1  0.08300700  0.22788400  0.36432500  1
  Cu  Cu44  1  0.08255800  0.22788200  0.85987700  1
  Cu  Cu45  1  0.07699300  0.22876300  0.61112100  1
  Cu  Cu46  1  0.00000000  0.00000000  0.23364500  1
  Cu  Cu47  1  0.00000000  0.00000000  0.48111100  1
  Cu  Cu48  1  0.00000000  0.00000000  0.72988300  1
  Cu  Cu49  1  0.00000000  0.00000000  0.98204200  1
  Cu  Cu50  1  0.80598300  0.55937400  0.03764800  1
  Cu  Cu51  1  0.82779200  0.58895300  0.30086400  1
  Cu  Cu52  1  0.83669400  0.59252700  0.55210600  1
  Cu  Cu53  1  0.81494200  0.56842100  0.79282900  1
  Cu  Cu54  1  0.14487700  0.91699300  0.36432500  1
  Cu  Cu55  1  0.14044200  0.91205900  0.11255400  1
  Cu  Cu56  1  0.14532400  0.91744200  0.85987700  1
  Cu  Cu57  1  0.15177000  0.92300700  0.61112100  1
  Cu  Cu58  1  0.92468900  0.43120600  0.17145500  1
  Cu  Cu59  1  0.92224600  0.42443400  0.42583600  1
  Cu  Cu60  1  0.89827600  0.41313000  0.68344900  1
  Cu  Cu61  1  0.91069900  0.42230700  0.92545800  1
  Cu  Cu62  1  0.44062600  0.24660900  0.03764800  1
  Cu  Cu63  1  0.41104700  0.23883900  0.30086400  1
  Cu  Cu64  1  0.40747300  0.24416700  0.55210600  1
  Cu  Cu65  1  0.43157900  0.24652000  0.79282900  1
  Cu  Cu66  1  0.18948700  0.75211600  0.24037900  1
  Cu  Cu67  1  0.18735300  0.74834000  0.48781800  1
  Cu  Cu68  1  0.18814400  0.74904500  0.73711100  1
  Cu  Cu69  1  0.18740100  0.75030300  0.98866000  1
  Cu  Cu70  1  0.50651700  0.07531100  0.17145500  1
  Cu  Cu71  1  0.50218800  0.07775400  0.42583600  1
  Cu  Cu72  1  0.51485400  0.10172400  0.68344900  1
  Cu  Cu73  1  0.51160800  0.08930100  0.92545800  1
  Cu  Cu74  1  0.33333300  0.66666700  0.11080600  1
  Cu  Cu75  1  0.33333300  0.66666700  0.35772400  1
  Cu  Cu76  1  0.33333300  0.66666700  0.85943900  1
  Cu  Cu77  1  0.33333300  0.66666700  0.60670400  1
  Cu  Cu78  1  0.25166000  0.43901300  0.48781800  1
  Cu  Cu79  1  0.25095500  0.43909800  0.73711100  1
  Cu  Cu80  1  0.24788400  0.43737100  0.24037900  1
  Cu  Cu81  1  0.24969700  0.43709800  0.98866000  1
  Cu  Cu82  1  0.56262900  0.81051300  0.24037900  1
  Cu  Cu83  1  0.56098700  0.81264700  0.48781800  1
  Cu  Cu84  1  0.56090200  0.81185600  0.73711100  1
  Cu  Cu85  1  0.56290200  0.81259900  0.98866000  1
  Cu  Cu86  1  0.56879400  0.49348300  0.17145500  1
  Cu  Cu87  1  0.57769300  0.48839200  0.92545800  1
  Cu  Cu88  1  0.57556600  0.49781200  0.42583600  1
  Cu  Cu89  1  0.58687000  0.48514600  0.68344900  1
