# generated using pymatgen
data_Cu7(Ni8C3)2
_symmetry_space_group_name_H-M   'P 1'
_cell_length_a   8.14128241
_cell_length_b   8.14128241
_cell_length_c   8.14128241
_cell_angle_alpha   60.00000000
_cell_angle_beta   60.00000000
_cell_angle_gamma   60.00000000
_symmetry_Int_Tables_number   1
_chemical_formula_structural   Cu7(Ni8C3)2
_chemical_formula_sum   'Cu7 Ni16 C6'
_cell_volume   381.56054682
_cell_formula_units_Z   1
loop_
 _symmetry_equiv_pos_site_id
 _symmetry_equiv_pos_as_xyz
  1  'x, y, z'
loop_
 _atom_site_type_symbol
 _atom_site_label
 _atom_site_symmetry_multiplicity
 _atom_site_fract_x
 _atom_site_fract_y
 _atom_site_fract_z
 _atom_site_occupancy
  C  C0  1  0.20277600  0.79722400  0.79722400  1
  C  C1  1  0.79722400  0.79722400  0.20277600  1
  C  C2  1  0.79722400  0.20277600  0.20277600  1
  C  C3  1  0.20277600  0.20277600  0.79722400  1
  C  C4  1  0.79722400  0.20277600  0.79722400  1
  C  C5  1  0.20277600  0.79722400  0.20277600  1
  Ni  Ni6  1  0.62051000  0.62051000  0.13847100  1
  Ni  Ni7  1  0.16886900  0.49339300  0.16886900  1
  Ni  Ni8  1  0.86152900  0.37949000  0.37949000  1
  Ni  Ni9  1  0.50660700  0.83113100  0.83113100  1
  Ni  Ni10  1  0.49339300  0.16886900  0.16886900  1
  Ni  Ni11  1  0.83113100  0.83113100  0.50660700  1
  Ni  Ni12  1  0.16886900  0.16886900  0.49339300  1
  Ni  Ni13  1  0.13847100  0.62051000  0.62051000  1
  Ni  Ni14  1  0.16886900  0.16886900  0.16886900  1
  Ni  Ni15  1  0.37949000  0.37949000  0.86152900  1
  Ni  Ni16  1  0.62051000  0.62051000  0.62051000  1
  Ni  Ni17  1  0.37949000  0.86152900  0.37949000  1
  Ni  Ni18  1  0.37949000  0.37949000  0.37949000  1
  Ni  Ni19  1  0.83113100  0.83113100  0.83113100  1
  Ni  Ni20  1  0.62051000  0.13847100  0.62051000  1
  Ni  Ni21  1  0.83113100  0.50660700  0.83113100  1
  Cu  Cu22  1  0.50000000  0.00000000  0.50000000  1
  Cu  Cu23  1  0.50000000  0.50000000  0.00000000  1
  Cu  Cu24  1  0.50000000  0.50000000  0.50000000  1
  Cu  Cu25  1  0.00000000  0.00000000  0.50000000  1
  Cu  Cu26  1  0.00000000  0.50000000  0.00000000  1
  Cu  Cu27  1  0.00000000  0.50000000  0.50000000  1
  Cu  Cu28  1  0.50000000  0.00000000  0.00000000  1
