# generated using pymatgen
data_Cu2NiC9
_symmetry_space_group_name_H-M   'P 1'
_cell_length_a   5.73648600
_cell_length_b   9.04914700
_cell_length_c   15.09714000
_cell_angle_alpha   90.00000000
_cell_angle_beta   90.00000000
_cell_angle_gamma   90.00000000
_symmetry_Int_Tables_number   1
_chemical_formula_structural   Cu2NiC9
_chemical_formula_sum   'Cu8 Ni4 C36'
_cell_volume   783.69714320
_cell_formula_units_Z   4
loop_
 _symmetry_equiv_pos_site_id
 _symmetry_equiv_pos_as_xyz
  1  'x, y, z'
loop_
 _atom_site_type_symbol
 _atom_site_label
 _atom_site_symmetry_multiplicity
 _atom_site_fract_x
 _atom_site_fract_y
 _atom_site_fract_z
 _atom_site_occupancy
  C  C0  1  0.75000000  0.55937400  0.88290300  1
  C  C1  1  0.75000000  0.94062600  0.38290300  1
  C  C2  1  0.25000000  0.44062600  0.11709700  1
  C  C3  1  0.25000000  0.05937400  0.61709700  1
  Ni  Ni4  1  0.75000000  0.82173200  0.12109400  1
  Ni  Ni5  1  0.25000000  0.32173200  0.37890600  1
  Ni  Ni6  1  0.25000000  0.17826800  0.87890600  1
  Ni  Ni7  1  0.75000000  0.67826800  0.62109400  1
  Cu  Cu8  1  0.25000000  0.70477300  0.47071100  1
  Cu  Cu9  1  0.75000000  0.98744000  0.77969000  1
  Cu  Cu10  1  0.75000000  0.20477300  0.02928900  1
  Cu  Cu11  1  0.25000000  0.01256000  0.22031000  1
  Cu  Cu12  1  0.25000000  0.79522700  0.97071100  1
  Cu  Cu13  1  0.75000000  0.29522700  0.52928900  1
  Cu  Cu14  1  0.75000000  0.51256000  0.27969000  1
  Cu  Cu15  1  0.25000000  0.48744000  0.72031000  1
  C  C16  1  0.98809200  0.90125300  0.20721800  1
  C  C17  1  0.98809200  0.59874700  0.70721800  1
  C  C18  1  0.00412800  0.24757200  0.46354900  1
  C  C19  1  0.25000000  0.12071800  0.32174300  1
  C  C20  1  0.49587200  0.24757200  0.46354900  1
  C  C21  1  0.75000000  0.64100000  0.36581200  1
  C  C22  1  0.51190800  0.90125300  0.20721800  1
  C  C23  1  0.75000000  0.48657500  0.55872000  1
  C  C24  1  0.48809200  0.40125300  0.29278200  1
  C  C25  1  0.75000000  0.62071800  0.17825700  1
  C  C26  1  0.50412800  0.74757200  0.03645100  1
  C  C27  1  0.49587200  0.25242800  0.96354900  1
  C  C28  1  0.25000000  0.98657500  0.94128000  1
  C  C29  1  0.75000000  0.31899300  0.12399500  1
  C  C30  1  0.25000000  0.35900000  0.63418800  1
  C  C31  1  0.25000000  0.14100000  0.13418800  1
  C  C32  1  0.25000000  0.37928200  0.82174300  1
  C  C33  1  0.25000000  0.68100700  0.87600500  1
  C  C34  1  0.75000000  0.18100700  0.62399500  1
  C  C35  1  0.75000000  0.01342500  0.05872000  1
  C  C36  1  0.01190800  0.40125300  0.29278200  1
  C  C37  1  0.75000000  0.85900000  0.86581200  1
  C  C38  1  0.25000000  0.81899300  0.37600500  1
  C  C39  1  0.99587200  0.75242800  0.53645100  1
  C  C40  1  0.25000000  0.51342500  0.44128000  1
  C  C41  1  0.48809200  0.09874700  0.79278200  1
  C  C42  1  0.75000000  0.87928200  0.67825700  1
  C  C43  1  0.50412800  0.75242800  0.53645100  1
  C  C44  1  0.51190800  0.59874700  0.70721800  1
  C  C45  1  0.01190800  0.09874700  0.79278200  1
  C  C46  1  0.00412800  0.25242800  0.96354900  1
  C  C47  1  0.99587200  0.74757200  0.03645100  1
