# generated using pymatgen
data_Cu3Ni2C
_symmetry_space_group_name_H-M   'P 1'
_cell_length_a   12.09556598
_cell_length_b   9.98495861
_cell_length_c   7.76311899
_cell_angle_alpha   84.94396110
_cell_angle_beta   55.31505888
_cell_angle_gamma   39.74098002
_symmetry_Int_Tables_number   1
_chemical_formula_structural   Cu3Ni2C
_chemical_formula_sum   'Cu12 Ni8 C4'
_cell_volume   368.23745219
_cell_formula_units_Z   4
loop_
 _symmetry_equiv_pos_site_id
 _symmetry_equiv_pos_as_xyz
  1  'x, y, z'
loop_
 _atom_site_type_symbol
 _atom_site_label
 _atom_site_symmetry_multiplicity
 _atom_site_fract_x
 _atom_site_fract_y
 _atom_site_fract_z
 _atom_site_occupancy
  C  C0  1  0.80058400  0.46738800  0.55036400  1
  C  C1  1  0.18166400  0.55036400  0.46738800  1
  C  C2  1  0.44963600  0.81833600  0.19941600  1
  C  C3  1  0.53261200  0.19941600  0.81833600  1
  Ni  Ni4  1  0.07388300  0.33077100  0.69987000  1
  Ni  Ni5  1  0.89547600  0.69987000  0.33077100  1
  Ni  Ni6  1  0.30013000  0.10452400  0.92611700  1
  Ni  Ni7  1  0.66922900  0.92611700  0.10452400  1
  Ni  Ni8  1  0.33397200  0.84032900  0.66602800  1
  Ni  Ni9  1  0.15967100  0.66602800  0.84032900  1
  Ni  Ni10  1  0.48368900  0.51631100  0.05308200  1
  Ni  Ni11  1  0.94691800  0.05308200  0.51631100  1
  Cu  Cu12  1  0.92514900  0.22384100  0.78805700  1
  Cu  Cu13  1  0.06295300  0.78805700  0.22384100  1
  Cu  Cu14  1  0.21194300  0.93704700  0.07485100  1
  Cu  Cu15  1  0.77615900  0.07485100  0.93704700  1
  Cu  Cu16  1  0.73674400  0.76325600  0.76325600  1
  Cu  Cu17  1  0.23674400  0.26325600  0.26325600  1
  Cu  Cu18  1  0.62682000  0.13206100  0.37318000  1
  Cu  Cu19  1  0.86793900  0.37318000  0.13206100  1
  Cu  Cu20  1  0.55557800  0.86586100  0.44442200  1
  Cu  Cu21  1  0.13413900  0.44442200  0.86586100  1
  Cu  Cu22  1  0.51673000  0.48327000  0.70346000  1
  Cu  Cu23  1  0.29654000  0.70346000  0.48327000  1
