# generated using pymatgen
data_Cu7Ni5C7
_symmetry_space_group_name_H-M   'P 1'
_cell_length_a   7.23597900
_cell_length_b   10.53901500
_cell_length_c   25.93309700
_cell_angle_alpha   90.00000000
_cell_angle_beta   90.00000000
_cell_angle_gamma   90.00000000
_symmetry_Int_Tables_number   1
_chemical_formula_structural   Cu7Ni5C7
_chemical_formula_sum   'Cu56 Ni40 C56'
_cell_volume   1977.66034285
_cell_formula_units_Z   8
loop_
 _symmetry_equiv_pos_site_id
 _symmetry_equiv_pos_as_xyz
  1  'x, y, z'
loop_
 _atom_site_type_symbol
 _atom_site_label
 _atom_site_symmetry_multiplicity
 _atom_site_fract_x
 _atom_site_fract_y
 _atom_site_fract_z
 _atom_site_occupancy
  C  C0  1  0.18736300  0.87733800  0.47273100  1
  C  C1  1  0.31263700  0.37733800  0.52726900  1
  C  C2  1  0.81263700  0.62266200  0.97273100  1
  C  C3  1  0.31263700  0.87733800  0.97273100  1
  C  C4  1  0.81263700  0.12266200  0.52726900  1
  C  C5  1  0.18736300  0.37733800  0.02726900  1
  C  C6  1  0.68736300  0.62266200  0.47273100  1
  C  C7  1  0.68736300  0.12266200  0.02726900  1
  Ni  Ni8  1  0.86949100  0.75754100  0.25246000  1
  Ni  Ni9  1  0.98791200  0.67111000  0.61097300  1
  Ni  Ni10  1  0.41177400  0.43463500  0.76819500  1
  Ni  Ni11  1  0.68888300  0.76392000  0.33394000  1
  Ni  Ni12  1  0.37856200  0.11456100  0.79229500  1
  Ni  Ni13  1  0.58822600  0.56536500  0.23180500  1
  Ni  Ni14  1  0.41177400  0.93463500  0.73180500  1
  Ni  Ni15  1  0.08822600  0.43463500  0.26819500  1
  Ni  Ni16  1  0.48791200  0.32889000  0.88902700  1
  Ni  Ni17  1  0.13050900  0.74245900  0.75246000  1
  Ni  Ni18  1  0.36949100  0.74245900  0.25246000  1
  Ni  Ni19  1  0.98791200  0.17111000  0.88902700  1
  Ni  Ni20  1  0.36949100  0.24245900  0.24754000  1
  Ni  Ni21  1  0.08822600  0.93463500  0.23180500  1
  Ni  Ni22  1  0.62143800  0.38543900  0.29229500  1
  Ni  Ni23  1  0.31111700  0.73608000  0.83394000  1
  Ni  Ni24  1  0.48791200  0.82889000  0.61097300  1
  Ni  Ni25  1  0.31111700  0.23608000  0.66606000  1
  Ni  Ni26  1  0.91177400  0.06536500  0.76819500  1
  Ni  Ni27  1  0.87856200  0.88543900  0.70770500  1
  Ni  Ni28  1  0.91177400  0.56536500  0.73180500  1
  Ni  Ni29  1  0.51208800  0.17111000  0.38902700  1
  Ni  Ni30  1  0.87856200  0.38543900  0.79229500  1
  Ni  Ni31  1  0.12143800  0.11456100  0.29229500  1
  Ni  Ni32  1  0.13050900  0.24245900  0.74754000  1
  Ni  Ni33  1  0.63050900  0.25754100  0.74754000  1
  Ni  Ni34  1  0.18888300  0.73608000  0.33394000  1
  Ni  Ni35  1  0.81111700  0.26392000  0.66606000  1
  Ni  Ni36  1  0.58822600  0.06536500  0.26819500  1
  Ni  Ni37  1  0.86949100  0.25754100  0.24754000  1
  Ni  Ni38  1  0.63050900  0.75754100  0.75246000  1
  Ni  Ni39  1  0.01208800  0.32889000  0.38902700  1
  Ni  Ni40  1  0.81111700  0.76392000  0.83394000  1
  Ni  Ni41  1  0.68888300  0.26392000  0.16606000  1
  Ni  Ni42  1  0.18888300  0.23608000  0.16606000  1
  Ni  Ni43  1  0.62143800  0.88543900  0.20770500  1
  Ni  Ni44  1  0.01208800  0.82889000  0.11097300  1
  Ni  Ni45  1  0.37856200  0.61456100  0.70770500  1
  Ni  Ni46  1  0.51208800  0.67111000  0.11097300  1
  Ni  Ni47  1  0.12143800  0.61456100  0.20770500  1
  Cu  Cu48  1  0.11348800  0.16296000  0.72093000  1
  Cu  Cu49  1  0.42795800  0.45821800  0.34818300  1
  Cu  Cu50  1  0.02563400  0.35321400  0.88552900  1
  Cu  Cu51  1  0.50806300  0.06420600  0.23255200  1
  Cu  Cu52  1  0.97436600  0.64678600  0.11447100  1
  Cu  Cu53  1  0.78534600  0.34018700  0.17511000  1
  Cu  Cu54  1  0.28534600  0.15981300  0.17511000  1
  Cu  Cu55  1  0.38651200  0.16296000  0.22093000  1
  Cu  Cu56  1  0.21465400  0.15981300  0.67511000  1
  Cu  Cu57  1  0.47343900  0.53756900  0.69844300  1
  Cu  Cu58  1  0.19432300  0.55888900  0.85951200  1
  Cu  Cu59  1  0.11348800  0.66296000  0.77907000  1
  Cu  Cu60  1  0.57204200  0.04178200  0.84818300  1
  Cu  Cu61  1  0.42795800  0.95821800  0.15181700  1
  Cu  Cu62  1  0.47436600  0.85321400  0.11447100  1
  Cu  Cu63  1  0.97436600  0.14678600  0.38552900  1
  Cu  Cu64  1  0.97343900  0.46243100  0.80155700  1
  Cu  Cu65  1  0.49193700  0.43579400  0.73255200  1
  Cu  Cu66  1  0.47436600  0.35321400  0.38552900  1
  Cu  Cu67  1  0.61348800  0.83704000  0.77907000  1
  Cu  Cu68  1  0.52656100  0.96243100  0.19844300  1
  Cu  Cu69  1  0.50806300  0.56420600  0.26744800  1
  Cu  Cu70  1  0.00806300  0.93579400  0.26744800  1
  Cu  Cu71  1  0.07204200  0.95821800  0.65181700  1
  Cu  Cu72  1  0.71465400  0.84018700  0.82489000  1
  Cu  Cu73  1  0.99193700  0.56420600  0.76744800  1
  Cu  Cu74  1  0.88651200  0.83704000  0.27907000  1
  Cu  Cu75  1  0.00806300  0.43579400  0.23255200  1
  Cu  Cu76  1  0.02563400  0.85321400  0.61447100  1
  Cu  Cu77  1  0.52656100  0.46243100  0.30155700  1
  Cu  Cu78  1  0.02656100  0.53756900  0.19844300  1
  Cu  Cu79  1  0.69432300  0.94111100  0.85951200  1
  Cu  Cu80  1  0.69432300  0.44111100  0.64048800  1
  Cu  Cu81  1  0.52563400  0.64678600  0.61447100  1
  Cu  Cu82  1  0.80567700  0.94111100  0.35951200  1
  Cu  Cu83  1  0.30567700  0.05888900  0.14048800  1
  Cu  Cu84  1  0.07204200  0.45821800  0.84818300  1
  Cu  Cu85  1  0.02656100  0.03756900  0.30155700  1
  Cu  Cu86  1  0.61348800  0.33704000  0.72093000  1
  Cu  Cu87  1  0.21465400  0.65981300  0.82489000  1
  Cu  Cu88  1  0.78534600  0.84018700  0.32489000  1
  Cu  Cu89  1  0.71465400  0.34018700  0.67511000  1
  Cu  Cu90  1  0.92795800  0.54178200  0.15181700  1
  Cu  Cu91  1  0.47343900  0.03756900  0.80155700  1
  Cu  Cu92  1  0.57204200  0.54178200  0.65181700  1
  Cu  Cu93  1  0.19432300  0.05888900  0.64048800  1
  Cu  Cu94  1  0.97343900  0.96243100  0.69844300  1
  Cu  Cu95  1  0.49193700  0.93579400  0.76744800  1
  Cu  Cu96  1  0.38651200  0.66296000  0.27907000  1
  Cu  Cu97  1  0.99193700  0.06420600  0.73255200  1
  Cu  Cu98  1  0.30567700  0.55888900  0.35951200  1
  Cu  Cu99  1  0.80567700  0.44111100  0.14048800  1
  Cu  Cu100  1  0.52563400  0.14678600  0.88552900  1
  Cu  Cu101  1  0.88651200  0.33704000  0.22093000  1
  Cu  Cu102  1  0.28534600  0.65981300  0.32489000  1
  Cu  Cu103  1  0.92795800  0.04178200  0.34818300  1
  C  C104  1  0.16592000  0.56369800  0.41718600  1
  C  C105  1  0.33408000  0.56369800  0.91718600  1
  C  C106  1  0.66592000  0.43630200  0.08281400  1
  C  C107  1  0.33408000  0.06369800  0.58281400  1
  C  C108  1  0.83408000  0.93630200  0.91718600  1
  C  C109  1  0.16592000  0.06369800  0.08281400  1
  C  C110  1  0.66592000  0.93630200  0.41718600  1
  C  C111  1  0.83408000  0.43630200  0.58281400  1
  C  C112  1  0.98520900  0.34745500  0.59319200  1
  C  C113  1  0.53788500  0.26171400  0.86422200  1
  C  C114  1  0.47252100  0.12648600  0.92977700  1
  C  C115  1  0.97252100  0.87351400  0.57022300  1
  C  C116  1  0.52747900  0.37351400  0.42977700  1
  C  C117  1  0.40033400  0.93226200  0.57390700  1
  C  C118  1  0.28616600  0.10549200  0.04049800  1
  C  C119  1  0.48520900  0.65254500  0.90680800  1
  C  C120  1  0.28616600  0.60549200  0.45950200  1
  C  C121  1  0.59966600  0.06773800  0.42609300  1
  C  C122  1  0.51479100  0.34745500  0.09319200  1
  C  C123  1  0.71383400  0.89450800  0.95950200  1
  C  C124  1  0.02747900  0.62648600  0.07022300  1
  C  C125  1  0.51479100  0.84745500  0.40680800  1
  C  C126  1  0.96211500  0.26171400  0.36422200  1
  C  C127  1  0.02747900  0.12648600  0.42977700  1
  C  C128  1  0.46211500  0.23828600  0.36422200  1
  C  C129  1  0.71383400  0.39450800  0.54049800  1
  C  C130  1  0.78616600  0.89450800  0.45950200  1
  C  C131  1  0.01479100  0.15254500  0.09319200  1
  C  C132  1  0.98520900  0.84745500  0.90680800  1
  C  C133  1  0.09966600  0.93226200  0.07390700  1
  C  C134  1  0.21383400  0.10549200  0.54049800  1
  C  C135  1  0.52747900  0.87351400  0.07022300  1
  C  C136  1  0.53788500  0.76171400  0.63577800  1
  C  C137  1  0.03788500  0.23828600  0.86422200  1
  C  C138  1  0.90033400  0.06773800  0.92609300  1
  C  C139  1  0.78616600  0.39450800  0.04049800  1
  C  C140  1  0.03788500  0.73828600  0.63577800  1
  C  C141  1  0.48520900  0.15254500  0.59319200  1
  C  C142  1  0.46211500  0.73828600  0.13577800  1
  C  C143  1  0.01479100  0.65254500  0.40680800  1
  C  C144  1  0.96211500  0.76171400  0.13577800  1
  C  C145  1  0.47252100  0.62648600  0.57022300  1
  C  C146  1  0.90033400  0.56773800  0.57390700  1
  C  C147  1  0.40033400  0.43226200  0.92609300  1
  C  C148  1  0.59966600  0.56773800  0.07390700  1
  C  C149  1  0.21383400  0.60549200  0.95950200  1
  C  C150  1  0.09966600  0.43226200  0.42609300  1
  C  C151  1  0.97252100  0.37351400  0.92977700  1
