# generated using pymatgen
data_Cu2Ni2C7
_symmetry_space_group_name_H-M   'P 1'
_cell_length_a   6.01208900
_cell_length_b   8.04678600
_cell_length_c   12.00607500
_cell_angle_alpha   90.00000000
_cell_angle_beta   90.00000000
_cell_angle_gamma   90.00000000
_symmetry_Int_Tables_number   1
_chemical_formula_structural   Cu2Ni2C7
_chemical_formula_sum   'Cu8 Ni8 C28'
_cell_volume   580.82981946
_cell_formula_units_Z   4
loop_
 _symmetry_equiv_pos_site_id
 _symmetry_equiv_pos_as_xyz
  1  'x, y, z'
loop_
 _atom_site_type_symbol
 _atom_site_label
 _atom_site_symmetry_multiplicity
 _atom_site_fract_x
 _atom_site_fract_y
 _atom_site_fract_z
 _atom_site_occupancy
  C  C0  1  0.50103900  0.75000000  0.49994500  1
  C  C1  1  0.00103900  0.75000000  0.00005500  1
  C  C2  1  0.49896100  0.25000000  0.50005500  1
  C  C3  1  0.99896100  0.25000000  0.99994500  1
  C  C4  1  0.29183600  0.75000000  0.70440700  1
  C  C5  1  0.79183600  0.75000000  0.79559300  1
  C  C6  1  0.70816400  0.25000000  0.29559300  1
  C  C7  1  0.20816400  0.25000000  0.20440700  1
  C  C8  1  0.13584500  0.85111500  0.61503200  1
  C  C9  1  0.63584500  0.64888500  0.88496800  1
  C  C10  1  0.86415500  0.35111500  0.38496800  1
  C  C11  1  0.36415500  0.14888500  0.11503200  1
  C  C12  1  0.86415500  0.14888500  0.38496800  1
  C  C13  1  0.36415500  0.35111500  0.11503200  1
  C  C14  1  0.13584500  0.64888500  0.61503200  1
  C  C15  1  0.63584500  0.85111500  0.88496800  1
  C  C16  1  0.91369200  0.75000000  0.39839200  1
  C  C17  1  0.41369200  0.75000000  0.10160800  1
  C  C18  1  0.08630800  0.25000000  0.60160800  1
  C  C19  1  0.58630800  0.25000000  0.89839200  1
  C  C20  1  0.73918600  0.85062200  0.31840100  1
  C  C21  1  0.23918600  0.64937800  0.18159900  1
  C  C22  1  0.26081400  0.35062200  0.68159900  1
  C  C23  1  0.76081400  0.14937800  0.81840100  1
  C  C24  1  0.26081400  0.14937800  0.68159900  1
  C  C25  1  0.76081400  0.35062200  0.81840100  1
  C  C26  1  0.73918600  0.64937800  0.31840100  1
  C  C27  1  0.23918600  0.85062200  0.18159900  1
  Ni  Ni28  1  0.22174400  0.99916800  0.88682600  1
  Ni  Ni29  1  0.72174400  0.50083200  0.61317400  1
  Ni  Ni30  1  0.77825600  0.49916800  0.11317400  1
  Ni  Ni31  1  0.27825600  0.00083200  0.38682600  1
  Ni  Ni32  1  0.77825600  0.00083200  0.11317400  1
  Ni  Ni33  1  0.27825600  0.49916800  0.38682600  1
  Ni  Ni34  1  0.22174400  0.50083200  0.88682600  1
  Ni  Ni35  1  0.72174400  0.99916800  0.61317400  1
  Cu  Cu36  1  0.23922100  0.75000000  0.62298400  1
  Cu  Cu37  1  0.73922100  0.75000000  0.87701600  1
  Cu  Cu38  1  0.76077900  0.25000000  0.37701600  1
  Cu  Cu39  1  0.26077900  0.25000000  0.12298400  1
  Cu  Cu40  1  0.75190100  0.75000000  0.37088000  1
  Cu  Cu41  1  0.25190100  0.75000000  0.12912000  1
  Cu  Cu42  1  0.24809900  0.25000000  0.62912000  1
  Cu  Cu43  1  0.74809900  0.25000000  0.87088000  1
