# generated using pymatgen
data_Cu(NiC12)2
_symmetry_space_group_name_H-M   'P 1'
_cell_length_a   7.87271200
_cell_length_b   9.17386900
_cell_length_c   15.88216800
_cell_angle_alpha   90.00000000
_cell_angle_beta   90.00000000
_cell_angle_gamma   90.00000000
_symmetry_Int_Tables_number   1
_chemical_formula_structural   Cu(NiC12)2
_chemical_formula_sum   'Cu3 Ni6 C72'
_cell_volume   1147.06144954
_cell_formula_units_Z   3
loop_
 _symmetry_equiv_pos_site_id
 _symmetry_equiv_pos_as_xyz
  1  'x, y, z'
loop_
 _atom_site_type_symbol
 _atom_site_label
 _atom_site_symmetry_multiplicity
 _atom_site_fract_x
 _atom_site_fract_y
 _atom_site_fract_z
 _atom_site_occupancy
  Ni  Ni0  1  0.50000000  0.90537300  0.50000000  1
  Ni  Ni1  1  0.00000000  0.88694900  0.50000000  1
  Ni  Ni2  1  0.00000000  0.80333000  0.19554800  1
  Ni  Ni3  1  0.00000000  0.80333000  0.80445200  1
  Ni  Ni4  1  0.50000000  0.79723900  0.20286800  1
  Ni  Ni5  1  0.50000000  0.79723900  0.79713200  1
  Cu  Cu6  1  0.50000000  0.30168600  0.69877600  1
  Cu  Cu7  1  0.50000000  0.30168600  0.30122400  1
  Cu  Cu8  1  0.50000000  0.39790100  0.00000000  1
  C  C9  1  0.75003500  0.75927000  0.00000000  1
  C  C10  1  0.24625300  0.26471500  0.50000000  1
  C  C11  1  0.75374700  0.26471500  0.50000000  1
  C  C12  1  0.24786300  0.11708700  0.88179900  1
  C  C13  1  0.75213700  0.11708700  0.88179900  1
  C  C14  1  0.24786300  0.11708700  0.11820100  1
  C  C15  1  0.24996500  0.75927000  0.00000000  1
  C  C16  1  0.24862800  0.62050400  0.38032600  1
  C  C17  1  0.75137200  0.62050400  0.61967400  1
  C  C18  1  0.75137200  0.62050400  0.38032600  1
  C  C19  1  0.24862800  0.62050400  0.61967400  1
  C  C20  1  0.75213700  0.11708700  0.11820100  1
  C  C21  1  0.79407300  0.49586800  0.83378500  1
  C  C22  1  0.20592700  0.49586800  0.83378500  1
  C  C23  1  0.79182000  0.00440600  0.66704900  1
  C  C24  1  0.79182000  0.00440600  0.33295100  1
  C  C25  1  0.20818000  0.00440600  0.66704900  1
  C  C26  1  0.20818000  0.00440600  0.33295100  1
  C  C27  1  0.79407300  0.49586800  0.16621500  1
  C  C28  1  0.20592700  0.49586800  0.16621500  1
  C  C29  1  0.76151500  0.91070000  0.91204000  1
  C  C30  1  0.27451600  0.60211800  0.90923500  1
  C  C31  1  0.72548400  0.60211800  0.90923500  1
  C  C32  1  0.72626400  0.55848600  0.74361500  1
  C  C33  1  0.27373600  0.55848600  0.74361500  1
  C  C34  1  0.00000000  0.49833400  0.83423900  1
  C  C35  1  0.23926300  0.41368400  0.58782000  1
  C  C36  1  0.76073700  0.41368400  0.58782000  1
  C  C37  1  0.76073700  0.41368400  0.41218000  1
  C  C38  1  0.28313500  0.33335000  0.84839900  1
  C  C39  1  0.71686500  0.33335000  0.84839900  1
  C  C40  1  0.50000000  0.27039900  0.50000000  1
  C  C41  1  0.00000000  0.22717400  0.50000000  1
  C  C42  1  0.76121800  0.17660400  0.00000000  1
  C  C43  1  0.00000000  0.12787900  0.86543000  1
  C  C44  1  0.00000000  0.12787900  0.13457000  1
  C  C45  1  0.50000000  0.11864000  0.88573300  1
  C  C46  1  0.50000000  0.11864000  0.11426700  1
  C  C47  1  0.27862600  0.10706800  0.59146900  1
  C  C48  1  0.27862600  0.10706800  0.40853100  1
  C  C49  1  0.72137400  0.10706800  0.59146900  1
  C  C50  1  0.72137400  0.10706800  0.40853100  1
  C  C51  1  0.27893600  0.06431100  0.75691100  1
  C  C52  1  0.72106400  0.06431100  0.75691100  1
  C  C53  1  0.72106400  0.06431100  0.24308900  1
  C  C54  1  0.27893600  0.06431100  0.24308900  1
  C  C55  1  0.00000000  0.00298500  0.66734500  1
  C  C56  1  0.00000000  0.00298500  0.33265500  1
  C  C57  1  0.23848500  0.91070000  0.91204000  1
  C  C58  1  0.23848500  0.91070000  0.08796000  1
  C  C59  1  0.76151500  0.91070000  0.08796000  1
  C  C60  1  0.26896000  0.83589200  0.65295000  1
  C  C61  1  0.73104000  0.83589200  0.65295000  1
  C  C62  1  0.26896000  0.83589200  0.34705000  1
  C  C63  1  0.73104000  0.83589200  0.34705000  1
  C  C64  1  0.50000000  0.76266600  0.00000000  1
  C  C65  1  0.00000000  0.73552900  0.00000000  1
  C  C66  1  0.23868100  0.67516200  0.50000000  1
  C  C67  1  0.76131900  0.67516200  0.50000000  1
  C  C68  1  0.00000000  0.63959500  0.63379600  1
  C  C69  1  0.00000000  0.63959500  0.36620400  1
  C  C70  1  0.50000000  0.61461500  0.61909900  1
  C  C71  1  0.50000000  0.61461500  0.38090100  1
  C  C72  1  0.27451600  0.60211800  0.09076500  1
  C  C73  1  0.72548400  0.60211800  0.09076500  1
  C  C74  1  0.27373600  0.55848600  0.25638500  1
  C  C75  1  0.72626400  0.55848600  0.25638500  1
  C  C76  1  0.00000000  0.49833400  0.16576100  1
  C  C77  1  0.23926300  0.41368400  0.41218000  1
  C  C78  1  0.28313500  0.33335000  0.15160100  1
  C  C79  1  0.71686500  0.33335000  0.15160100  1
  C  C80  1  0.23878200  0.17660400  0.00000000  1
