# generated using pymatgen
data_Cu7Ni4C17
_symmetry_space_group_name_H-M   'P 1'
_cell_length_a   10.61885732
_cell_length_b   10.61885732
_cell_length_c   7.79692000
_cell_angle_alpha   90.00000000
_cell_angle_beta   90.00000000
_cell_angle_gamma   119.99999575
_symmetry_Int_Tables_number   1
_chemical_formula_structural   Cu7Ni4C17
_chemical_formula_sum   'Cu7 Ni4 C17'
_cell_volume   761.39373545
_cell_formula_units_Z   1
loop_
 _symmetry_equiv_pos_site_id
 _symmetry_equiv_pos_as_xyz
  1  'x, y, z'
loop_
 _atom_site_type_symbol
 _atom_site_label
 _atom_site_symmetry_multiplicity
 _atom_site_fract_x
 _atom_site_fract_y
 _atom_site_fract_z
 _atom_site_occupancy
  C  C0  1  0.46557400  0.93114800  0.14050100  1
  C  C1  1  0.27142500  0.13571300  0.61071200  1
  C  C2  1  0.46557400  0.53442600  0.14050100  1
  C  C3  1  0.33333300  0.66666700  0.53493200  1
  C  C4  1  0.00000000  0.00000000  0.21187900  1
  C  C5  1  0.86428700  0.72857500  0.61071200  1
  C  C6  1  0.06885200  0.53442600  0.14050100  1
  C  C7  1  0.86428700  0.13571300  0.61071200  1
  Ni  Ni8  1  0.33333300  0.66666700  0.86242400  1
  Ni  Ni9  1  0.66838700  0.83419400  0.38424100  1
  Ni  Ni10  1  0.16580600  0.83419400  0.38424100  1
  Ni  Ni11  1  0.16580600  0.33161300  0.38424100  1
  C  C12  1  0.51783200  0.03566400  0.67265100  1
  C  C13  1  0.51783200  0.48216800  0.67265100  1
  C  C14  1  0.73834100  0.86917000  0.91022800  1
  C  C15  1  0.79685400  0.59370900  0.21523100  1
  C  C16  1  0.13083000  0.86917000  0.91022800  1
  C  C17  1  0.96433600  0.48216800  0.67265100  1
  C  C18  1  0.40629100  0.20314600  0.21523100  1
  C  C19  1  0.79685400  0.20314600  0.21523100  1
  C  C20  1  0.13083000  0.26165900  0.91022800  1
  Cu  Cu21  1  0.10318000  0.89682000  0.44307800  1
  Cu  Cu22  1  0.33333300  0.66666700  0.01474900  1
  Cu  Cu23  1  0.79364000  0.89682000  0.44307800  1
  Cu  Cu24  1  0.22838800  0.45677600  0.32483000  1
  Cu  Cu25  1  0.22838800  0.77161200  0.32483000  1
  Cu  Cu26  1  0.10318000  0.20636000  0.44307800  1
  Cu  Cu27  1  0.54322400  0.77161200  0.32483000  1
