# generated using pymatgen
data_Cu2Ni3C40
_symmetry_space_group_name_H-M   'P 1'
_cell_length_a   9.33358700
_cell_length_b   15.93138700
_cell_length_c   18.40249900
_cell_angle_alpha   90.00000000
_cell_angle_beta   90.00000000
_cell_angle_gamma   90.00000000
_symmetry_Int_Tables_number   1
_chemical_formula_structural   Cu2Ni3C40
_chemical_formula_sum   'Cu8 Ni12 C160'
_cell_volume   2736.39614712
_cell_formula_units_Z   4
loop_
 _symmetry_equiv_pos_site_id
 _symmetry_equiv_pos_as_xyz
  1  'x, y, z'
loop_
 _atom_site_type_symbol
 _atom_site_label
 _atom_site_symmetry_multiplicity
 _atom_site_fract_x
 _atom_site_fract_y
 _atom_site_fract_z
 _atom_site_occupancy
  Ni  Ni0  1  0.99254900  0.55250900  0.33201200  1
  Ni  Ni1  1  0.92401900  0.03339500  0.43457200  1
  Ni  Ni2  1  0.57598100  0.96660500  0.93457200  1
  Ni  Ni3  1  0.00745100  0.05250900  0.16798800  1
  Ni  Ni4  1  0.50745100  0.44749100  0.83201200  1
  Ni  Ni5  1  0.42401900  0.46660500  0.56542800  1
  Ni  Ni6  1  0.56030700  0.51019900  0.09226300  1
  Ni  Ni7  1  0.49254900  0.94749100  0.66798800  1
  Ni  Ni8  1  0.43969300  0.01019900  0.40773700  1
  Ni  Ni9  1  0.07598100  0.53339500  0.06542800  1
  Ni  Ni10  1  0.06030700  0.98980100  0.90773700  1
  Ni  Ni11  1  0.93969300  0.48980100  0.59226300  1
  Cu  Cu12  1  0.35106800  0.94753000  0.21802100  1
  Cu  Cu13  1  0.85106800  0.55247000  0.78198000  1
  Cu  Cu14  1  0.14893200  0.05247000  0.71802000  1
  Cu  Cu15  1  0.57925700  0.08820000  0.13263500  1
  Cu  Cu16  1  0.64893200  0.44753000  0.28197900  1
  Cu  Cu17  1  0.42074300  0.58820000  0.36736500  1
  Cu  Cu18  1  0.07925700  0.41180000  0.86736500  1
  Cu  Cu19  1  0.92074300  0.91180000  0.63263500  1
  C  C20  1  0.28456100  0.72036200  0.24869100  1
  C  C21  1  0.78586500  0.80691500  0.25137400  1
  C  C22  1  0.21543900  0.27963800  0.74869100  1
  C  C23  1  0.28298700  0.79479500  0.00122700  1
  C  C24  1  0.78456100  0.77963800  0.75130900  1
  C  C25  1  0.71482100  0.29458200  0.99865000  1
  C  C26  1  0.71701300  0.29479500  0.49877300  1
  C  C27  1  0.21482100  0.20541800  0.00135000  1
  C  C28  1  0.21701300  0.20520500  0.50122700  1
  C  C29  1  0.78298700  0.70520500  0.99877300  1
  C  C30  1  0.21413500  0.30691500  0.24862600  1
  C  C31  1  0.71413500  0.19308500  0.75137400  1
  C  C32  1  0.28517900  0.79458200  0.50135000  1
  C  C33  1  0.78517900  0.70541800  0.49865000  1
  C  C34  1  0.71543900  0.22036200  0.25130900  1
  C  C35  1  0.28586500  0.69308500  0.74862600  1
  C  C36  1  0.18763800  0.99514600  0.55777700  1
  C  C37  1  0.02915200  0.77444500  0.37686300  1
  C  C38  1  0.46160500  0.24638500  0.37459200  1
  C  C39  1  0.68763800  0.50485400  0.44222300  1
  C  C40  1  0.81236200  0.49514600  0.94222300  1
  C  C41  1  0.46425300  0.24116700  0.62553300  1
  C  C42  1  0.46724000  0.27090700  0.12468700  1
  C  C43  1  0.17856300  0.49158000  0.73095300  1
  C  C44  1  0.96425300  0.25883300  0.37446700  1
  C  C45  1  0.32143700  0.50842000  0.23095300  1
  C  C46  1  0.52915200  0.72555500  0.62313700  1
  C  C47  1  0.03839500  0.75361500  0.87459200  1
  C  C48  1  0.67856300  0.00842000  0.26904700  1
  C  C49  1  0.47084800  0.22555500  0.87686300  1
  C  C50  1  0.96724000  0.22909300  0.87531300  1
  C  C51  1  0.03574700  0.75883300  0.12553300  1
  C  C52  1  0.31236200  0.00485400  0.05777700  1
  C  C53  1  0.53276000  0.77090700  0.37531300  1
  C  C54  1  0.03276000  0.72909300  0.62468700  1
  C  C55  1  0.53574700  0.74116700  0.87446700  1
  C  C56  1  0.82143700  0.99158000  0.76904700  1
  C  C57  1  0.97084800  0.27444500  0.12313700  1
  C  C58  1  0.53839500  0.74638500  0.12540800  1
  C  C59  1  0.96160500  0.25361500  0.62540800  1
  C  C60  1  0.83773200  0.50594900  0.18779800  1
  C  C61  1  0.16226800  0.00594900  0.31220200  1
  C  C62  1  0.83604400  0.00392000  0.03550000  1
  C  C63  1  0.66395600  0.99608000  0.53550000  1
  C  C64  1  0.33604400  0.49608000  0.96450000  1
  C  C65  1  0.33773200  0.99405100  0.81220200  1
  C  C66  1  0.16395600  0.50392000  0.46450000  1
  C  C67  1  0.66226800  0.49405100  0.68779800  1
  C  C68  1  0.45041600  0.68431100  0.82282200  1
  C  C69  1  0.43901400  0.80104000  0.92014600  1
  C  C70  1  0.30239400  0.69071500  0.47974400  1
  C  C71  1  0.79686800  0.98024900  0.85067700  1
  C  C72  1  0.87468400  0.31687800  0.57768500  1
  C  C73  1  0.94521300  0.70594600  0.41968300  1
  C  C74  1  0.70313200  0.01975100  0.35067700  1
  C  C75  1  0.56619000  0.20840300  0.16641500  1
  C  C76  1  0.44098800  0.83090100  0.42329700  1
  C  C77  1  0.12763200  0.82643800  0.42689200  1
  C  C78  1  0.62468800  0.68263800  0.92327500  1
  C  C79  1  0.25955200  0.68827300  0.00673600  1
  C  C80  1  0.86495700  0.19736300  0.33142600  1
  C  C81  1  0.63981500  0.80352200  0.16834500  1
  C  C82  1  0.47941900  0.49569900  0.24840800  1
  C  C83  1  0.62531600  0.68312200  0.07768500  1
  C  C84  1  0.53134000  0.53337800  0.44227000  1
  C  C85  1  0.21905000  0.43900100  0.26144400  1
  C  C86  1  0.19785200  0.20083100  0.23219100  1
  C  C87  1  0.87531200  0.31736200  0.42327500  1
  C  C88  1  0.05478700  0.20594600  0.08031700  1
  C  C89  1  0.94098800  0.66909900  0.57670300  1
  C  C90  1  0.56098600  0.30104000  0.57985400  1
  C  C91  1  0.29132800  0.92663100  0.52439000  1
  C  C92  1  0.69401100  0.32709300  0.26027400  1
  C  C93  1  0.29886400  0.92920000  0.00145300  1
  C  C94  1  0.44415600  0.80361300  0.07746700  1
  C  C95  1  0.13504300  0.69736300  0.16857400  1
  C  C96  1  0.07231200  0.33569500  0.16251800  1
  C  C97  1  0.12468800  0.81736200  0.07672500  1
  C  C98  1  0.79886400  0.57080000  0.99854700  1
  C  C99  1  0.79132700  0.57336900  0.47561000  1
  C  C100  1  0.69785200  0.29916900  0.76780900  1
  C  C101  1  0.57231200  0.16430500  0.83748200  1
  C  C102  1  0.78095000  0.93900100  0.23855600  1
  C  C103  1  0.86018500  0.19647800  0.66834500  1
  C  C104  1  0.06619000  0.29159700  0.83358500  1
  C  C105  1  0.80598900  0.67290700  0.76027400  1
  C  C106  1  0.88247800  0.17295500  0.82287600  1
  C  C107  1  0.92768800  0.83569500  0.33748200  1
  C  C108  1  0.37531200  0.18263800  0.57672500  1
  C  C109  1  0.43381000  0.70840300  0.33358500  1
  C  C110  1  0.44521300  0.79405400  0.58031700  1
  C  C111  1  0.61784800  0.77895800  0.67800100  1
  C  C112  1  0.12531600  0.81687800  0.92231500  1
  C  C113  1  0.05901200  0.16909900  0.92329700  1
  C  C114  1  0.52058100  0.99569900  0.25159200  1
  C  C115  1  0.05584400  0.19638700  0.57746700  1
  C  C116  1  0.13981500  0.69647800  0.83165500  1
  C  C117  1  0.97941900  0.00430100  0.75159200  1
  C  C118  1  0.24443600  0.01841400  0.63270400  1
  C  C119  1  0.29686800  0.51975100  0.14932300  1
  C  C120  1  0.11752200  0.67295500  0.67712400  1
  C  C121  1  0.93381000  0.79159700  0.66641500  1
  C  C122  1  0.71905000  0.06099900  0.73855600  1
  C  C123  1  0.75556400  0.51841400  0.86729600  1
  C  C124  1  0.42768800  0.66430500  0.66251800  1
  C  C125  1  0.74443600  0.48158600  0.36729600  1
  C  C126  1  0.62763200  0.67356200  0.57310800  1
  C  C127  1  0.94543600  0.80973000  0.82414500  1
  C  C128  1  0.72971200  0.09006600  0.22588900  1
  C  C129  1  0.20113600  0.07080000  0.50145300  1
  C  C130  1  0.20313200  0.48024900  0.64932300  1
  C  C131  1  0.87236800  0.32643800  0.07310800  1
  C  C132  1  0.24044800  0.31172700  0.50673600  1
  C  C133  1  0.70867300  0.42663100  0.97561000  1
  C  C134  1  0.22971200  0.40993400  0.77411100  1
  C  C135  1  0.63504300  0.80263700  0.83142600  1
  C  C136  1  0.03134000  0.96662200  0.55773000  1
  C  C137  1  0.38247800  0.32704500  0.17712400  1
  C  C138  1  0.30214800  0.79916900  0.73219100  1
  C  C139  1  0.36495700  0.30263700  0.66857400  1
  C  C140  1  0.55584400  0.30361300  0.42253300  1
  C  C141  1  0.46866000  0.03337800  0.05773000  1
  C  C142  1  0.80214800  0.70083100  0.26780900  1
  C  C143  1  0.11784800  0.72104200  0.32199900  1
  C  C144  1  0.13158400  0.78544700  0.57904200  1
  C  C145  1  0.27028800  0.59006600  0.27411100  1
  C  C146  1  0.02058100  0.50430100  0.74840800  1
  C  C147  1  0.37468400  0.18312200  0.42231500  1
  C  C148  1  0.94415600  0.69638700  0.92253300  1
  C  C149  1  0.55901200  0.33090100  0.07670300  1
  C  C150  1  0.86841600  0.28544700  0.92095800  1
  C  C151  1  0.05456400  0.30973000  0.67585500  1
  C  C152  1  0.20867200  0.07336900  0.02439000  1
  C  C153  1  0.28095000  0.56099900  0.76144400  1
  C  C154  1  0.80239400  0.80928500  0.52025600  1
  C  C155  1  0.63158400  0.71455300  0.42095800  1
  C  C156  1  0.44543600  0.69027000  0.17585500  1
  C  C157  1  0.36018500  0.30352200  0.33165500  1
  C  C158  1  0.70113600  0.42920000  0.49854700  1
  C  C159  1  0.55456400  0.19027000  0.32414500  1
  C  C160  1  0.19401100  0.17290700  0.73972600  1
  C  C161  1  0.37236800  0.17356200  0.92689200  1
  C  C162  1  0.77028800  0.90993400  0.72588900  1
  C  C163  1  0.69760600  0.19071500  0.02025600  1
  C  C164  1  0.30598900  0.82709300  0.23972600  1
  C  C165  1  0.19760600  0.30928500  0.97974400  1
  C  C166  1  0.88215200  0.22104200  0.17800100  1
  C  C167  1  0.25556400  0.98158600  0.13270400  1
  C  C168  1  0.04958400  0.31568900  0.32282200  1
  C  C169  1  0.36841600  0.21455300  0.07904200  1
  C  C170  1  0.75955200  0.81172700  0.99326400  1
  C  C171  1  0.06098600  0.19896000  0.42014600  1
  C  C172  1  0.96866000  0.46662200  0.94227000  1
  C  C173  1  0.38215200  0.27895800  0.82199900  1
  C  C174  1  0.74044800  0.18827300  0.49326400  1
  C  C175  1  0.54958400  0.18431100  0.67717800  1
  C  C176  1  0.93901400  0.69896000  0.07985400  1
  C  C177  1  0.61752200  0.82704500  0.32287600  1
  C  C178  1  0.55478700  0.29405400  0.91968300  1
  C  C179  1  0.95041600  0.81568900  0.17717800  1
