# generated using pymatgen
data_Cu8Ni7C6
_symmetry_space_group_name_H-M   'P 1'
_cell_length_a   12.85930000
_cell_length_b   12.90630100
_cell_length_c   14.38382300
_cell_angle_alpha   90.00000000
_cell_angle_beta   90.00000000
_cell_angle_gamma   90.00000000
_symmetry_Int_Tables_number   1
_chemical_formula_structural   Cu8Ni7C6
_chemical_formula_sum   'Cu32 Ni28 C24'
_cell_volume   2387.22551695
_cell_formula_units_Z   4
loop_
 _symmetry_equiv_pos_site_id
 _symmetry_equiv_pos_as_xyz
  1  'x, y, z'
loop_
 _atom_site_type_symbol
 _atom_site_label
 _atom_site_symmetry_multiplicity
 _atom_site_fract_x
 _atom_site_fract_y
 _atom_site_fract_z
 _atom_site_occupancy
  C  C0  1  0.50791300  0.36568000  0.44955900  1
  C  C1  1  0.99208700  0.36568000  0.94955900  1
  C  C2  1  0.44008200  0.54782900  0.38906500  1
  C  C3  1  0.13270700  0.97025100  0.45220000  1
  C  C4  1  0.99208700  0.86568000  0.55044100  1
  C  C5  1  0.49208700  0.63432000  0.55044100  1
  C  C6  1  0.50791300  0.86568000  0.05044100  1
  C  C7  1  0.86729300  0.02974900  0.54780000  1
  C  C8  1  0.49208700  0.13432000  0.94955900  1
  C  C9  1  0.36729300  0.47025100  0.54780000  1
  C  C10  1  0.00791300  0.13432000  0.44955900  1
  C  C11  1  0.05991800  0.04782900  0.61093500  1
  C  C12  1  0.13270700  0.47025100  0.04780000  1
  C  C13  1  0.94008200  0.45217100  0.11093500  1
  C  C14  1  0.55991800  0.95217100  0.88906500  1
  C  C15  1  0.94008200  0.95217100  0.38906500  1
  C  C16  1  0.05991800  0.54782900  0.88906500  1
  C  C17  1  0.00791300  0.63432000  0.05044100  1
  C  C18  1  0.36729300  0.97025100  0.95220000  1
  C  C19  1  0.63270700  0.52974900  0.45220000  1
  C  C20  1  0.55991800  0.45217100  0.61093500  1
  C  C21  1  0.63270700  0.02974900  0.04780000  1
  C  C22  1  0.44008200  0.04782900  0.11093500  1
  C  C23  1  0.86729300  0.52974900  0.95220000  1
  Ni  Ni24  1  0.67554800  0.07718500  0.62496400  1
  Ni  Ni25  1  0.17554800  0.92281500  0.87503600  1
  Ni  Ni26  1  0.54440400  0.17574200  0.36722700  1
  Ni  Ni27  1  0.95559600  0.17574200  0.86722700  1
  Ni  Ni28  1  0.00000000  0.50000000  0.50000000  1
  Ni  Ni29  1  0.50000000  0.00000000  0.50000000  1
  Ni  Ni30  1  0.64411800  0.38527300  0.77727400  1
  Ni  Ni31  1  0.67554800  0.57718500  0.87503600  1
  Ni  Ni32  1  0.35588200  0.11472700  0.27727400  1
  Ni  Ni33  1  0.64411800  0.88527300  0.72272600  1
  Ni  Ni34  1  0.45559600  0.32425800  0.86722700  1
  Ni  Ni35  1  0.82445200  0.57718500  0.37503600  1
  Ni  Ni36  1  0.82445200  0.07718500  0.12496400  1
  Ni  Ni37  1  0.45559600  0.82425800  0.63277300  1
  Ni  Ni38  1  0.85588200  0.88527300  0.22272600  1
  Ni  Ni39  1  0.04440400  0.32425800  0.36722700  1
  Ni  Ni40  1  0.00000000  0.00000000  0.00000000  1
  Ni  Ni41  1  0.14411800  0.61472700  0.72272600  1
  Ni  Ni42  1  0.32445200  0.92281500  0.37503600  1
  Ni  Ni43  1  0.32445200  0.42281500  0.12496400  1
  Ni  Ni44  1  0.04440400  0.82425800  0.13277300  1
  Ni  Ni45  1  0.95559600  0.67574200  0.63277300  1
  Ni  Ni46  1  0.14411800  0.11472700  0.77727400  1
  Ni  Ni47  1  0.85588200  0.38527300  0.27727400  1
  Ni  Ni48  1  0.17554800  0.42281500  0.62496400  1
  Ni  Ni49  1  0.50000000  0.50000000  0.00000000  1
  Ni  Ni50  1  0.35588200  0.61472700  0.22272600  1
  Ni  Ni51  1  0.54440400  0.67574200  0.13277300  1
  Cu  Cu52  1  0.32240000  0.88879600  0.10796000  1
  Cu  Cu53  1  0.42327700  0.55344100  0.70010300  1
  Cu  Cu54  1  0.17760000  0.38879600  0.89204000  1
  Cu  Cu55  1  0.57672300  0.44655900  0.29989700  1
  Cu  Cu56  1  0.82240000  0.61120400  0.10796000  1
  Cu  Cu57  1  0.43919500  0.29576700  0.60198900  1
  Cu  Cu58  1  0.32240000  0.38879600  0.39204000  1
  Cu  Cu59  1  0.69336800  0.35417200  0.51317300  1
  Cu  Cu60  1  0.30663200  0.64582800  0.48682700  1
  Cu  Cu61  1  0.19336800  0.64582800  0.98682700  1
  Cu  Cu62  1  0.06080500  0.79576700  0.39801100  1
  Cu  Cu63  1  0.07672300  0.55344100  0.20010300  1
  Cu  Cu64  1  0.67760000  0.11120400  0.89204000  1
  Cu  Cu65  1  0.93919500  0.20423300  0.60198900  1
  Cu  Cu66  1  0.06080500  0.29576700  0.10198900  1
  Cu  Cu67  1  0.92327700  0.44655900  0.79989700  1
  Cu  Cu68  1  0.56080500  0.70423300  0.39801100  1
  Cu  Cu69  1  0.67760000  0.61120400  0.60796000  1
  Cu  Cu70  1  0.93919500  0.70423300  0.89801100  1
  Cu  Cu71  1  0.69336800  0.85417200  0.98682700  1
  Cu  Cu72  1  0.80663200  0.35417200  0.01317300  1
  Cu  Cu73  1  0.80663200  0.85417200  0.48682700  1
  Cu  Cu74  1  0.92327700  0.94655900  0.70010300  1
  Cu  Cu75  1  0.30663200  0.14582800  0.01317300  1
  Cu  Cu76  1  0.82240000  0.11120400  0.39204000  1
  Cu  Cu77  1  0.07672300  0.05344100  0.29989700  1
  Cu  Cu78  1  0.43919500  0.79576700  0.89801100  1
  Cu  Cu79  1  0.19336800  0.14582800  0.51317300  1
  Cu  Cu80  1  0.56080500  0.20423300  0.10198900  1
  Cu  Cu81  1  0.42327700  0.05344100  0.79989700  1
  Cu  Cu82  1  0.17760000  0.88879600  0.60796000  1
  Cu  Cu83  1  0.57672300  0.94655900  0.20010300  1
