# generated using pymatgen
data_Cu3(NiC2)2
_symmetry_space_group_name_H-M   'P 1'
_cell_length_a   6.45576300
_cell_length_b   7.60983600
_cell_length_c   8.15147700
_cell_angle_alpha   90.00000000
_cell_angle_beta   90.00000000
_cell_angle_gamma   90.00000000
_symmetry_Int_Tables_number   1
_chemical_formula_structural   Cu3(NiC2)2
_chemical_formula_sum   'Cu12 Ni8 C16'
_cell_volume   400.46003715
_cell_formula_units_Z   4
loop_
 _symmetry_equiv_pos_site_id
 _symmetry_equiv_pos_as_xyz
  1  'x, y, z'
loop_
 _atom_site_type_symbol
 _atom_site_label
 _atom_site_symmetry_multiplicity
 _atom_site_fract_x
 _atom_site_fract_y
 _atom_site_fract_z
 _atom_site_occupancy
  C  C0  1  0.25204300  0.76288200  0.45922800  1
  C  C1  1  0.25204300  0.73711800  0.95922800  1
  C  C2  1  0.75204300  0.23711800  0.54077200  1
  C  C3  1  0.75204300  0.26288200  0.04077200  1
  C  C4  1  0.94026600  0.68370100  0.75411800  1
  C  C5  1  0.58478300  0.01413500  0.35832000  1
  C  C6  1  0.55142900  0.88960800  0.20761900  1
  C  C7  1  0.44026600  0.31629900  0.24588200  1
  C  C8  1  0.08478300  0.98586500  0.64168000  1
  C  C9  1  0.05142900  0.11039200  0.79238100  1
  C  C10  1  0.08478300  0.51413500  0.14168000  1
  C  C11  1  0.05142900  0.38960800  0.29238100  1
  C  C12  1  0.44026600  0.18370100  0.74588200  1
  C  C13  1  0.58478300  0.48586500  0.85832000  1
  C  C14  1  0.55142900  0.61039200  0.70761900  1
  C  C15  1  0.94026600  0.81629900  0.25411800  1
  Ni  Ni16  1  0.23331700  0.25477700  0.95523500  1
  Ni  Ni17  1  0.23331700  0.24522300  0.45523500  1
  Ni  Ni18  1  0.73331700  0.74522300  0.04476500  1
  Ni  Ni19  1  0.73331700  0.75477700  0.54476500  1
  Ni  Ni20  1  0.13959700  0.58346400  0.60276300  1
  Ni  Ni21  1  0.13959700  0.91653600  0.10276300  1
  Ni  Ni22  1  0.63959700  0.41653600  0.39723700  1
  Ni  Ni23  1  0.63959700  0.08346400  0.89723700  1
  Cu  Cu24  1  0.19173100  0.75880600  0.57072000  1
  Cu  Cu25  1  0.19173100  0.74119400  0.07072000  1
  Cu  Cu26  1  0.69173100  0.24119400  0.42928000  1
  Cu  Cu27  1  0.69173100  0.25880600  0.92928000  1
  Cu  Cu28  1  0.04038600  0.58455000  0.75046300  1
  Cu  Cu29  1  0.51459000  0.90639700  0.32350400  1
  Cu  Cu30  1  0.54038600  0.41545000  0.24953700  1
  Cu  Cu31  1  0.01459000  0.09360300  0.67649600  1
  Cu  Cu32  1  0.01459000  0.40639700  0.17649600  1
  Cu  Cu33  1  0.54038600  0.08455000  0.74953700  1
  Cu  Cu34  1  0.51459000  0.59360300  0.82350400  1
  Cu  Cu35  1  0.04038600  0.91545000  0.25046300  1
