# generated using pymatgen
data_CuNi17C23
_symmetry_space_group_name_H-M   'P 1'
_cell_length_a   11.52231400
_cell_length_b   14.27906500
_cell_length_c   16.70149900
_cell_angle_alpha   90.00000000
_cell_angle_beta   90.00000000
_cell_angle_gamma   90.00000000
_symmetry_Int_Tables_number   1
_chemical_formula_structural   CuNi17C23
_chemical_formula_sum   'Cu4 Ni68 C92'
_cell_volume   2747.86206557
_cell_formula_units_Z   4
loop_
 _symmetry_equiv_pos_site_id
 _symmetry_equiv_pos_as_xyz
  1  'x, y, z'
loop_
 _atom_site_type_symbol
 _atom_site_label
 _atom_site_symmetry_multiplicity
 _atom_site_fract_x
 _atom_site_fract_y
 _atom_site_fract_z
 _atom_site_occupancy
  C  C0  1  0.89424900  0.14924000  0.12722900  1
  C  C1  1  0.44441600  0.65245800  0.04661000  1
  C  C2  1  0.39424900  0.14924000  0.37277100  1
  C  C3  1  0.51865700  0.73631500  0.48175200  1
  C  C4  1  0.79878900  0.14540300  0.89025600  1
  C  C5  1  0.48134300  0.23631500  0.51824800  1
  C  C6  1  0.98134300  0.23631500  0.98175200  1
  C  C7  1  0.70121100  0.64540300  0.39025600  1
  C  C8  1  0.73952400  0.26356800  0.02606600  1
  C  C9  1  0.78348300  0.56244600  0.53970800  1
  C  C10  1  0.21651700  0.06244600  0.46029200  1
  C  C11  1  0.28348300  0.56244600  0.96029200  1
  C  C12  1  0.76047600  0.76356800  0.52606600  1
  C  C13  1  0.20121100  0.64540300  0.10974400  1
  C  C14  1  0.94441600  0.65245800  0.45339000  1
  C  C15  1  0.10575100  0.64924000  0.87277100  1
  C  C16  1  0.26047600  0.76356800  0.97393400  1
  C  C17  1  0.60575100  0.64924000  0.62722900  1
  C  C18  1  0.29878900  0.14540300  0.60974400  1
  C  C19  1  0.55558400  0.15245800  0.95339000  1
  C  C20  1  0.01865700  0.73631500  0.01824800  1
  C  C21  1  0.71651700  0.06244600  0.03970800  1
  C  C22  1  0.23952400  0.26356800  0.47393400  1
  C  C23  1  0.05558400  0.15245800  0.54661000  1
  Ni  Ni24  1  0.83082900  0.85538400  0.45744700  1
  Ni  Ni25  1  0.93089500  0.12758700  0.82189700  1
  Ni  Ni26  1  0.51664000  0.74006900  0.11857300  1
  Ni  Ni27  1  0.48336300  0.04718000  0.90758900  1
  Ni  Ni28  1  0.37037800  0.75993600  0.88831800  1
  Ni  Ni29  1  0.76524100  0.73495900  0.31741900  1
  Ni  Ni30  1  0.73475900  0.23495900  0.81741900  1
  Ni  Ni31  1  0.81486000  0.43868100  0.50940800  1
  Ni  Ni32  1  0.18514000  0.93868100  0.49059200  1
  Ni  Ni33  1  0.43089500  0.12758700  0.67810300  1
  Ni  Ni34  1  0.35877900  0.23295100  0.28748200  1
  Ni  Ni35  1  0.96164000  0.33795600  0.90986100  1
  Ni  Ni36  1  0.56910500  0.62758700  0.32189700  1
  Ni  Ni37  1  0.62962200  0.25993600  0.11168200  1
  Ni  Ni38  1  0.06096700  0.30381800  0.06350400  1
  Ni  Ni39  1  0.12340900  0.19412900  0.93598400  1
  Ni  Ni40  1  0.34551700  0.04618300  0.30960400  1
  Ni  Ni41  1  0.46164000  0.33795600  0.59013900  1
  Ni  Ni42  1  0.31486000  0.43868100  0.99059200  1
  Ni  Ni43  1  0.16917100  0.35538400  0.54255300  1
  Ni  Ni44  1  0.53836000  0.83795600  0.40986100  1
  Ni  Ni45  1  0.62340900  0.19412900  0.56401600  1
  Ni  Ni46  1  0.56976900  0.65907800  0.97466000  1
  Ni  Ni47  1  0.81782200  0.36606600  0.07712500  1
  Ni  Ni48  1  0.66917100  0.35538400  0.95744700  1
  Ni  Ni49  1  0.94768300  0.63181000  0.84113600  1
  Ni  Ni50  1  0.48336000  0.24006900  0.88142700  1
  Ni  Ni51  1  0.77327800  0.53902800  0.34099500  1
  Ni  Ni52  1  0.68514000  0.93868100  0.00940800  1
  Ni  Ni53  1  0.68217800  0.86606600  0.57712500  1
  Ni  Ni54  1  0.87037800  0.75993600  0.61168200  1
  Ni  Ni55  1  0.01663700  0.54718000  0.40758900  1
  Ni  Ni56  1  0.44768300  0.63181000  0.65886400  1
  Ni  Ni57  1  0.23475900  0.23495900  0.68258100  1
  Ni  Ni58  1  0.12962200  0.25993600  0.38831800  1
  Ni  Ni59  1  0.26524100  0.73495900  0.18258100  1
  Ni  Ni60  1  0.31782200  0.36606600  0.42287500  1
  Ni  Ni61  1  0.38872800  0.54382300  0.87619000  1
  Ni  Ni62  1  0.56096700  0.30381800  0.43649600  1
  Ni  Ni63  1  0.33082900  0.85538400  0.04255300  1
  Ni  Ni64  1  0.85877900  0.23295100  0.21251800  1
  Ni  Ni65  1  0.43023100  0.15907800  0.02534000  1
  Ni  Ni66  1  0.05231700  0.13181000  0.15886400  1
  Ni  Ni67  1  0.01664000  0.74006900  0.38142700  1
  Ni  Ni68  1  0.51663700  0.54718000  0.09241100  1
  Ni  Ni69  1  0.88872800  0.54382300  0.62381000  1
  Ni  Ni70  1  0.14122100  0.73295100  0.78748200  1
  Ni  Ni71  1  0.22672200  0.03902800  0.65900500  1
  Ni  Ni72  1  0.72672200  0.03902800  0.84099500  1
  Ni  Ni73  1  0.27327800  0.53902800  0.15900500  1
  Ni  Ni74  1  0.61127200  0.04382300  0.12381000  1
  Ni  Ni75  1  0.55231700  0.13181000  0.34113600  1
  Ni  Ni76  1  0.43903300  0.80381800  0.56350400  1
  Ni  Ni77  1  0.15448300  0.54618300  0.80960400  1
  Ni  Ni78  1  0.65448300  0.54618300  0.69039600  1
  Ni  Ni79  1  0.93903300  0.80381800  0.93649600  1
  Ni  Ni80  1  0.06976900  0.65907800  0.52534000  1
  Ni  Ni81  1  0.84551700  0.04618300  0.19039600  1
  Ni  Ni82  1  0.64122100  0.73295100  0.71251800  1
  Ni  Ni83  1  0.18217800  0.86606600  0.92287500  1
  Ni  Ni84  1  0.11127200  0.04382300  0.37619000  1
  Ni  Ni85  1  0.06910500  0.62758700  0.17810300  1
  Ni  Ni86  1  0.98336000  0.24006900  0.61857300  1
  Ni  Ni87  1  0.98336300  0.04718000  0.59241100  1
  Ni  Ni88  1  0.93023100  0.15907800  0.47466000  1
  Ni  Ni89  1  0.87659100  0.69412900  0.06401600  1
  Ni  Ni90  1  0.03836000  0.83795600  0.09013900  1
  Ni  Ni91  1  0.37659100  0.69412900  0.43598400  1
  Cu  Cu92  1  0.41806900  0.06779100  0.50258300  1
  Cu  Cu93  1  0.58193100  0.56779100  0.49741700  1
  Cu  Cu94  1  0.08193100  0.56779100  0.00258300  1
  Cu  Cu95  1  0.91806900  0.06779100  0.99741700  1
  C  C96  1  0.70812600  0.16700500  0.59388600  1
  C  C97  1  0.94782000  0.40108600  0.86706200  1
  C  C98  1  0.33189800  0.28163900  0.23505800  1
  C  C99  1  0.35409200  0.43322800  0.39237900  1
  C  C100  1  0.62830600  0.41812000  0.92309300  1
  C  C101  1  0.43746500  0.29035200  0.83693600  1
  C  C102  1  0.39083700  0.84970900  0.61050200  1
  C  C103  1  0.64544200  0.65936400  0.92894200  1
  C  C104  1  0.99310300  0.61393900  0.22218500  1
  C  C105  1  0.85409200  0.43322800  0.10762100  1
  C  C106  1  0.66810200  0.78163900  0.76494200  1
  C  C107  1  0.16810200  0.78163900  0.73505800  1
  C  C108  1  0.66292000  0.86150600  0.99131600  1
  C  C109  1  0.69989400  0.28744300  0.77019500  1
  C  C110  1  0.83708000  0.36150600  0.49131600  1
  C  C111  1  0.06331000  0.48176500  0.38130100  1
  C  C112  1  0.56331000  0.48176500  0.11869900  1
  C  C113  1  0.06253500  0.79035200  0.33693600  1
  C  C114  1  0.30010600  0.78744300  0.22980500  1
  C  C115  1  0.80010600  0.78744300  0.27019500  1
  C  C116  1  0.44782000  0.40108600  0.63293800  1
  C  C117  1  0.87169400  0.91812000  0.42309300  1
  C  C118  1  0.37169400  0.91812000  0.07690700  1
  C  C119  1  0.93746500  0.29035200  0.66306400  1
  C  C120  1  0.81029600  0.47468400  0.30737500  1
  C  C121  1  0.85144000  0.62004900  0.82364700  1
  C  C122  1  0.20812600  0.16700500  0.90611400  1
  C  C123  1  0.06803300  0.26151500  0.33317100  1
  C  C124  1  0.82600300  0.98501400  0.23403500  1
  C  C125  1  0.35144000  0.62004900  0.67635300  1
  C  C126  1  0.49310300  0.61393900  0.27781500  1
  C  C127  1  0.14590800  0.93322800  0.89237900  1
  C  C128  1  0.17399700  0.48501400  0.76596500  1
  C  C129  1  0.12830600  0.41812000  0.57690700  1
  C  C130  1  0.04668100  0.03059200  0.32355900  1
  C  C131  1  0.68970400  0.97468400  0.80737500  1
  C  C132  1  0.64590800  0.93322800  0.60762100  1
  C  C133  1  0.35455800  0.15936400  0.07105800  1
  C  C134  1  0.19989400  0.28744300  0.72980500  1
  C  C135  1  0.50689700  0.11393900  0.72218500  1
  C  C136  1  0.79187400  0.66700500  0.09388600  1
  C  C137  1  0.93669000  0.98176500  0.61869900  1
  C  C138  1  0.43669000  0.98176500  0.88130100  1
  C  C139  1  0.55218000  0.90108600  0.36706200  1
  C  C140  1  0.43196700  0.76151500  0.83317100  1
  C  C141  1  0.85455800  0.15936400  0.42894200  1
  C  C142  1  0.95331900  0.53059300  0.67644100  1
  C  C143  1  0.67399700  0.48501400  0.73403500  1
  C  C144  1  0.60916300  0.34970900  0.38949800  1
  C  C145  1  0.83189800  0.28163900  0.26494200  1
  C  C146  1  0.54668100  0.03059200  0.17644100  1
  C  C147  1  0.14544200  0.65936400  0.57105800  1
  C  C148  1  0.56253500  0.79035200  0.16306400  1
  C  C149  1  0.14856000  0.12004900  0.17635300  1
  C  C150  1  0.29187400  0.66700500  0.40611400  1
  C  C151  1  0.00689700  0.11393900  0.77781500  1
  C  C152  1  0.31029600  0.47468400  0.19262500  1
  C  C153  1  0.10916300  0.34970900  0.11050200  1
  C  C154  1  0.64856000  0.12004900  0.32364700  1
  C  C155  1  0.45331900  0.53059300  0.82355900  1
  C  C156  1  0.18970400  0.97468400  0.69262500  1
  C  C157  1  0.93196700  0.76151500  0.66682900  1
  C  C158  1  0.16292000  0.86150600  0.50868400  1
  C  C159  1  0.32600300  0.98501400  0.26596500  1
  C  C160  1  0.89083700  0.84970900  0.88949800  1
  C  C161  1  0.33708000  0.36150600  0.00868400  1
  C  C162  1  0.05218000  0.90108600  0.13293800  1
  C  C163  1  0.56803300  0.26151500  0.16682900  1
