# generated using pymatgen
data_Cu4Ni7C9
_symmetry_space_group_name_H-M   'P 1'
_cell_length_a   8.27735000
_cell_length_b   9.92943800
_cell_length_c   20.81091600
_cell_angle_alpha   90.00000000
_cell_angle_beta   90.00000000
_cell_angle_gamma   90.00000000
_symmetry_Int_Tables_number   1
_chemical_formula_structural   Cu4Ni7C9
_chemical_formula_sum   'Cu16 Ni28 C36'
_cell_volume   1710.43739935
_cell_formula_units_Z   4
loop_
 _symmetry_equiv_pos_site_id
 _symmetry_equiv_pos_as_xyz
  1  'x, y, z'
loop_
 _atom_site_type_symbol
 _atom_site_label
 _atom_site_symmetry_multiplicity
 _atom_site_fract_x
 _atom_site_fract_y
 _atom_site_fract_z
 _atom_site_occupancy
  C  C0  1  0.75000000  0.21603600  0.64548700  1
  C  C1  1  0.75000000  0.84936500  0.59557800  1
  C  C2  1  0.25000000  0.15063500  0.40442200  1
  C  C3  1  0.75000000  0.65063500  0.09557800  1
  C  C4  1  0.75000000  0.28396400  0.14548700  1
  C  C5  1  0.25000000  0.71603600  0.85451300  1
  C  C6  1  0.25000000  0.34936500  0.90442200  1
  C  C7  1  0.25000000  0.78396400  0.35451300  1
  Ni  Ni8  1  0.25000000  0.62616800  0.41835500  1
  Ni  Ni9  1  0.75000000  0.37383200  0.58164500  1
  Ni  Ni10  1  0.25000000  0.19916900  0.49871700  1
  Ni  Ni11  1  0.94520100  0.76983300  0.08138300  1
  Ni  Ni12  1  0.25000000  0.73954400  0.25715300  1
  Ni  Ni13  1  0.53991000  0.17380600  0.15916200  1
  Ni  Ni14  1  0.46009000  0.67380600  0.34083800  1
  Ni  Ni15  1  0.96009000  0.32619400  0.65916200  1
  Ni  Ni16  1  0.44520100  0.23016700  0.91861700  1
  Ni  Ni17  1  0.96009000  0.17380600  0.15916200  1
  Ni  Ni18  1  0.75000000  0.26045600  0.74284700  1
  Ni  Ni19  1  0.94520100  0.73016700  0.58138300  1
  Ni  Ni20  1  0.46009000  0.82619400  0.84083800  1
  Ni  Ni21  1  0.75000000  0.69916900  0.00128300  1
  Ni  Ni22  1  0.03991000  0.67380600  0.34083800  1
  Ni  Ni23  1  0.05479900  0.26983300  0.41861700  1
  Ni  Ni24  1  0.53991000  0.32619400  0.65916200  1
  Ni  Ni25  1  0.25000000  0.87383200  0.91835500  1
  Ni  Ni26  1  0.44520100  0.26983300  0.41861700  1
  Ni  Ni27  1  0.25000000  0.76045600  0.75715300  1
  Ni  Ni28  1  0.55479900  0.73016700  0.58138300  1
  Ni  Ni29  1  0.75000000  0.80083100  0.50128300  1
  Ni  Ni30  1  0.75000000  0.12616800  0.08164500  1
  Ni  Ni31  1  0.03991000  0.82619400  0.84083800  1
  Ni  Ni32  1  0.05479900  0.23016700  0.91861700  1
  Ni  Ni33  1  0.75000000  0.23954400  0.24284700  1
  Ni  Ni34  1  0.25000000  0.30083100  0.99871700  1
  Ni  Ni35  1  0.55479900  0.76983300  0.08138300  1
  Cu  Cu36  1  0.53717600  0.01165600  0.66279700  1
  Cu  Cu37  1  0.25000000  0.59079300  0.97178000  1
  Cu  Cu38  1  0.25000000  0.31772400  0.30240400  1
  Cu  Cu39  1  0.03717600  0.98834400  0.33720300  1
  Cu  Cu40  1  0.96282400  0.01165600  0.66279700  1
  Cu  Cu41  1  0.75000000  0.40920700  0.02822000  1
  Cu  Cu42  1  0.03717600  0.51165600  0.83720300  1
  Cu  Cu43  1  0.75000000  0.09079300  0.52822000  1
  Cu  Cu44  1  0.53717600  0.48834400  0.16279700  1
  Cu  Cu45  1  0.25000000  0.90920700  0.47178000  1
  Cu  Cu46  1  0.25000000  0.18227600  0.80240400  1
  Cu  Cu47  1  0.46282400  0.98834400  0.33720300  1
  Cu  Cu48  1  0.46282400  0.51165600  0.83720300  1
  Cu  Cu49  1  0.75000000  0.81772400  0.19759600  1
  Cu  Cu50  1  0.75000000  0.68227600  0.69759600  1
  Cu  Cu51  1  0.96282400  0.48834400  0.16279700  1
  C  C52  1  0.42670900  0.39047600  0.66863000  1
  C  C53  1  0.75000000  0.21899500  0.29735600  1
  C  C54  1  0.75000000  0.76664500  0.44758900  1
  C  C55  1  0.75000000  0.28100500  0.79735600  1
  C  C56  1  0.55657100  0.16067800  0.92612600  1
  C  C57  1  0.94342900  0.33932200  0.42612600  1
  C  C58  1  0.07329100  0.10952400  0.16863000  1
  C  C59  1  0.25000000  0.53984100  0.45548200  1
  C  C60  1  0.92670900  0.89047600  0.83137000  1
  C  C61  1  0.05657100  0.83932200  0.07387400  1
  C  C62  1  0.42670900  0.10952400  0.16863000  1
  C  C63  1  0.25000000  0.23335500  0.55241100  1
  C  C64  1  0.25000000  0.26664500  0.05241100  1
  C  C65  1  0.25000000  0.78100500  0.70264400  1
  C  C66  1  0.92670900  0.60952400  0.33137000  1
  C  C67  1  0.44342900  0.66067800  0.57387400  1
  C  C68  1  0.57329100  0.89047600  0.83137000  1
  C  C69  1  0.75000000  0.03984100  0.04451800  1
  C  C70  1  0.07329100  0.39047600  0.66863000  1
  C  C71  1  0.75000000  0.46015900  0.54451800  1
  C  C72  1  0.75000000  0.73335500  0.94758900  1
  C  C73  1  0.25000000  0.71899500  0.20264400  1
  C  C74  1  0.05657100  0.66067800  0.57387400  1
  C  C75  1  0.94342900  0.16067800  0.92612600  1
  C  C76  1  0.57329100  0.60952400  0.33137000  1
  C  C77  1  0.25000000  0.96015900  0.95548200  1
  C  C78  1  0.44342900  0.83932200  0.07387400  1
  C  C79  1  0.55657100  0.33932200  0.42612600  1
