# generated using pymatgen
data_CuNiC4
_symmetry_space_group_name_H-M   'P 1'
_cell_length_a   14.18972400
_cell_length_b   15.36385100
_cell_length_c   17.65133700
_cell_angle_alpha   90.00000000
_cell_angle_beta   90.00000000
_cell_angle_gamma   90.00000000
_symmetry_Int_Tables_number   1
_chemical_formula_structural   CuNiC4
_chemical_formula_sum   'Cu32 Ni32 C128'
_cell_volume   3848.14689074
_cell_formula_units_Z   32
loop_
 _symmetry_equiv_pos_site_id
 _symmetry_equiv_pos_as_xyz
  1  'x, y, z'
loop_
 _atom_site_type_symbol
 _atom_site_label
 _atom_site_symmetry_multiplicity
 _atom_site_fract_x
 _atom_site_fract_y
 _atom_site_fract_z
 _atom_site_occupancy
  Ni  Ni0  1  0.07795500  0.59944100  0.42653500  1
  Ni  Ni1  1  0.42204500  0.09944100  0.42653500  1
  Ni  Ni2  1  0.07795500  0.90055900  0.92653500  1
  Ni  Ni3  1  0.21428500  0.33963600  0.53947500  1
  Ni  Ni4  1  0.92204500  0.40055900  0.57346500  1
  Ni  Ni5  1  0.55461300  0.09752800  0.93407800  1
  Ni  Ni6  1  0.78571500  0.83963600  0.96052500  1
  Ni  Ni7  1  0.57795500  0.90055900  0.57346500  1
  Ni  Ni8  1  0.78571500  0.66036400  0.46052500  1
  Ni  Ni9  1  0.44538700  0.90247200  0.06592200  1
  Ni  Ni10  1  0.92204500  0.09944100  0.07346500  1
  Ni  Ni11  1  0.28571500  0.66036400  0.03947500  1
  Ni  Ni12  1  0.05461300  0.40247200  0.06592200  1
  Ni  Ni13  1  0.55536500  0.22673200  0.15990400  1
  Ni  Ni14  1  0.94463500  0.77326800  0.65990400  1
  Ni  Ni15  1  0.94463500  0.72673200  0.15990400  1
  Ni  Ni16  1  0.21428500  0.16036400  0.03947500  1
  Ni  Ni17  1  0.44463500  0.77326800  0.84009600  1
  Ni  Ni18  1  0.44538700  0.59752800  0.56592200  1
  Ni  Ni19  1  0.44463500  0.72673200  0.34009600  1
  Ni  Ni20  1  0.71428500  0.16036400  0.46052500  1
  Ni  Ni21  1  0.57795500  0.59944100  0.07346500  1
  Ni  Ni22  1  0.55461300  0.40247200  0.43407800  1
  Ni  Ni23  1  0.94538700  0.90247200  0.43407800  1
  Ni  Ni24  1  0.05536500  0.27326800  0.84009600  1
  Ni  Ni25  1  0.55536500  0.27326800  0.65990400  1
  Ni  Ni26  1  0.94538700  0.59752800  0.93407800  1
  Ni  Ni27  1  0.05536500  0.22673200  0.34009600  1
  Ni  Ni28  1  0.42204500  0.40055900  0.92653500  1
  Ni  Ni29  1  0.71428500  0.33963600  0.96052500  1
  Ni  Ni30  1  0.05461300  0.09752800  0.56592200  1
  Ni  Ni31  1  0.28571500  0.83963600  0.53947500  1
  Cu  Cu32  1  0.05990700  0.22671400  0.15780200  1
  Cu  Cu33  1  0.05990700  0.27328600  0.65780200  1
  Cu  Cu34  1  0.08044500  0.90039600  0.57580200  1
  Cu  Cu35  1  0.91955500  0.09960400  0.42419800  1
  Cu  Cu36  1  0.91955500  0.40039600  0.92419800  1
  Cu  Cu37  1  0.94740500  0.59633700  0.57127200  1
  Cu  Cu38  1  0.05259500  0.40366300  0.42872800  1
  Cu  Cu39  1  0.44009300  0.72671400  0.15780200  1
  Cu  Cu40  1  0.55259500  0.09633700  0.57127200  1
  Cu  Cu41  1  0.55990700  0.22671400  0.34219800  1
  Cu  Cu42  1  0.05259500  0.09633700  0.92872800  1
  Cu  Cu43  1  0.21526300  0.33870700  0.95582600  1
  Cu  Cu44  1  0.58044500  0.59960400  0.42419800  1
  Cu  Cu45  1  0.71526300  0.33870700  0.54417400  1
  Cu  Cu46  1  0.71526300  0.16129300  0.04417400  1
  Cu  Cu47  1  0.78473700  0.66129300  0.04417400  1
  Cu  Cu48  1  0.28473700  0.83870700  0.95582600  1
  Cu  Cu49  1  0.44740500  0.59633700  0.92872800  1
  Cu  Cu50  1  0.08044500  0.59960400  0.07580200  1
  Cu  Cu51  1  0.44740500  0.90366300  0.42872800  1
  Cu  Cu52  1  0.28473700  0.66129300  0.45582600  1
  Cu  Cu53  1  0.94740500  0.90366300  0.07127200  1
  Cu  Cu54  1  0.21526300  0.16129300  0.45582600  1
  Cu  Cu55  1  0.94009300  0.77328600  0.84219800  1
  Cu  Cu56  1  0.55259500  0.40366300  0.07127200  1
  Cu  Cu57  1  0.58044500  0.90039600  0.92419800  1
  Cu  Cu58  1  0.78473700  0.83870700  0.54417400  1
  Cu  Cu59  1  0.41955500  0.09960400  0.07580200  1
  Cu  Cu60  1  0.44009300  0.77328600  0.65780200  1
  Cu  Cu61  1  0.55990700  0.27328600  0.84219800  1
  Cu  Cu62  1  0.41955500  0.40039600  0.57580200  1
  Cu  Cu63  1  0.94009300  0.72671400  0.34219800  1
  C  C64  1  0.95083900  0.00851300  0.39662600  1
  C  C65  1  0.47019900  0.17771100  0.36625800  1
  C  C66  1  0.14624300  0.10229300  0.97348900  1
  C  C67  1  0.64624300  0.39770700  0.02651100  1
  C  C68  1  0.34673200  0.68442000  0.38762300  1
  C  C69  1  0.45441900  0.99532800  0.39390400  1
  C  C70  1  0.54916100  0.99148700  0.89662600  1
  C  C71  1  0.04558100  0.00467200  0.89390400  1
  C  C72  1  0.64662500  0.31310000  0.88121800  1
  C  C73  1  0.03168800  0.61354100  0.51805300  1
  C  C74  1  0.03168800  0.88645900  0.01805300  1
  C  C75  1  0.84104400  0.89393000  0.48717000  1
  C  C76  1  0.47019900  0.32228900  0.86625800  1
  C  C77  1  0.29958100  0.39138300  0.92706300  1
  C  C78  1  0.07361800  0.21861200  0.24317400  1
  C  C79  1  0.34673200  0.81558000  0.88762300  1
  C  C80  1  0.54907000  0.33711800  0.13555000  1
  C  C81  1  0.04932800  0.17628300  0.63709400  1
  C  C82  1  0.54932800  0.17628300  0.86290600  1
  C  C83  1  0.95067200  0.67628300  0.86290600  1
  C  C84  1  0.15326800  0.31558000  0.88762300  1
  C  C85  1  0.35375700  0.60229300  0.97348900  1
  C  C86  1  0.45093000  0.83711800  0.36445000  1
  C  C87  1  0.95093000  0.66288200  0.63555000  1
  C  C88  1  0.53898500  0.61824100  0.50331500  1
  C  C89  1  0.65326800  0.18442000  0.11237700  1
  C  C90  1  0.54916100  0.50851300  0.39662600  1
  C  C91  1  0.96101500  0.38175900  0.00331500  1
  C  C92  1  0.74729400  0.75617000  0.50463700  1
  C  C93  1  0.53898500  0.88175900  0.00331500  1
  C  C94  1  0.96831200  0.38645900  0.48194700  1
  C  C95  1  0.45067200  0.67628300  0.63709400  1
  C  C96  1  0.70041900  0.60861700  0.07293700  1
  C  C97  1  0.15895600  0.39393000  0.01283000  1
  C  C98  1  0.42638200  0.78138800  0.74317400  1
  C  C99  1  0.04907000  0.33711800  0.36445000  1
  C  C100  1  0.34104400  0.60607000  0.51283000  1
  C  C101  1  0.46101500  0.11824100  0.99668500  1
  C  C102  1  0.79958100  0.10861700  0.07293700  1
  C  C103  1  0.45300800  0.33108100  0.63285600  1
  C  C104  1  0.07361800  0.28138800  0.74317400  1
  C  C105  1  0.95441900  0.50467200  0.60609600  1
  C  C106  1  0.20041900  0.89138300  0.92706300  1
  C  C107  1  0.97019900  0.17771100  0.13374200  1
  C  C108  1  0.95300800  0.33108100  0.86714400  1
  C  C109  1  0.24729400  0.75617000  0.99536300  1
  C  C110  1  0.65326800  0.31558000  0.61237700  1
  C  C111  1  0.95441900  0.99532800  0.10609600  1
  C  C112  1  0.95067200  0.82371700  0.36290600  1
  C  C113  1  0.45083900  0.49148700  0.60337400  1
  C  C114  1  0.75270600  0.25617000  0.50463700  1
  C  C115  1  0.20041900  0.60861700  0.42706300  1
  C  C116  1  0.45067200  0.82371700  0.13709400  1
  C  C117  1  0.18843000  0.60110100  0.06994100  1
  C  C118  1  0.75270600  0.24383000  0.00463700  1
  C  C119  1  0.04558100  0.49532800  0.39390400  1
  C  C120  1  0.84104400  0.60607000  0.98717000  1
  C  C121  1  0.95300800  0.16891900  0.36714400  1
  C  C122  1  0.70041900  0.89138300  0.57293700  1
  C  C123  1  0.25270600  0.24383000  0.49536300  1
  C  C124  1  0.57361800  0.28138800  0.75682600  1
  C  C125  1  0.04699200  0.66891900  0.13285600  1
  C  C126  1  0.15326800  0.18442000  0.38762300  1
  C  C127  1  0.04932800  0.32371700  0.13709400  1
  C  C128  1  0.02980100  0.67771100  0.36625800  1
  C  C129  1  0.57361800  0.21861200  0.25682600  1
  C  C130  1  0.14624300  0.39770700  0.47348900  1
  C  C131  1  0.64624300  0.10229300  0.52651100  1
  C  C132  1  0.45441900  0.50467200  0.89390400  1
  C  C133  1  0.45300800  0.16891900  0.13285600  1
  C  C134  1  0.04916100  0.99148700  0.60337400  1
  C  C135  1  0.25270600  0.25617000  0.99536300  1
  C  C136  1  0.42638200  0.71861200  0.24317400  1
  C  C137  1  0.68843000  0.89889900  0.93005900  1
  C  C138  1  0.81157000  0.10110100  0.43005900  1
  C  C139  1  0.52980100  0.67771100  0.13374200  1
  C  C140  1  0.45083900  0.00851300  0.10337400  1
  C  C141  1  0.15895600  0.10607000  0.51283000  1
  C  C142  1  0.54699200  0.83108100  0.86714400  1
  C  C143  1  0.85337500  0.81310000  0.88121800  1
  C  C144  1  0.64662500  0.18690000  0.38121800  1
  C  C145  1  0.14662500  0.31310000  0.61878200  1
  C  C146  1  0.65895600  0.10607000  0.98717000  1
  C  C147  1  0.95093000  0.83711800  0.13555000  1
  C  C148  1  0.04916100  0.50851300  0.10337400  1
  C  C149  1  0.46831200  0.38645900  0.01805300  1
  C  C150  1  0.96101500  0.11824100  0.50331500  1
  C  C151  1  0.92638200  0.78138800  0.75682600  1
  C  C152  1  0.31157000  0.39889900  0.56994100  1
  C  C153  1  0.46831200  0.11354100  0.51805300  1
  C  C154  1  0.53168800  0.61354100  0.98194700  1
  C  C155  1  0.54558100  0.00467200  0.60609600  1
  C  C156  1  0.54932800  0.32371700  0.36290600  1
  C  C157  1  0.85375700  0.89770700  0.02651100  1
  C  C158  1  0.31157000  0.10110100  0.06994100  1
  C  C159  1  0.74729400  0.74383000  0.00463700  1
  C  C160  1  0.54907000  0.16288200  0.63555000  1
  C  C161  1  0.03898500  0.88175900  0.49668500  1
  C  C162  1  0.03898500  0.61824100  0.99668500  1
  C  C163  1  0.65895600  0.39393000  0.48717000  1
  C  C164  1  0.14662500  0.18690000  0.11878200  1
  C  C165  1  0.29958100  0.10861700  0.42706300  1
  C  C166  1  0.52980100  0.82228900  0.63374200  1
  C  C167  1  0.85337500  0.68690000  0.38121800  1
  C  C168  1  0.18843000  0.89889900  0.56994100  1
  C  C169  1  0.79958100  0.39138300  0.57293700  1
  C  C170  1  0.34104400  0.89393000  0.01283000  1
  C  C171  1  0.35337500  0.68690000  0.11878200  1
  C  C172  1  0.53168800  0.88645900  0.48194700  1
  C  C173  1  0.84673200  0.81558000  0.61237700  1
  C  C174  1  0.54558100  0.49532800  0.10609600  1
  C  C175  1  0.68843000  0.60110100  0.43005900  1
  C  C176  1  0.81157000  0.39889900  0.93005900  1
  C  C177  1  0.45093000  0.66288200  0.86445000  1
  C  C178  1  0.04699200  0.83108100  0.63285600  1
  C  C179  1  0.46101500  0.38175900  0.49668500  1
  C  C180  1  0.95083900  0.49148700  0.89662600  1
  C  C181  1  0.85375700  0.60229300  0.52651100  1
  C  C182  1  0.35337500  0.81310000  0.61878200  1
  C  C183  1  0.92638200  0.71861200  0.25682600  1
  C  C184  1  0.35375700  0.89770700  0.47348900  1
  C  C185  1  0.02980100  0.82228900  0.86625800  1
  C  C186  1  0.54699200  0.66891900  0.36714400  1
  C  C187  1  0.24729400  0.74383000  0.49536300  1
  C  C188  1  0.84673200  0.68442000  0.11237700  1
  C  C189  1  0.97019900  0.32228900  0.63374200  1
  C  C190  1  0.04907000  0.16288200  0.86445000  1
  C  C191  1  0.96831200  0.11354100  0.98194700  1
