# generated using pymatgen
data_Cu4Ni5C2
_symmetry_space_group_name_H-M   'P 1'
_cell_length_a   11.40842247
_cell_length_b   11.40842247
_cell_length_c   18.83881749
_cell_angle_alpha   84.06865096
_cell_angle_beta   84.06865096
_cell_angle_gamma   68.37915363
_symmetry_Int_Tables_number   1
_chemical_formula_structural   Cu4Ni5C2
_chemical_formula_sum   'Cu32 Ni40 C16'
_cell_volume   2261.54457368
_cell_formula_units_Z   8
loop_
 _symmetry_equiv_pos_site_id
 _symmetry_equiv_pos_as_xyz
  1  'x, y, z'
loop_
 _atom_site_type_symbol
 _atom_site_label
 _atom_site_symmetry_multiplicity
 _atom_site_fract_x
 _atom_site_fract_y
 _atom_site_fract_z
 _atom_site_occupancy
  C  C0  1  0.78378200  0.25587000  0.06654900  1
  C  C1  1  0.67833700  0.10147100  0.76981400  1
  C  C2  1  0.48304500  0.42834200  0.65799900  1
  C  C3  1  0.21621800  0.74413000  0.93345100  1
  C  C4  1  0.29314800  0.36342800  0.98302900  1
  C  C5  1  0.74413000  0.21621800  0.43345100  1
  C  C6  1  0.70685200  0.63657200  0.01697100  1
  C  C7  1  0.25587000  0.78378200  0.56654900  1
  C  C8  1  0.42834200  0.48304500  0.15799900  1
  C  C9  1  0.63657200  0.70685200  0.51697100  1
  C  C10  1  0.36342800  0.29314800  0.48302900  1
  C  C11  1  0.10147100  0.67833700  0.26981400  1
  C  C12  1  0.89852900  0.32166300  0.73018600  1
  C  C13  1  0.57165800  0.51695500  0.84200100  1
  C  C14  1  0.32166300  0.89852900  0.23018600  1
  C  C15  1  0.51695500  0.57165800  0.34200100  1
  Ni  Ni16  1  0.84696800  0.59078800  0.48627600  1
  Ni  Ni17  1  0.26234600  0.92666200  0.90319900  1
  Ni  Ni18  1  0.95649400  0.49914700  0.71265100  1
  Ni  Ni19  1  0.40921200  0.15303200  0.01372400  1
  Ni  Ni20  1  0.33726200  0.18125700  0.39256400  1
  Ni  Ni21  1  0.25742900  0.87809600  0.67020800  1
  Ni  Ni22  1  0.17310100  0.08396400  0.27494100  1
  Ni  Ni23  1  0.87136400  0.60352700  0.92756200  1
  Ni  Ni24  1  0.49914700  0.95649400  0.21265100  1
  Ni  Ni25  1  0.18125700  0.33726200  0.89256400  1
  Ni  Ni26  1  0.15303200  0.40921200  0.51372400  1
  Ni  Ni27  1  0.94384000  0.26009900  0.61292500  1
  Ni  Ni28  1  0.92666200  0.26234600  0.40319900  1
  Ni  Ni29  1  0.82689900  0.91603600  0.72505900  1
  Ni  Ni30  1  0.12190400  0.74257100  0.82979200  1
  Ni  Ni31  1  0.66273800  0.81874300  0.60743600  1
  Ni  Ni32  1  0.73765400  0.07333800  0.09680100  1
  Ni  Ni33  1  0.26009900  0.94384000  0.11292500  1
  Ni  Ni34  1  0.87809600  0.25742900  0.17020800  1
  Ni  Ni35  1  0.91603600  0.82689900  0.22505900  1
  Ni  Ni36  1  0.12863600  0.39647300  0.07243800  1
  Ni  Ni37  1  0.74257100  0.12190400  0.32979200  1
  Ni  Ni38  1  0.03283800  0.82199300  0.00692200  1
  Ni  Ni39  1  0.07333800  0.73765400  0.59680100  1
  Ni  Ni40  1  0.69281000  0.61491000  0.29152300  1
  Ni  Ni41  1  0.05616000  0.73990100  0.38707500  1
  Ni  Ni42  1  0.08396400  0.17310100  0.77494100  1
  Ni  Ni43  1  0.17800700  0.96716200  0.49307800  1
  Ni  Ni44  1  0.39647300  0.12863600  0.57243800  1
  Ni  Ni45  1  0.04350600  0.50085300  0.28734900  1
  Ni  Ni46  1  0.73990100  0.05616000  0.88707500  1
  Ni  Ni47  1  0.59078800  0.84696800  0.98627600  1
  Ni  Ni48  1  0.38509000  0.30719000  0.20847700  1
  Ni  Ni49  1  0.81874300  0.66273800  0.10743600  1
  Ni  Ni50  1  0.60352700  0.87136400  0.42756200  1
  Ni  Ni51  1  0.50085300  0.04350600  0.78734900  1
  Ni  Ni52  1  0.82199300  0.03283800  0.50692200  1
  Ni  Ni53  1  0.96716200  0.17800700  0.99307800  1
  Ni  Ni54  1  0.30719000  0.38509000  0.70847700  1
  Ni  Ni55  1  0.61491000  0.69281000  0.79152300  1
  Cu  Cu56  1  0.35814000  0.61201800  0.62382200  1
  Cu  Cu57  1  0.32302700  0.69269200  0.01080100  1
  Cu  Cu58  1  0.82718300  0.36074400  0.82785500  1
  Cu  Cu59  1  0.17381300  0.82618700  0.25000000  1
  Cu  Cu60  1  0.82618700  0.17381300  0.75000000  1
  Cu  Cu61  1  0.46984500  0.53015500  0.75000000  1
  Cu  Cu62  1  0.63925600  0.17281700  0.67214500  1
  Cu  Cu63  1  0.27764300  0.57982800  0.28917100  1
  Cu  Cu64  1  0.57675600  0.61561900  0.45121400  1
  Cu  Cu65  1  0.69269200  0.32302700  0.51080100  1
  Cu  Cu66  1  0.36074400  0.82718300  0.32785500  1
  Cu  Cu67  1  0.61640400  0.57850800  0.58718100  1
  Cu  Cu68  1  0.17281700  0.63925600  0.17214500  1
  Cu  Cu69  1  0.72235700  0.42017200  0.71082900  1
  Cu  Cu70  1  0.42017200  0.72235700  0.21082900  1
  Cu  Cu71  1  0.64186000  0.38798200  0.37617800  1
  Cu  Cu72  1  0.30730800  0.67697300  0.48919900  1
  Cu  Cu73  1  0.42149200  0.38359600  0.91281900  1
  Cu  Cu74  1  0.57982800  0.27764300  0.78917100  1
  Cu  Cu75  1  0.61201800  0.35814000  0.12382200  1
  Cu  Cu76  1  0.57850800  0.61640400  0.08718100  1
  Cu  Cu77  1  0.42324400  0.38438100  0.54878600  1
  Cu  Cu78  1  0.38438100  0.42324400  0.04878600  1
  Cu  Cu79  1  0.53015500  0.46984500  0.25000000  1
  Cu  Cu80  1  0.79055700  0.43781800  0.04380300  1
  Cu  Cu81  1  0.38798200  0.64186000  0.87617800  1
  Cu  Cu82  1  0.43781800  0.79055700  0.54380300  1
  Cu  Cu83  1  0.67697300  0.30730800  0.98919900  1
  Cu  Cu84  1  0.61561900  0.57675600  0.95121400  1
  Cu  Cu85  1  0.20944300  0.56218200  0.95619700  1
  Cu  Cu86  1  0.56218200  0.20944300  0.45619700  1
  Cu  Cu87  1  0.38359600  0.42149200  0.41281900  1
