# generated using pymatgen
data_Cu3(NiC10)2
_symmetry_space_group_name_H-M   'P 1'
_cell_length_a   5.64378301
_cell_length_b   7.93935200
_cell_length_c   14.23449425
_cell_angle_alpha   89.99987320
_cell_angle_beta   101.44078815
_cell_angle_gamma   90.00013602
_symmetry_Int_Tables_number   1
_chemical_formula_structural   Cu3(NiC10)2
_chemical_formula_sum   'Cu6 Ni4 C40'
_cell_volume   625.14560848
_cell_formula_units_Z   2
loop_
 _symmetry_equiv_pos_site_id
 _symmetry_equiv_pos_as_xyz
  1  'x, y, z'
loop_
 _atom_site_type_symbol
 _atom_site_label
 _atom_site_symmetry_multiplicity
 _atom_site_fract_x
 _atom_site_fract_y
 _atom_site_fract_z
 _atom_site_occupancy
  C  C0  1  0.99850000  0.00000100  0.99697200  1
  C  C1  1  0.99850000  0.49999800  0.99697400  1
  C  C2  1  0.60148400  0.99999800  0.20301900  1
  C  C3  1  0.60148500  0.50000000  0.20301800  1
  C  C4  1  0.80000900  0.00000700  0.60000900  1
  C  C5  1  0.79999600  0.50000500  0.60000100  1
  C  C6  1  0.20301300  0.99999300  0.40615800  1
  C  C7  1  0.20305200  0.50001200  0.40616400  1
  C  C8  1  0.39696500  0.00000100  0.79383900  1
  C  C9  1  0.39696600  0.50000700  0.79383900  1
  Ni  Ni10  1  0.10182400  0.25000100  0.20363900  1
  Ni  Ni11  1  0.10182600  0.75000000  0.20363500  1
  Ni  Ni12  1  0.49818000  0.24999400  0.99634900  1
  Ni  Ni13  1  0.49818300  0.75000600  0.99635200  1
  Cu  Cu14  1  0.29999600  0.75000400  0.60000500  1
  Cu  Cu15  1  0.70138000  0.24999700  0.40278900  1
  Cu  Cu16  1  0.89863700  0.24999700  0.79721600  1
  Cu  Cu17  1  0.30000700  0.25000700  0.60000500  1
  Cu  Cu18  1  0.70138000  0.74999800  0.40279500  1
  Cu  Cu19  1  0.89863700  0.74999900  0.79721300  1
  C  C20  1  0.29996700  0.00000100  0.59999100  1
  C  C21  1  0.29997600  0.50000000  0.59998700  1
  C  C22  1  0.79998300  0.25000100  0.09999500  1
  C  C23  1  0.79998300  0.74999800  0.09999400  1
  C  C24  1  0.29996500  0.25000300  0.09999300  1
  C  C25  1  0.29996600  0.74999700  0.09999400  1
  C  C26  1  0.49633900  0.00000200  0.99277500  1
  C  C27  1  0.49634100  0.49999600  0.99277400  1
  C  C28  1  0.10365200  0.99999900  0.20724700  1
  C  C29  1  0.10365100  0.49999900  0.20724700  1
  C  C30  1  0.70545700  0.99999400  0.41087400  1
  C  C31  1  0.70547300  0.50000400  0.41087200  1
  C  C32  1  0.89455400  0.99999900  0.78913600  1
  C  C33  1  0.89455000  0.50000000  0.78913800  1
  C  C34  1  0.38836200  0.25000000  0.30588000  1
  C  C35  1  0.38837000  0.74999800  0.30588400  1
  C  C36  1  0.91756500  0.24999300  0.30589800  1
  C  C37  1  0.91756300  0.75000300  0.30590300  1
  C  C38  1  0.21165600  0.25000300  0.89410500  1
  C  C39  1  0.21166000  0.74999200  0.89410300  1
  C  C40  1  0.68243000  0.25000100  0.89409200  1
  C  C41  1  0.68243600  0.74999800  0.89409200  1
  C  C42  1  0.00181000  0.24999700  0.50105400  1
  C  C43  1  0.00180100  0.74999400  0.50105400  1
  C  C44  1  0.59821200  0.24999900  0.69894900  1
  C  C45  1  0.59821500  0.75000300  0.69895300  1
  C  C46  1  0.49926600  0.25000500  0.50106400  1
  C  C47  1  0.49926600  0.74999700  0.50106100  1
  C  C48  1  0.10075500  0.25000400  0.69894900  1
  C  C49  1  0.10075500  0.74999400  0.69895200  1
