# generated using pymatgen
data_Cu2NiC6
_symmetry_space_group_name_H-M   'P 1'
_cell_length_a   10.48561366
_cell_length_b   10.48561366
_cell_length_c   6.18205800
_cell_angle_alpha   90.00000000
_cell_angle_beta   90.00000000
_cell_angle_gamma   145.83933344
_symmetry_Int_Tables_number   1
_chemical_formula_structural   Cu2NiC6
_chemical_formula_sum   'Cu4 Ni2 C12'
_cell_volume   381.66513968
_cell_formula_units_Z   2
loop_
 _symmetry_equiv_pos_site_id
 _symmetry_equiv_pos_as_xyz
  1  'x, y, z'
loop_
 _atom_site_type_symbol
 _atom_site_label
 _atom_site_symmetry_multiplicity
 _atom_site_fract_x
 _atom_site_fract_y
 _atom_site_fract_z
 _atom_site_occupancy
  C  C0  1  0.91145500  0.08854500  0.50000000  1
  C  C1  1  0.41145500  0.58854500  0.00000000  1
  C  C2  1  0.58854500  0.41145500  0.00000000  1
  C  C3  1  0.08854500  0.91145500  0.50000000  1
  Ni  Ni4  1  0.00000000  0.00000000  0.00000000  1
  Ni  Ni5  1  0.50000000  0.50000000  0.50000000  1
  Cu  Cu6  1  0.99798000  0.49798000  0.75000000  1
  Cu  Cu7  1  0.50202000  0.00202000  0.25000000  1
  Cu  Cu8  1  0.49798000  0.99798000  0.75000000  1
  Cu  Cu9  1  0.00202000  0.50202000  0.25000000  1
  C  C10  1  0.66336300  0.33663700  0.50000000  1
  C  C11  1  0.16336300  0.83663700  0.00000000  1
  C  C12  1  0.83663700  0.16336300  0.00000000  1
  C  C13  1  0.33663700  0.66336300  0.50000000  1
  C  C14  1  0.78667900  0.78667900  0.21659000  1
  C  C15  1  0.21332100  0.21332100  0.78341000  1
  C  C16  1  0.28667900  0.28667900  0.28341000  1
  C  C17  1  0.71332100  0.71332100  0.71659000  1
