# generated using pymatgen
data_Cu2Ni4C3
_symmetry_space_group_name_H-M   'P 1'
_cell_length_a   5.69339000
_cell_length_b   6.99851800
_cell_length_c   8.37585300
_cell_angle_alpha   90.00000000
_cell_angle_beta   90.00000000
_cell_angle_gamma   90.00000000
_symmetry_Int_Tables_number   1
_chemical_formula_structural   Cu2Ni4C3
_chemical_formula_sum   'Cu8 Ni16 C12'
_cell_volume   333.73831185
_cell_formula_units_Z   4
loop_
 _symmetry_equiv_pos_site_id
 _symmetry_equiv_pos_as_xyz
  1  'x, y, z'
loop_
 _atom_site_type_symbol
 _atom_site_label
 _atom_site_symmetry_multiplicity
 _atom_site_fract_x
 _atom_site_fract_y
 _atom_site_fract_z
 _atom_site_occupancy
  Ni  Ni0  1  0.60346700  0.68069900  0.51599500  1
  Ni  Ni1  1  0.89653300  0.68069900  0.51599500  1
  Ni  Ni2  1  0.60346700  0.81930100  0.01599500  1
  Ni  Ni3  1  0.89653300  0.81930100  0.01599500  1
  Ni  Ni4  1  0.39653300  0.31930100  0.48400500  1
  Ni  Ni5  1  0.10346700  0.31930100  0.48400500  1
  Ni  Ni6  1  0.10346700  0.18069900  0.98400500  1
  Ni  Ni7  1  0.39653300  0.18069900  0.98400500  1
  Ni  Ni8  1  0.99521900  0.62513700  0.21451800  1
  Ni  Ni9  1  0.50478100  0.87486300  0.71451800  1
  Ni  Ni10  1  0.49521900  0.37486300  0.78548200  1
  Ni  Ni11  1  0.00478100  0.12513700  0.28548200  1
  Ni  Ni12  1  0.00478100  0.37486300  0.78548200  1
  Ni  Ni13  1  0.49521900  0.12513700  0.28548200  1
  Ni  Ni14  1  0.50478100  0.62513700  0.21451800  1
  Ni  Ni15  1  0.99521900  0.87486300  0.71451800  1
  Cu  Cu16  1  0.25000000  0.18455300  0.91107600  1
  Cu  Cu17  1  0.25000000  0.31544700  0.41107600  1
  Cu  Cu18  1  0.75000000  0.81544700  0.08892400  1
  Cu  Cu19  1  0.75000000  0.68455300  0.58892400  1
  Cu  Cu20  1  0.25000000  0.50548700  0.33552400  1
  Cu  Cu21  1  0.25000000  0.99451300  0.83552400  1
  Cu  Cu22  1  0.75000000  0.49451300  0.66447600  1
  Cu  Cu23  1  0.75000000  0.00548700  0.16447600  1
  C  C24  1  0.25000000  0.65158300  0.42391100  1
  C  C25  1  0.25000000  0.84841700  0.92391100  1
  C  C26  1  0.75000000  0.34841700  0.57608900  1
  C  C27  1  0.75000000  0.15158300  0.07608900  1
  C  C28  1  0.04311300  0.49033600  0.23009000  1
  C  C29  1  0.45688700  0.00966400  0.73009000  1
  C  C30  1  0.54311300  0.50966400  0.76991000  1
  C  C31  1  0.95688700  0.99033600  0.26991000  1
  C  C32  1  0.95688700  0.50966400  0.76991000  1
  C  C33  1  0.54311300  0.99033600  0.26991000  1
  C  C34  1  0.45688700  0.49033600  0.23009000  1
  C  C35  1  0.04311300  0.00966400  0.73009000  1
