# generated using pymatgen
data_Cu8(NiC5)5
_symmetry_space_group_name_H-M   'P 1'
_cell_length_a   10.17599942
_cell_length_b   10.17599942
_cell_length_c   10.17599942
_cell_angle_alpha   94.53468317
_cell_angle_beta   94.53468317
_cell_angle_gamma   147.33863708
_symmetry_Int_Tables_number   1
_chemical_formula_structural   Cu8(NiC5)5
_chemical_formula_sum   'Cu8 Ni5 C25'
_cell_volume   545.72865754
_cell_formula_units_Z   1
loop_
 _symmetry_equiv_pos_site_id
 _symmetry_equiv_pos_as_xyz
  1  'x, y, z'
loop_
 _atom_site_type_symbol
 _atom_site_label
 _atom_site_symmetry_multiplicity
 _atom_site_fract_x
 _atom_site_fract_y
 _atom_site_fract_z
 _atom_site_occupancy
  Ni  Ni0  1  0.53549300  0.86007300  0.39556500  1
  Ni  Ni1  1  0.86007300  0.46450700  0.32458000  1
  Ni  Ni2  1  0.13992700  0.53549300  0.67542000  1
  Ni  Ni3  1  0.46450700  0.13992700  0.60443500  1
  Ni  Ni4  1  0.00000000  0.00000000  0.00000000  1
  Cu  Cu5  1  0.41123800  0.64163500  0.05287300  1
  Cu  Cu6  1  0.64163500  0.58876200  0.23039700  1
  Cu  Cu7  1  0.35836500  0.41123800  0.76960300  1
  Cu  Cu8  1  0.58876200  0.35836500  0.94712700  1
  Cu  Cu9  1  0.24751900  0.83182300  0.07934200  1
  Cu  Cu10  1  0.83182300  0.75248100  0.58430400  1
  Cu  Cu11  1  0.16817700  0.24751900  0.41569600  1
  Cu  Cu12  1  0.75248100  0.16817700  0.92065800  1
  C  C13  1  0.04058900  0.75007300  0.79066200  1
  C  C14  1  0.75007300  0.95941100  0.70948400  1
  C  C15  1  0.24992700  0.04058900  0.29051600  1
  C  C16  1  0.95941100  0.24992700  0.20933800  1
  C  C17  1  0.89960000  0.49425600  0.89215000  1
  C  C18  1  0.49425600  0.60210600  0.59465500  1
  C  C19  1  0.00745000  0.89960000  0.40534500  1
  C  C20  1  0.60210600  0.00745000  0.10785000  1
  C  C21  1  0.10040000  0.50574400  0.10785000  1
  C  C22  1  0.50574400  0.39789400  0.40534500  1
  C  C23  1  0.99255000  0.10040000  0.59465500  1
  C  C24  1  0.39789400  0.99255000  0.89215000  1
  C  C25  1  0.07348000  0.29921900  0.87086000  1
  C  C26  1  0.29921900  0.42835900  0.22573900  1
  C  C27  1  0.20262000  0.07348000  0.77426100  1
  C  C28  1  0.42835900  0.20262000  0.12914000  1
  C  C29  1  0.92652000  0.70078100  0.12914000  1
  C  C30  1  0.70078100  0.57164100  0.77426100  1
  C  C31  1  0.79738000  0.92652000  0.22573900  1
  C  C32  1  0.57164100  0.79738000  0.87086000  1
  C  C33  1  0.62898300  0.03880600  0.66778900  1
  C  C34  1  0.50000000  0.50000000  0.00000000  1
  C  C35  1  0.37101700  0.96119400  0.33221100  1
  C  C36  1  0.96119400  0.62898300  0.59017700  1
  C  C37  1  0.03880600  0.37101700  0.40982300  1
