# generated using pymatgen
data_Cu6Ni13C18
_symmetry_space_group_name_H-M   'P 1'
_cell_length_a   6.00226800
_cell_length_b   10.39779975
_cell_length_c   19.46632734
_cell_angle_alpha   90.26591436
_cell_angle_beta   90.04204250
_cell_angle_gamma   90.37922129
_symmetry_Int_Tables_number   1
_chemical_formula_structural   Cu6Ni13C18
_chemical_formula_sum   'Cu12 Ni26 C36'
_cell_volume   1214.86085036
_cell_formula_units_Z   2
loop_
 _symmetry_equiv_pos_site_id
 _symmetry_equiv_pos_as_xyz
  1  'x, y, z'
loop_
 _atom_site_type_symbol
 _atom_site_label
 _atom_site_symmetry_multiplicity
 _atom_site_fract_x
 _atom_site_fract_y
 _atom_site_fract_z
 _atom_site_occupancy
  Ni  Ni0  1  0.00134000  0.99841000  0.41118000  1
  Ni  Ni1  1  0.99435100  0.00607600  0.74438000  1
  Ni  Ni2  1  0.25070300  0.74931800  0.00026100  1
  Ni  Ni3  1  0.48603500  0.49979100  0.25497200  1
  Ni  Ni4  1  0.49370700  0.50589300  0.74424300  1
  Ni  Ni5  1  0.75209600  0.75020900  0.00074100  1
  Ni  Ni6  1  0.74912800  0.74734800  0.33471100  1
  Ni  Ni7  1  0.75083400  0.75049300  0.66638100  1
  Ni  Ni8  1  0.00006500  0.49969000  0.99906500  1
  Ni  Ni9  1  0.99999000  0.49995500  0.66673100  1
  Ni  Ni10  1  0.00247200  0.99985900  0.25532300  1
  Ni  Ni11  1  0.00750100  0.99397700  0.58782800  1
  Ni  Ni12  1  0.99759500  0.00162900  0.91990100  1
  Ni  Ni13  1  0.24970600  0.74670900  0.33261400  1
  Ni  Ni14  1  0.25123500  0.25054800  0.99944700  1
  Ni  Ni15  1  0.24875500  0.25017000  0.66594400  1
  Ni  Ni16  1  0.24960400  0.25307000  0.33353200  1
  Ni  Ni17  1  0.49818900  0.50014100  0.07778800  1
  Ni  Ni18  1  0.50842100  0.49373900  0.58806000  1
  Ni  Ni19  1  0.51409100  0.49844700  0.41269500  1
  Ni  Ni20  1  0.49937300  0.50153300  0.92204200  1
  Ni  Ni21  1  0.49668900  0.99962600  0.00010700  1
  Ni  Ni22  1  0.49924800  0.00033400  0.33439400  1
  Ni  Ni23  1  0.49951600  0.00017100  0.66651900  1
  Ni  Ni24  1  0.75000500  0.25303900  0.33386800  1
  Ni  Ni25  1  0.75163700  0.24957400  0.00151200  1
  Cu  Cu26  1  0.49259800  0.83232500  0.50221600  1
  Cu  Cu27  1  0.50468900  0.83483900  0.16499000  1
  Cu  Cu28  1  0.49792300  0.83039400  0.83138700  1
  Cu  Cu29  1  0.99877600  0.66469600  0.16788100  1
  Cu  Cu30  1  0.00522300  0.66661300  0.83103900  1
  Cu  Cu31  1  0.00022600  0.66589800  0.50030600  1
  Cu  Cu32  1  0.00009900  0.33535100  0.16796700  1
  Cu  Cu33  1  0.99283200  0.33780000  0.50041800  1
  Cu  Cu34  1  0.99780700  0.33002800  0.83092200  1
  Cu  Cu35  1  0.50286700  0.16504400  0.16497700  1
  Cu  Cu36  1  0.50064800  0.17101600  0.50242000  1
  Cu  Cu37  1  0.50524900  0.16631800  0.83133000  1
  C  C38  1  0.31114200  0.68757300  0.10309500  1
  C  C39  1  0.31272000  0.68685500  0.77107400  1
  C  C40  1  0.31331800  0.68510200  0.43483600  1
  C  C41  1  0.62583000  0.00142100  0.56421500  1
  C  C42  1  0.62556000  0.00069400  0.23112700  1
  C  C43  1  0.61986700  0.99786700  0.89659400  1
  C  C44  1  0.68502600  0.68735000  0.23157100  1
  C  C45  1  0.68421100  0.68803000  0.56414600  1
  C  C46  1  0.69455500  0.68929700  0.89635900  1
  C  C47  1  0.81271700  0.80502100  0.10430000  1
  C  C48  1  0.80528400  0.81227800  0.43767300  1
  C  C49  1  0.81492400  0.81259700  0.76917000  1
  C  C50  1  0.81217100  0.19395800  0.10443600  1
  C  C51  1  0.81154300  0.18711700  0.43559500  1
  C  C52  1  0.81175000  0.18662300  0.77085900  1
  C  C53  1  0.87367500  0.49930100  0.10179800  1
  C  C54  1  0.87782300  0.50300000  0.43866100  1
  C  C55  1  0.87233800  0.49826500  0.76907800  1
  C  C56  1  0.12286500  0.50078100  0.22796400  1
  C  C57  1  0.13014600  0.50159800  0.56531700  1
  C  C58  1  0.12205600  0.49777600  0.89541500  1
  C  C59  1  0.19237500  0.81254600  0.23007300  1
  C  C60  1  0.18267500  0.81102000  0.56098400  1
  C  C61  1  0.18733700  0.81322000  0.89786400  1
  C  C62  1  0.19210600  0.18844900  0.23014300  1
  C  C63  1  0.18120000  0.18914300  0.56306300  1
  C  C64  1  0.19314000  0.18813300  0.89576900  1
  C  C65  1  0.31135500  0.31140600  0.10305100  1
  C  C66  1  0.30717100  0.31390900  0.43702500  1
  C  C67  1  0.31521600  0.31205400  0.76896600  1
  C  C68  1  0.38295000  0.99919000  0.10304500  1
  C  C69  1  0.37750400  0.00254700  0.43821000  1
  C  C70  1  0.37357300  0.99810400  0.76904900  1
  C  C71  1  0.68502600  0.31368600  0.23151300  1
  C  C72  1  0.68863400  0.31206900  0.56282700  1
  C  C73  1  0.68899200  0.31195200  0.89840800  1
