# generated using pymatgen
data_Cu6NiC5
_symmetry_space_group_name_H-M   'P 1'
_cell_length_a   6.86266800
_cell_length_b   7.41915900
_cell_length_c   10.57751300
_cell_angle_alpha   90.00000000
_cell_angle_beta   90.00000000
_cell_angle_gamma   90.00000000
_symmetry_Int_Tables_number   1
_chemical_formula_structural   Cu6NiC5
_chemical_formula_sum   'Cu24 Ni4 C20'
_cell_volume   538.55645493
_cell_formula_units_Z   4
loop_
 _symmetry_equiv_pos_site_id
 _symmetry_equiv_pos_as_xyz
  1  'x, y, z'
loop_
 _atom_site_type_symbol
 _atom_site_label
 _atom_site_symmetry_multiplicity
 _atom_site_fract_x
 _atom_site_fract_y
 _atom_site_fract_z
 _atom_site_occupancy
  C  C0  1  0.24297200  0.77371200  0.64290700  1
  C  C1  1  0.27057100  0.73069300  0.79514500  1
  C  C2  1  0.74297200  0.72628800  0.35709300  1
  C  C3  1  0.77057100  0.76930700  0.20485500  1
  C  C4  1  0.25702800  0.22628800  0.14290700  1
  C  C5  1  0.22942900  0.26930700  0.29514500  1
  C  C6  1  0.75702800  0.27371200  0.85709300  1
  C  C7  1  0.72942900  0.23069300  0.70485500  1
  C  C8  1  0.26323700  0.96364000  0.74789300  1
  C  C9  1  0.12050700  0.19350100  0.74049200  1
  C  C10  1  0.34246300  0.21651800  0.76338900  1
  C  C11  1  0.84246300  0.28348200  0.23661100  1
  C  C12  1  0.62050700  0.30649900  0.25950800  1
  C  C13  1  0.76323700  0.53636000  0.25210700  1
  C  C14  1  0.15753700  0.78348200  0.26338900  1
  C  C15  1  0.23676300  0.03636000  0.24789300  1
  C  C16  1  0.37949300  0.80649900  0.24049200  1
  C  C17  1  0.87949300  0.69350100  0.75950800  1
  C  C18  1  0.73676300  0.46364000  0.75210700  1
  C  C19  1  0.65753700  0.71651800  0.73661100  1
  Ni  Ni20  1  0.18046400  0.49111900  0.50831400  1
  Ni  Ni21  1  0.68046400  0.00888100  0.49168600  1
  Ni  Ni22  1  0.31953600  0.50888100  0.00831400  1
  Ni  Ni23  1  0.81953600  0.99111900  0.99168600  1
  Cu  Cu24  1  0.14743600  0.68796100  0.51980300  1
  Cu  Cu25  1  0.64743600  0.81203900  0.48019700  1
  Cu  Cu26  1  0.35256400  0.31203900  0.01980300  1
  Cu  Cu27  1  0.85256400  0.18796100  0.98019700  1
  Cu  Cu28  1  0.99631300  0.39685200  0.51394900  1
  Cu  Cu29  1  0.49631300  0.10314800  0.48605100  1
  Cu  Cu30  1  0.50368700  0.60314800  0.01394900  1
  Cu  Cu31  1  0.00368700  0.89685200  0.98605100  1
  Cu  Cu32  1  0.30952900  0.43483100  0.61002800  1
  Cu  Cu33  1  0.80952900  0.06516900  0.38997200  1
  Cu  Cu34  1  0.19047100  0.56516900  0.11002800  1
  Cu  Cu35  1  0.69047100  0.93483100  0.88997200  1
  Cu  Cu36  1  0.22659500  0.54147000  0.88432900  1
  Cu  Cu37  1  0.72659500  0.95853000  0.11567100  1
  Cu  Cu38  1  0.27340500  0.45853000  0.38432900  1
  Cu  Cu39  1  0.77340500  0.04147000  0.61567100  1
  Cu  Cu40  1  0.29964300  0.81980600  0.72616500  1
  Cu  Cu41  1  0.79964300  0.68019400  0.27383500  1
  Cu  Cu42  1  0.20035700  0.18019400  0.22616500  1
  Cu  Cu43  1  0.70035700  0.31980600  0.77383500  1
  Cu  Cu44  1  0.23377600  0.13394300  0.77745100  1
  Cu  Cu45  1  0.73377600  0.36605700  0.22254900  1
  Cu  Cu46  1  0.26622400  0.86605700  0.27745100  1
  Cu  Cu47  1  0.76622400  0.63394300  0.72254900  1
