# generated using pymatgen
data_CuNiC
_symmetry_space_group_name_H-M   'P 1'
_cell_length_a   7.33825179
_cell_length_b   7.65142428
_cell_length_c   7.58294322
_cell_angle_alpha   57.55472285
_cell_angle_beta   61.61993653
_cell_angle_gamma   59.56197538
_symmetry_Int_Tables_number   1
_chemical_formula_structural   CuNiC
_chemical_formula_sum   'Cu6 Ni6 C6'
_cell_volume   297.41991050
_cell_formula_units_Z   6
loop_
 _symmetry_equiv_pos_site_id
 _symmetry_equiv_pos_as_xyz
  1  'x, y, z'
loop_
 _atom_site_type_symbol
 _atom_site_label
 _atom_site_symmetry_multiplicity
 _atom_site_fract_x
 _atom_site_fract_y
 _atom_site_fract_z
 _atom_site_occupancy
  C  C0  1  0.37127300  0.37130100  0.37872100  1
  C  C1  1  0.62872600  0.62870000  0.62127700  1
  C  C2  1  0.99999800  0.00000000  0.00000000  1
  C  C3  1  0.00000000  0.99999600  0.50000200  1
  C  C4  1  0.00000200  0.50000800  0.99999200  1
  C  C5  1  0.50000500  0.99999900  0.00000000  1
  Ni  Ni6  1  0.69425000  0.05690600  0.03594300  1
  Ni  Ni7  1  0.05683400  0.69455200  0.71273900  1
  Ni  Ni8  1  0.30039000  0.30035100  0.94959300  1
  Ni  Ni9  1  0.69961300  0.69964800  0.05040500  1
  Ni  Ni10  1  0.94316500  0.30544600  0.28726700  1
  Ni  Ni11  1  0.30574600  0.94309200  0.96405900  1
  Cu  Cu12  1  0.08740200  0.64963800  0.08076600  1
  Cu  Cu13  1  0.07731400  0.07737600  0.67263300  1
  Cu  Cu14  1  0.35016400  0.91237800  0.31802900  1
  Cu  Cu15  1  0.64983600  0.08762100  0.68196900  1
  Cu  Cu16  1  0.92268800  0.92262400  0.32736500  1
  Cu  Cu17  1  0.91259600  0.35036300  0.91924000  1
