# generated using pymatgen
data_Cu2(NiC6)3
_symmetry_space_group_name_H-M   'P 1'
_cell_length_a   8.21188163
_cell_length_b   8.21188163
_cell_length_c   5.02681200
_cell_angle_alpha   90.00000000
_cell_angle_beta   90.00000000
_cell_angle_gamma   119.99999704
_symmetry_Int_Tables_number   1
_chemical_formula_structural   Cu2(NiC6)3
_chemical_formula_sum   'Cu2 Ni3 C18'
_cell_volume   293.56795617
_cell_formula_units_Z   1
loop_
 _symmetry_equiv_pos_site_id
 _symmetry_equiv_pos_as_xyz
  1  'x, y, z'
loop_
 _atom_site_type_symbol
 _atom_site_label
 _atom_site_symmetry_multiplicity
 _atom_site_fract_x
 _atom_site_fract_y
 _atom_site_fract_z
 _atom_site_occupancy
  C  C0  1  0.00000000  0.42219500  0.00000000  1
  C  C1  1  0.57780500  0.57780500  0.00000000  1
  C  C2  1  0.42219500  0.00000000  0.00000000  1
  C  C3  1  0.00000000  0.00000000  0.00000000  1
  Ni  Ni4  1  0.25681500  0.25681500  0.50000000  1
  Ni  Ni5  1  0.74318500  0.00000000  0.50000000  1
  Ni  Ni6  1  0.00000000  0.74318500  0.50000000  1
  Cu  Cu7  1  0.33333300  0.66666700  0.55037400  1
  Cu  Cu8  1  0.66666700  0.33333300  0.44962600  1
  C  C9  1  0.08628500  0.22532300  0.23484400  1
  C  C10  1  0.77467700  0.86096200  0.23484400  1
  C  C11  1  0.13903800  0.91371500  0.23484400  1
  C  C12  1  0.86096200  0.77467700  0.76515600  1
  C  C13  1  0.91371500  0.13903800  0.76515600  1
  C  C14  1  0.22532300  0.08628500  0.76515600  1
  C  C15  1  0.32381900  0.47836100  0.69046800  1
  C  C16  1  0.52163900  0.84545800  0.69046800  1
  C  C17  1  0.15454200  0.67618100  0.69046800  1
  C  C18  1  0.33333300  0.66666700  0.22994300  1
  C  C19  1  0.66666700  0.33333300  0.77005700  1
  C  C20  1  0.47836100  0.32381900  0.30953200  1
  C  C21  1  0.67618100  0.15454200  0.30953200  1
  C  C22  1  0.84545800  0.52163900  0.30953200  1
