# generated using pymatgen
data_Cu2Ni28C5
_symmetry_space_group_name_H-M   'P 1'
_cell_length_a   18.16804600
_cell_length_b   9.87649400
_cell_length_c   19.78876477
_cell_angle_alpha   83.73575964
_cell_angle_beta   90.00000000
_cell_angle_gamma   90.00000000
_symmetry_Int_Tables_number   1
_chemical_formula_structural   Cu2Ni28C5
_chemical_formula_sum   'Cu8 Ni112 C20'
_cell_volume   3529.62750486
_cell_formula_units_Z   4
loop_
 _symmetry_equiv_pos_site_id
 _symmetry_equiv_pos_as_xyz
  1  'x, y, z'
loop_
 _atom_site_type_symbol
 _atom_site_label
 _atom_site_symmetry_multiplicity
 _atom_site_fract_x
 _atom_site_fract_y
 _atom_site_fract_z
 _atom_site_occupancy
  Ni  Ni0  1  0.89989600  0.83084600  0.78281600  1
  Ni  Ni1  1  0.90560100  0.16874800  0.76523600  1
  Ni  Ni2  1  0.90097600  0.50972700  0.77155600  1
  Ni  Ni3  1  0.48661700  0.32157800  0.32876200  1
  Ni  Ni4  1  0.86730400  0.76424700  0.47281000  1
  Ni  Ni5  1  0.50658800  0.86396800  0.59641900  1
  Ni  Ni6  1  0.89144700  0.60331600  0.93356300  1
  Ni  Ni7  1  0.96825500  0.61229300  0.35139800  1
  Ni  Ni8  1  0.15055400  0.00610400  0.67605800  1
  Ni  Ni9  1  0.34944600  0.50610400  0.17605800  1
  Ni  Ni10  1  0.50874200  0.51707200  0.60087900  1
  Ni  Ni11  1  0.03174500  0.38770700  0.64860200  1
  Ni  Ni12  1  0.47579800  0.39939200  0.07058300  1
  Ni  Ni13  1  0.52400900  0.78740300  0.85704700  1
  Ni  Ni14  1  0.02304100  0.22522300  0.57950900  1
  Ni  Ni15  1  0.37038300  0.07605400  0.01095000  1
  Ni  Ni16  1  0.35118300  0.90843300  0.16979700  1
  Ni  Ni17  1  0.39989600  0.66915400  0.71718400  1
  Ni  Ni18  1  0.46825500  0.88770700  0.14860200  1
  Ni  Ni19  1  0.10010400  0.16915400  0.21718400  1
  Ni  Ni20  1  0.51925200  0.93658100  0.93252700  1
  Ni  Ni21  1  0.13269600  0.23575300  0.52719000  1
  Ni  Ni22  1  0.51572200  0.00521200  0.67631800  1
  Ni  Ni23  1  0.48074800  0.06341900  0.06747300  1
  Ni  Ni24  1  0.99125800  0.01707200  0.10087900  1
  Ni  Ni25  1  0.19282000  0.40571800  0.56706600  1
  Ni  Ni26  1  0.10855300  0.39668400  0.06643700  1
  Ni  Ni27  1  0.46583800  0.53673900  0.15202500  1
  Ni  Ni28  1  0.62961700  0.92394600  0.98905000  1
  Ni  Ni29  1  0.09902400  0.49027300  0.22844400  1
  Ni  Ni30  1  0.30718000  0.90571800  0.06706600  1
  Ni  Ni31  1  0.02420200  0.89939200  0.57058300  1
  Ni  Ni32  1  0.14881700  0.40843300  0.66979700  1
  Ni  Ni33  1  0.00658800  0.63603200  0.90358100  1
  Ni  Ni34  1  0.99341200  0.36396800  0.09641900  1
  Ni  Ni35  1  0.52420200  0.60060800  0.92941700  1
  Ni  Ni36  1  0.40097600  0.99027300  0.72844400  1
  Ni  Ni37  1  0.97579800  0.10060800  0.42941700  1
  Ni  Ni38  1  0.84203200  0.32261000  0.81467000  1
  Ni  Ni39  1  0.40560100  0.33125200  0.73476400  1
  Ni  Ni40  1  0.84457700  0.00148100  0.82628800  1
  Ni  Ni41  1  0.01338300  0.82157800  0.82876200  1
  Ni  Ni42  1  0.47695900  0.72522300  0.07950900  1
  Ni  Ni43  1  0.51338300  0.67842200  0.67123800  1
  Ni  Ni44  1  0.98165400  0.83903100  0.18018200  1
  Ni  Ni45  1  0.01572200  0.49478800  0.82368200  1
  Ni  Ni46  1  0.13538200  0.91169900  0.51495700  1
  Ni  Ni47  1  0.15796800  0.67739000  0.18533000  1
  Ni  Ni48  1  0.97599100  0.28740300  0.35704700  1
  Ni  Ni49  1  0.48757400  0.80757900  0.39613300  1
  Ni  Ni50  1  0.10664600  0.99795700  0.07281000  1
  Ni  Ni51  1  0.53416200  0.46326100  0.84797500  1
  Ni  Ni52  1  0.63538200  0.58830100  0.98504300  1
  Ni  Ni53  1  0.86461800  0.08830100  0.48504300  1
  Ni  Ni54  1  0.65796800  0.82261000  0.31467000  1
  Ni  Ni55  1  0.01925200  0.56341900  0.56747300  1
  Ni  Ni56  1  0.60010400  0.33084600  0.28281600  1
  Ni  Ni57  1  0.36461800  0.41169900  0.01495700  1
  Ni  Ni58  1  0.52304100  0.27477700  0.92049100  1
  Ni  Ni59  1  0.12961700  0.57605400  0.51095000  1
  Ni  Ni60  1  0.69532100  0.44408500  0.92634500  1
  Ni  Ni61  1  0.97695900  0.77477700  0.42049100  1
  Ni  Ni62  1  0.01834600  0.16096900  0.81981800  1
  Ni  Ni63  1  0.69282000  0.09428200  0.93293400  1
  Ni  Ni64  1  0.39144700  0.89668400  0.56643700  1
  Ni  Ni65  1  0.80467900  0.94408500  0.42634500  1
  Ni  Ni66  1  0.96583800  0.96326100  0.34797500  1
  Ni  Ni67  1  0.34137000  0.85022800  0.66687000  1
  Ni  Ni68  1  0.30523700  0.22773200  0.06051700  1
  Ni  Ni69  1  0.64881700  0.09156700  0.83020300  1
  Ni  Ni70  1  0.80718000  0.59428200  0.43293400  1
  Ni  Ni71  1  0.48165400  0.66096900  0.31981800  1
  Ni  Ni72  1  0.34457700  0.49851900  0.67371200  1
  Ni  Ni73  1  0.39335400  0.49795700  0.57281000  1
  Ni  Ni74  1  0.65542300  0.50148100  0.32628800  1
  Ni  Ni75  1  0.98757400  0.69242100  0.10386700  1
  Ni  Ni76  1  0.65055400  0.49389600  0.82394200  1
  Ni  Ni77  1  0.85118300  0.59156700  0.33020300  1
  Ni  Ni78  1  0.34203200  0.17739000  0.68533000  1
  Ni  Ni79  1  0.69476300  0.77226800  0.93948300  1
  Ni  Ni80  1  0.59439900  0.66874800  0.26523600  1
  Ni  Ni81  1  0.98427800  0.50521200  0.17631800  1
  Ni  Ni82  1  0.48427800  0.99478800  0.32368200  1
  Ni  Ni83  1  0.30467900  0.55591500  0.07365500  1
  Ni  Ni84  1  0.15863000  0.35022800  0.16687000  1
  Ni  Ni85  1  0.00874200  0.98292800  0.89912100  1
  Ni  Ni86  1  0.19532100  0.05591500  0.57365500  1
  Ni  Ni87  1  0.01242600  0.30757900  0.89613300  1
  Ni  Ni88  1  0.84137000  0.64977200  0.83313000  1
  Ni  Ni89  1  0.53174500  0.11229300  0.85139800  1
  Ni  Ni90  1  0.49341200  0.13603200  0.40358100  1
  Ni  Ni91  1  0.59902400  0.00972700  0.27155600  1
  Ni  Ni92  1  0.98661700  0.17842200  0.17123800  1
  Ni  Ni93  1  0.84944600  0.99389600  0.32394200  1
  Ni  Ni94  1  0.47599100  0.21259700  0.14295300  1
  Ni  Ni95  1  0.36730400  0.73575300  0.02719000  1
  Ni  Ni96  1  0.89335400  0.00204300  0.92719000  1
  Ni  Ni97  1  0.03416200  0.03673900  0.65202500  1
  Ni  Ni98  1  0.60664600  0.50204300  0.42719000  1
  Ni  Ni99  1  0.49125800  0.48292800  0.39912100  1
  Ni  Ni100  1  0.60855300  0.10331600  0.43356300  1
  Ni  Ni101  1  0.02400900  0.71259700  0.64295300  1
  Ni  Ni102  1  0.98074800  0.43658100  0.43252700  1
  Ni  Ni103  1  0.87038300  0.42394600  0.48905000  1
  Ni  Ni104  1  0.15542300  0.99851900  0.17371200  1
  Ni  Ni105  1  0.09439900  0.83125200  0.23476400  1
  Ni  Ni106  1  0.51242600  0.19242100  0.60386700  1
  Ni  Ni107  1  0.51834600  0.33903100  0.68018200  1
  Ni  Ni108  1  0.65863000  0.14977200  0.33313000  1
  Ni  Ni109  1  0.19476300  0.72773200  0.56051700  1
  Ni  Ni110  1  0.63269600  0.26424700  0.97281000  1
  Ni  Ni111  1  0.80523700  0.27226800  0.43948300  1
  C  C112  1  0.79607200  0.80985600  0.23538900  1
  C  C113  1  0.70392800  0.30985600  0.73538900  1
  C  C114  1  0.87163300  0.29195700  0.95711900  1
  C  C115  1  0.66509700  0.80447800  0.79628700  1
  C  C116  1  0.63970600  0.30477300  0.12739500  1
  C  C117  1  0.33446500  0.71913100  0.47626500  1
  C  C118  1  0.36029400  0.69522700  0.87260500  1
  C  C119  1  0.62836700  0.79195700  0.45711900  1
  C  C120  1  0.16553500  0.21913100  0.97626500  1
  C  C121  1  0.29607200  0.69014400  0.26461100  1
  C  C122  1  0.13970600  0.19522700  0.37260500  1
  C  C123  1  0.83446500  0.78086900  0.02373500  1
  C  C124  1  0.16509700  0.69552200  0.70371300  1
  C  C125  1  0.37163300  0.20804300  0.54288100  1
  C  C126  1  0.12836700  0.70804300  0.04288100  1
  C  C127  1  0.33490300  0.19552200  0.20371300  1
  C  C128  1  0.86029400  0.80477300  0.62739500  1
  C  C129  1  0.83490300  0.30447800  0.29628700  1
  C  C130  1  0.20392800  0.19014400  0.76461100  1
  C  C131  1  0.66553500  0.28086900  0.52373500  1
  Cu  Cu132  1  0.26668800  0.40513000  0.37636900  1
  Cu  Cu133  1  0.23331200  0.90513000  0.87636900  1
  Cu  Cu134  1  0.73331200  0.59487000  0.62363100  1
  Cu  Cu135  1  0.77258200  0.52096500  0.13383900  1
  Cu  Cu136  1  0.27258200  0.97903500  0.36616100  1
  Cu  Cu137  1  0.72741800  0.02096500  0.63383900  1
  Cu  Cu138  1  0.76668800  0.09487000  0.12363100  1
  Cu  Cu139  1  0.22741800  0.47903500  0.86616100  1
