# generated using pymatgen
data_Cu3Ni3C2
_symmetry_space_group_name_H-M   'P 1'
_cell_length_a   7.50106510
_cell_length_b   7.50106510
_cell_length_c   7.50106510
_cell_angle_alpha   60.00000000
_cell_angle_beta   60.00000000
_cell_angle_gamma   60.00000000
_symmetry_Int_Tables_number   1
_chemical_formula_structural   Cu3Ni3C2
_chemical_formula_sum   'Cu6 Ni6 C4'
_cell_volume   298.43778392
_cell_formula_units_Z   2
loop_
 _symmetry_equiv_pos_site_id
 _symmetry_equiv_pos_as_xyz
  1  'x, y, z'
loop_
 _atom_site_type_symbol
 _atom_site_label
 _atom_site_symmetry_multiplicity
 _atom_site_fract_x
 _atom_site_fract_y
 _atom_site_fract_z
 _atom_site_occupancy
  C  C0  1  0.25000000  0.25000000  0.25000000  1
  C  C1  1  0.75000000  0.75000000  0.75000000  1
  C  C2  1  0.50000000  0.50000000  0.50000000  1
  C  C3  1  0.00000000  0.00000000  0.00000000  1
  Ni  Ni4  1  0.17681900  0.82318100  0.17681900  1
  Ni  Ni5  1  0.82318100  0.17681900  0.82318100  1
  Ni  Ni6  1  0.82318100  0.82318100  0.17681900  1
  Ni  Ni7  1  0.17681900  0.17681900  0.82318100  1
  Ni  Ni8  1  0.17681900  0.82318100  0.82318100  1
  Ni  Ni9  1  0.82318100  0.17681900  0.17681900  1
  Cu  Cu10  1  0.28760100  0.71239900  0.28760100  1
  Cu  Cu11  1  0.71239900  0.71239900  0.28760100  1
  Cu  Cu12  1  0.71239900  0.28760100  0.71239900  1
  Cu  Cu13  1  0.28760100  0.28760100  0.71239900  1
  Cu  Cu14  1  0.28760100  0.71239900  0.71239900  1
  Cu  Cu15  1  0.71239900  0.28760100  0.28760100  1
