# generated using pymatgen
data_Cu12Ni12C71
_symmetry_space_group_name_H-M   'P 1'
_cell_length_a   10.74672682
_cell_length_b   10.74672682
_cell_length_c   10.68607600
_cell_angle_alpha   90.00000000
_cell_angle_beta   90.00000000
_cell_angle_gamma   91.30186973
_symmetry_Int_Tables_number   1
_chemical_formula_structural   Cu12Ni12C71
_chemical_formula_sum   'Cu12 Ni12 C71'
_cell_volume   1233.83918090
_cell_formula_units_Z   1
loop_
 _symmetry_equiv_pos_site_id
 _symmetry_equiv_pos_as_xyz
  1  'x, y, z'
loop_
 _atom_site_type_symbol
 _atom_site_label
 _atom_site_symmetry_multiplicity
 _atom_site_fract_x
 _atom_site_fract_y
 _atom_site_fract_z
 _atom_site_occupancy
  C  C0  1  0.00000000  0.50000000  0.49660800  1
  C  C1  1  0.50000000  0.50000000  0.99994000  1
  C  C2  1  0.50000000  0.00000000  0.49660800  1
  C  C3  1  0.49121600  0.34847700  0.77096800  1
  C  C4  1  0.34847700  0.49121600  0.77096800  1
  C  C5  1  0.65152300  0.50878400  0.77096800  1
  C  C6  1  0.50878400  0.65152300  0.77096800  1
  C  C7  1  0.77348300  0.34585400  0.49852400  1
  C  C8  1  0.65414600  0.22651700  0.49852400  1
  C  C9  1  0.34585400  0.77348300  0.49852400  1
  C  C10  1  0.22651700  0.65414600  0.49852400  1
  C  C11  1  0.26909400  0.97689100  0.38726900  1
  C  C12  1  0.02310900  0.73090600  0.38726900  1
  C  C13  1  0.97689100  0.26909400  0.38726900  1
  C  C14  1  0.73090600  0.02310900  0.38726900  1
  C  C15  1  0.77407100  0.49890000  0.34673600  1
  C  C16  1  0.49890000  0.77407100  0.34673600  1
  C  C17  1  0.50110000  0.22592900  0.34673600  1
  C  C18  1  0.22592900  0.50110000  0.34673600  1
  C  C19  1  0.29142800  0.11187200  0.29163700  1
  C  C20  1  0.11187200  0.29142800  0.29163700  1
  C  C21  1  0.88812800  0.70857200  0.29163700  1
  C  C22  1  0.70857200  0.88812800  0.29163700  1
  C  C23  1  0.38267000  0.97544500  0.26555700  1
  C  C24  1  0.02455500  0.61733000  0.26555700  1
  C  C25  1  0.97544500  0.38267000  0.26555700  1
  C  C26  1  0.61733000  0.02455500  0.26555700  1
  C  C27  1  0.28970300  0.28970300  0.11091000  1
  C  C28  1  0.71029700  0.71029700  0.11091000  1
  C  C29  1  0.38626700  0.73247300  0.02455900  1
  C  C30  1  0.26752700  0.61373300  0.02455900  1
  C  C31  1  0.73247300  0.38626700  0.02455900  1
  C  C32  1  0.61373300  0.26752700  0.02455900  1
  C  C33  1  0.38474200  0.26814600  0.97504500  1
  C  C34  1  0.73185400  0.61525800  0.97504500  1
  C  C35  1  0.26814600  0.38474200  0.97504500  1
  C  C36  1  0.61525800  0.73185400  0.97504500  1
  C  C37  1  0.29225700  0.70774300  0.88850800  1
  C  C38  1  0.70774300  0.29225700  0.88850800  1
  C  C39  1  0.38799300  0.02562700  0.72983600  1
  C  C40  1  0.97437300  0.61200700  0.72983600  1
  C  C41  1  0.02562700  0.38799300  0.72983600  1
  C  C42  1  0.61200700  0.97437300  0.72983600  1
  C  C43  1  0.29170400  0.88851800  0.70811700  1
  C  C44  1  0.11148200  0.70829600  0.70811700  1
  C  C45  1  0.88851800  0.29170400  0.70811700  1
  C  C46  1  0.70829600  0.11148200  0.70811700  1
  C  C47  1  0.26609700  0.02684700  0.61701000  1
  C  C48  1  0.02684700  0.26609700  0.61701000  1
  C  C49  1  0.97315300  0.73390300  0.61701000  1
  C  C50  1  0.73390300  0.97315300  0.61701000  1
  C  C51  1  0.49489100  0.65786800  0.22696000  1
  C  C52  1  0.34213200  0.50510900  0.22696000  1
  C  C53  1  0.65786800  0.49489100  0.22696000  1
  C  C54  1  0.50510900  0.34213200  0.22696000  1
  C  C55  1  0.35345400  0.35345400  0.64697500  1
  C  C56  1  0.64654600  0.64654600  0.64697500  1
  C  C57  1  0.35129000  0.64871000  0.35324400  1
  C  C58  1  0.33926900  0.03499400  0.33706900  1
  C  C59  1  0.03499400  0.33926900  0.33706900  1
  C  C60  1  0.96500600  0.66073100  0.33706900  1
  C  C61  1  0.66073100  0.96500600  0.33706900  1
  C  C62  1  0.33767100  0.33767100  0.03325000  1
  C  C63  1  0.66232900  0.66232900  0.03325000  1
  C  C64  1  0.33917300  0.66082700  0.96606700  1
  C  C65  1  0.66082700  0.33917300  0.96606700  1
  C  C66  1  0.33741300  0.96775500  0.66009700  1
  C  C67  1  0.03224500  0.66258700  0.66009700  1
  C  C68  1  0.96775500  0.33741300  0.66009700  1
  C  C69  1  0.66258700  0.03224500  0.66009700  1
  C  C70  1  0.64871000  0.35129000  0.35324400  1
  Ni  Ni71  1  0.29422900  0.44987200  0.69955600  1
  Ni  Ni72  1  0.70577100  0.55012800  0.69955600  1
  Ni  Ni73  1  0.55012800  0.70577100  0.69955600  1
  Ni  Ni74  1  0.69897800  0.30102200  0.45491400  1
  Ni  Ni75  1  0.30102200  0.69897800  0.45491400  1
  Ni  Ni76  1  0.70135900  0.45307900  0.30084600  1
  Ni  Ni77  1  0.45307900  0.70135900  0.30084600  1
  Ni  Ni78  1  0.29864100  0.54692100  0.30084600  1
  Ni  Ni79  1  0.44987200  0.29422900  0.69955600  1
  Ni  Ni80  1  0.69959400  0.69959400  0.54269800  1
  Ni  Ni81  1  0.30040600  0.30040600  0.54269800  1
  Ni  Ni82  1  0.54692100  0.29864100  0.30084600  1
  Cu  Cu83  1  0.42992600  0.08803500  0.41847300  1
  Cu  Cu84  1  0.08803500  0.42992600  0.41847300  1
  Cu  Cu85  1  0.91196500  0.57007400  0.41847300  1
  Cu  Cu86  1  0.57007400  0.91196500  0.41847300  1
  Cu  Cu87  1  0.42404200  0.42404200  0.08808200  1
  Cu  Cu88  1  0.57595800  0.57595800  0.08808200  1
  Cu  Cu89  1  0.42454800  0.57545200  0.91328000  1
  Cu  Cu90  1  0.57545200  0.42454800  0.91328000  1
  Cu  Cu91  1  0.41736600  0.91696700  0.56918500  1
  Cu  Cu92  1  0.08303300  0.58263400  0.56918500  1
  Cu  Cu93  1  0.91696700  0.41736600  0.56918500  1
  Cu  Cu94  1  0.58263400  0.08303300  0.56918500  1
