# generated using pymatgen
data_Cu4NiC24
_symmetry_space_group_name_H-M   'P 1'
_cell_length_a   14.51932900
_cell_length_b   15.10885900
_cell_length_c   15.18676400
_cell_angle_alpha   90.00000000
_cell_angle_beta   90.00000000
_cell_angle_gamma   90.00000000
_symmetry_Int_Tables_number   1
_chemical_formula_structural   Cu4NiC24
_chemical_formula_sum   'Cu16 Ni4 C96'
_cell_volume   3331.52793059
_cell_formula_units_Z   4
loop_
 _symmetry_equiv_pos_site_id
 _symmetry_equiv_pos_as_xyz
  1  'x, y, z'
loop_
 _atom_site_type_symbol
 _atom_site_label
 _atom_site_symmetry_multiplicity
 _atom_site_fract_x
 _atom_site_fract_y
 _atom_site_fract_z
 _atom_site_occupancy
  Ni  Ni0  1  0.00000000  0.62425900  0.74313000  1
  Ni  Ni1  1  0.50000000  0.99287200  0.37461100  1
  Ni  Ni2  1  0.50000000  0.00712800  0.87461100  1
  Ni  Ni3  1  0.00000000  0.37574100  0.24313000  1
  Cu  Cu4  1  0.00000000  0.12551300  0.75719300  1
  Cu  Cu5  1  0.25011900  0.75017000  0.99988700  1
  Cu  Cu6  1  0.25067700  0.87761000  0.62740600  1
  Cu  Cu7  1  0.25011900  0.24983000  0.49988700  1
  Cu  Cu8  1  0.24919100  0.62359400  0.37316900  1
  Cu  Cu9  1  0.25067700  0.12239000  0.12740600  1
  Cu  Cu10  1  0.24919100  0.37640600  0.87316900  1
  Cu  Cu11  1  0.50000000  0.49287800  0.12486600  1
  Cu  Cu12  1  0.50000000  0.50712200  0.62486600  1
  Cu  Cu13  1  0.74988100  0.75017000  0.99988700  1
  Cu  Cu14  1  0.74932300  0.12239000  0.12740600  1
  Cu  Cu15  1  0.75080900  0.37640600  0.87316900  1
  Cu  Cu16  1  0.74932300  0.87761000  0.62740600  1
  Cu  Cu17  1  0.75080900  0.62359400  0.37316900  1
  Cu  Cu18  1  0.74988100  0.24983000  0.49988700  1
  Cu  Cu19  1  0.00000000  0.87448700  0.25719300  1
  C  C20  1  0.00000000  0.27890100  0.11062700  1
  C  C21  1  0.00000000  0.24302900  0.34185000  1
  C  C22  1  0.00000000  0.03831800  0.64181400  1
  C  C23  1  0.00000000  0.01015200  0.84398700  1
  C  C24  1  0.00000000  0.49224200  0.64267000  1
  C  C25  1  0.00000000  0.72109900  0.61062700  1
  C  C26  1  0.00000000  0.52815600  0.87590200  1
  C  C27  1  0.14864700  0.87532800  0.25764600  1
  C  C28  1  0.14864700  0.12467200  0.75764600  1
  C  C29  1  0.16928600  0.37602300  0.24232500  1
  C  C30  1  0.16928600  0.62397700  0.74232500  1
  C  C31  1  0.17186300  0.85537400  0.99455500  1
  C  C32  1  0.17186300  0.14462600  0.49455500  1
  C  C33  1  0.17082800  0.35467200  0.50500000  1
  C  C34  1  0.17082800  0.64532800  0.00500000  1
  C  C35  1  0.16953300  0.87586100  0.73002300  1
  C  C36  1  0.16953300  0.12413900  0.23002300  1
  C  C37  1  0.16910600  0.62083600  0.26966300  1
  C  C38  1  0.16910600  0.37916400  0.76966300  1
  C  C39  1  0.17237000  0.37595900  0.97952100  1
  C  C40  1  0.17354100  0.87865000  0.52109100  1
  C  C41  1  0.17354100  0.12135000  0.02109100  1
  C  C42  1  0.17237000  0.62404100  0.47952100  1
  C  C43  1  0.32729100  0.72982000  0.37251700  1
  C  C44  1  0.32681700  0.77038500  0.62692100  1
  C  C45  1  0.32681700  0.22961500  0.12692100  1
  C  C46  1  0.32729100  0.27018000  0.87251700  1
  C  C47  1  0.33169800  0.01932900  0.12778000  1
  C  C48  1  0.33169800  0.98067100  0.62778000  1
  C  C49  1  0.32953000  0.51935400  0.37296500  1
  C  C50  1  0.32953000  0.48064600  0.87296500  1
  C  C51  1  0.32957300  0.25372700  0.39601300  1
  C  C52  1  0.32804000  0.24347100  0.60513900  1
  C  C53  1  0.32804000  0.75652900  0.10513900  1
  C  C54  1  0.32957300  0.74627300  0.89601300  1
  C  C55  1  0.33061100  0.00781100  0.87379600  1
  C  C56  1  0.35143800  0.49241700  0.12537000  1
  C  C57  1  0.33061100  0.99218900  0.37379600  1
  C  C58  1  0.35143800  0.50758300  0.62537000  1
  C  C59  1  0.50000000  0.85972500  0.47168400  1
  C  C60  1  0.50000000  0.09211400  0.50503400  1
  C  C61  1  0.50000000  0.14027500  0.97168400  1
  C  C62  1  0.50000000  0.88999100  0.24540100  1
  C  C63  1  0.50000000  0.12691200  0.27823500  1
  C  C64  1  0.50000000  0.87308800  0.77823500  1
  C  C65  1  0.50000000  0.90788600  0.00503400  1
  C  C66  1  0.50000000  0.11000900  0.74540100  1
  C  C67  1  0.50000000  0.37782600  0.03867400  1
  C  C68  1  0.50000000  0.40526700  0.23963600  1
  C  C69  1  0.50000000  0.58079500  0.00986600  1
  C  C70  1  0.50000000  0.60861700  0.21100900  1
  C  C71  1  0.50000000  0.39138300  0.71100900  1
  C  C72  1  0.50000000  0.59473300  0.73963600  1
  C  C73  1  0.50000000  0.41920500  0.50986600  1
  C  C74  1  0.50000000  0.62217400  0.53867400  1
  C  C75  1  0.66938900  0.99218900  0.37379600  1
  C  C76  1  0.64856200  0.50758300  0.62537000  1
  C  C77  1  0.66938900  0.00781100  0.87379600  1
  C  C78  1  0.64856200  0.49241700  0.12537000  1
  C  C79  1  0.67196000  0.75652900  0.10513900  1
  C  C80  1  0.67042700  0.74627300  0.89601300  1
  C  C81  1  0.67196000  0.24347100  0.60513900  1
  C  C82  1  0.67042700  0.25372700  0.39601300  1
  C  C83  1  0.66830200  0.98067100  0.62778000  1
  C  C84  1  0.66830200  0.01932900  0.12778000  1
  C  C85  1  0.67047000  0.48064600  0.87296500  1
  C  C86  1  0.67047000  0.51935400  0.37296500  1
  C  C87  1  0.67318300  0.22961500  0.12692100  1
  C  C88  1  0.67270900  0.27018000  0.87251700  1
  C  C89  1  0.67270900  0.72982000  0.37251700  1
  C  C90  1  0.67318300  0.77038500  0.62692100  1
  C  C91  1  0.82645900  0.87865000  0.52109100  1
  C  C92  1  0.82763000  0.37595900  0.97952100  1
  C  C93  1  0.82763000  0.62404100  0.47952100  1
  C  C94  1  0.82645900  0.12135000  0.02109100  1
  C  C95  1  0.83046700  0.87586100  0.73002300  1
  C  C96  1  0.83046700  0.12413900  0.23002300  1
  C  C97  1  0.83089400  0.37916400  0.76966300  1
  C  C98  1  0.83089400  0.62083600  0.26966300  1
  C  C99  1  0.82813700  0.85537400  0.99455500  1
  C  C100  1  0.82813700  0.14462600  0.49455500  1
  C  C101  1  0.82917200  0.35467200  0.50500000  1
  C  C102  1  0.82917200  0.64532800  0.00500000  1
  C  C103  1  0.85135300  0.87532800  0.25764600  1
  C  C104  1  0.85135300  0.12467200  0.75764600  1
  C  C105  1  0.83071400  0.37602300  0.24232500  1
  C  C106  1  0.83071400  0.62397700  0.74232500  1
  C  C107  1  0.00000000  0.75955400  0.17024900  1
  C  C108  1  0.00000000  0.78792000  0.37198900  1
  C  C109  1  0.00000000  0.96168200  0.14181400  1
  C  C110  1  0.00000000  0.98984800  0.34398700  1
  C  C111  1  0.00000000  0.21208000  0.87198900  1
  C  C112  1  0.00000000  0.24044600  0.67024900  1
  C  C113  1  0.00000000  0.47184400  0.37590200  1
  C  C114  1  0.00000000  0.50775800  0.14267000  1
  C  C115  1  0.00000000  0.75697100  0.84185000  1
