# generated using pymatgen
data_Cu6Ni3C5
_symmetry_space_group_name_H-M   'P 1'
_cell_length_a   5.72195441
_cell_length_b   5.72195441
_cell_length_c   14.89028600
_cell_angle_alpha   90.00000000
_cell_angle_beta   90.00000000
_cell_angle_gamma   120.00000477
_symmetry_Int_Tables_number   1
_chemical_formula_structural   Cu6Ni3C5
_chemical_formula_sum   'Cu12 Ni6 C10'
_cell_volume   422.20409092
_cell_formula_units_Z   2
loop_
 _symmetry_equiv_pos_site_id
 _symmetry_equiv_pos_as_xyz
  1  'x, y, z'
loop_
 _atom_site_type_symbol
 _atom_site_label
 _atom_site_symmetry_multiplicity
 _atom_site_fract_x
 _atom_site_fract_y
 _atom_site_fract_z
 _atom_site_occupancy
  C  C0  1  0.66666700  0.33333300  0.08797500  1
  C  C1  1  0.33333300  0.66666700  0.58797500  1
  C  C2  1  0.33333300  0.66666700  0.91202500  1
  C  C3  1  0.66666700  0.33333300  0.41202500  1
  C  C4  1  0.00000000  0.00000000  0.75000000  1
  C  C5  1  0.00000000  0.00000000  0.25000000  1
  C  C6  1  0.00000000  0.00000000  0.00000000  1
  C  C7  1  0.00000000  0.00000000  0.50000000  1
  C  C8  1  0.66666700  0.33333300  0.75000000  1
  C  C9  1  0.33333300  0.66666700  0.25000000  1
  Ni  Ni10  1  0.53852200  0.07704400  0.75000000  1
  Ni  Ni11  1  0.53852200  0.46147800  0.75000000  1
  Ni  Ni12  1  0.46147800  0.53852200  0.25000000  1
  Ni  Ni13  1  0.07704400  0.53852200  0.25000000  1
  Ni  Ni14  1  0.92295600  0.46147800  0.75000000  1
  Ni  Ni15  1  0.46147800  0.92295600  0.25000000  1
  Cu  Cu16  1  0.71671400  0.85835700  0.06661300  1
  Cu  Cu17  1  0.28328600  0.14164300  0.56661300  1
  Cu  Cu18  1  0.14164300  0.85835700  0.43338700  1
  Cu  Cu19  1  0.14164300  0.28328600  0.06661300  1
  Cu  Cu20  1  0.85835700  0.71671400  0.56661300  1
  Cu  Cu21  1  0.85835700  0.14164300  0.56661300  1
  Cu  Cu22  1  0.14164300  0.85835700  0.06661300  1
  Cu  Cu23  1  0.85835700  0.71671400  0.93338700  1
  Cu  Cu24  1  0.14164300  0.28328600  0.43338700  1
  Cu  Cu25  1  0.85835700  0.14164300  0.93338700  1
  Cu  Cu26  1  0.28328600  0.14164300  0.93338700  1
  Cu  Cu27  1  0.71671400  0.85835700  0.43338700  1
