# generated using pymatgen
data_CuNiC6
_symmetry_space_group_name_H-M   'P 1'
_cell_length_a   14.53175184
_cell_length_b   12.94237338
_cell_length_c   7.85136103
_cell_angle_alpha   84.92517483
_cell_angle_beta   62.51553050
_cell_angle_gamma   32.55929467
_symmetry_Int_Tables_number   1
_chemical_formula_structural   CuNiC6
_chemical_formula_sum   'Cu2 Ni2 C12'
_cell_volume   547.81388171
_cell_formula_units_Z   2
loop_
 _symmetry_equiv_pos_site_id
 _symmetry_equiv_pos_as_xyz
  1  'x, y, z'
loop_
 _atom_site_type_symbol
 _atom_site_label
 _atom_site_symmetry_multiplicity
 _atom_site_fract_x
 _atom_site_fract_y
 _atom_site_fract_z
 _atom_site_occupancy
  C  C0  1  0.82143600  0.82143600  0.17856400  1
  C  C1  1  0.17856400  0.17856400  0.82143600  1
  C  C2  1  0.42856400  0.42856400  0.07143600  1
  C  C3  1  0.07143600  0.07143600  0.42856400  1
  Ni  Ni4  1  0.25000000  0.25000000  0.25000000  1
  Ni  Ni5  1  0.00000000  0.00000000  0.00000000  1
  Cu  Cu6  1  0.50000000  0.50000000  0.50000000  1
  Cu  Cu7  1  0.75000000  0.75000000  0.75000000  1
  C  C8  1  0.74352800  0.36319000  0.06747400  1
  C  C9  1  0.42419100  0.18252600  0.88681000  1
  C  C10  1  0.88681000  0.50647200  0.42419100  1
  C  C11  1  0.18252600  0.42419100  0.50647200  1
  C  C12  1  0.06747400  0.82580900  0.74352800  1
  C  C13  1  0.36319000  0.74352800  0.82580900  1
  C  C14  1  0.50647200  0.88681000  0.18252600  1
  C  C15  1  0.82580900  0.06747400  0.36319000  1
