# generated using pymatgen
data_CuNi5C8
_symmetry_space_group_name_H-M   'P 1'
_cell_length_a   7.78057200
_cell_length_b   8.36184200
_cell_length_c   26.85154700
_cell_angle_alpha   90.00000000
_cell_angle_beta   90.00000000
_cell_angle_gamma   90.00000000
_symmetry_Int_Tables_number   1
_chemical_formula_structural   CuNi5C8
_chemical_formula_sum   'Cu4 Ni20 C32'
_cell_volume   1746.95933143
_cell_formula_units_Z   4
loop_
 _symmetry_equiv_pos_site_id
 _symmetry_equiv_pos_as_xyz
  1  'x, y, z'
loop_
 _atom_site_type_symbol
 _atom_site_label
 _atom_site_symmetry_multiplicity
 _atom_site_fract_x
 _atom_site_fract_y
 _atom_site_fract_z
 _atom_site_occupancy
  C  C0  1  0.95713300  0.27337200  0.06882700  1
  C  C1  1  0.91215200  0.78135100  0.58436500  1
  C  C2  1  0.41215200  0.78135100  0.91563500  1
  C  C3  1  0.08784800  0.21864900  0.41563500  1
  C  C4  1  0.04286700  0.27337200  0.56882700  1
  C  C5  1  0.58962700  0.06043000  0.36003700  1
  C  C6  1  0.54286700  0.72662800  0.56882700  1
  C  C7  1  0.54286700  0.27337200  0.93117300  1
  C  C8  1  0.08962700  0.06043000  0.13996300  1
  C  C9  1  0.91215200  0.21864900  0.91563500  1
  C  C10  1  0.91037300  0.93957000  0.86003700  1
  C  C11  1  0.45713300  0.27337200  0.43117300  1
  C  C12  1  0.95713300  0.72662800  0.43117300  1
  C  C13  1  0.58784800  0.78135100  0.41563500  1
  C  C14  1  0.58784800  0.21864900  0.08436500  1
  C  C15  1  0.41037300  0.93957000  0.63996300  1
  C  C16  1  0.41037300  0.06043000  0.86003700  1
  C  C17  1  0.04286700  0.72662800  0.93117300  1
  C  C18  1  0.45713300  0.72662800  0.06882700  1
  C  C19  1  0.50000000  0.00000000  0.50000000  1
  C  C20  1  0.58962700  0.93957000  0.13996300  1
  C  C21  1  0.08962700  0.93957000  0.36003700  1
  C  C22  1  0.41215200  0.21864900  0.58436500  1
  C  C23  1  0.08784800  0.78135100  0.08436500  1
  C  C24  1  0.00000000  0.00000000  0.00000000  1
  C  C25  1  0.91037300  0.06043000  0.63996300  1
  C  C26  1  0.00000000  0.00000000  0.50000000  1
  C  C27  1  0.50000000  0.00000000  0.00000000  1
  C  C28  1  0.77708300  0.50000000  0.25000000  1
  C  C29  1  0.22291700  0.50000000  0.75000000  1
  C  C30  1  0.72291700  0.50000000  0.75000000  1
  C  C31  1  0.27708300  0.50000000  0.25000000  1
  Ni  Ni32  1  0.73899200  0.55460900  0.83804500  1
  Ni  Ni33  1  0.75852200  0.78249300  0.26650300  1
  Ni  Ni34  1  0.24147800  0.21750700  0.73349700  1
  Ni  Ni35  1  0.75000000  0.51506300  0.00000000  1
  Ni  Ni36  1  0.26100800  0.55460900  0.33804500  1
  Ni  Ni37  1  0.25852200  0.78249300  0.23349700  1
  Ni  Ni38  1  0.73899200  0.44539100  0.66195500  1
  Ni  Ni39  1  0.23899200  0.44539100  0.83804500  1
  Ni  Ni40  1  0.25000000  0.51506300  0.50000000  1
  Ni  Ni41  1  0.74147800  0.21750700  0.76650300  1
  Ni  Ni42  1  0.75000000  0.48493700  0.50000000  1
  Ni  Ni43  1  0.76100800  0.55460900  0.16195500  1
  Ni  Ni44  1  0.75852200  0.21750700  0.23349700  1
  Ni  Ni45  1  0.76100800  0.44539100  0.33804500  1
  Ni  Ni46  1  0.26100800  0.44539100  0.16195500  1
  Ni  Ni47  1  0.24147800  0.78249300  0.76650300  1
  Ni  Ni48  1  0.74147800  0.78249300  0.73349700  1
  Ni  Ni49  1  0.25000000  0.48493700  0.00000000  1
  Ni  Ni50  1  0.25852200  0.21750700  0.26650300  1
  Ni  Ni51  1  0.23899200  0.55460900  0.66195500  1
  Cu  Cu52  1  0.98335100  0.50000000  0.75000000  1
  Cu  Cu53  1  0.51664900  0.50000000  0.25000000  1
  Cu  Cu54  1  0.01664900  0.50000000  0.25000000  1
  Cu  Cu55  1  0.48335100  0.50000000  0.75000000  1
