# generated using pymatgen
data_Cu(NiC6)2
_symmetry_space_group_name_H-M   'P 1'
_cell_length_a   6.68934200
_cell_length_b   10.57444100
_cell_length_c   10.65092000
_cell_angle_alpha   90.00000000
_cell_angle_beta   90.00000000
_cell_angle_gamma   90.00000000
_symmetry_Int_Tables_number   1
_chemical_formula_structural   Cu(NiC6)2
_chemical_formula_sum   'Cu4 Ni8 C48'
_cell_volume   753.40403425
_cell_formula_units_Z   4
loop_
 _symmetry_equiv_pos_site_id
 _symmetry_equiv_pos_as_xyz
  1  'x, y, z'
loop_
 _atom_site_type_symbol
 _atom_site_label
 _atom_site_symmetry_multiplicity
 _atom_site_fract_x
 _atom_site_fract_y
 _atom_site_fract_z
 _atom_site_occupancy
  C  C0  1  0.52953800  0.33257100  0.54549500  1
  C  C1  1  0.02953800  0.16742900  0.95450500  1
  C  C2  1  0.47046200  0.66742900  0.04549500  1
  C  C3  1  0.97046200  0.83257100  0.45450500  1
  C  C4  1  0.47046200  0.66742900  0.45450500  1
  C  C5  1  0.97046200  0.83257100  0.04549500  1
  C  C6  1  0.52953800  0.33257100  0.95450500  1
  C  C7  1  0.02953800  0.16742900  0.54549500  1
  C  C8  1  0.74879800  0.12648700  0.25000000  1
  C  C9  1  0.24879800  0.37351300  0.25000000  1
  C  C10  1  0.25120200  0.87351300  0.75000000  1
  C  C11  1  0.75120200  0.62648700  0.75000000  1
  Ni  Ni12  1  0.64214000  0.09647500  0.48987800  1
  Ni  Ni13  1  0.14214000  0.40352500  0.01012200  1
  Ni  Ni14  1  0.35786000  0.90352500  0.98987800  1
  Ni  Ni15  1  0.85786000  0.59647500  0.51012200  1
  Ni  Ni16  1  0.35786000  0.90352500  0.51012200  1
  Ni  Ni17  1  0.85786000  0.59647500  0.98987800  1
  Ni  Ni18  1  0.64214000  0.09647500  0.01012200  1
  Ni  Ni19  1  0.14214000  0.40352500  0.48987800  1
  Cu  Cu20  1  0.37452900  0.14824400  0.75000000  1
  Cu  Cu21  1  0.87452900  0.35175600  0.75000000  1
  Cu  Cu22  1  0.62547100  0.85175600  0.25000000  1
  Cu  Cu23  1  0.12547100  0.64824400  0.25000000  1
  C  C24  1  0.24762200  0.02559300  0.25000000  1
  C  C25  1  0.74762200  0.47440700  0.25000000  1
  C  C26  1  0.75237800  0.97440700  0.75000000  1
  C  C27  1  0.25237800  0.52559300  0.75000000  1
  C  C28  1  0.38100700  0.16440900  0.25000000  1
  C  C29  1  0.88100700  0.33559100  0.25000000  1
  C  C30  1  0.61899300  0.83559100  0.75000000  1
  C  C31  1  0.11899300  0.66440900  0.75000000  1
  C  C32  1  0.07384600  0.03991700  0.12888100  1
  C  C33  1  0.57384600  0.46008300  0.37111900  1
  C  C34  1  0.92615400  0.96008300  0.62888100  1
  C  C35  1  0.42615400  0.53991700  0.87111900  1
  C  C36  1  0.92615400  0.96008300  0.87111900  1
  C  C37  1  0.42615400  0.53991700  0.62888100  1
  C  C38  1  0.07384600  0.03991700  0.37111900  1
  C  C39  1  0.57384600  0.46008300  0.12888100  1
  C  C40  1  0.45284100  0.26174500  0.75000000  1
  C  C41  1  0.95284100  0.23825500  0.75000000  1
  C  C42  1  0.54715900  0.73825500  0.25000000  1
  C  C43  1  0.04715900  0.76174500  0.25000000  1
  C  C44  1  0.71058800  0.17349000  0.46282100  1
  C  C45  1  0.21058800  0.32651000  0.03717900  1
  C  C46  1  0.28941200  0.82651000  0.96282100  1
  C  C47  1  0.78941200  0.67349000  0.53717900  1
  C  C48  1  0.28941200  0.82651000  0.53717900  1
  C  C49  1  0.78941200  0.67349000  0.96282100  1
  C  C50  1  0.71058800  0.17349000  0.03717900  1
  C  C51  1  0.21058800  0.32651000  0.46282100  1
  C  C52  1  0.33804700  0.09177900  0.64412100  1
  C  C53  1  0.83804700  0.40822100  0.85587900  1
  C  C54  1  0.66195300  0.90822100  0.14412100  1
  C  C55  1  0.16195300  0.59177900  0.35587900  1
  C  C56  1  0.66195300  0.90822100  0.35587900  1
  C  C57  1  0.16195300  0.59177900  0.14412100  1
  C  C58  1  0.33804700  0.09177900  0.85587900  1
  C  C59  1  0.83804700  0.40822100  0.64412100  1
