# generated using pymatgen
data_Cu(NiC7)2
_symmetry_space_group_name_H-M   'P 1'
_cell_length_a   5.89777600
_cell_length_b   11.39130200
_cell_length_c   15.24869200
_cell_angle_alpha   90.00000000
_cell_angle_beta   90.00000000
_cell_angle_gamma   90.00000000
_symmetry_Int_Tables_number   1
_chemical_formula_structural   Cu(NiC7)2
_chemical_formula_sum   'Cu4 Ni8 C56'
_cell_volume   1024.45817423
_cell_formula_units_Z   4
loop_
 _symmetry_equiv_pos_site_id
 _symmetry_equiv_pos_as_xyz
  1  'x, y, z'
loop_
 _atom_site_type_symbol
 _atom_site_label
 _atom_site_symmetry_multiplicity
 _atom_site_fract_x
 _atom_site_fract_y
 _atom_site_fract_z
 _atom_site_occupancy
  C  C0  1  0.97158900  0.63388600  0.24755600  1
  C  C1  1  0.02841100  0.36611400  0.74755600  1
  C  C2  1  0.52841100  0.63388600  0.74755600  1
  C  C3  1  0.47158900  0.36611400  0.24755600  1
  C  C4  1  0.89288200  0.91192700  0.09290200  1
  C  C5  1  0.10711800  0.08807300  0.59290200  1
  C  C6  1  0.60711800  0.91192700  0.59290200  1
  C  C7  1  0.39288200  0.08807300  0.09290200  1
  C  C8  1  0.65393800  0.59245900  0.43040900  1
  C  C9  1  0.34606200  0.40754100  0.93040900  1
  C  C10  1  0.84606200  0.59245900  0.93040900  1
  C  C11  1  0.15393800  0.40754100  0.43040900  1
  C  C12  1  0.55244100  0.85857600  0.26781200  1
  C  C13  1  0.44755900  0.14142400  0.76781200  1
  C  C14  1  0.94755900  0.85857600  0.76781200  1
  C  C15  1  0.05244100  0.14142400  0.26781200  1
  Ni  Ni16  1  0.83200600  0.48922600  0.13255000  1
  Ni  Ni17  1  0.16799400  0.51077400  0.63255000  1
  Ni  Ni18  1  0.66799400  0.48922600  0.63255000  1
  Ni  Ni19  1  0.33200600  0.51077400  0.13255000  1
  Ni  Ni20  1  0.84330200  0.89897000  0.38563100  1
  Ni  Ni21  1  0.15669800  0.10103000  0.88563100  1
  Ni  Ni22  1  0.65669800  0.89897000  0.88563100  1
  Ni  Ni23  1  0.34330200  0.10103000  0.38563100  1
  Cu  Cu24  1  0.17962600  0.73794900  0.50785400  1
  Cu  Cu25  1  0.82037400  0.26205100  0.00785400  1
  Cu  Cu26  1  0.32037400  0.73794900  0.00785400  1
  Cu  Cu27  1  0.67962600  0.26205100  0.50785400  1
  C  C28  1  0.34634200  0.74923400  0.43383900  1
  C  C29  1  0.65365800  0.25076600  0.93383900  1
  C  C30  1  0.15365800  0.74923400  0.93383900  1
  C  C31  1  0.84634200  0.25076600  0.43383900  1
  C  C32  1  0.14485900  0.61160600  0.52911000  1
  C  C33  1  0.85514100  0.38839400  0.02911000  1
  C  C34  1  0.35514100  0.61160600  0.02911000  1
  C  C35  1  0.64485900  0.38839400  0.52911000  1
  C  C36  1  0.96265400  0.79566800  0.48424100  1
  C  C37  1  0.03734600  0.20433200  0.98424100  1
  C  C38  1  0.53734600  0.79566800  0.98424100  1
  C  C39  1  0.46265400  0.20433200  0.48424100  1
  C  C40  1  0.27691800  0.79726100  0.58874000  1
  C  C41  1  0.72308200  0.20273900  0.08874000  1
  C  C42  1  0.22308200  0.79726100  0.08874000  1
  C  C43  1  0.77691800  0.20273900  0.58874000  1
  C  C44  1  0.75585100  0.53367900  0.17952000  1
  C  C45  1  0.24414900  0.46632100  0.67952000  1
  C  C46  1  0.74414900  0.53367900  0.67952000  1
  C  C47  1  0.25585100  0.46632100  0.17952000  1
  C  C48  1  0.81203000  0.79352000  0.18460000  1
  C  C49  1  0.18797000  0.20648000  0.68460000  1
  C  C50  1  0.68797000  0.79352000  0.68460000  1
  C  C51  1  0.31203000  0.20648000  0.18460000  1
  C  C52  1  0.92706700  0.51086700  0.36499300  1
  C  C53  1  0.07293300  0.48913300  0.86499300  1
  C  C54  1  0.57293300  0.51086700  0.86499300  1
  C  C55  1  0.42706700  0.48913300  0.36499300  1
  C  C56  1  0.61563200  0.99066900  0.16482400  1
  C  C57  1  0.38436800  0.00933100  0.66482400  1
  C  C58  1  0.88436800  0.99066900  0.66482400  1
  C  C59  1  0.11563200  0.00933100  0.16482400  1
  C  C60  1  0.77120900  0.94911900  0.34143300  1
  C  C61  1  0.22879100  0.05088100  0.84143300  1
  C  C62  1  0.72879100  0.94911900  0.84143300  1
  C  C63  1  0.27120900  0.05088100  0.34143300  1
  C  C64  1  0.70478800  0.69282500  0.32258500  1
  C  C65  1  0.29521200  0.30717500  0.82258500  1
  C  C66  1  0.79521200  0.69282500  0.82258500  1
  C  C67  1  0.20478800  0.30717500  0.32258500  1
