# generated using pymatgen
data_CuNiC5
_symmetry_space_group_name_H-M   'P 1'
_cell_length_a   5.08541100
_cell_length_b   6.19599200
_cell_length_c   7.83453400
_cell_angle_alpha   90.00000000
_cell_angle_beta   90.00000000
_cell_angle_gamma   90.00000000
_symmetry_Int_Tables_number   1
_chemical_formula_structural   CuNiC5
_chemical_formula_sum   'Cu4 Ni4 C20'
_cell_volume   246.85963134
_cell_formula_units_Z   4
loop_
 _symmetry_equiv_pos_site_id
 _symmetry_equiv_pos_as_xyz
  1  'x, y, z'
loop_
 _atom_site_type_symbol
 _atom_site_label
 _atom_site_symmetry_multiplicity
 _atom_site_fract_x
 _atom_site_fract_y
 _atom_site_fract_z
 _atom_site_occupancy
  C  C0  1  0.75083600  0.71571200  0.36168100  1
  C  C1  1  0.74254100  0.69905400  0.56357200  1
  C  C2  1  0.42055200  0.42303200  0.37429500  1
  C  C3  1  0.75999600  0.30381600  0.59395600  1
  C  C4  1  0.09619200  0.42187400  0.37606400  1
  C  C5  1  0.74916400  0.28428800  0.86168100  1
  C  C6  1  0.75745900  0.30094600  0.06357200  1
  C  C7  1  0.40380800  0.57812600  0.87606400  1
  C  C8  1  0.74000400  0.69618400  0.09395600  1
  C  C9  1  0.07944800  0.57696800  0.87429500  1
  C  C10  1  0.24254100  0.80094600  0.43642800  1
  C  C11  1  0.25083600  0.78428800  0.63831900  1
  C  C12  1  0.92055200  0.07696800  0.62570500  1
  C  C13  1  0.25999600  0.19618400  0.40604400  1
  C  C14  1  0.59619200  0.07812600  0.62393600  1
  C  C15  1  0.24916400  0.21571200  0.13831900  1
  C  C16  1  0.25745900  0.19905400  0.93642800  1
  C  C17  1  0.57944800  0.92303200  0.12570500  1
  C  C18  1  0.90380800  0.92187400  0.12393600  1
  C  C19  1  0.24000400  0.80381600  0.90604400  1
  Ni  Ni20  1  0.74173600  0.83637000  0.16375600  1
  Ni  Ni21  1  0.75826400  0.16363000  0.66375600  1
  Ni  Ni22  1  0.24173600  0.66363000  0.83624400  1
  Ni  Ni23  1  0.25826400  0.33637000  0.33624400  1
  Cu  Cu24  1  0.76209900  0.61006700  0.46157400  1
  Cu  Cu25  1  0.73790100  0.38993300  0.96157400  1
  Cu  Cu26  1  0.26209900  0.88993300  0.53842600  1
  Cu  Cu27  1  0.23790100  0.11006700  0.03842600  1
