# generated using pymatgen
data_Cu2Ni6C7
_symmetry_space_group_name_H-M   'P 1'
_cell_length_a   7.62006100
_cell_length_b   8.04882100
_cell_length_c   11.44925100
_cell_angle_alpha   90.00000000
_cell_angle_beta   90.00000000
_cell_angle_gamma   90.00000000
_symmetry_Int_Tables_number   1
_chemical_formula_structural   Cu2Ni6C7
_chemical_formula_sum   'Cu8 Ni24 C28'
_cell_volume   702.21126708
_cell_formula_units_Z   4
loop_
 _symmetry_equiv_pos_site_id
 _symmetry_equiv_pos_as_xyz
  1  'x, y, z'
loop_
 _atom_site_type_symbol
 _atom_site_label
 _atom_site_symmetry_multiplicity
 _atom_site_fract_x
 _atom_site_fract_y
 _atom_site_fract_z
 _atom_site_occupancy
  C  C0  1  0.37321800  0.23462300  0.54577000  1
  C  C1  1  0.62678200  0.73462300  0.95423000  1
  C  C2  1  0.12678200  0.76537700  0.04577000  1
  C  C3  1  0.87321800  0.26537700  0.45423000  1
  Ni  Ni4  1  0.31520000  0.36338600  0.15835500  1
  Ni  Ni5  1  0.45760900  0.67064000  0.54843200  1
  Ni  Ni6  1  0.30937600  0.16080500  0.93209200  1
  Ni  Ni7  1  0.55387300  0.31291500  0.29334300  1
  Ni  Ni8  1  0.18480000  0.63661400  0.65835400  1
  Ni  Ni9  1  0.81520000  0.13661400  0.84164600  1
  Ni  Ni10  1  0.85339000  0.67555700  0.77095600  1
  Ni  Ni11  1  0.59407300  0.61834800  0.33986500  1
  Ni  Ni12  1  0.35339000  0.82444300  0.22904400  1
  Ni  Ni13  1  0.69062400  0.66080500  0.56790800  1
  Ni  Ni14  1  0.19062400  0.83919500  0.43209200  1
  Ni  Ni15  1  0.14661000  0.17555700  0.72904400  1
  Ni  Ni16  1  0.90592700  0.38165200  0.83986500  1
  Ni  Ni17  1  0.64661000  0.32444300  0.27095600  1
  Ni  Ni18  1  0.68480000  0.86338600  0.34164500  1
  Ni  Ni19  1  0.09407300  0.88165200  0.66013500  1
  Ni  Ni20  1  0.80937600  0.33919500  0.06790800  1
  Ni  Ni21  1  0.94612700  0.68708500  0.79334300  1
  Ni  Ni22  1  0.44612700  0.81291500  0.20665700  1
  Ni  Ni23  1  0.40592700  0.11834800  0.16013500  1
  Ni  Ni24  1  0.54239100  0.17064000  0.95156800  1
  Ni  Ni25  1  0.04239100  0.32936000  0.04843200  1
  Ni  Ni26  1  0.05387300  0.18708500  0.70665700  1
  Ni  Ni27  1  0.95760900  0.82936000  0.45156800  1
  Cu  Cu28  1  0.41942000  0.11817200  0.98773500  1
  Cu  Cu29  1  0.58058000  0.61817200  0.51226500  1
  Cu  Cu30  1  0.91942000  0.38182800  0.01226500  1
  Cu  Cu31  1  0.17791200  0.53027000  0.25909900  1
  Cu  Cu32  1  0.08058000  0.88182800  0.48773500  1
  Cu  Cu33  1  0.67791200  0.96973000  0.74090100  1
  Cu  Cu34  1  0.32208800  0.46973000  0.75909900  1
  Cu  Cu35  1  0.82208800  0.03027000  0.24090100  1
  C  C36  1  0.34103500  0.57050700  0.85176800  1
  C  C37  1  0.07677300  0.04839100  0.50621900  1
  C  C38  1  0.25842900  0.27314500  0.34434600  1
  C  C39  1  0.10084800  0.66611200  0.26095100  1
  C  C40  1  0.60084800  0.83388800  0.73904900  1
  C  C41  1  0.10664700  0.79354000  0.60241900  1
  C  C42  1  0.15896500  0.42949300  0.35176800  1
  C  C43  1  0.57677300  0.45160900  0.49378100  1
  C  C44  1  0.84103500  0.92949300  0.14823200  1
  C  C45  1  0.65896500  0.07050700  0.64823200  1
  C  C46  1  0.22306000  0.51180400  0.66898200  1
  C  C47  1  0.74157100  0.77314500  0.15565400  1
  C  C48  1  0.42322700  0.95160900  0.00621900  1
  C  C49  1  0.60664700  0.70646000  0.39758100  1
  C  C50  1  0.77694000  0.01180400  0.83101800  1
  C  C51  1  0.75842900  0.22685500  0.65565400  1
  C  C52  1  0.24157100  0.72685500  0.84434600  1
  C  C53  1  0.89915200  0.16611200  0.23904900  1
  C  C54  1  0.72306000  0.98819600  0.33101800  1
  C  C55  1  0.39335300  0.20646000  0.10241900  1
  C  C56  1  0.89335300  0.29354000  0.89758100  1
  C  C57  1  0.92322700  0.54839100  0.99378100  1
  C  C58  1  0.39915200  0.33388800  0.76095100  1
  C  C59  1  0.27694000  0.48819600  0.16898200  1
