# generated using pymatgen
data_Cu2Ni6C7
_symmetry_space_group_name_H-M   'P 1'
_cell_length_a   10.97837500
_cell_length_b   6.60903900
_cell_length_c   20.96866939
_cell_angle_alpha   79.18891419
_cell_angle_beta   90.00000000
_cell_angle_gamma   90.00000000
_symmetry_Int_Tables_number   1
_chemical_formula_structural   Cu2Ni6C7
_chemical_formula_sum   'Cu8 Ni24 C28'
_cell_volume   1494.40983775
_cell_formula_units_Z   4
loop_
 _symmetry_equiv_pos_site_id
 _symmetry_equiv_pos_as_xyz
  1  'x, y, z'
loop_
 _atom_site_type_symbol
 _atom_site_label
 _atom_site_symmetry_multiplicity
 _atom_site_fract_x
 _atom_site_fract_y
 _atom_site_fract_z
 _atom_site_occupancy
  C  C0  1  0.26554100  0.12288200  0.16864200  1
  C  C1  1  0.76554100  0.87711800  0.33135800  1
  C  C2  1  0.73445900  0.87711800  0.83135800  1
  C  C3  1  0.23445900  0.12288200  0.66864200  1
  C  C4  1  0.73465300  0.44059900  0.94978800  1
  C  C5  1  0.23465300  0.55940100  0.55021200  1
  C  C6  1  0.26534700  0.55940100  0.05021200  1
  C  C7  1  0.76534700  0.44059900  0.44978800  1
  C  C8  1  0.34929700  0.61144200  0.66591000  1
  C  C9  1  0.84929700  0.38855800  0.83409000  1
  C  C10  1  0.65070300  0.38855800  0.33409000  1
  C  C11  1  0.15070300  0.61144200  0.16591000  1
  Ni  Ni12  1  0.75183200  0.20825200  0.04266500  1
  Ni  Ni13  1  0.25183200  0.79174800  0.45733500  1
  Ni  Ni14  1  0.24816800  0.79174800  0.95733500  1
  Ni  Ni15  1  0.74816800  0.20825200  0.54266500  1
  Ni  Ni16  1  0.74082900  0.00581200  0.05090500  1
  Ni  Ni17  1  0.24082900  0.99418800  0.44909500  1
  Ni  Ni18  1  0.25917100  0.99418800  0.94909500  1
  Ni  Ni19  1  0.75917100  0.00581200  0.55090500  1
  Ni  Ni20  1  0.76346900  0.43534200  0.05625700  1
  Ni  Ni21  1  0.26346900  0.56465800  0.44374300  1
  Ni  Ni22  1  0.23653100  0.56465800  0.94374300  1
  Ni  Ni23  1  0.73653100  0.43534200  0.55625700  1
  Ni  Ni24  1  0.47587300  0.44545300  0.76741700  1
  Ni  Ni25  1  0.97587300  0.55454700  0.73258300  1
  Ni  Ni26  1  0.52412700  0.55454700  0.23258300  1
  Ni  Ni27  1  0.02412700  0.44545300  0.26741700  1
  Ni  Ni28  1  0.44819300  0.41873300  0.82768000  1
  Ni  Ni29  1  0.94819300  0.58126700  0.67232000  1
  Ni  Ni30  1  0.55180700  0.58126700  0.17232000  1
  Ni  Ni31  1  0.05180700  0.41873300  0.32768000  1
  Ni  Ni32  1  0.55452500  0.53879400  0.65376300  1
  Ni  Ni33  1  0.05452500  0.46120600  0.84623700  1
  Ni  Ni34  1  0.44547500  0.46120600  0.34623700  1
  Ni  Ni35  1  0.94547500  0.53879400  0.15376300  1
  Cu  Cu36  1  0.74843400  0.39438200  0.99902100  1
  Cu  Cu37  1  0.24843400  0.60561800  0.50097900  1
  Cu  Cu38  1  0.25156600  0.60561800  0.00097900  1
  Cu  Cu39  1  0.75156600  0.39438200  0.49902100  1
  Cu  Cu40  1  0.52135000  0.49980600  0.70986600  1
  Cu  Cu41  1  0.02135000  0.50019400  0.79013400  1
  Cu  Cu42  1  0.47865000  0.50019400  0.29013400  1
  Cu  Cu43  1  0.97865000  0.49980600  0.20986600  1
  C  C44  1  0.26769300  0.63298800  0.15830600  1
  C  C45  1  0.76769300  0.36701200  0.34169400  1
  C  C46  1  0.73230700  0.36701200  0.84169400  1
  C  C47  1  0.23230700  0.63298800  0.65830600  1
  C  C48  1  0.40262500  0.19320000  0.07956500  1
  C  C49  1  0.90262500  0.80680000  0.42043500  1
  C  C50  1  0.59737500  0.80680000  0.92043500  1
  C  C51  1  0.09737500  0.19320000  0.57956500  1
  C  C52  1  0.07649500  0.20927400  0.08808500  1
  C  C53  1  0.57649500  0.79072600  0.41191500  1
  C  C54  1  0.92350500  0.79072600  0.91191500  1
  C  C55  1  0.42350500  0.20927400  0.58808500  1
  C  C56  1  0.20255700  0.05300900  0.27858600  1
  C  C57  1  0.70255700  0.94699100  0.22141400  1
  C  C58  1  0.79744300  0.94699100  0.72141400  1
  C  C59  1  0.29744300  0.05300900  0.77858600  1
