# generated using pymatgen
data_CuNiC6
_symmetry_space_group_name_H-M   'P 1'
_cell_length_a   6.32015200
_cell_length_b   7.37562800
_cell_length_c   10.95104300
_cell_angle_alpha   90.00000000
_cell_angle_beta   90.00000000
_cell_angle_gamma   90.00000000
_symmetry_Int_Tables_number   1
_chemical_formula_structural   CuNiC6
_chemical_formula_sum   'Cu4 Ni4 C24'
_cell_volume   510.48385565
_cell_formula_units_Z   4
loop_
 _symmetry_equiv_pos_site_id
 _symmetry_equiv_pos_as_xyz
  1  'x, y, z'
loop_
 _atom_site_type_symbol
 _atom_site_label
 _atom_site_symmetry_multiplicity
 _atom_site_fract_x
 _atom_site_fract_y
 _atom_site_fract_z
 _atom_site_occupancy
  C  C0  1  0.97521000  0.25000000  0.85555000  1
  C  C1  1  0.52479000  0.75000000  0.35555000  1
  C  C2  1  0.02479000  0.75000000  0.14445000  1
  C  C3  1  0.47521000  0.25000000  0.64445000  1
  Ni  Ni4  1  0.50000000  0.00000000  0.00000000  1
  Ni  Ni5  1  0.00000000  0.00000000  0.50000000  1
  Ni  Ni6  1  0.50000000  0.50000000  0.00000000  1
  Ni  Ni7  1  0.00000000  0.50000000  0.50000000  1
  Cu  Cu8  1  0.19610800  0.75000000  0.79372900  1
  Cu  Cu9  1  0.69610800  0.75000000  0.70627100  1
  Cu  Cu10  1  0.30389200  0.25000000  0.29372900  1
  Cu  Cu11  1  0.80389200  0.25000000  0.20627100  1
  C  C12  1  0.16859300  0.55350100  0.67069800  1
  C  C13  1  0.71727600  0.93836900  0.57385100  1
  C  C14  1  0.83140700  0.44649900  0.32930200  1
  C  C15  1  0.21727600  0.56163100  0.92614900  1
  C  C16  1  0.78272400  0.06163100  0.07385100  1
  C  C17  1  0.03313100  0.75000000  0.43772500  1
  C  C18  1  0.28272400  0.43836900  0.42614900  1
  C  C19  1  0.66859300  0.55350100  0.82930200  1
  C  C20  1  0.96686900  0.25000000  0.56227500  1
  C  C21  1  0.16859300  0.94649900  0.67069800  1
  C  C22  1  0.78272400  0.43836900  0.07385100  1
  C  C23  1  0.83140700  0.05350100  0.32930200  1
  C  C24  1  0.66859300  0.94649900  0.82930200  1
  C  C25  1  0.33140700  0.44649900  0.17069800  1
  C  C26  1  0.53313100  0.75000000  0.06227500  1
  C  C27  1  0.28272400  0.06163100  0.42614900  1
  C  C28  1  0.33140700  0.05350100  0.17069800  1
  C  C29  1  0.21727600  0.93836900  0.92614900  1
  C  C30  1  0.46686900  0.25000000  0.93772500  1
  C  C31  1  0.71727600  0.56163100  0.57385100  1
