# generated using pymatgen
data_Cu2Ni4C13
_symmetry_space_group_name_H-M   'P 1'
_cell_length_a   8.03382483
_cell_length_b   15.23730909
_cell_length_c   9.02110826
_cell_angle_alpha   92.49570060
_cell_angle_beta   110.33067127
_cell_angle_gamma   99.52481947
_symmetry_Int_Tables_number   1
_chemical_formula_structural   Cu2Ni4C13
_chemical_formula_sum   'Cu8 Ni16 C52'
_cell_volume   1015.12477010
_cell_formula_units_Z   4
loop_
 _symmetry_equiv_pos_site_id
 _symmetry_equiv_pos_as_xyz
  1  'x, y, z'
loop_
 _atom_site_type_symbol
 _atom_site_label
 _atom_site_symmetry_multiplicity
 _atom_site_fract_x
 _atom_site_fract_y
 _atom_site_fract_z
 _atom_site_occupancy
  C  C0  1  0.66362100  0.17463100  0.92436300  1
  C  C1  1  0.16363400  0.42477600  0.42435600  1
  C  C2  1  0.66368100  0.67474700  0.92434700  1
  C  C3  1  0.16382600  0.92484300  0.42440100  1
  C  C4  1  0.83647900  0.07522800  0.57585000  1
  C  C5  1  0.33611400  0.32519800  0.07537200  1
  C  C6  1  0.83629700  0.57526700  0.57564900  1
  C  C7  1  0.33635400  0.82531100  0.07566700  1
  C  C8  1  0.00018900  0.50003200  0.00011200  1
  C  C9  1  0.49980500  0.74998900  0.49990600  1
  C  C10  1  0.99996700  0.00005800  0.00003400  1
  C  C11  1  0.50002600  0.24991200  0.49993500  1
  Ni  Ni12  1  0.69507900  0.26878200  0.31162700  1
  Ni  Ni13  1  0.19472000  0.51874000  0.81181400  1
  Ni  Ni14  1  0.69467900  0.76874300  0.31173300  1
  Ni  Ni15  1  0.19518700  0.01876700  0.81159800  1
  Ni  Ni16  1  0.80488600  0.98123400  0.18841900  1
  Ni  Ni17  1  0.30484100  0.23121000  0.68835700  1
  Ni  Ni18  1  0.80530900  0.48125800  0.18827000  1
  Ni  Ni19  1  0.30531000  0.73127000  0.68819100  1
  Ni  Ni20  1  0.23406500  0.10344300  0.92856100  1
  Ni  Ni21  1  0.73405300  0.35348700  0.42863900  1
  Ni  Ni22  1  0.23414400  0.60354400  0.92895700  1
  Ni  Ni23  1  0.73391800  0.85355800  0.42877800  1
  Ni  Ni24  1  0.26583700  0.14649400  0.57140200  1
  Ni  Ni25  1  0.76606300  0.39645100  0.07119800  1
  Ni  Ni26  1  0.26586300  0.64645800  0.57104600  1
  Ni  Ni27  1  0.76605500  0.89656800  0.07142600  1
  Cu  Cu28  1  0.44978600  0.07130800  0.22321500  1
  Cu  Cu29  1  0.94972800  0.32142400  0.72320900  1
  Cu  Cu30  1  0.44961300  0.57146000  0.22311500  1
  Cu  Cu31  1  0.94942500  0.82151700  0.72301100  1
  Cu  Cu32  1  0.05024400  0.17859800  0.27680900  1
  Cu  Cu33  1  0.55055500  0.42854200  0.77700700  1
  Cu  Cu34  1  0.05039300  0.67854600  0.27689300  1
  Cu  Cu35  1  0.55025200  0.92861100  0.77673900  1
  C  C36  1  0.25735900  0.99238100  0.17004800  1
  C  C37  1  0.75714900  0.24250300  0.66981600  1
  C  C38  1  0.25676500  0.49267000  0.16901200  1
  C  C39  1  0.75654200  0.74279800  0.66904800  1
  C  C40  1  0.24267200  0.25753200  0.33013700  1
  C  C41  1  0.74347200  0.50723900  0.83102700  1
  C  C42  1  0.24326400  0.75732600  0.33100700  1
  C  C43  1  0.74277000  0.00754600  0.82988700  1
  C  C44  1  0.49054700  0.11879200  0.40845400  1
  C  C45  1  0.99067400  0.36869400  0.90840400  1
  C  C46  1  0.49070100  0.61860500  0.40838600  1
  C  C47  1  0.99027600  0.86895600  0.90833400  1
  C  C48  1  0.00949300  0.13108000  0.09157000  1
  C  C49  1  0.50972000  0.38118100  0.59164600  1
  C  C50  1  0.00930400  0.63140500  0.09162700  1
  C  C51  1  0.50928300  0.88128400  0.59157700  1
  C  C52  1  0.42675900  0.14772500  0.09255400  1
  C  C53  1  0.92677100  0.39781700  0.59241400  1
  C  C54  1  0.42694800  0.64788500  0.09240200  1
  C  C55  1  0.92681500  0.89790200  0.59229400  1
  C  C56  1  0.07316700  0.10221100  0.40751700  1
  C  C57  1  0.57315600  0.35209300  0.90762700  1
  C  C58  1  0.07307600  0.60212400  0.40762100  1
  C  C59  1  0.57331800  0.85224600  0.90757300  1
  C  C60  1  0.61806600  0.01880800  0.23373100  1
  C  C61  1  0.11782500  0.26876600  0.73355100  1
  C  C62  1  0.61747000  0.51861000  0.23355700  1
  C  C63  1  0.11728300  0.76870700  0.73359900  1
  C  C64  1  0.88203300  0.23117300  0.26614900  1
  C  C65  1  0.38267900  0.48132200  0.76651500  1
  C  C66  1  0.88254200  0.73138700  0.26647300  1
  C  C67  1  0.38209900  0.98122500  0.76643000  1
  C  C68  1  0.13166900  0.05992000  0.84915000  1
  C  C69  1  0.63162000  0.30989200  0.34930800  1
  C  C70  1  0.13165600  0.55988600  0.84985200  1
  C  C71  1  0.63150700  0.80982000  0.34977900  1
  C  C72  1  0.36828500  0.19010800  0.65063300  1
  C  C73  1  0.86846900  0.44016600  0.15024600  1
  C  C74  1  0.36835600  0.69011300  0.65013500  1
  C  C75  1  0.86844100  0.94010000  0.15090200  1
