# generated using pymatgen
data_CuNiC2
_symmetry_space_group_name_H-M   'P 1'
_cell_length_a   6.73676300
_cell_length_b   10.84599900
_cell_length_c   18.06969100
_cell_angle_alpha   90.00000000
_cell_angle_beta   90.00000000
_cell_angle_gamma   90.00000000
_symmetry_Int_Tables_number   1
_chemical_formula_structural   CuNiC2
_chemical_formula_sum   'Cu16 Ni16 C32'
_cell_volume   1320.29675276
_cell_formula_units_Z   16
loop_
 _symmetry_equiv_pos_site_id
 _symmetry_equiv_pos_as_xyz
  1  'x, y, z'
loop_
 _atom_site_type_symbol
 _atom_site_label
 _atom_site_symmetry_multiplicity
 _atom_site_fract_x
 _atom_site_fract_y
 _atom_site_fract_z
 _atom_site_occupancy
  C  C0  1  0.64742700  0.62649300  0.26974600  1
  C  C1  1  0.14742700  0.87350700  0.26974600  1
  C  C2  1  0.35257300  0.37350700  0.73025400  1
  C  C3  1  0.14742700  0.37350700  0.23025400  1
  C  C4  1  0.35257300  0.87350700  0.76974600  1
  C  C5  1  0.85257300  0.12649300  0.73025400  1
  C  C6  1  0.85257300  0.62649300  0.76974600  1
  C  C7  1  0.64742700  0.12649300  0.23025400  1
  C  C8  1  0.67014300  0.62763800  0.00256400  1
  C  C9  1  0.32985700  0.87236200  0.50256400  1
  C  C10  1  0.17014300  0.37236200  0.49743600  1
  C  C11  1  0.17014300  0.87236200  0.00256400  1
  C  C12  1  0.82985700  0.62763800  0.50256400  1
  C  C13  1  0.32985700  0.37236200  0.99743600  1
  C  C14  1  0.82985700  0.12763800  0.99743600  1
  C  C15  1  0.67014300  0.12763800  0.49743600  1
  Ni  Ni16  1  0.52080600  0.84701200  0.12396400  1
  Ni  Ni17  1  0.97919400  0.84701200  0.62396400  1
  Ni  Ni18  1  0.83272400  0.39786100  0.63156600  1
  Ni  Ni19  1  0.16727600  0.10213900  0.13156600  1
  Ni  Ni20  1  0.47919400  0.65298800  0.62396400  1
  Ni  Ni21  1  0.02080600  0.65298800  0.12396400  1
  Ni  Ni22  1  0.33272400  0.60213900  0.86843400  1
  Ni  Ni23  1  0.33272400  0.10213900  0.63156600  1
  Ni  Ni24  1  0.66727600  0.89786100  0.36843400  1
  Ni  Ni25  1  0.52080600  0.34701200  0.37603600  1
  Ni  Ni26  1  0.66727600  0.39786100  0.13156600  1
  Ni  Ni27  1  0.97919400  0.34701200  0.87603600  1
  Ni  Ni28  1  0.02080600  0.15298800  0.37603600  1
  Ni  Ni29  1  0.83272400  0.89786100  0.86843400  1
  Ni  Ni30  1  0.16727600  0.60213900  0.36843400  1
  Ni  Ni31  1  0.47919400  0.15298800  0.87603600  1
  Cu  Cu32  1  0.01886200  0.98974900  0.89130900  1
  Cu  Cu33  1  0.95660700  0.84942100  0.53297600  1
  Cu  Cu34  1  0.01886200  0.48974900  0.60869100  1
  Cu  Cu35  1  0.98113800  0.51025100  0.39130900  1
  Cu  Cu36  1  0.51886200  0.51025100  0.89130900  1
  Cu  Cu37  1  0.04339300  0.65057900  0.03297600  1
  Cu  Cu38  1  0.54339300  0.34942100  0.46702400  1
  Cu  Cu39  1  0.51886200  0.01025100  0.60869100  1
  Cu  Cu40  1  0.95660700  0.34942100  0.96702400  1
  Cu  Cu41  1  0.45660700  0.15057900  0.96702400  1
  Cu  Cu42  1  0.54339300  0.84942100  0.03297600  1
  Cu  Cu43  1  0.45660700  0.65057900  0.53297600  1
  Cu  Cu44  1  0.48113800  0.98974900  0.39130900  1
  Cu  Cu45  1  0.48113800  0.48974900  0.10869100  1
  Cu  Cu46  1  0.98113800  0.01025100  0.10869100  1
  Cu  Cu47  1  0.04339300  0.15057900  0.46702400  1
  C  C48  1  0.50499000  0.85021900  0.18920900  1
  C  C49  1  0.80201500  0.33536400  0.14976000  1
  C  C50  1  0.99501000  0.35021900  0.81079100  1
  C  C51  1  0.30201500  0.66463600  0.35024000  1
  C  C52  1  0.49501000  0.64978100  0.68920900  1
  C  C53  1  0.99501000  0.85021900  0.68920900  1
  C  C54  1  0.00499000  0.14978100  0.31079100  1
  C  C55  1  0.19798500  0.16463600  0.64976000  1
  C  C56  1  0.00499000  0.64978100  0.18920900  1
  C  C57  1  0.30201500  0.16463600  0.14976000  1
  C  C58  1  0.50499000  0.35021900  0.31079100  1
  C  C59  1  0.80201500  0.83536400  0.35024000  1
  C  C60  1  0.69798500  0.33536400  0.64976000  1
  C  C61  1  0.69798500  0.83536400  0.85024000  1
  C  C62  1  0.49501000  0.14978100  0.81079100  1
  C  C63  1  0.19798500  0.66463600  0.85024000  1
