# generated using pymatgen
data_Cu5Ni5C2
_symmetry_space_group_name_H-M   'P 1'
_cell_length_a   10.40556000
_cell_length_b   8.92555700
_cell_length_c   17.88694016
_cell_angle_alpha   67.33795014
_cell_angle_beta   90.00000000
_cell_angle_gamma   90.00000000
_symmetry_Int_Tables_number   1
_chemical_formula_structural   Cu5Ni5C2
_chemical_formula_sum   'Cu40 Ni40 C16'
_cell_volume   1532.99720629
_cell_formula_units_Z   8
loop_
 _symmetry_equiv_pos_site_id
 _symmetry_equiv_pos_as_xyz
  1  'x, y, z'
loop_
 _atom_site_type_symbol
 _atom_site_label
 _atom_site_symmetry_multiplicity
 _atom_site_fract_x
 _atom_site_fract_y
 _atom_site_fract_z
 _atom_site_occupancy
  C  C0  1  0.82712600  0.90047100  0.83569900  1
  C  C1  1  0.23694000  0.39859600  0.59678700  1
  C  C2  1  0.17287400  0.09952900  0.16430100  1
  C  C3  1  0.67287400  0.90047100  0.33569900  1
  C  C4  1  0.26306000  0.39859600  0.09678700  1
  C  C5  1  0.32712600  0.09952900  0.66430100  1
  C  C6  1  0.24842100  0.21439100  0.51298700  1
  C  C7  1  0.75157900  0.78560900  0.48701300  1
  C  C8  1  0.74842100  0.78560900  0.98701300  1
  C  C9  1  0.73694000  0.60140400  0.90321300  1
  C  C10  1  0.25157900  0.21439100  0.01298700  1
  C  C11  1  0.76306000  0.60140400  0.40321300  1
  Ni  Ni12  1  0.69145700  0.97310200  0.48630600  1
  Ni  Ni13  1  0.32511300  0.51077300  0.64462000  1
  Ni  Ni14  1  0.08957000  0.19212600  0.47946000  1
  Ni  Ni15  1  0.30854300  0.02689800  0.51369400  1
  Ni  Ni16  1  0.23943700  0.91991200  0.72432100  1
  Ni  Ni17  1  0.86031500  0.84377900  0.75211100  1
  Ni  Ni18  1  0.63968500  0.84377900  0.25211100  1
  Ni  Ni19  1  0.46783600  0.98014900  0.66693500  1
  Ni  Ni20  1  0.21289800  0.56091300  0.50072000  1
  Ni  Ni21  1  0.82511300  0.48922700  0.85538000  1
  Ni  Ni22  1  0.79510000  0.65270300  0.08803500  1
  Ni  Ni23  1  0.91043000  0.80787400  0.52054000  1
  Ni  Ni24  1  0.29510000  0.34729700  0.41196500  1
  Ni  Ni25  1  0.73943700  0.08008800  0.77567900  1
  Ni  Ni26  1  0.96783600  0.01985100  0.83306500  1
  Ni  Ni27  1  0.13968500  0.15622100  0.24788900  1
  Ni  Ni28  1  0.41158700  0.43196400  0.13921100  1
  Ni  Ni29  1  0.28710200  0.56091300  0.00072000  1
  Ni  Ni30  1  0.53216400  0.01985100  0.33306500  1
  Ni  Ni31  1  0.36031500  0.15622100  0.74788900  1
  Ni  Ni32  1  0.14858700  0.17670400  0.61885600  1
  Ni  Ni33  1  0.78710200  0.43908700  0.49928000  1
  Ni  Ni34  1  0.76056300  0.08008800  0.27567900  1
  Ni  Ni35  1  0.17488700  0.51077300  0.14462000  1
  Ni  Ni36  1  0.20490000  0.34729700  0.91196500  1
  Ni  Ni37  1  0.08841300  0.43196400  0.63921100  1
  Ni  Ni38  1  0.71289800  0.43908700  0.99928000  1
  Ni  Ni39  1  0.35141300  0.17670400  0.11885600  1
  Ni  Ni40  1  0.58957000  0.80787400  0.02054000  1
  Ni  Ni41  1  0.80854300  0.97310200  0.98630600  1
  Ni  Ni42  1  0.67488700  0.48922700  0.35538000  1
  Ni  Ni43  1  0.58841300  0.56803600  0.86078900  1
  Ni  Ni44  1  0.41043000  0.19212600  0.97946000  1
  Ni  Ni45  1  0.03216400  0.98014900  0.16693500  1
  Ni  Ni46  1  0.19145700  0.02689800  0.01369400  1
  Ni  Ni47  1  0.70490000  0.65270300  0.58803500  1
  Ni  Ni48  1  0.64858700  0.82329600  0.88114400  1
  Ni  Ni49  1  0.85141300  0.82329600  0.38114400  1
  Ni  Ni50  1  0.91158700  0.56803600  0.36078900  1
  Ni  Ni51  1  0.26056300  0.91991200  0.22432100  1
  C  C52  1  0.91772700  0.69482800  0.93798300  1
  C  C53  1  0.58227300  0.69482800  0.43798300  1
  C  C54  1  0.08227300  0.30517200  0.06201700  1
  C  C55  1  0.41772700  0.30517200  0.56201700  1
  Cu  Cu56  1  0.12047900  0.18736100  0.30409700  1
  Cu  Cu57  1  0.84522100  0.09404800  0.98875800  1
  Cu  Cu58  1  0.00677100  0.54619700  0.33329000  1
  Cu  Cu59  1  0.99322900  0.45380300  0.66671000  1
  Cu  Cu60  1  0.82374200  0.57057600  0.15357300  1
  Cu  Cu61  1  0.12206800  0.58998100  0.17304900  1
  Cu  Cu62  1  0.31673800  0.80322100  0.26134800  1
  Cu  Cu63  1  0.01351800  0.81700100  0.54261700  1
  Cu  Cu64  1  0.18326200  0.80322100  0.76134800  1
  Cu  Cu65  1  0.70008000  0.32951500  0.06033700  1
  Cu  Cu66  1  0.17625800  0.42942400  0.84642700  1
  Cu  Cu67  1  0.32374200  0.42942400  0.34642700  1
  Cu  Cu68  1  0.54210100  0.87323700  0.85846300  1
  Cu  Cu69  1  0.68326200  0.19677900  0.73865200  1
  Cu  Cu70  1  0.67625800  0.57057600  0.65357300  1
  Cu  Cu71  1  0.15477900  0.90595200  0.01124200  1
  Cu  Cu72  1  0.37952100  0.18736100  0.80409700  1
  Cu  Cu73  1  0.48648200  0.81700100  0.04261700  1
  Cu  Cu74  1  0.62206800  0.41001900  0.32695100  1
  Cu  Cu75  1  0.62047900  0.81263900  0.19590300  1
  Cu  Cu76  1  0.79992000  0.32951500  0.56033700  1
  Cu  Cu77  1  0.05898000  0.09695900  0.82911000  1
  Cu  Cu78  1  0.04210100  0.12676300  0.64153700  1
  Cu  Cu79  1  0.29992000  0.67048500  0.93966300  1
  Cu  Cu80  1  0.44102000  0.09695900  0.32911000  1
  Cu  Cu81  1  0.95789900  0.87323700  0.35846300  1
  Cu  Cu82  1  0.55898000  0.90304100  0.67089000  1
  Cu  Cu83  1  0.51351800  0.18299900  0.95738300  1
  Cu  Cu84  1  0.94102000  0.90304100  0.17089000  1
  Cu  Cu85  1  0.65477900  0.09404800  0.48875800  1
  Cu  Cu86  1  0.81673800  0.19677900  0.23865200  1
  Cu  Cu87  1  0.37793200  0.58998100  0.67304900  1
  Cu  Cu88  1  0.45789900  0.12676300  0.14153700  1
  Cu  Cu89  1  0.50677100  0.45380300  0.16671000  1
  Cu  Cu90  1  0.98648200  0.18299900  0.45738300  1
  Cu  Cu91  1  0.20008000  0.67048500  0.43966300  1
  Cu  Cu92  1  0.49322900  0.54619700  0.83329000  1
  Cu  Cu93  1  0.87793200  0.41001900  0.82695100  1
  Cu  Cu94  1  0.87952100  0.81263900  0.69590300  1
  Cu  Cu95  1  0.34522100  0.90595200  0.51124200  1
