# generated using pymatgen
data_Cu2NiC5
_symmetry_space_group_name_H-M   'P 1'
_cell_length_a   7.06778100
_cell_length_b   7.05843300
_cell_length_c   10.49723250
_cell_angle_alpha   82.08658373
_cell_angle_beta   90.00000000
_cell_angle_gamma   90.00000000
_symmetry_Int_Tables_number   1
_chemical_formula_structural   Cu2NiC5
_chemical_formula_sum   'Cu8 Ni4 C20'
_cell_volume   518.69337717
_cell_formula_units_Z   4
loop_
 _symmetry_equiv_pos_site_id
 _symmetry_equiv_pos_as_xyz
  1  'x, y, z'
loop_
 _atom_site_type_symbol
 _atom_site_label
 _atom_site_symmetry_multiplicity
 _atom_site_fract_x
 _atom_site_fract_y
 _atom_site_fract_z
 _atom_site_occupancy
  C  C0  1  0.98292500  0.99368200  0.77109200  1
  C  C1  1  0.48292500  0.50631800  0.22890800  1
  C  C2  1  0.01707500  0.00631800  0.22890800  1
  C  C3  1  0.51707500  0.49368200  0.77109200  1
  Ni  Ni4  1  0.57185000  0.94134600  0.28712400  1
  Ni  Ni5  1  0.07185000  0.55865400  0.71287600  1
  Ni  Ni6  1  0.42815000  0.05865400  0.71287600  1
  Ni  Ni7  1  0.92815000  0.44134600  0.28712400  1
  Cu  Cu8  1  0.01792700  0.53636500  0.06677600  1
  Cu  Cu9  1  0.51792700  0.96363500  0.93322400  1
  Cu  Cu10  1  0.98207300  0.46363500  0.93322400  1
  Cu  Cu11  1  0.48207300  0.03636500  0.06677600  1
  Cu  Cu12  1  0.91650000  0.42834100  0.49749800  1
  Cu  Cu13  1  0.41650000  0.07165900  0.50250200  1
  Cu  Cu14  1  0.08350000  0.57165900  0.50250200  1
  Cu  Cu15  1  0.58350000  0.92834100  0.49749800  1
  C  C16  1  0.93113700  0.43646600  0.16143800  1
  C  C17  1  0.43113700  0.06353400  0.83856200  1
  C  C18  1  0.06886300  0.56353400  0.83856200  1
  C  C19  1  0.56886300  0.93646600  0.16143800  1
  C  C20  1  0.62276100  0.82276200  0.92793700  1
  C  C21  1  0.12276100  0.67723800  0.07206300  1
  C  C22  1  0.37723900  0.17723800  0.07206300  1
  C  C23  1  0.87723900  0.32276200  0.92793700  1
  C  C24  1  0.63427200  0.88789900  0.38492100  1
  C  C25  1  0.13427200  0.61210100  0.61507900  1
  C  C26  1  0.36572800  0.11210100  0.61507900  1
  C  C27  1  0.86572800  0.38789900  0.38492100  1
  C  C28  1  0.33763300  0.14241100  0.40212400  1
  C  C29  1  0.83763300  0.35758900  0.59787600  1
  C  C30  1  0.66236700  0.85758900  0.59787600  1
  C  C31  1  0.16236700  0.64241100  0.40212400  1
