# generated using pymatgen
data_Cu3NiC2
_symmetry_space_group_name_H-M   'P 1'
_cell_length_a   7.73041500
_cell_length_b   6.97691700
_cell_length_c   11.26661997
_cell_angle_alpha   68.66547532
_cell_angle_beta   90.00000000
_cell_angle_gamma   90.00000000
_symmetry_Int_Tables_number   1
_chemical_formula_structural   Cu3NiC2
_chemical_formula_sum   'Cu12 Ni4 C8'
_cell_volume   566.01754985
_cell_formula_units_Z   4
loop_
 _symmetry_equiv_pos_site_id
 _symmetry_equiv_pos_as_xyz
  1  'x, y, z'
loop_
 _atom_site_type_symbol
 _atom_site_label
 _atom_site_symmetry_multiplicity
 _atom_site_fract_x
 _atom_site_fract_y
 _atom_site_fract_z
 _atom_site_occupancy
  C  C0  1  0.83867700  0.29349200  0.45514700  1
  C  C1  1  0.39588700  0.12242800  0.69992400  1
  C  C2  1  0.33867700  0.70650800  0.04485300  1
  C  C3  1  0.89588700  0.87757200  0.80007600  1
  C  C4  1  0.10411300  0.12242800  0.19992400  1
  C  C5  1  0.66132300  0.29349200  0.95514700  1
  C  C6  1  0.60411300  0.87757200  0.30007600  1
  C  C7  1  0.16132300  0.70650800  0.54485300  1
  Ni  Ni8  1  0.66269400  0.59994800  0.62125400  1
  Ni  Ni9  1  0.16269400  0.40005200  0.87874600  1
  Ni  Ni10  1  0.33730600  0.40005200  0.37874600  1
  Ni  Ni11  1  0.83730600  0.59994800  0.12125400  1
  Cu  Cu12  1  0.25535500  0.40378800  0.75488600  1
  Cu  Cu13  1  0.15414900  0.63092600  0.86214400  1
  Cu  Cu14  1  0.20425000  0.30494900  0.48799800  1
  Cu  Cu15  1  0.65414900  0.36907400  0.63785600  1
  Cu  Cu16  1  0.70425000  0.69505100  0.01200200  1
  Cu  Cu17  1  0.75535500  0.59621200  0.74511400  1
  Cu  Cu18  1  0.24464500  0.40378800  0.25488600  1
  Cu  Cu19  1  0.79575000  0.69505100  0.51200200  1
  Cu  Cu20  1  0.84585100  0.36907400  0.13785600  1
  Cu  Cu21  1  0.29575000  0.30494900  0.98799800  1
  Cu  Cu22  1  0.34585100  0.63092600  0.36214400  1
  Cu  Cu23  1  0.74464500  0.59621200  0.24511400  1
