# generated using pymatgen
data_Cu(Ni2C11)2
_symmetry_space_group_name_H-M   'P 1'
_cell_length_a   7.60516200
_cell_length_b   7.74932548
_cell_length_c   7.79430050
_cell_angle_alpha   92.04722633
_cell_angle_beta   117.04421841
_cell_angle_gamma   98.76413408
_symmetry_Int_Tables_number   1
_chemical_formula_structural   Cu(Ni2C11)2
_chemical_formula_sum   'Cu1 Ni4 C22'
_cell_volume   401.46420550
_cell_formula_units_Z   1
loop_
 _symmetry_equiv_pos_site_id
 _symmetry_equiv_pos_as_xyz
  1  'x, y, z'
loop_
 _atom_site_type_symbol
 _atom_site_label
 _atom_site_symmetry_multiplicity
 _atom_site_fract_x
 _atom_site_fract_y
 _atom_site_fract_z
 _atom_site_occupancy
  C  C0  1  0.75478200  0.84392100  0.26788200  1
  C  C1  1  0.24521800  0.15607900  0.73211800  1
  Ni  Ni2  1  0.75427100  0.33106800  0.52202100  1
  Ni  Ni3  1  0.69912000  0.85049400  0.75577500  1
  Ni  Ni4  1  0.24572900  0.66893200  0.47797900  1
  Ni  Ni5  1  0.30088000  0.14950600  0.24422500  1
  Cu  Cu6  1  0.00000000  0.50000000  0.00000000  1
  C  C7  1  0.67092200  0.37216400  0.96282100  1
  C  C8  1  0.76981500  0.20465800  0.98726900  1
  C  C9  1  0.32907800  0.62783600  0.03717900  1
  C  C10  1  0.23018500  0.79534200  0.01273100  1
  C  C11  1  0.51272600  0.21383600  0.47933700  1
  C  C12  1  0.74249400  0.67634500  0.87187800  1
  C  C13  1  0.79572700  0.33159700  0.04109100  1
  C  C14  1  0.72523300  0.51746900  0.43470700  1
  C  C15  1  0.88869500  0.93350600  0.72246600  1
  C  C16  1  0.25750600  0.32365500  0.12812200  1
  C  C17  1  0.34777000  0.00312500  0.11801300  1
  C  C18  1  0.08416500  0.64232700  0.24080700  1
  C  C19  1  0.27476700  0.48253100  0.56529300  1
  C  C20  1  0.11130500  0.06649400  0.27753400  1
  C  C21  1  0.65223000  0.99687500  0.88198700  1
  C  C22  1  0.20427300  0.66840300  0.95890900  1
  C  C23  1  0.83974300  0.21409800  0.41109400  1
  C  C24  1  0.16025700  0.78590200  0.58890600  1
  C  C25  1  0.48727400  0.78616400  0.52066300  1
  C  C26  1  0.91583500  0.35767300  0.75919300  1
