# generated using pymatgen
data_CuNiC5
_symmetry_space_group_name_H-M   'P 1'
_cell_length_a   9.73822591
_cell_length_b   9.73822591
_cell_length_c   9.73262500
_cell_angle_alpha   90.00000000
_cell_angle_beta   90.00000000
_cell_angle_gamma   119.99999939
_symmetry_Int_Tables_number   1
_chemical_formula_structural   CuNiC5
_chemical_formula_sum   'Cu8 Ni8 C40'
_cell_volume   799.31932883
_cell_formula_units_Z   8
loop_
 _symmetry_equiv_pos_site_id
 _symmetry_equiv_pos_as_xyz
  1  'x, y, z'
loop_
 _atom_site_type_symbol
 _atom_site_label
 _atom_site_symmetry_multiplicity
 _atom_site_fract_x
 _atom_site_fract_y
 _atom_site_fract_z
 _atom_site_occupancy
  C  C0  1  0.00000000  0.00000000  0.01381200  1
  C  C1  1  0.00000000  0.00000000  0.51381200  1
  C  C2  1  0.02083600  0.43695100  0.98828200  1
  C  C3  1  0.58388600  0.02083600  0.48828200  1
  C  C4  1  0.43695100  0.41611400  0.48828200  1
  C  C5  1  0.56304900  0.58388600  0.98828200  1
  C  C6  1  0.41611400  0.97916400  0.98828200  1
  C  C7  1  0.97916400  0.56304900  0.48828200  1
  Ni  Ni8  1  0.33333300  0.66666700  0.17057500  1
  Ni  Ni9  1  0.66666700  0.33333300  0.67057500  1
  Ni  Ni10  1  0.08486100  0.32553600  0.68300000  1
  Ni  Ni11  1  0.75932500  0.08486100  0.18300000  1
  Ni  Ni12  1  0.32553600  0.24067500  0.18300000  1
  Ni  Ni13  1  0.67446400  0.75932500  0.68300000  1
  Ni  Ni14  1  0.24067500  0.91513900  0.68300000  1
  Ni  Ni15  1  0.91513900  0.67446400  0.18300000  1
  Cu  Cu16  1  0.33333300  0.66666700  0.82365500  1
  Cu  Cu17  1  0.66666700  0.33333300  0.32365500  1
  Cu  Cu18  1  0.11964600  0.31095600  0.25426700  1
  Cu  Cu19  1  0.80869000  0.11964600  0.75426700  1
  Cu  Cu20  1  0.31095600  0.19131000  0.75426700  1
  Cu  Cu21  1  0.68904400  0.80869000  0.25426700  1
  Cu  Cu22  1  0.19131000  0.88035400  0.25426700  1
  Cu  Cu23  1  0.88035400  0.68904400  0.75426700  1
  C  C24  1  0.33333300  0.66666700  0.99086900  1
  C  C25  1  0.66666700  0.33333300  0.49086900  1
  C  C26  1  0.08337000  0.39455500  0.50964900  1
  C  C27  1  0.68881500  0.08337000  0.00964900  1
  C  C28  1  0.39455500  0.31118500  0.00964900  1
  C  C29  1  0.60544500  0.68881500  0.50964900  1
  C  C30  1  0.31118500  0.91663000  0.50964900  1
  C  C31  1  0.91663000  0.60544500  0.00964900  1
  C  C32  1  0.17530800  0.50321900  0.77505400  1
  C  C33  1  0.67208900  0.17530800  0.27505400  1
  C  C34  1  0.50321900  0.32791100  0.27505400  1
  C  C35  1  0.49678100  0.67208900  0.77505400  1
  C  C36  1  0.32791100  0.82469200  0.77505400  1
  C  C37  1  0.82469200  0.49678100  0.27505400  1
  C  C38  1  0.16195100  0.49266400  0.22140700  1
  C  C39  1  0.66928700  0.16195100  0.72140700  1
  C  C40  1  0.49266400  0.33071300  0.72140700  1
  C  C41  1  0.50733600  0.66928700  0.22140700  1
  C  C42  1  0.33071300  0.83804900  0.22140700  1
  C  C43  1  0.83804900  0.50733600  0.72140700  1
  C  C44  1  0.02418900  0.25675800  0.41294400  1
  C  C45  1  0.76743000  0.02418900  0.91294400  1
  C  C46  1  0.25675800  0.23257000  0.91294400  1
  C  C47  1  0.74324200  0.76743000  0.41294400  1
  C  C48  1  0.23257000  0.97581100  0.41294400  1
  C  C49  1  0.97581100  0.74324200  0.91294400  1
  C  C50  1  0.19082700  0.22301700  0.65576100  1
  C  C51  1  0.96781000  0.19082700  0.15576100  1
  C  C52  1  0.22301700  0.03219000  0.15576100  1
  C  C53  1  0.77698300  0.96781000  0.65576100  1
  C  C54  1  0.03219000  0.80917300  0.65576100  1
  C  C55  1  0.80917300  0.77698300  0.15576100  1
