# generated using pymatgen
data_Cu4Ni2C9
_symmetry_space_group_name_H-M   'P 1'
_cell_length_a   5.70486330
_cell_length_b   5.70486330
_cell_length_c   13.41835310
_cell_angle_alpha   87.70504980
_cell_angle_beta   87.70504980
_cell_angle_gamma   56.48269347
_symmetry_Int_Tables_number   1
_chemical_formula_structural   Cu4Ni2C9
_chemical_formula_sum   'Cu8 Ni4 C18'
_cell_volume   363.71425321
_cell_formula_units_Z   2
loop_
 _symmetry_equiv_pos_site_id
 _symmetry_equiv_pos_as_xyz
  1  'x, y, z'
loop_
 _atom_site_type_symbol
 _atom_site_label
 _atom_site_symmetry_multiplicity
 _atom_site_fract_x
 _atom_site_fract_y
 _atom_site_fract_z
 _atom_site_occupancy
  Ni  Ni0  1  0.01488600  0.99668000  0.99583200  1
  Ni  Ni1  1  0.67601000  0.66424500  0.17078900  1
  Ni  Ni2  1  0.66424500  0.67601000  0.67078900  1
  Ni  Ni3  1  0.99668000  0.01488600  0.49583200  1
  Cu  Cu4  1  0.34560700  0.34428400  0.33659500  1
  Cu  Cu5  1  0.38527500  0.37348500  0.09767800  1
  Cu  Cu6  1  0.71271800  0.72675800  0.42824200  1
  Cu  Cu7  1  0.05049600  0.04918500  0.26185700  1
  Cu  Cu8  1  0.04918500  0.05049600  0.76185700  1
  Cu  Cu9  1  0.34428400  0.34560700  0.83659500  1
  Cu  Cu10  1  0.37348500  0.38527500  0.59767800  1
  Cu  Cu11  1  0.72675800  0.71271800  0.92824200  1
  C  C12  1  0.62167000  0.37091600  0.23057700  1
  C  C13  1  0.77149700  0.40169700  0.03972600  1
  C  C14  1  0.24729600  0.85920400  0.12068300  1
  C  C15  1  0.06348800  0.44615800  0.20340700  1
  C  C16  1  0.52049600  0.89611400  0.28579300  1
  C  C17  1  0.93666000  0.69910100  0.57828000  1
  C  C18  1  0.69910100  0.93666000  0.07828000  1
  C  C19  1  0.08252400  0.77056800  0.38023900  1
  C  C20  1  0.59516800  0.16703400  0.46734400  1
  C  C21  1  0.40169700  0.77149700  0.53972600  1
  C  C22  1  0.85920400  0.24729600  0.62068300  1
  C  C23  1  0.28235600  0.01802600  0.91415800  1
  C  C24  1  0.01802600  0.28235600  0.41415800  1
  C  C25  1  0.44615800  0.06348800  0.70340700  1
  C  C26  1  0.89611400  0.52049600  0.78579300  1
  C  C27  1  0.77056800  0.08252400  0.88023900  1
  C  C28  1  0.16703400  0.59516800  0.96734400  1
  C  C29  1  0.37091600  0.62167000  0.73057700  1
