# generated using pymatgen
data_Cu3NiC2
_symmetry_space_group_name_H-M   'P 1'
_cell_length_a   8.54906506
_cell_length_b   8.54906506
_cell_length_c   8.54906506
_cell_angle_alpha   118.30031756
_cell_angle_beta   118.30031756
_cell_angle_gamma   92.97004325
_symmetry_Int_Tables_number   1
_chemical_formula_structural   Cu3NiC2
_chemical_formula_sum   'Cu12 Ni4 C8'
_cell_volume   452.50830300
_cell_formula_units_Z   4
loop_
 _symmetry_equiv_pos_site_id
 _symmetry_equiv_pos_as_xyz
  1  'x, y, z'
loop_
 _atom_site_type_symbol
 _atom_site_label
 _atom_site_symmetry_multiplicity
 _atom_site_fract_x
 _atom_site_fract_y
 _atom_site_fract_z
 _atom_site_occupancy
  Ni  Ni0  1  0.34484500  0.34484500  0.00000000  1
  Ni  Ni1  1  0.65515500  0.65515500  0.00000000  1
  Ni  Ni2  1  0.09484500  0.59484500  0.50000000  1
  Ni  Ni3  1  0.40515500  0.90515500  0.50000000  1
  Cu  Cu4  1  0.42416600  0.55082800  0.43537200  1
  Cu  Cu5  1  0.11545600  0.98879500  0.56462800  1
  Cu  Cu6  1  0.44917200  0.88454400  0.87333800  1
  Cu  Cu7  1  0.32583400  0.69917200  0.06462800  1
  Cu  Cu8  1  0.30082800  0.36545600  0.62666200  1
  Cu  Cu9  1  0.01120500  0.57583400  0.12666200  1
  Cu  Cu10  1  0.87500000  0.12500000  0.25000000  1
  Cu  Cu11  1  0.63454400  0.26120500  0.93537200  1
  Cu  Cu12  1  0.73879500  0.67416600  0.37333800  1
  Cu  Cu13  1  0.87500000  0.12500000  0.75000000  1
  Cu  Cu14  1  0.87500000  0.62500000  0.75000000  1
  Cu  Cu15  1  0.37500000  0.12500000  0.25000000  1
  C  C16  1  0.65923900  0.89770900  0.73684800  1
  C  C17  1  0.07760900  0.34076100  0.23847000  1
  C  C18  1  0.67239100  0.90923900  0.26153000  1
  C  C19  1  0.64770900  0.41086100  0.73847000  1
  C  C20  1  0.10229100  0.83913900  0.76153000  1
  C  C21  1  0.58913900  0.32760900  0.23684800  1
  C  C22  1  0.16086100  0.92239100  0.26315200  1
  C  C23  1  0.09076100  0.35229100  0.76315200  1
