# generated using pymatgen
data_CuNiC13
_symmetry_space_group_name_H-M   'P 1'
_cell_length_a   4.74219200
_cell_length_b   9.47570600
_cell_length_c   16.18773600
_cell_angle_alpha   90.00000000
_cell_angle_beta   90.00000000
_cell_angle_gamma   90.00000000
_symmetry_Int_Tables_number   1
_chemical_formula_structural   CuNiC13
_chemical_formula_sum   'Cu4 Ni4 C52'
_cell_volume   727.40590803
_cell_formula_units_Z   4
loop_
 _symmetry_equiv_pos_site_id
 _symmetry_equiv_pos_as_xyz
  1  'x, y, z'
loop_
 _atom_site_type_symbol
 _atom_site_label
 _atom_site_symmetry_multiplicity
 _atom_site_fract_x
 _atom_site_fract_y
 _atom_site_fract_z
 _atom_site_occupancy
  Ni  Ni0  1  0.52384000  0.98149600  0.04548200  1
  Ni  Ni1  1  0.52384000  0.48149600  0.45451800  1
  Ni  Ni2  1  0.47616000  0.98149600  0.54548200  1
  Ni  Ni3  1  0.47616000  0.48149600  0.95451800  1
  Cu  Cu4  1  0.45706700  0.26703100  0.26510000  1
  Cu  Cu5  1  0.54293300  0.76703100  0.73490000  1
  Cu  Cu6  1  0.54293300  0.26703100  0.76510000  1
  Cu  Cu7  1  0.45706700  0.76703100  0.23490000  1
  C  C8  1  0.00764300  0.29029600  0.59544300  1
  C  C9  1  0.99235700  0.79029600  0.40455700  1
  C  C10  1  0.99235700  0.29029600  0.09544300  1
  C  C11  1  0.00764300  0.79029600  0.90455700  1
  C  C12  1  0.50181800  0.49926300  0.65490500  1
  C  C13  1  0.49818200  0.99926300  0.34509500  1
  C  C14  1  0.49818200  0.49926300  0.15490500  1
  C  C15  1  0.50181800  0.99926300  0.84509500  1
  C  C16  1  0.99141600  0.70780800  0.59788900  1
  C  C17  1  0.99141600  0.20780800  0.90211100  1
  C  C18  1  0.00858400  0.70780800  0.09788900  1
  C  C19  1  0.00858400  0.20780800  0.40211100  1
  C  C20  1  0.99942000  0.50112300  0.29347000  1
  C  C21  1  0.00058000  0.00112300  0.70653000  1
  C  C22  1  0.00058000  0.50112300  0.79347000  1
  C  C23  1  0.99942000  0.00112300  0.20653000  1
  C  C24  1  0.73514300  0.33701700  0.66361500  1
  C  C25  1  0.26485700  0.83701700  0.33638500  1
  C  C26  1  0.26485700  0.33701700  0.16361500  1
  C  C27  1  0.73514300  0.83701700  0.83638500  1
  C  C28  1  0.73532700  0.58758500  0.73787900  1
  C  C29  1  0.26467300  0.08758500  0.26212100  1
  C  C30  1  0.85544900  0.62184100  0.36935000  1
  C  C31  1  0.73532700  0.08758500  0.76212100  1
  C  C32  1  0.72854000  0.58506600  0.57120600  1
  C  C33  1  0.27146000  0.08506600  0.42879400  1
  C  C34  1  0.27146000  0.58506600  0.07120600  1
  C  C35  1  0.26467300  0.58758500  0.23787900  1
  C  C36  1  0.15719100  0.26193900  0.99668500  1
  C  C37  1  0.84280900  0.76193900  0.00331500  1
  C  C38  1  0.84280900  0.26193900  0.49668500  1
  C  C39  1  0.15719100  0.76193900  0.50331500  1
  C  C40  1  0.17130300  0.86534900  0.14320700  1
  C  C41  1  0.82869700  0.36534900  0.85679300  1
  C  C42  1  0.82869700  0.86534900  0.64320700  1
  C  C43  1  0.17130300  0.36534900  0.35679300  1
  C  C44  1  0.27725700  0.91256100  0.92715100  1
  C  C45  1  0.72274300  0.41256100  0.07284900  1
  C  C46  1  0.72274300  0.91256100  0.42715100  1
  C  C47  1  0.27725700  0.41256100  0.57284900  1
  C  C48  1  0.27865800  0.91662100  0.75812300  1
  C  C49  1  0.72134200  0.41662100  0.24187700  1
  C  C50  1  0.72134200  0.91662100  0.25812300  1
  C  C51  1  0.27865800  0.41662100  0.74187700  1
  C  C52  1  0.27546500  0.16400300  0.83746300  1
  C  C53  1  0.72453500  0.66400300  0.16253700  1
  C  C54  1  0.72453500  0.16400300  0.33746300  1
  C  C55  1  0.27546500  0.66400300  0.66253700  1
  C  C56  1  0.85544900  0.12184100  0.13065000  1
  C  C57  1  0.14455100  0.62184100  0.86935000  1
  C  C58  1  0.14455100  0.12184100  0.63065000  1
  C  C59  1  0.72854000  0.08506600  0.92879400  1
