# generated using pymatgen
data_CuNi12C31
_symmetry_space_group_name_H-M   'P 1'
_cell_length_a   9.57508900
_cell_length_b   9.63363657
_cell_length_c   9.64638403
_cell_angle_alpha   100.86839519
_cell_angle_beta   100.62130517
_cell_angle_gamma   100.69687866
_symmetry_Int_Tables_number   1
_chemical_formula_structural   CuNi12C31
_chemical_formula_sum   'Cu2 Ni24 C62'
_cell_volume   836.19536938
_cell_formula_units_Z   2
loop_
 _symmetry_equiv_pos_site_id
 _symmetry_equiv_pos_as_xyz
  1  'x, y, z'
loop_
 _atom_site_type_symbol
 _atom_site_label
 _atom_site_symmetry_multiplicity
 _atom_site_fract_x
 _atom_site_fract_y
 _atom_site_fract_z
 _atom_site_occupancy
  C  C0  1  0.80237800  0.71395600  0.11238000  1
  C  C1  1  0.61385800  0.30503400  0.21615500  1
  C  C2  1  0.21344300  0.61078300  0.30004300  1
  C  C3  1  0.28560400  0.88722600  0.19455700  1
  C  C4  1  0.88563100  0.19639300  0.28321200  1
  C  C5  1  0.69689200  0.78527400  0.38660400  1
  C  C6  1  0.10960300  0.80013000  0.71408600  1
  C  C7  1  0.71831800  0.11218900  0.80476800  1
  C  C8  1  0.78520600  0.38953100  0.69683800  1
  C  C9  1  0.38899000  0.69632700  0.78738600  1
  C  C10  1  0.19316200  0.28831400  0.89567600  1
  C  C11  1  0.99764900  0.99819700  0.00076300  1
  C  C12  1  0.50263500  0.50796400  0.49666100  1
  C  C13  1  0.30228000  0.21459800  0.61251300  1
  Ni  Ni14  1  0.95041100  0.29713700  0.03735100  1
  Ni  Ni15  1  0.51551700  0.76663800  0.09755700  1
  Ni  Ni16  1  0.26683100  0.59729100  0.01499600  1
  Ni  Ni17  1  0.46358000  0.54945000  0.20351900  1
  Ni  Ni18  1  0.70319000  0.96295100  0.04993300  1
  Ni  Ni19  1  0.59767700  0.01482000  0.26617800  1
  Ni  Ni20  1  0.90310600  0.48490100  0.23380900  1
  Ni  Ni21  1  0.79587900  0.53590500  0.45014800  1
  Ni  Ni22  1  0.03521000  0.95142100  0.29663400  1
  Ni  Ni23  1  0.45032500  0.79837600  0.53669500  1
  Ni  Ni24  1  0.22984400  0.89896600  0.47993400  1
  Ni  Ni25  1  0.01272300  0.26700700  0.59906800  1
  Ni  Ni26  1  0.98380800  0.73238800  0.40221000  1
  Ni  Ni27  1  0.76771000  0.09672100  0.51474800  1
  Ni  Ni28  1  0.54936000  0.19903200  0.46329700  1
  Ni  Ni29  1  0.96585300  0.04763900  0.70284100  1
  Ni  Ni30  1  0.20755400  0.46958300  0.54974000  1
  Ni  Ni31  1  0.09670900  0.51540500  0.76769700  1
  Ni  Ni32  1  0.40579000  0.98224700  0.74017500  1
  Ni  Ni33  1  0.29526900  0.03590300  0.95101500  1
  Ni  Ni34  1  0.53761700  0.45330300  0.79333200  1
  Ni  Ni35  1  0.73403600  0.40288100  0.98547500  1
  Ni  Ni36  1  0.48666000  0.22815500  0.90779400  1
  Ni  Ni37  1  0.04927200  0.70279200  0.96336300  1
  Cu  Cu38  1  0.24399300  0.25112600  0.23242300  1
  Cu  Cu39  1  0.75607400  0.75249400  0.75457300  1
  C  C40  1  0.64105600  0.81586700  0.03101800  1
  C  C41  1  0.81421200  0.51621300  0.10869900  1
  C  C42  1  0.56628400  0.66430500  0.19012600  1
  C  C43  1  0.60612400  0.31609000  0.01657300  1
  C  C44  1  0.16439600  0.68984200  0.06604300  1
  C  C45  1  0.31528100  0.52906700  0.13905800  1
  C  C46  1  0.49732500  0.45180900  0.28574200  1
  C  C47  1  0.69029800  0.06645100  0.16480000  1
  C  C48  1  0.05000400  0.21612200  0.00252300  1
  C  C49  1  0.53012900  0.14168300  0.31722700  1
  C  C50  1  0.01761000  0.60931100  0.31471200  1
  C  C51  1  0.28503200  0.49828200  0.45027900  1
  C  C52  1  0.21600500  0.00319800  0.04965800  1
  C  C53  1  0.48317900  0.89162800  0.18588300  1
  C  C54  1  0.97015500  0.35951700  0.18440400  1
  C  C55  1  0.44410500  0.27526700  0.50310800  1
  C  C56  1  0.81075800  0.43356200  0.33574700  1
  C  C57  1  0.00323000  0.04996600  0.21603400  1
  C  C58  1  0.15026200  0.31649600  0.53901900  1
  C  C59  1  0.18414300  0.97298800  0.36329500  1
  C  C60  1  0.33591400  0.81396900  0.43440300  1
  C  C61  1  0.31386900  0.01958200  0.61094300  1
  C  C62  1  0.89314300  0.18619700  0.48309500  1
  C  C63  1  0.93373600  0.83491400  0.30930000  1
  C  C64  1  0.07249800  0.16338400  0.68772000  1
  C  C65  1  0.10898700  0.81512100  0.51722100  1
  C  C66  1  0.68632300  0.98350000  0.39182200  1
  C  C67  1  0.66427300  0.18914900  0.56710900  1
  C  C68  1  0.81895400  0.03375800  0.64132200  1
  C  C69  1  0.85939700  0.68376500  0.46967100  1
  C  C70  1  0.99985000  0.95093400  0.78425500  1
  C  C71  1  0.18829000  0.56772100  0.66321900  1
  C  C72  1  0.54822400  0.71796500  0.50288800  1
  C  C73  1  0.03025600  0.63950200  0.81598800  1
  C  C74  1  0.51847700  0.10786600  0.81564400  1
  C  C75  1  0.78385800  0.99763100  0.95057100  1
  C  C76  1  0.71261800  0.50053800  0.54680600  1
  C  C77  1  0.98282100  0.39020500  0.68531700  1
  C  C78  1  0.46750100  0.86066200  0.68417900  1
  C  C79  1  0.95028400  0.78430400  0.99636100  1
  C  C80  1  0.30950200  0.93393700  0.83510200  1
  C  C81  1  0.49966200  0.54658900  0.71151200  1
  C  C82  1  0.68208200  0.46882700  0.85994100  1
  C  C83  1  0.83469900  0.30922100  0.93428600  1
  C  C84  1  0.39131000  0.68521800  0.98294300  1
  C  C85  1  0.43023600  0.33121800  0.80101400  1
  C  C86  1  0.18605400  0.48268800  0.89002300  1
  C  C87  1  0.35794600  0.18352600  0.96725000  1
