# generated using pymatgen
data_Cu2NiC12
_symmetry_space_group_name_H-M   'P 1'
_cell_length_a   5.62938129
_cell_length_b   5.62938129
_cell_length_c   13.67027400
_cell_angle_alpha   90.00000000
_cell_angle_beta   90.00000000
_cell_angle_gamma   119.99999166
_symmetry_Int_Tables_number   1
_chemical_formula_structural   Cu2NiC12
_chemical_formula_sum   'Cu4 Ni2 C24'
_cell_volume   375.17096328
_cell_formula_units_Z   2
loop_
 _symmetry_equiv_pos_site_id
 _symmetry_equiv_pos_as_xyz
  1  'x, y, z'
loop_
 _atom_site_type_symbol
 _atom_site_label
 _atom_site_symmetry_multiplicity
 _atom_site_fract_x
 _atom_site_fract_y
 _atom_site_fract_z
 _atom_site_occupancy
  Ni  Ni0  1  0.00000000  0.00000000  0.75000000  1
  Ni  Ni1  1  0.00000000  0.00000000  0.25000000  1
  Cu  Cu2  1  0.66666700  0.33333300  0.41796400  1
  Cu  Cu3  1  0.33333300  0.66666700  0.08203600  1
  Cu  Cu4  1  0.33333300  0.66666700  0.58203600  1
  Cu  Cu5  1  0.66666700  0.33333300  0.91796400  1
  C  C6  1  0.33333300  0.66666700  0.83328100  1
  C  C7  1  0.66666700  0.33333300  0.16671900  1
  C  C8  1  0.00000000  0.00000000  0.50000000  1
  C  C9  1  0.00000000  0.00000000  0.00000000  1
  C  C10  1  0.33333300  0.66666700  0.33328100  1
  C  C11  1  0.66666700  0.33333300  0.66671900  1
  C  C12  1  0.77112200  0.11206800  0.57675800  1
  C  C13  1  0.65905400  0.88793200  0.92324200  1
  C  C14  1  0.22887800  0.34094600  0.92324200  1
  C  C15  1  0.11206800  0.77112200  0.92324200  1
  C  C16  1  0.77112200  0.65905400  0.07675800  1
  C  C17  1  0.34094600  0.11206800  0.07675800  1
  C  C18  1  0.00000000  0.52087300  0.25000000  1
  C  C19  1  0.52087300  0.00000000  0.25000000  1
  C  C20  1  0.22887800  0.88793200  0.42324200  1
  C  C21  1  0.47912700  0.47912700  0.25000000  1
  C  C22  1  0.11206800  0.34094600  0.42324200  1
  C  C23  1  0.65905400  0.77112200  0.42324200  1
  C  C24  1  0.34094600  0.22887800  0.57675800  1
  C  C25  1  0.88793200  0.65905400  0.57675800  1
  C  C26  1  0.52087300  0.52087300  0.75000000  1
  C  C27  1  0.47912700  0.00000000  0.75000000  1
  C  C28  1  0.00000000  0.47912700  0.75000000  1
  C  C29  1  0.88793200  0.22887800  0.07675800  1
