# generated using pymatgen
data_Cu6NiC4
_symmetry_space_group_name_H-M   'P 1'
_cell_length_a   10.02158845
_cell_length_b   10.02158845
_cell_length_c   7.56573309
_cell_angle_alpha   89.01515856
_cell_angle_beta   89.01515856
_cell_angle_gamma   45.49167898
_symmetry_Int_Tables_number   1
_chemical_formula_structural   Cu6NiC4
_chemical_formula_sum   'Cu24 Ni4 C16'
_cell_volume   541.78723548
_cell_formula_units_Z   4
loop_
 _symmetry_equiv_pos_site_id
 _symmetry_equiv_pos_as_xyz
  1  'x, y, z'
loop_
 _atom_site_type_symbol
 _atom_site_label
 _atom_site_symmetry_multiplicity
 _atom_site_fract_x
 _atom_site_fract_y
 _atom_site_fract_z
 _atom_site_occupancy
  C  C0  1  0.80192800  0.55920000  0.62313600  1
  C  C1  1  0.44080000  0.19807200  0.87686400  1
  C  C2  1  0.19807200  0.44080000  0.37686400  1
  C  C3  1  0.55920000  0.80192800  0.12313600  1
  C  C4  1  0.36685500  0.71812400  0.45681000  1
  C  C5  1  0.28187600  0.63314500  0.04319000  1
  C  C6  1  0.63314500  0.28187600  0.54319000  1
  C  C7  1  0.71812400  0.36685500  0.95681000  1
  C  C8  1  0.08553400  0.82301500  0.37730900  1
  C  C9  1  0.17698500  0.91446600  0.12269100  1
  C  C10  1  0.91446600  0.17698500  0.62269100  1
  C  C11  1  0.82301500  0.08553400  0.87730900  1
  C  C12  1  0.13947400  0.76083200  0.57367600  1
  C  C13  1  0.23916800  0.86052600  0.92632400  1
  C  C14  1  0.86052600  0.23916800  0.42632400  1
  C  C15  1  0.76083200  0.13947400  0.07367600  1
  Ni  Ni16  1  0.29260200  0.01250400  0.64505800  1
  Ni  Ni17  1  0.98749600  0.70739800  0.85494200  1
  Ni  Ni18  1  0.70739800  0.98749600  0.35494200  1
  Ni  Ni19  1  0.01250400  0.29260200  0.14505800  1
  Cu  Cu20  1  0.47131200  0.71401800  0.46187100  1
  Cu  Cu21  1  0.28598200  0.52868800  0.03812900  1
  Cu  Cu22  1  0.52868800  0.28598200  0.53812900  1
  Cu  Cu23  1  0.71401800  0.47131200  0.96187100  1
  Cu  Cu24  1  0.36510000  0.91369100  0.44561300  1
  Cu  Cu25  1  0.08630900  0.63490000  0.05438700  1
  Cu  Cu26  1  0.63490000  0.08630900  0.55438700  1
  Cu  Cu27  1  0.91369100  0.36510000  0.94561300  1
  Cu  Cu28  1  0.16807700  0.99367600  0.71125400  1
  Cu  Cu29  1  0.00632400  0.83192300  0.78874600  1
  Cu  Cu30  1  0.83192300  0.00632400  0.28874600  1
  Cu  Cu31  1  0.99367600  0.16807700  0.21125400  1
  Cu  Cu32  1  0.46019000  0.91066600  0.75209700  1
  Cu  Cu33  1  0.08933400  0.53981000  0.74790300  1
  Cu  Cu34  1  0.53981000  0.08933400  0.24790300  1
  Cu  Cu35  1  0.91066600  0.46019000  0.25209700  1
  Cu  Cu36  1  0.20044100  0.20093700  0.59218100  1
  Cu  Cu37  1  0.79906300  0.79955900  0.90781900  1
  Cu  Cu38  1  0.79955900  0.79906300  0.40781900  1
  Cu  Cu39  1  0.20093700  0.20044100  0.09218100  1
  Cu  Cu40  1  0.19368600  0.72688300  0.45335900  1
  Cu  Cu41  1  0.27311700  0.80631400  0.04664100  1
  Cu  Cu42  1  0.80631400  0.27311700  0.54664100  1
  Cu  Cu43  1  0.72688300  0.19368600  0.95335900  1
