# generated using pymatgen
data_Cu2Ni2C9
_symmetry_space_group_name_H-M   'P 1'
_cell_length_a   6.29598900
_cell_length_b   10.35698100
_cell_length_c   10.67899658
_cell_angle_alpha   62.25946243
_cell_angle_beta   90.00000000
_cell_angle_gamma   90.00000000
_symmetry_Int_Tables_number   1
_chemical_formula_structural   Cu2Ni2C9
_chemical_formula_sum   'Cu8 Ni8 C36'
_cell_volume   616.31469045
_cell_formula_units_Z   4
loop_
 _symmetry_equiv_pos_site_id
 _symmetry_equiv_pos_as_xyz
  1  'x, y, z'
loop_
 _atom_site_type_symbol
 _atom_site_label
 _atom_site_symmetry_multiplicity
 _atom_site_fract_x
 _atom_site_fract_y
 _atom_site_fract_z
 _atom_site_occupancy
  Ni  Ni0  1  0.76976600  0.45113800  0.61138000  1
  Ni  Ni1  1  0.26976600  0.04886200  0.38862000  1
  Ni  Ni2  1  0.23023400  0.54886200  0.38862000  1
  Ni  Ni3  1  0.73023400  0.95113800  0.61138000  1
  Ni  Ni4  1  0.44287000  0.23978500  0.52354300  1
  Ni  Ni5  1  0.94287000  0.26021500  0.47645700  1
  Ni  Ni6  1  0.55713000  0.76021500  0.47645700  1
  Ni  Ni7  1  0.05713000  0.73978500  0.52354300  1
  Cu  Cu8  1  0.95908200  0.31717800  0.98458700  1
  Cu  Cu9  1  0.45908200  0.18282200  0.01541300  1
  Cu  Cu10  1  0.04091800  0.68282200  0.01541300  1
  Cu  Cu11  1  0.54091800  0.81717800  0.98458700  1
  Cu  Cu12  1  0.58203100  0.41423400  0.18278200  1
  Cu  Cu13  1  0.08203100  0.08576600  0.81721800  1
  Cu  Cu14  1  0.41796900  0.58576600  0.81721800  1
  Cu  Cu15  1  0.91796900  0.91423400  0.18278200  1
  C  C16  1  0.15320600  0.35165700  0.20760700  1
  C  C17  1  0.65320600  0.14834300  0.79239300  1
  C  C18  1  0.84679400  0.64834300  0.79239300  1
  C  C19  1  0.34679400  0.85165700  0.20760700  1
  C  C20  1  0.75302200  0.58115700  0.31493600  1
  C  C21  1  0.25302200  0.91884300  0.68506400  1
  C  C22  1  0.24697800  0.41884300  0.68506400  1
  C  C23  1  0.74697800  0.08115700  0.31493600  1
  C  C24  1  0.64811900  0.16492200  0.36686800  1
  C  C25  1  0.14811900  0.33507800  0.63313200  1
  C  C26  1  0.35188100  0.83507800  0.63313200  1
  C  C27  1  0.85188100  0.66492200  0.36686800  1
  C  C28  1  0.75621300  0.22935500  0.84946800  1
  C  C29  1  0.25621300  0.27064500  0.15053200  1
  C  C30  1  0.24378700  0.77064500  0.15053200  1
  C  C31  1  0.74378700  0.72935500  0.84946800  1
  C  C32  1  0.87603400  0.90225000  0.97489800  1
  C  C33  1  0.37603400  0.59775000  0.02510200  1
  C  C34  1  0.12396600  0.09775000  0.02510200  1
  C  C35  1  0.62396600  0.40225000  0.97489800  1
  C  C36  1  0.25290800  0.86690600  0.31517600  1
  C  C37  1  0.75290800  0.63309400  0.68482400  1
  C  C38  1  0.74709200  0.13309400  0.68482400  1
  C  C39  1  0.24709200  0.36690600  0.31517600  1
  C  C40  1  0.73695000  0.63250700  0.16671500  1
  C  C41  1  0.23695000  0.86749300  0.83328500  1
  C  C42  1  0.26305000  0.36749300  0.83328500  1
  C  C43  1  0.76305000  0.13250700  0.16671500  1
  C  C44  1  0.54157600  0.91363100  0.14876800  1
  C  C45  1  0.04157600  0.58636900  0.85123200  1
  C  C46  1  0.45842400  0.08636900  0.85123200  1
  C  C47  1  0.95842400  0.41363100  0.14876800  1
  C  C48  1  0.83148100  0.94466900  0.39772200  1
  C  C49  1  0.33148100  0.55533100  0.60227800  1
  C  C50  1  0.16851900  0.05533100  0.60227800  1
  C  C51  1  0.66851900  0.44466900  0.39772200  1
