# generated using pymatgen
data_Cu4Ni5
_symmetry_space_group_name_H-M   'P 1'
_cell_length_a   6.53424518
_cell_length_b   6.53424518
_cell_length_c   6.53424536
_cell_angle_alpha   88.19594471
_cell_angle_beta   88.19594471
_cell_angle_gamma   88.19595025
_symmetry_Int_Tables_number   1
_chemical_formula_structural   Cu4Ni5
_chemical_formula_sum   'Cu8 Ni10'
_cell_volume   278.58215027
_cell_formula_units_Z   2
loop_
 _symmetry_equiv_pos_site_id
 _symmetry_equiv_pos_as_xyz
  1  'x, y, z'
loop_
 _atom_site_type_symbol
 _atom_site_label
 _atom_site_symmetry_multiplicity
 _atom_site_fract_x
 _atom_site_fract_y
 _atom_site_fract_z
 _atom_site_occupancy
  Ni  Ni0  1  0.62237500  0.43328100  0.31788400  1
  Ni  Ni1  1  0.81788400  0.93328100  0.12237500  1
  Ni  Ni2  1  0.12237500  0.81788400  0.93328100  1
  Ni  Ni3  1  0.93328100  0.12237500  0.81788400  1
  Ni  Ni4  1  0.31788400  0.62237500  0.43328100  1
  Ni  Ni5  1  0.62668800  0.62668800  0.62668800  1
  Ni  Ni6  1  0.99983800  0.99983800  0.99983800  1
  Ni  Ni7  1  0.43328100  0.31788400  0.62237500  1
  Ni  Ni8  1  0.49983800  0.49983800  0.49983800  1
  Ni  Ni9  1  0.12668800  0.12668800  0.12668800  1
  Cu  Cu10  1  0.72023200  0.38086400  0.17620900  1
  Cu  Cu11  1  0.22023200  0.67620900  0.88086400  1
  Cu  Cu12  1  0.67620900  0.88086400  0.22023200  1
  Cu  Cu13  1  0.38086400  0.17620900  0.72023200  1
  Cu  Cu14  1  0.22622900  0.22622900  0.22622900  1
  Cu  Cu15  1  0.88086400  0.22023200  0.67620900  1
  Cu  Cu16  1  0.72622900  0.72622900  0.72622900  1
  Cu  Cu17  1  0.17620900  0.72023200  0.38086400  1
