# generated using pymatgen
data_Cu2Ni2C9
_symmetry_space_group_name_H-M   'P 1'
_cell_length_a   10.03224523
_cell_length_b   10.03224523
_cell_length_c   12.27385200
_cell_angle_alpha   90.00000000
_cell_angle_beta   90.00000000
_cell_angle_gamma   119.99999490
_symmetry_Int_Tables_number   1
_chemical_formula_structural   Cu2Ni2C9
_chemical_formula_sum   'Cu12 Ni12 C54'
_cell_volume   1069.81286230
_cell_formula_units_Z   6
loop_
 _symmetry_equiv_pos_site_id
 _symmetry_equiv_pos_as_xyz
  1  'x, y, z'
loop_
 _atom_site_type_symbol
 _atom_site_label
 _atom_site_symmetry_multiplicity
 _atom_site_fract_x
 _atom_site_fract_y
 _atom_site_fract_z
 _atom_site_occupancy
  C  C0  1  0.72494100  0.67577000  0.25000000  1
  C  C1  1  0.95082900  0.27505900  0.25000000  1
  C  C2  1  0.32423000  0.04917100  0.25000000  1
  C  C3  1  0.27505900  0.32423000  0.75000000  1
  C  C4  1  0.04917100  0.72494100  0.75000000  1
  C  C5  1  0.67577000  0.95082900  0.75000000  1
  C  C6  1  0.00000000  0.00000000  0.50000000  1
  C  C7  1  0.00000000  0.00000000  0.00000000  1
  C  C8  1  0.33333300  0.66666700  0.25000000  1
  C  C9  1  0.66666700  0.33333300  0.75000000  1
  Ni  Ni10  1  0.28312900  0.80143000  0.50822000  1
  Ni  Ni11  1  0.51830100  0.71687100  0.50822000  1
  Ni  Ni12  1  0.19857000  0.48169900  0.50822000  1
  Ni  Ni13  1  0.71687100  0.19857000  0.00822000  1
  Ni  Ni14  1  0.48169900  0.28312900  0.00822000  1
  Ni  Ni15  1  0.80143000  0.51830100  0.00822000  1
  Ni  Ni16  1  0.71687100  0.19857000  0.49178000  1
  Ni  Ni17  1  0.48169900  0.28312900  0.49178000  1
  Ni  Ni18  1  0.80143000  0.51830100  0.49178000  1
  Ni  Ni19  1  0.28312900  0.80143000  0.99178000  1
  Ni  Ni20  1  0.51830100  0.71687100  0.99178000  1
  Ni  Ni21  1  0.19857000  0.48169900  0.99178000  1
  Cu  Cu22  1  0.03341000  0.63818000  0.31454500  1
  Cu  Cu23  1  0.60477000  0.96659000  0.31454500  1
  Cu  Cu24  1  0.36182000  0.39523000  0.31454500  1
  Cu  Cu25  1  0.96659000  0.36182000  0.81454500  1
  Cu  Cu26  1  0.39523000  0.03341000  0.81454500  1
  Cu  Cu27  1  0.63818000  0.60477000  0.81454500  1
  Cu  Cu28  1  0.96659000  0.36182000  0.68545500  1
  Cu  Cu29  1  0.39523000  0.03341000  0.68545500  1
  Cu  Cu30  1  0.63818000  0.60477000  0.68545500  1
  Cu  Cu31  1  0.03341000  0.63818000  0.18545500  1
  Cu  Cu32  1  0.60477000  0.96659000  0.18545500  1
  Cu  Cu33  1  0.36182000  0.39523000  0.18545500  1
  C  C34  1  0.00000000  0.00000000  0.25000000  1
  C  C35  1  0.00000000  0.00000000  0.75000000  1
  C  C36  1  0.28251400  0.80662400  0.38567200  1
  C  C37  1  0.52411000  0.71748600  0.38567200  1
  C  C38  1  0.19337600  0.47589000  0.38567200  1
  C  C39  1  0.71748600  0.19337600  0.88567200  1
  C  C40  1  0.47589000  0.28251400  0.88567200  1
  C  C41  1  0.80662400  0.52411000  0.88567200  1
  C  C42  1  0.71748600  0.19337600  0.61432800  1
  C  C43  1  0.47589000  0.28251400  0.61432800  1
  C  C44  1  0.80662400  0.52411000  0.61432800  1
  C  C45  1  0.28251400  0.80662400  0.11432800  1
  C  C46  1  0.52411000  0.71748600  0.11432800  1
  C  C47  1  0.19337600  0.47589000  0.11432800  1
  C  C48  1  0.24375000  0.90101800  0.57479300  1
  C  C49  1  0.65726800  0.75625000  0.57479300  1
  C  C50  1  0.09898200  0.34273200  0.57479300  1
  C  C51  1  0.75625000  0.09898200  0.07479300  1
  C  C52  1  0.34273200  0.24375000  0.07479300  1
  C  C53  1  0.90101800  0.65726800  0.07479300  1
  C  C54  1  0.75625000  0.09898200  0.42520700  1
  C  C55  1  0.34273200  0.24375000  0.42520700  1
  C  C56  1  0.90101800  0.65726800  0.42520700  1
  C  C57  1  0.24375000  0.90101800  0.92520700  1
  C  C58  1  0.65726800  0.75625000  0.92520700  1
  C  C59  1  0.09898200  0.34273200  0.92520700  1
  C  C60  1  0.17167200  0.62280100  0.54804200  1
  C  C61  1  0.45112900  0.82832800  0.54804200  1
  C  C62  1  0.37719900  0.54887100  0.54804200  1
  C  C63  1  0.82832800  0.37719900  0.04804200  1
  C  C64  1  0.54887100  0.17167200  0.04804200  1
  C  C65  1  0.62280100  0.45112900  0.04804200  1
  C  C66  1  0.82832800  0.37719900  0.45195800  1
  C  C67  1  0.54887100  0.17167200  0.45195800  1
  C  C68  1  0.62280100  0.45112900  0.45195800  1
  C  C69  1  0.17167200  0.62280100  0.95195800  1
  C  C70  1  0.45112900  0.82832800  0.95195800  1
  C  C71  1  0.37719900  0.54887100  0.95195800  1
  C  C72  1  0.05808700  0.59602500  0.25000000  1
  C  C73  1  0.53793800  0.94191300  0.25000000  1
  C  C74  1  0.40397500  0.46206200  0.25000000  1
  C  C75  1  0.94191300  0.40397500  0.75000000  1
  C  C76  1  0.46206200  0.05808700  0.75000000  1
  C  C77  1  0.59602500  0.53793800  0.75000000  1
