# generated using pymatgen
data_Cu26(NiC16)3
_symmetry_space_group_name_H-M   'P 1'
_cell_length_a   16.41824200
_cell_length_b   16.41824200
_cell_length_c   16.41824200
_cell_angle_alpha   90.00000000
_cell_angle_beta   90.00000000
_cell_angle_gamma   90.00000000
_symmetry_Int_Tables_number   1
_chemical_formula_structural   Cu26(NiC16)3
_chemical_formula_sum   'Cu52 Ni6 C96'
_cell_volume   4425.67948334
_cell_formula_units_Z   2
loop_
 _symmetry_equiv_pos_site_id
 _symmetry_equiv_pos_as_xyz
  1  'x, y, z'
loop_
 _atom_site_type_symbol
 _atom_site_label
 _atom_site_symmetry_multiplicity
 _atom_site_fract_x
 _atom_site_fract_y
 _atom_site_fract_z
 _atom_site_occupancy
  Ni  Ni0  1  0.50000000  0.50000000  0.00000000  1
  Ni  Ni1  1  0.50000000  0.00000000  0.50000000  1
  Ni  Ni2  1  0.00000000  0.50000000  0.50000000  1
  Ni  Ni3  1  0.50000000  0.00000000  0.00000000  1
  Ni  Ni4  1  0.00000000  0.00000000  0.50000000  1
  Ni  Ni5  1  0.00000000  0.50000000  0.00000000  1
  Cu  Cu6  1  0.68908400  0.31091600  0.31091600  1
  Cu  Cu7  1  0.63609700  0.50000000  0.20406800  1
  Cu  Cu8  1  0.63609700  0.50000000  0.79593200  1
  Cu  Cu9  1  0.81091600  0.18908400  0.18908400  1
  Cu  Cu10  1  0.79593200  0.36390300  0.50000000  1
  Cu  Cu11  1  0.86390300  0.29593200  0.00000000  1
  Cu  Cu12  1  0.20406800  0.36390300  0.50000000  1
  Cu  Cu13  1  0.68908400  0.31091600  0.68908400  1
  Cu  Cu14  1  0.79593200  0.63609700  0.50000000  1
  Cu  Cu15  1  0.86390300  0.70406800  0.00000000  1
  Cu  Cu16  1  0.18908400  0.81091600  0.81091600  1
  Cu  Cu17  1  0.81091600  0.81091600  0.18908400  1
  Cu  Cu18  1  0.36390300  0.50000000  0.79593200  1
  Cu  Cu19  1  0.18908400  0.18908400  0.81091600  1
  Cu  Cu20  1  0.20406800  0.63609700  0.50000000  1
  Cu  Cu21  1  0.81091600  0.18908400  0.81091600  1
  Cu  Cu22  1  0.00000000  0.75000000  0.50000000  1
  Cu  Cu23  1  0.50000000  0.20406800  0.63609700  1
  Cu  Cu24  1  0.31091600  0.68908400  0.68908400  1
  Cu  Cu25  1  0.50000000  0.79593200  0.63609700  1
  Cu  Cu26  1  0.25000000  0.00000000  0.50000000  1
  Cu  Cu27  1  0.50000000  0.20406800  0.36390300  1
  Cu  Cu28  1  0.68908400  0.68908400  0.31091600  1
  Cu  Cu29  1  0.00000000  0.50000000  0.75000000  1
  Cu  Cu30  1  0.70406800  0.00000000  0.86390300  1
  Cu  Cu31  1  0.00000000  0.13609700  0.70406800  1
  Cu  Cu32  1  0.50000000  0.75000000  0.00000000  1
  Cu  Cu33  1  0.29593200  0.00000000  0.86390300  1
  Cu  Cu34  1  0.00000000  0.50000000  0.25000000  1
  Cu  Cu35  1  0.31091600  0.31091600  0.68908400  1
  Cu  Cu36  1  0.25000000  0.50000000  0.00000000  1
  Cu  Cu37  1  0.13609700  0.29593200  0.00000000  1
  Cu  Cu38  1  0.29593200  0.00000000  0.13609700  1
  Cu  Cu39  1  0.81091600  0.81091600  0.81091600  1
  Cu  Cu40  1  0.18908400  0.18908400  0.18908400  1
  Cu  Cu41  1  0.31091600  0.31091600  0.31091600  1
  Cu  Cu42  1  0.00000000  0.13609700  0.29593200  1
  Cu  Cu43  1  0.13609700  0.70406800  0.00000000  1
  Cu  Cu44  1  0.00000000  0.25000000  0.50000000  1
  Cu  Cu45  1  0.75000000  0.00000000  0.50000000  1
  Cu  Cu46  1  0.50000000  0.25000000  0.00000000  1
  Cu  Cu47  1  0.36390300  0.50000000  0.20406800  1
  Cu  Cu48  1  0.50000000  0.00000000  0.75000000  1
  Cu  Cu49  1  0.50000000  0.00000000  0.25000000  1
  Cu  Cu50  1  0.70406800  0.00000000  0.13609700  1
  Cu  Cu51  1  0.68908400  0.68908400  0.68908400  1
  Cu  Cu52  1  0.50000000  0.79593200  0.36390300  1
  Cu  Cu53  1  0.31091600  0.68908400  0.31091600  1
  Cu  Cu54  1  0.18908400  0.81091600  0.18908400  1
  Cu  Cu55  1  0.00000000  0.86390300  0.29593200  1
  Cu  Cu56  1  0.75000000  0.50000000  0.00000000  1
  Cu  Cu57  1  0.00000000  0.86390300  0.70406800  1
  C  C58  1  0.16675600  0.82989000  0.59506800  1
  C  C59  1  0.09293600  0.00000000  0.15368200  1
  C  C60  1  0.50000000  0.59293600  0.65368200  1
  C  C61  1  0.09293600  0.00000000  0.84631800  1
  C  C62  1  0.33324400  0.09506800  0.32989000  1
  C  C63  1  0.00000000  0.15368200  0.90706400  1
  C  C64  1  0.40706400  0.34631800  0.50000000  1
  C  C65  1  0.67011000  0.66675600  0.90493200  1
  C  C66  1  0.17011000  0.59506800  0.16675600  1
  C  C67  1  0.40706400  0.65368200  0.50000000  1
  C  C68  1  0.82989000  0.59506800  0.83324400  1
  C  C69  1  0.66675600  0.90493200  0.67011000  1
  C  C70  1  0.66260300  0.18098400  0.50000000  1
  C  C71  1  0.15368200  0.90706400  0.00000000  1
  C  C72  1  0.34631800  0.50000000  0.40706400  1
  C  C73  1  0.33739700  0.18098400  0.50000000  1
  C  C74  1  0.59506800  0.16675600  0.82989000  1
  C  C75  1  0.40493200  0.16675600  0.17011000  1
  C  C76  1  0.33324400  0.90493200  0.67011000  1
  C  C77  1  0.40493200  0.16675600  0.82989000  1
  C  C78  1  0.32989000  0.66675600  0.90493200  1
  C  C79  1  0.83739700  0.00000000  0.68098400  1
  C  C80  1  0.17011000  0.40493200  0.83324400  1
  C  C81  1  0.59506800  0.83324400  0.82989000  1
  C  C82  1  0.65368200  0.50000000  0.59293600  1
  C  C83  1  0.32989000  0.33324400  0.09506800  1
  C  C84  1  0.50000000  0.40706400  0.34631800  1
  C  C85  1  0.16260300  0.00000000  0.31901600  1
  C  C86  1  0.67011000  0.33324400  0.09506800  1
  C  C87  1  0.67011000  0.66675600  0.09506800  1
  C  C88  1  0.18098400  0.50000000  0.33739700  1
  C  C89  1  0.50000000  0.59293600  0.34631800  1
  C  C90  1  0.68098400  0.16260300  0.00000000  1
  C  C91  1  0.90706400  0.00000000  0.15368200  1
  C  C92  1  0.68098400  0.83739700  0.00000000  1
  C  C93  1  0.66675600  0.90493200  0.32989000  1
  C  C94  1  0.65368200  0.50000000  0.40706400  1
  C  C95  1  0.50000000  0.66260300  0.81901600  1
  C  C96  1  0.59293600  0.34631800  0.50000000  1
  C  C97  1  0.15368200  0.09293600  0.00000000  1
  C  C98  1  0.09506800  0.67011000  0.66675600  1
  C  C99  1  0.09506800  0.67011000  0.33324400  1
  C  C100  1  0.83324400  0.17011000  0.40493200  1
  C  C101  1  0.16675600  0.82989000  0.40493200  1
  C  C102  1  0.50000000  0.33739700  0.18098400  1
  C  C103  1  0.40493200  0.83324400  0.82989000  1
  C  C104  1  0.31901600  0.83739700  0.00000000  1
  C  C105  1  0.90493200  0.67011000  0.66675600  1
  C  C106  1  0.90493200  0.32989000  0.33324400  1
  C  C107  1  0.82989000  0.59506800  0.16675600  1
  C  C108  1  0.81901600  0.50000000  0.66260300  1
  C  C109  1  0.90493200  0.67011000  0.33324400  1
  C  C110  1  0.83324400  0.82989000  0.59506800  1
  C  C111  1  0.00000000  0.84631800  0.09293600  1
  C  C112  1  0.90493200  0.32989000  0.66675600  1
  C  C113  1  0.00000000  0.15368200  0.09293600  1
  C  C114  1  0.50000000  0.66260300  0.18098400  1
  C  C115  1  0.82989000  0.40493200  0.83324400  1
  C  C116  1  0.50000000  0.33739700  0.81901600  1
  C  C117  1  0.00000000  0.68098400  0.16260300  1
  C  C118  1  0.16260300  0.00000000  0.68098400  1
  C  C119  1  0.84631800  0.09293600  0.00000000  1
  C  C120  1  0.16675600  0.17011000  0.59506800  1
  C  C121  1  0.32989000  0.66675600  0.09506800  1
  C  C122  1  0.83324400  0.17011000  0.59506800  1
  C  C123  1  0.17011000  0.40493200  0.16675600  1
  C  C124  1  0.66675600  0.09506800  0.32989000  1
  C  C125  1  0.82989000  0.40493200  0.16675600  1
  C  C126  1  0.32989000  0.33324400  0.90493200  1
  C  C127  1  0.66260300  0.81901600  0.50000000  1
  C  C128  1  0.16675600  0.17011000  0.40493200  1
  C  C129  1  0.66675600  0.09506800  0.67011000  1
  C  C130  1  0.90706400  0.00000000  0.84631800  1
  C  C131  1  0.33324400  0.90493200  0.32989000  1
  C  C132  1  0.18098400  0.50000000  0.66260300  1
  C  C133  1  0.59506800  0.16675600  0.17011000  1
  C  C134  1  0.83739700  0.00000000  0.31901600  1
  C  C135  1  0.00000000  0.84631800  0.90706400  1
  C  C136  1  0.34631800  0.50000000  0.59293600  1
  C  C137  1  0.33739700  0.81901600  0.50000000  1
  C  C138  1  0.00000000  0.31901600  0.83739700  1
  C  C139  1  0.00000000  0.31901600  0.16260300  1
  C  C140  1  0.17011000  0.59506800  0.83324400  1
  C  C141  1  0.59506800  0.83324400  0.17011000  1
  C  C142  1  0.00000000  0.68098400  0.83739700  1
  C  C143  1  0.67011000  0.33324400  0.90493200  1
  C  C144  1  0.09506800  0.32989000  0.66675600  1
  C  C145  1  0.31901600  0.16260300  0.00000000  1
  C  C146  1  0.84631800  0.90706400  0.00000000  1
  C  C147  1  0.59293600  0.65368200  0.50000000  1
  C  C148  1  0.33324400  0.09506800  0.67011000  1
  C  C149  1  0.50000000  0.40706400  0.65368200  1
  C  C150  1  0.83324400  0.82989000  0.40493200  1
  C  C151  1  0.40493200  0.83324400  0.17011000  1
  C  C152  1  0.81901600  0.50000000  0.33739700  1
  C  C153  1  0.09506800  0.32989000  0.33324400  1
