# generated using pymatgen
data_Cu6NiC7
_symmetry_space_group_name_H-M   'P 1'
_cell_length_a   14.91664600
_cell_length_b   3.69970400
_cell_length_c   9.66338116
_cell_angle_alpha   89.97195505
_cell_angle_beta   90.00000000
_cell_angle_gamma   90.00000000
_symmetry_Int_Tables_number   1
_chemical_formula_structural   Cu6NiC7
_chemical_formula_sum   'Cu24 Ni4 C28'
_cell_volume   533.29464192
_cell_formula_units_Z   4
loop_
 _symmetry_equiv_pos_site_id
 _symmetry_equiv_pos_as_xyz
  1  'x, y, z'
loop_
 _atom_site_type_symbol
 _atom_site_label
 _atom_site_symmetry_multiplicity
 _atom_site_fract_x
 _atom_site_fract_y
 _atom_site_fract_z
 _atom_site_occupancy
  C  C0  1  0.28410000  0.01414700  0.18437600  1
  C  C1  1  0.71870900  0.50770600  0.31740800  1
  C  C2  1  0.21870900  0.49229400  0.68259200  1
  C  C3  1  0.78410000  0.98585300  0.81562400  1
  C  C4  1  0.35225400  0.35962000  0.10986500  1
  C  C5  1  0.31854900  0.32252100  0.29169000  1
  C  C6  1  0.64072200  0.84950200  0.39612200  1
  C  C7  1  0.67998400  0.80053100  0.21072000  1
  C  C8  1  0.14072200  0.15049800  0.60387800  1
  C  C9  1  0.17998400  0.19946900  0.78928000  1
  C  C10  1  0.85225400  0.64038000  0.89013500  1
  C  C11  1  0.81854900  0.67747900  0.70831000  1
  C  C12  1  0.11589400  0.45357900  0.23983700  1
  C  C13  1  0.90706000  0.97802700  0.26313900  1
  C  C14  1  0.01897800  0.50824100  0.29384200  1
  C  C15  1  0.99031400  0.96154400  0.16333200  1
  C  C16  1  0.51897800  0.49175900  0.70615800  1
  C  C17  1  0.49031400  0.03845600  0.83666800  1
  C  C18  1  0.61589400  0.54642100  0.76016300  1
  C  C19  1  0.40706000  0.02197300  0.73686100  1
  C  C20  1  0.16863700  0.82262000  0.47870800  1
  C  C21  1  0.09571600  0.12900200  0.42942100  1
  C  C22  1  0.81826600  0.31082600  0.02679800  1
  C  C23  1  0.89441100  0.59803900  0.07475500  1
  C  C24  1  0.39441100  0.40196100  0.92524500  1
  C  C25  1  0.31826600  0.68917400  0.97320200  1
  C  C26  1  0.59571600  0.87099800  0.57057900  1
  C  C27  1  0.66863700  0.17738000  0.52129200  1
  Ni  Ni28  1  0.16152900  0.90641000  0.02167500  1
  Ni  Ni29  1  0.83852300  0.38405700  0.48540400  1
  Ni  Ni30  1  0.33852300  0.61594300  0.51459600  1
  Ni  Ni31  1  0.66152900  0.09359000  0.97832500  1
  Cu  Cu32  1  0.18861000  0.77570300  0.13820400  1
  Cu  Cu33  1  0.81586200  0.25908500  0.36603700  1
  Cu  Cu34  1  0.31586200  0.74091500  0.63396300  1
  Cu  Cu35  1  0.68861000  0.22429700  0.86179600  1
  Cu  Cu36  1  0.22207200  0.96759300  0.92956200  1
  Cu  Cu37  1  0.77382200  0.46369100  0.57004900  1
  Cu  Cu38  1  0.27382200  0.53630900  0.42995100  1
  Cu  Cu39  1  0.72207200  0.03240700  0.07043800  1
  Cu  Cu40  1  0.08178400  0.97370300  0.99910300  1
  Cu  Cu41  1  0.91736400  0.42872900  0.51867700  1
  Cu  Cu42  1  0.41736400  0.57127100  0.48132300  1
  Cu  Cu43  1  0.58178400  0.02629700  0.00089700  1
  Cu  Cu44  1  0.33555600  0.17670600  0.20726300  1
  Cu  Cu45  1  0.66471000  0.65381700  0.29425900  1
  Cu  Cu46  1  0.16471000  0.34618300  0.70574100  1
  Cu  Cu47  1  0.83555600  0.82329400  0.79273700  1
  Cu  Cu48  1  0.06946800  0.33459900  0.29589800  1
  Cu  Cu49  1  0.94146300  0.81435800  0.20251900  1
  Cu  Cu50  1  0.44146300  0.18564200  0.79748100  1
  Cu  Cu51  1  0.56946800  0.66540100  0.70410200  1
  Cu  Cu52  1  0.11799800  0.97374100  0.51100500  1
  Cu  Cu53  1  0.87060700  0.45275900  0.99401000  1
  Cu  Cu54  1  0.37060700  0.54724100  0.00599000  1
  Cu  Cu55  1  0.61799800  0.02625900  0.48899500  1
