# generated using pymatgen
data_Cu2Ni8C25
_symmetry_space_group_name_H-M   'P 1'
_cell_length_a   7.82041859
_cell_length_b   7.82041859
_cell_length_c   8.27926812
_cell_angle_alpha   69.66590548
_cell_angle_beta   69.66590548
_cell_angle_gamma   56.69294494
_symmetry_Int_Tables_number   1
_chemical_formula_structural   Cu2Ni8C25
_chemical_formula_sum   'Cu2 Ni8 C25'
_cell_volume   388.79509865
_cell_formula_units_Z   1
loop_
 _symmetry_equiv_pos_site_id
 _symmetry_equiv_pos_as_xyz
  1  'x, y, z'
loop_
 _atom_site_type_symbol
 _atom_site_label
 _atom_site_symmetry_multiplicity
 _atom_site_fract_x
 _atom_site_fract_y
 _atom_site_fract_z
 _atom_site_occupancy
  C  C0  1  0.00000000  0.00000000  0.50000000  1
  C  C1  1  0.50490700  0.26464500  0.82335100  1
  C  C2  1  0.26464500  0.50490700  0.82335100  1
  C  C3  1  0.49509300  0.73535500  0.17664900  1
  C  C4  1  0.73535500  0.49509300  0.17664900  1
  C  C5  1  0.22977700  0.22977700  0.23313500  1
  C  C6  1  0.77022300  0.77022300  0.76686500  1
  C  C7  1  0.24673500  0.24673500  0.72168600  1
  C  C8  1  0.75326500  0.75326500  0.27831400  1
  C  C9  1  0.25581000  0.01662000  0.87366000  1
  C  C10  1  0.01662000  0.25581000  0.87366000  1
  C  C11  1  0.74419000  0.98338000  0.12634000  1
  C  C12  1  0.98338000  0.74419000  0.12634000  1
  C  C13  1  0.38155500  0.38155500  0.01365400  1
  C  C14  1  0.61844500  0.61844500  0.98634600  1
  C  C15  1  0.76583900  0.46049500  0.58102700  1
  C  C16  1  0.46049500  0.76583900  0.58102700  1
  C  C17  1  0.23416100  0.53950500  0.41897300  1
  C  C18  1  0.53950500  0.23416100  0.41897300  1
  C  C19  1  0.18288700  0.18288700  0.15162800  1
  C  C20  1  0.81711300  0.81711300  0.84837200  1
  C  C21  1  0.18626100  0.18626100  0.85562200  1
  C  C22  1  0.81373900  0.81373900  0.14437800  1
  C  C23  1  0.35443800  0.35443800  0.90548400  1
  C  C24  1  0.64556200  0.64556200  0.09451600  1
  Ni  Ni25  1  0.89405500  0.30203000  0.53370900  1
  Ni  Ni26  1  0.30203000  0.89405500  0.53370900  1
  Ni  Ni27  1  0.10594500  0.69797000  0.46629100  1
  Ni  Ni28  1  0.69797000  0.10594500  0.46629100  1
  Ni  Ni29  1  0.63221700  0.63221700  0.63997700  1
  Ni  Ni30  1  0.36778300  0.36778300  0.36002300  1
  Ni  Ni31  1  0.23903300  0.23903300  0.97811400  1
  Ni  Ni32  1  0.76096700  0.76096700  0.02188600  1
  Cu  Cu33  1  0.08336300  0.08336300  0.22005100  1
  Cu  Cu34  1  0.91663700  0.91663700  0.77994900  1
