# generated using pymatgen
data_Cu3Ni5C32
_symmetry_space_group_name_H-M   'P 1'
_cell_length_a   5.49509500
_cell_length_b   5.56208916
_cell_length_c   31.18936076
_cell_angle_alpha   89.86994677
_cell_angle_beta   89.96937855
_cell_angle_gamma   89.92993173
_symmetry_Int_Tables_number   1
_chemical_formula_structural   Cu3Ni5C32
_chemical_formula_sum   'Cu6 Ni10 C64'
_cell_volume   953.27481643
_cell_formula_units_Z   2
loop_
 _symmetry_equiv_pos_site_id
 _symmetry_equiv_pos_as_xyz
  1  'x, y, z'
loop_
 _atom_site_type_symbol
 _atom_site_label
 _atom_site_symmetry_multiplicity
 _atom_site_fract_x
 _atom_site_fract_y
 _atom_site_fract_z
 _atom_site_occupancy
  Ni  Ni0  1  0.99021700  0.03770300  0.93785800  1
  Ni  Ni1  1  0.51503100  0.54363500  0.43843400  1
  Ni  Ni2  1  0.51524000  0.54321600  0.18707200  1
  Ni  Ni3  1  0.51383900  0.54125900  0.93795500  1
  Ni  Ni4  1  0.48770000  0.46071000  0.06088900  1
  Ni  Ni5  1  0.48306100  0.45540900  0.81415000  1
  Ni  Ni6  1  0.01022800  0.96131000  0.30981900  1
  Ni  Ni7  1  0.00880100  0.96176400  0.06020700  1
  Ni  Ni8  1  0.01586500  0.96173700  0.81445600  1
  Ni  Ni9  1  0.01110600  0.96214800  0.56010100  1
  Cu  Cu10  1  0.99017100  0.02975000  0.18842000  1
  Cu  Cu11  1  0.99303800  0.02693500  0.43946100  1
  Cu  Cu12  1  0.99416400  0.02787100  0.69199500  1
  Cu  Cu13  1  0.50857600  0.53183200  0.69208800  1
  Cu  Cu14  1  0.48784700  0.46491300  0.30856200  1
  Cu  Cu15  1  0.48983400  0.46689800  0.55837300  1
  C  C16  1  0.49896600  0.99896700  0.24960000  1
  C  C17  1  0.49913500  0.99996600  0.49958700  1
  C  C18  1  0.50124800  0.00061600  0.75341100  1
  C  C19  1  0.00217200  0.50001900  0.99940400  1
  C  C20  1  0.00117600  0.50018400  0.49818200  1
  C  C21  1  0.99940400  0.49060100  0.87722500  1
  C  C22  1  0.49334400  0.00716700  0.12333700  1
  C  C23  1  0.49960900  0.00091900  0.99866300  1
  C  C24  1  0.49706700  0.99814700  0.62360200  1
  C  C25  1  0.49308600  0.99575700  0.37413600  1
  C  C26  1  0.50804400  0.98962400  0.87396000  1
  C  C27  1  0.99917100  0.50679100  0.12197400  1
  C  C28  1  0.00104900  0.50068900  0.24724300  1
  C  C29  1  0.99181300  0.49815500  0.37412000  1
  C  C30  1  0.99695500  0.49968400  0.62475900  1
  C  C31  1  0.99910300  0.49986300  0.75658300  1
  C  C32  1  0.91523200  0.51823100  0.06215800  1
  C  C33  1  0.92176300  0.51950800  0.31380000  1
  C  C34  1  0.92245800  0.52057000  0.56380500  1
  C  C35  1  0.90999300  0.52658200  0.81487300  1
  C  C36  1  0.78136000  0.77406700  0.13493500  1
  C  C37  1  0.77958300  0.77415300  0.38639200  1
  C  C38  1  0.78677900  0.77398800  0.48959900  1
  C  C39  1  0.78431000  0.77014700  0.73882900  1
  C  C40  1  0.77439600  0.77248900  0.63649500  1
  C  C41  1  0.78293000  0.78488700  0.88785500  1
  C  C42  1  0.78687200  0.77419000  0.23915800  1
  C  C43  1  0.78340200  0.78115700  0.98916500  1
  C  C44  1  0.72068000  0.27694700  0.13566200  1
  C  C45  1  0.72161500  0.29289900  0.23831600  1
  C  C46  1  0.72417100  0.28369100  0.38692300  1
  C  C47  1  0.72230500  0.29316100  0.48890600  1
  C  C48  1  0.72932600  0.28518500  0.73914200  1
  C  C49  1  0.71986800  0.28275000  0.98906700  1
  C  C50  1  0.72584100  0.27918200  0.63629800  1
  C  C51  1  0.72280200  0.28842700  0.88804400  1
  C  C52  1  0.58262800  0.01998300  0.06192100  1
  C  C53  1  0.58911000  0.02079900  0.31535900  1
  C  C54  1  0.59102100  0.02875500  0.81709100  1
  C  C55  1  0.58848700  0.01925900  0.56535300  1
  C  C56  1  0.42067800  0.97911700  0.43443200  1
  C  C57  1  0.42081100  0.97675600  0.18320700  1
  C  C58  1  0.42453500  0.98844500  0.68527800  1
  C  C59  1  0.41697800  0.98100200  0.93934400  1
  C  C60  1  0.27977700  0.71746700  0.01113700  1
  C  C61  1  0.27526500  0.71564100  0.11229400  1
  C  C62  1  0.27014500  0.71402700  0.26016900  1
  C  C63  1  0.27674900  0.72197700  0.36324600  1
  C  C64  1  0.27367000  0.70862100  0.76072100  1
  C  C65  1  0.27055100  0.71499600  0.51057300  1
  C  C66  1  0.27687700  0.72328000  0.61397900  1
  C  C67  1  0.28410200  0.72224300  0.86457100  1
  C  C68  1  0.21793000  0.22051200  0.01111300  1
  C  C69  1  0.20568100  0.22390700  0.26120200  1
  C  C70  1  0.21529000  0.21445200  0.11287700  1
  C  C71  1  0.20628900  0.22393600  0.51170500  1
  C  C72  1  0.20489600  0.22223800  0.76101400  1
  C  C73  1  0.21513900  0.22481200  0.86473200  1
  C  C74  1  0.21821700  0.22051200  0.36345300  1
  C  C75  1  0.22358900  0.22449000  0.61361400  1
  C  C76  1  0.08680400  0.48280300  0.18602300  1
  C  C77  1  0.08940900  0.48401800  0.43675100  1
  C  C78  1  0.07771100  0.48818900  0.68562900  1
  C  C79  1  0.08591000  0.48131400  0.93816600  1
