# generated using pymatgen
data_Cu2Ni5C4
_symmetry_space_group_name_H-M   'P 1'
_cell_length_a   3.30616300
_cell_length_b   7.54971400
_cell_length_c   9.10430468
_cell_angle_alpha   85.10212667
_cell_angle_beta   90.00000000
_cell_angle_gamma   90.00000000
_symmetry_Int_Tables_number   1
_chemical_formula_structural   Cu2Ni5C4
_chemical_formula_sum   'Cu2 Ni5 C4'
_cell_volume   226.41896496
_cell_formula_units_Z   1
loop_
 _symmetry_equiv_pos_site_id
 _symmetry_equiv_pos_as_xyz
  1  'x, y, z'
loop_
 _atom_site_type_symbol
 _atom_site_label
 _atom_site_symmetry_multiplicity
 _atom_site_fract_x
 _atom_site_fract_y
 _atom_site_fract_z
 _atom_site_occupancy
  C  C0  1  0.50000000  0.79936000  0.43994200  1
  C  C1  1  0.50000000  0.18149700  0.15834800  1
  C  C2  1  0.50000000  0.20064000  0.56005800  1
  C  C3  1  0.50000000  0.81850300  0.84165200  1
  Ni  Ni4  1  0.00000000  0.54224900  0.66847000  1
  Ni  Ni5  1  0.00000000  0.15824300  0.85759800  1
  Ni  Ni6  1  0.00000000  0.50000000  0.00000000  1
  Ni  Ni7  1  0.00000000  0.84175700  0.14240200  1
  Ni  Ni8  1  0.00000000  0.45775100  0.33153000  1
  Cu  Cu9  1  0.00000000  0.07593300  0.36616300  1
  Cu  Cu10  1  0.00000000  0.92406700  0.63383700  1
