# generated using pymatgen
data_Cu14Ni3C7
_symmetry_space_group_name_H-M   'P 1'
_cell_length_a   5.28262000
_cell_length_b   16.33398500
_cell_length_c   17.68790100
_cell_angle_alpha   90.00000000
_cell_angle_beta   90.00000000
_cell_angle_gamma   90.00000000
_symmetry_Int_Tables_number   1
_chemical_formula_structural   Cu14Ni3C7
_chemical_formula_sum   'Cu56 Ni12 C28'
_cell_volume   1526.22239721
_cell_formula_units_Z   4
loop_
 _symmetry_equiv_pos_site_id
 _symmetry_equiv_pos_as_xyz
  1  'x, y, z'
loop_
 _atom_site_type_symbol
 _atom_site_label
 _atom_site_symmetry_multiplicity
 _atom_site_fract_x
 _atom_site_fract_y
 _atom_site_fract_z
 _atom_site_occupancy
  C  C0  1  0.27848800  0.38473400  0.44503900  1
  C  C1  1  0.22151200  0.88473400  0.05496100  1
  C  C2  1  0.72151200  0.61526600  0.94503900  1
  C  C3  1  0.77848800  0.11526600  0.55496100  1
  C  C4  1  0.72151200  0.61526600  0.55496100  1
  C  C5  1  0.77848800  0.11526600  0.94503900  1
  C  C6  1  0.27848800  0.38473400  0.05496100  1
  C  C7  1  0.22151200  0.88473400  0.44503900  1
  C  C8  1  0.29648100  0.28729200  0.67752700  1
  C  C9  1  0.20351900  0.78729200  0.82247300  1
  C  C10  1  0.70351900  0.71270800  0.17752700  1
  C  C11  1  0.79648100  0.21270800  0.32247300  1
  C  C12  1  0.70351900  0.71270800  0.32247300  1
  C  C13  1  0.79648100  0.21270800  0.17752700  1
  C  C14  1  0.29648100  0.28729200  0.82247300  1
  C  C15  1  0.20351900  0.78729200  0.67752700  1
  C  C16  1  0.60173900  0.95716900  0.75000000  1
  C  C17  1  0.89826100  0.45716900  0.75000000  1
  C  C18  1  0.39826100  0.04283100  0.25000000  1
  C  C19  1  0.10173900  0.54283100  0.25000000  1
  C  C20  1  0.69713000  0.13355400  0.75000000  1
  C  C21  1  0.80287000  0.63355400  0.75000000  1
  C  C22  1  0.30287000  0.86644600  0.25000000  1
  C  C23  1  0.19713000  0.36644600  0.25000000  1
  C  C24  1  0.10001900  0.73761100  0.75000000  1
  C  C25  1  0.39998100  0.23761100  0.75000000  1
  C  C26  1  0.89998100  0.26238900  0.25000000  1
  C  C27  1  0.60001900  0.76238900  0.25000000  1
  Ni  Ni28  1  0.83237800  0.36946400  0.58696300  1
  Ni  Ni29  1  0.66762200  0.86946400  0.91303700  1
  Ni  Ni30  1  0.16762200  0.63053600  0.08696300  1
  Ni  Ni31  1  0.33237800  0.13053600  0.41303700  1
  Ni  Ni32  1  0.16762200  0.63053600  0.41303700  1
  Ni  Ni33  1  0.33237800  0.13053600  0.08696300  1
  Ni  Ni34  1  0.83237800  0.36946400  0.91303700  1
  Ni  Ni35  1  0.66762200  0.86946400  0.58696300  1
  Ni  Ni36  1  0.10034400  0.11771800  0.75000000  1
  Ni  Ni37  1  0.39965600  0.61771800  0.75000000  1
  Ni  Ni38  1  0.89965600  0.88228200  0.25000000  1
  Ni  Ni39  1  0.60034400  0.38228200  0.25000000  1
  Cu  Cu40  1  0.78800900  0.40122000  0.51006400  1
  Cu  Cu41  1  0.71199100  0.90122000  0.98993600  1
  Cu  Cu42  1  0.21199100  0.59878000  0.01006400  1
  Cu  Cu43  1  0.28800900  0.09878000  0.48993600  1
  Cu  Cu44  1  0.21199100  0.59878000  0.48993600  1
  Cu  Cu45  1  0.28800900  0.09878000  0.01006400  1
  Cu  Cu46  1  0.78800900  0.40122000  0.98993600  1
  Cu  Cu47  1  0.71199100  0.90122000  0.51006400  1
  Cu  Cu48  1  0.85227500  0.44274400  0.63870900  1
  Cu  Cu49  1  0.64772500  0.94274400  0.86129100  1
  Cu  Cu50  1  0.14772500  0.55725600  0.13870900  1
  Cu  Cu51  1  0.35227500  0.05725600  0.36129100  1
  Cu  Cu52  1  0.14772500  0.55725600  0.36129100  1
  Cu  Cu53  1  0.35227500  0.05725600  0.13870900  1
  Cu  Cu54  1  0.85227500  0.44274400  0.86129100  1
  Cu  Cu55  1  0.64772500  0.94274400  0.63870900  1
  Cu  Cu56  1  0.62910800  0.31065700  0.60775300  1
  Cu  Cu57  1  0.87089200  0.81065700  0.89224700  1
  Cu  Cu58  1  0.37089200  0.68934300  0.10775300  1
  Cu  Cu59  1  0.12910800  0.18934300  0.39224700  1
  Cu  Cu60  1  0.37089200  0.68934300  0.39224700  1
  Cu  Cu61  1  0.12910800  0.18934300  0.10775300  1
  Cu  Cu62  1  0.62910800  0.31065700  0.89224700  1
  Cu  Cu63  1  0.87089200  0.81065700  0.60775300  1
  Cu  Cu64  1  0.08278600  0.32456900  0.58962800  1
  Cu  Cu65  1  0.41721400  0.82456900  0.91037200  1
  Cu  Cu66  1  0.91721400  0.67543100  0.08962800  1
  Cu  Cu67  1  0.58278600  0.17543100  0.41037200  1
  Cu  Cu68  1  0.91721400  0.67543100  0.41037200  1
  Cu  Cu69  1  0.58278600  0.17543100  0.08962800  1
  Cu  Cu70  1  0.08278600  0.32456900  0.91037200  1
  Cu  Cu71  1  0.41721400  0.82456900  0.58962800  1
  Cu  Cu72  1  0.26523400  0.04720600  0.75000000  1
  Cu  Cu73  1  0.23476600  0.54720600  0.75000000  1
  Cu  Cu74  1  0.73476600  0.95279400  0.25000000  1
  Cu  Cu75  1  0.76523400  0.45279400  0.25000000  1
  Cu  Cu76  1  0.11061400  0.16553700  0.67956500  1
  Cu  Cu77  1  0.38938600  0.66553700  0.82043500  1
  Cu  Cu78  1  0.88938600  0.83446300  0.17956500  1
  Cu  Cu79  1  0.61061400  0.33446300  0.32043500  1
  Cu  Cu80  1  0.88938600  0.83446300  0.32043500  1
  Cu  Cu81  1  0.61061400  0.33446300  0.17956500  1
  Cu  Cu82  1  0.11061400  0.16553700  0.82043500  1
  Cu  Cu83  1  0.38938600  0.66553700  0.67956500  1
  Cu  Cu84  1  0.80505100  0.08430300  0.75000000  1
  Cu  Cu85  1  0.69494900  0.58430300  0.75000000  1
  Cu  Cu86  1  0.19494900  0.91569700  0.25000000  1
  Cu  Cu87  1  0.30505100  0.41569700  0.25000000  1
  Cu  Cu88  1  0.53162000  0.35286100  0.75000000  1
  Cu  Cu89  1  0.96838000  0.85286100  0.75000000  1
  Cu  Cu90  1  0.46838000  0.64713900  0.25000000  1
  Cu  Cu91  1  0.03162000  0.14713900  0.25000000  1
  Cu  Cu92  1  0.96641500  0.93233500  0.75000000  1
  Cu  Cu93  1  0.53358500  0.43233500  0.75000000  1
  Cu  Cu94  1  0.03358500  0.06766500  0.25000000  1
  Cu  Cu95  1  0.46641500  0.56766500  0.25000000  1
