# generated using pymatgen
data_Cu2Ni2C3
_symmetry_space_group_name_H-M   'P 1'
_cell_length_a   11.70680109
_cell_length_b   14.38687999
_cell_length_c   20.91700237
_cell_angle_alpha   90.00000000
_cell_angle_beta   100.57950597
_cell_angle_gamma   90.00000000
_symmetry_Int_Tables_number   1
_chemical_formula_structural   Cu2Ni2C3
_chemical_formula_sum   'Cu48 Ni48 C72'
_cell_volume   3463.04633522
_cell_formula_units_Z   24
loop_
 _symmetry_equiv_pos_site_id
 _symmetry_equiv_pos_as_xyz
  1  'x, y, z'
loop_
 _atom_site_type_symbol
 _atom_site_label
 _atom_site_symmetry_multiplicity
 _atom_site_fract_x
 _atom_site_fract_y
 _atom_site_fract_z
 _atom_site_occupancy
  C  C0  1  0.95270519  0.22292565  0.48853185  1
  C  C1  1  0.04729481  0.77707435  0.51146815  1
  C  C2  1  0.95270519  0.27707435  0.98853185  1
  C  C3  1  0.04729481  0.72292565  0.01146815  1
  C  C4  1  0.66352675  0.76161397  0.31740970  1
  C  C5  1  0.66352675  0.73838603  0.81740970  1
  C  C6  1  0.33647325  0.23838603  0.68259030  1
  C  C7  1  0.33647325  0.26161397  0.18259030  1
  C  C8  1  0.34147275  0.04474548  0.93796838  1
  C  C9  1  0.15615841  0.63662003  0.27190034  1
  C  C10  1  0.82637258  0.40870593  0.22802673  1
  C  C11  1  0.56854390  0.61636474  0.05814171  1
  C  C12  1  0.84384159  0.36337997  0.72809966  1
  C  C13  1  0.17362742  0.90870593  0.27197327  1
  C  C14  1  0.84384159  0.13662003  0.22809966  1
  C  C15  1  0.15615841  0.86337997  0.77190034  1
  C  C16  1  0.34147275  0.45525452  0.43796838  1
  C  C17  1  0.43145610  0.11636474  0.44185829  1
  C  C18  1  0.82637258  0.09129407  0.72802673  1
  C  C19  1  0.56854390  0.88363526  0.55814171  1
  C  C20  1  0.43145610  0.38363526  0.94185829  1
  C  C21  1  0.65852725  0.54474548  0.56203162  1
  C  C22  1  0.17362742  0.59129407  0.77197327  1
  C  C23  1  0.65852725  0.95525452  0.06203162  1
  Ni  Ni24  1  0.44014495  0.68911887  0.50808490  1
  Ni  Ni25  1  0.89602292  0.76630109  0.26595898  1
  Ni  Ni26  1  0.95227570  0.11359872  0.10098412  1
  Ni  Ni27  1  0.94534751  0.07058911  0.60555424  1
  Ni  Ni28  1  0.60635472  0.89997239  0.71795794  1
  Ni  Ni29  1  0.81492494  0.74221748  0.06813944  1
  Ni  Ni30  1  0.95227570  0.38640128  0.60098412  1
  Ni  Ni31  1  0.80339613  0.14301171  0.87451432  1
  Ni  Ni32  1  0.81492494  0.75778252  0.56813944  1
  Ni  Ni33  1  0.59765184  0.91219136  0.20848681  1
  Ni  Ni34  1  0.10397708  0.26630109  0.23404102  1
  Ni  Ni35  1  0.89602292  0.73369891  0.76595898  1
  Ni  Ni36  1  0.69319623  0.59419774  0.92940811  1
  Ni  Ni37  1  0.30680377  0.40580226  0.07059189  1
  Ni  Ni38  1  0.25900837  0.11591103  0.07213564  1
  Ni  Ni39  1  0.39364528  0.10002761  0.28204206  1
  Ni  Ni40  1  0.44014495  0.81088113  0.00808490  1
  Ni  Ni41  1  0.30680377  0.09419774  0.57059189  1
  Ni  Ni42  1  0.55985505  0.31088113  0.49191510  1
  Ni  Ni43  1  0.10397708  0.23369891  0.73404102  1
  Ni  Ni44  1  0.39364528  0.39997239  0.78204206  1
  Ni  Ni45  1  0.94534751  0.42941089  0.10555424  1
  Ni  Ni46  1  0.40234816  0.41219136  0.29151319  1
  Ni  Ni47  1  0.69319623  0.90580226  0.42940811  1
  Ni  Ni48  1  0.80339613  0.35698829  0.37451432  1
  Ni  Ni49  1  0.60635472  0.60002761  0.21795794  1
  Ni  Ni50  1  0.80355978  0.10632005  0.37134958  1
  Ni  Ni51  1  0.05465249  0.57058911  0.89444576  1
  Ni  Ni52  1  0.05465249  0.92941089  0.39444576  1
  Ni  Ni53  1  0.80355978  0.39367995  0.87134958  1
  Ni  Ni54  1  0.74099163  0.88408897  0.92786436  1
  Ni  Ni55  1  0.18507506  0.25778252  0.93186056  1
  Ni  Ni56  1  0.04772430  0.88640128  0.89901588  1
  Ni  Ni57  1  0.40868376  0.76186882  0.34154532  1
  Ni  Ni58  1  0.55985505  0.18911887  0.99191510  1
  Ni  Ni59  1  0.40868376  0.73813118  0.84154532  1
  Ni  Ni60  1  0.25900837  0.38408897  0.57213564  1
  Ni  Ni61  1  0.74099163  0.61591103  0.42786436  1
  Ni  Ni62  1  0.19644022  0.60632005  0.12865042  1
  Ni  Ni63  1  0.19660387  0.85698829  0.12548568  1
  Ni  Ni64  1  0.59131624  0.23813118  0.65845468  1
  Ni  Ni65  1  0.18507506  0.24221748  0.43186056  1
  Ni  Ni66  1  0.04772430  0.61359872  0.39901588  1
  Ni  Ni67  1  0.59765184  0.58780864  0.70848681  1
  Ni  Ni68  1  0.19660387  0.64301171  0.62548568  1
  Ni  Ni69  1  0.19644022  0.89367995  0.62865042  1
  Ni  Ni70  1  0.40234816  0.08780864  0.79151319  1
  Ni  Ni71  1  0.59131624  0.26186882  0.15845468  1
  Cu  Cu72  1  0.27596533  0.76587622  0.35790242  1
  Cu  Cu73  1  0.71583681  0.76198171  0.11146902  1
  Cu  Cu74  1  0.27596533  0.73412378  0.85790242  1
  Cu  Cu75  1  0.93472743  0.99103484  0.66098745  1
  Cu  Cu76  1  0.61781680  0.28475888  0.96942724  1
  Cu  Cu77  1  0.06527257  0.49103484  0.83901255  1
  Cu  Cu78  1  0.28904449  0.59162649  0.68345649  1
  Cu  Cu79  1  0.71095551  0.40837351  0.31654351  1
  Cu  Cu80  1  0.99658293  0.73118931  0.72024743  1
  Cu  Cu81  1  0.56045584  0.50315428  0.65518361  1
  Cu  Cu82  1  0.05056647  0.53268266  0.34364642  1
  Cu  Cu83  1  0.69527656  0.52446214  0.99205353  1
  Cu  Cu84  1  0.57420958  0.51453418  0.16557164  1
  Cu  Cu85  1  0.28830243  0.58800257  0.19653312  1
  Cu  Cu86  1  0.99658293  0.76881069  0.22024743  1
  Cu  Cu87  1  0.06527257  0.00896516  0.33901255  1
  Cu  Cu88  1  0.56045584  0.99684572  0.15518361  1
  Cu  Cu89  1  0.30472344  0.02446214  0.50794647  1
  Cu  Cu90  1  0.20768141  0.03708890  0.01691347  1
  Cu  Cu91  1  0.94943353  0.46731734  0.65635358  1
  Cu  Cu92  1  0.57420958  0.98546582  0.66557164  1
  Cu  Cu93  1  0.79231859  0.53708890  0.48308653  1
  Cu  Cu94  1  0.00341707  0.23118931  0.77975257  1
  Cu  Cu95  1  0.72403467  0.23412378  0.64209758  1
  Cu  Cu96  1  0.71583681  0.73801829  0.61146902  1
  Cu  Cu97  1  0.42579042  0.48546582  0.83442836  1
  Cu  Cu98  1  0.43954416  0.00315428  0.84481639  1
  Cu  Cu99  1  0.61781680  0.21524112  0.46942724  1
  Cu  Cu100  1  0.30472344  0.47553786  0.00794647  1
  Cu  Cu101  1  0.69527656  0.97553786  0.49205353  1
  Cu  Cu102  1  0.28830243  0.91199743  0.69653312  1
  Cu  Cu103  1  0.94943353  0.03268266  0.15635358  1
  Cu  Cu104  1  0.38218320  0.71524112  0.03057276  1
  Cu  Cu105  1  0.93472743  0.50896516  0.16098745  1
  Cu  Cu106  1  0.28416319  0.26198171  0.38853098  1
  Cu  Cu107  1  0.43954416  0.49684572  0.34481639  1
  Cu  Cu108  1  0.71095551  0.09162649  0.81654351  1
  Cu  Cu109  1  0.42579042  0.01453418  0.33442836  1
  Cu  Cu110  1  0.20768141  0.46291110  0.51691347  1
  Cu  Cu111  1  0.28416319  0.23801829  0.88853098  1
  Cu  Cu112  1  0.00341707  0.26881069  0.27975257  1
  Cu  Cu113  1  0.05056647  0.96731734  0.84364642  1
  Cu  Cu114  1  0.71169757  0.41199743  0.80346688  1
  Cu  Cu115  1  0.72403467  0.26587622  0.14209758  1
  Cu  Cu116  1  0.38218320  0.78475888  0.53057276  1
  Cu  Cu117  1  0.71169757  0.08800257  0.30346688  1
  Cu  Cu118  1  0.28904449  0.90837351  0.18345649  1
  Cu  Cu119  1  0.79231859  0.96291110  0.98308653  1
  C  C120  1  0.48142143  0.87990961  0.99155785  1
  C  C121  1  0.95165923  0.37375657  0.06523121  1
  C  C122  1  0.61981251  0.85436133  0.24870641  1
  C  C123  1  0.18144171  0.23424992  0.70540952  1
  C  C124  1  0.11237827  0.22760230  0.46274857  1
  C  C125  1  0.38018749  0.14563867  0.75129359  1
  C  C126  1  0.49531902  0.24084102  0.66807480  1
  C  C127  1  0.04777151  0.82985763  0.93964604  1
  C  C128  1  0.04777151  0.67014237  0.43964604  1
  C  C129  1  0.69210141  0.85709908  0.38407360  1
  C  C130  1  0.04834077  0.87375657  0.43476879  1
  C  C131  1  0.13325453  0.82074611  0.08248686  1
  C  C132  1  0.11237827  0.27239770  0.96274857  1
  C  C133  1  0.28989421  0.17050214  0.11375254  1
  C  C134  1  0.88762173  0.72760230  0.03725143  1
  C  C135  1  0.37224481  0.33876621  0.74429806  1
  C  C136  1  0.81855829  0.73424992  0.79459048  1
  C  C137  1  0.48142143  0.62009039  0.49155785  1
  C  C138  1  0.86674547  0.17925389  0.91751314  1
  C  C139  1  0.86815475  0.38075682  0.92087761  1
  C  C140  1  0.62775519  0.66123379  0.25570194  1
  C  C141  1  0.04834077  0.62624343  0.93476879  1
  C  C142  1  0.81855829  0.76575008  0.29459048  1
  C  C143  1  0.28989421  0.32949786  0.61375254  1
  C  C144  1  0.38018749  0.35436133  0.25129359  1
  C  C145  1  0.51857857  0.12009039  0.00844215  1
  C  C146  1  0.86815475  0.11924318  0.42087761  1
  C  C147  1  0.50468098  0.74084102  0.83192520  1
  C  C148  1  0.71010579  0.82949786  0.88624746  1
  C  C149  1  0.95165923  0.12624343  0.56523121  1
  C  C150  1  0.61981251  0.64563867  0.74870641  1
  C  C151  1  0.13184525  0.61924318  0.07912239  1
  C  C152  1  0.30789859  0.14290092  0.61592640  1
  C  C153  1  0.13325453  0.67925389  0.58248686  1
  C  C154  1  0.30789859  0.35709908  0.11592640  1
  C  C155  1  0.50468098  0.75915898  0.33192520  1
  C  C156  1  0.13184525  0.88075682  0.57912239  1
  C  C157  1  0.51857857  0.37990961  0.50844215  1
  C  C158  1  0.86674547  0.32074611  0.41751314  1
  C  C159  1  0.37224481  0.16123379  0.24429806  1
  C  C160  1  0.49531902  0.25915898  0.16807480  1
  C  C161  1  0.95222849  0.32985763  0.56035396  1
  C  C162  1  0.71010579  0.67050214  0.38624746  1
  C  C163  1  0.88762173  0.77239770  0.53725143  1
  C  C164  1  0.62775519  0.83876621  0.75570194  1
  C  C165  1  0.18144171  0.26575008  0.20540952  1
  C  C166  1  0.95222849  0.17014237  0.06035396  1
  C  C167  1  0.69210141  0.64290092  0.88407360  1
