# generated using pymatgen
data_Cu4Ni2C3
_symmetry_space_group_name_H-M   'P 1'
_cell_length_a   13.39771000
_cell_length_b   5.88512200
_cell_length_c   19.79258182
_cell_angle_alpha   86.53796664
_cell_angle_beta   90.00000000
_cell_angle_gamma   90.00000000
_symmetry_Int_Tables_number   1
_chemical_formula_structural   Cu4Ni2C3
_chemical_formula_sum   'Cu48 Ni24 C36'
_cell_volume   1557.74079943
_cell_formula_units_Z   12
loop_
 _symmetry_equiv_pos_site_id
 _symmetry_equiv_pos_as_xyz
  1  'x, y, z'
loop_
 _atom_site_type_symbol
 _atom_site_label
 _atom_site_symmetry_multiplicity
 _atom_site_fract_x
 _atom_site_fract_y
 _atom_site_fract_z
 _atom_site_occupancy
  C  C0  1  0.94664800  0.73472200  0.66008600  1
  C  C1  1  0.55269600  0.31523200  0.51048500  1
  C  C2  1  0.94730400  0.31523200  0.01048500  1
  C  C3  1  0.44730400  0.68476800  0.48951500  1
  C  C4  1  0.05335200  0.26527800  0.33991400  1
  C  C5  1  0.44664800  0.26527800  0.83991400  1
  C  C6  1  0.99320000  0.65792700  0.28720000  1
  C  C7  1  0.49320000  0.34207300  0.21280000  1
  C  C8  1  0.05269600  0.68476800  0.98951500  1
  C  C9  1  0.00680000  0.34207300  0.71280000  1
  C  C10  1  0.55335200  0.73472200  0.16008600  1
  C  C11  1  0.50680000  0.65792700  0.78720000  1
  C  C12  1  0.12791200  0.36794000  0.82496700  1
  C  C13  1  0.79980400  0.00231500  0.24200900  1
  C  C14  1  0.71527800  0.57985000  0.33070800  1
  C  C15  1  0.27270900  0.75747900  0.91553000  1
  C  C16  1  0.20019600  0.99768500  0.75799100  1
  C  C17  1  0.87208800  0.63206000  0.17503300  1
  C  C18  1  0.74301800  0.01200100  0.90460300  1
  C  C19  1  0.78472200  0.57985000  0.83070800  1
  C  C20  1  0.37208800  0.36794000  0.32496700  1
  C  C21  1  0.34889300  0.47842900  0.03275500  1
  C  C22  1  0.25698200  0.98799900  0.09539700  1
  C  C23  1  0.70019600  0.00231500  0.74200900  1
  C  C24  1  0.24301800  0.98799900  0.59539700  1
  C  C25  1  0.77270900  0.24252100  0.58447000  1
  C  C26  1  0.84889300  0.52157100  0.46724500  1
  C  C27  1  0.21527800  0.42015000  0.16929200  1
  C  C28  1  0.22729100  0.75747900  0.41553000  1
  C  C29  1  0.29980400  0.99768500  0.25799100  1
  C  C30  1  0.72729100  0.24252100  0.08447000  1
  C  C31  1  0.62791200  0.63206000  0.67503300  1
  C  C32  1  0.75698200  0.01200100  0.40460300  1
  C  C33  1  0.65110700  0.52157100  0.96724500  1
  C  C34  1  0.15110700  0.47842900  0.53275500  1
  C  C35  1  0.28472200  0.42015000  0.66929200  1
  Ni  Ni36  1  0.39412000  0.47212800  0.27930500  1
  Ni  Ni37  1  0.89412000  0.52787200  0.22069500  1
  Ni  Ni38  1  0.60346400  0.49979900  0.92244000  1
  Ni  Ni39  1  0.26518500  0.94717200  0.54386000  1
  Ni  Ni40  1  0.10588000  0.47212800  0.77930500  1
  Ni  Ni41  1  0.76518500  0.05282800  0.95614000  1
  Ni  Ni42  1  0.66842100  0.32102300  0.11410300  1
  Ni  Ni43  1  0.14249700  0.86875400  0.75014400  1
  Ni  Ni44  1  0.64249700  0.13124600  0.74985600  1
  Ni  Ni45  1  0.39653600  0.50020100  0.07756000  1
  Ni  Ni46  1  0.83157900  0.32102300  0.61410300  1
  Ni  Ni47  1  0.85750300  0.13124600  0.24985600  1
  Ni  Ni48  1  0.23481500  0.94717200  0.04386000  1
  Ni  Ni49  1  0.33901400  0.43514400  0.71087200  1
  Ni  Ni50  1  0.89653600  0.49979900  0.42244000  1
  Ni  Ni51  1  0.60588000  0.52787200  0.72069500  1
  Ni  Ni52  1  0.83901400  0.56485600  0.78912800  1
  Ni  Ni53  1  0.35750300  0.86875400  0.25014400  1
  Ni  Ni54  1  0.73481500  0.05282800  0.45614000  1
  Ni  Ni55  1  0.66098600  0.56485600  0.28912800  1
  Ni  Ni56  1  0.16098600  0.43514400  0.21087200  1
  Ni  Ni57  1  0.16842100  0.67897700  0.38589700  1
  Ni  Ni58  1  0.10346400  0.50020100  0.57756000  1
  Ni  Ni59  1  0.33157900  0.67897700  0.88589700  1
  Cu  Cu60  1  0.34796600  0.25947600  0.75160700  1
  Cu  Cu61  1  0.93139000  0.08384000  0.28746100  1
  Cu  Cu62  1  0.33673300  0.78091400  0.54466300  1
  Cu  Cu63  1  0.89451100  0.66097700  0.37632500  1
  Cu  Cu64  1  0.52503800  0.16032000  0.58419700  1
  Cu  Cu65  1  0.77007600  0.96329500  0.50751600  1
  Cu  Cu66  1  0.33731200  0.46301200  0.89086500  1
  Cu  Cu67  1  0.57595500  0.62559600  0.53473700  1
  Cu  Cu68  1  0.83889800  0.32493700  0.21583600  1
  Cu  Cu69  1  0.94740000  0.31676100  0.42210000  1
  Cu  Cu70  1  0.16268800  0.46301200  0.39086500  1
  Cu  Cu71  1  0.06861000  0.91616000  0.71253900  1
  Cu  Cu72  1  0.11202900  0.81468300  0.35050400  1
  Cu  Cu73  1  0.16326700  0.78091400  0.04466300  1
  Cu  Cu74  1  0.11485300  0.62353000  0.21319100  1
  Cu  Cu75  1  0.83731200  0.53698800  0.60913500  1
  Cu  Cu76  1  0.33889800  0.67506300  0.28416400  1
  Cu  Cu77  1  0.22992400  0.03670500  0.49248400  1
  Cu  Cu78  1  0.42404500  0.37440400  0.46526300  1
  Cu  Cu79  1  0.61485300  0.37647000  0.28680900  1
  Cu  Cu80  1  0.66326700  0.21908600  0.45533700  1
  Cu  Cu81  1  0.88514700  0.37647000  0.78680900  1
  Cu  Cu82  1  0.66268800  0.53698800  0.10913500  1
  Cu  Cu83  1  0.07595500  0.37440400  0.96526300  1
  Cu  Cu84  1  0.84796600  0.74052400  0.74839300  1
  Cu  Cu85  1  0.92404500  0.62559600  0.03473700  1
  Cu  Cu86  1  0.55260000  0.31676100  0.92210000  1
  Cu  Cu87  1  0.97496200  0.16032000  0.08419700  1
  Cu  Cu88  1  0.16110200  0.67506300  0.78416400  1
  Cu  Cu89  1  0.44740000  0.68323900  0.07790000  1
  Cu  Cu90  1  0.05260000  0.68323900  0.57790000  1
  Cu  Cu91  1  0.38797100  0.81468300  0.85050400  1
  Cu  Cu92  1  0.88797100  0.18531700  0.64949600  1
  Cu  Cu93  1  0.72992400  0.96329500  0.00751600  1
  Cu  Cu94  1  0.61202900  0.18531700  0.14949600  1
  Cu  Cu95  1  0.02503800  0.83968000  0.91580300  1
  Cu  Cu96  1  0.15203400  0.25947600  0.25160700  1
  Cu  Cu97  1  0.47496200  0.83968000  0.41580300  1
  Cu  Cu98  1  0.10548900  0.33902300  0.62367500  1
  Cu  Cu99  1  0.27007600  0.03670500  0.99248400  1
  Cu  Cu100  1  0.66110200  0.32493700  0.71583600  1
  Cu  Cu101  1  0.65203400  0.74052400  0.24839300  1
  Cu  Cu102  1  0.38514700  0.62353000  0.71319100  1
  Cu  Cu103  1  0.43139000  0.91616000  0.21253900  1
  Cu  Cu104  1  0.56861000  0.08384000  0.78746100  1
  Cu  Cu105  1  0.83673300  0.21908600  0.95533700  1
  Cu  Cu106  1  0.39451100  0.33902300  0.12367500  1
  Cu  Cu107  1  0.60548900  0.66097700  0.87632500  1
