# generated using pymatgen
data_Cu8Ni8C3
_symmetry_space_group_name_H-M   'P 1'
_cell_length_a   13.03848300
_cell_length_b   13.78806300
_cell_length_c   18.87347927
_cell_angle_alpha   47.40633267
_cell_angle_beta   90.00000000
_cell_angle_gamma   90.00000000
_symmetry_Int_Tables_number   1
_chemical_formula_structural   Cu8Ni8C3
_chemical_formula_sum   'Cu64 Ni64 C24'
_cell_volume   2497.82222727
_cell_formula_units_Z   8
loop_
 _symmetry_equiv_pos_site_id
 _symmetry_equiv_pos_as_xyz
  1  'x, y, z'
loop_
 _atom_site_type_symbol
 _atom_site_label
 _atom_site_symmetry_multiplicity
 _atom_site_fract_x
 _atom_site_fract_y
 _atom_site_fract_z
 _atom_site_occupancy
  C  C0  1  0.46402600  0.83339100  0.88694800  1
  C  C1  1  0.04307700  0.69183300  0.17564200  1
  C  C2  1  0.69209000  0.00000000  0.25000000  1
  C  C3  1  0.38036400  0.00000000  0.25000000  1
  C  C4  1  0.95692300  0.69183300  0.67564200  1
  C  C5  1  0.61963600  0.00000000  0.75000000  1
  C  C6  1  0.04040500  0.53582300  0.12840700  1
  C  C7  1  0.53597400  0.16660900  0.11305200  1
  C  C8  1  0.53597400  0.83339100  0.38694800  1
  C  C9  1  0.04307700  0.30816700  0.32435800  1
  C  C10  1  0.80093300  0.50000000  0.75000000  1
  C  C11  1  0.11540700  0.50000000  0.75000000  1
  C  C12  1  0.04040500  0.46417700  0.37159300  1
  C  C13  1  0.53564700  0.10471100  0.28616700  1
  C  C14  1  0.46435300  0.10471100  0.78616700  1
  C  C15  1  0.88459300  0.50000000  0.25000000  1
  C  C16  1  0.30791000  0.00000000  0.75000000  1
  C  C17  1  0.53564700  0.89528900  0.21383300  1
  C  C18  1  0.95692300  0.30816700  0.82435800  1
  C  C19  1  0.46402600  0.16660900  0.61305200  1
  C  C20  1  0.95959500  0.53582300  0.62840700  1
  C  C21  1  0.19906700  0.50000000  0.25000000  1
  C  C22  1  0.46435300  0.89528900  0.71383300  1
  C  C23  1  0.95959500  0.46417700  0.87159300  1
  Ni  Ni24  1  0.42368900  0.28173200  0.72048700  1
  Ni  Ni25  1  0.42368900  0.71826800  0.77951300  1
  Ni  Ni26  1  0.78900000  0.95820000  0.19863100  1
  Ni  Ni27  1  0.88262200  0.45837500  0.59224200  1
  Ni  Ni28  1  0.61608900  0.11776800  0.79389400  1
  Ni  Ni29  1  0.58623100  0.03337800  0.40764400  1
  Ni  Ni30  1  0.31679300  0.78942200  0.89082900  1
  Ni  Ni31  1  0.78282300  0.62879800  0.16512100  1
  Ni  Ni32  1  0.09448900  0.43726400  0.67115700  1
  Ni  Ni33  1  0.96531200  0.83065900  0.06686200  1
  Ni  Ni34  1  0.96531200  0.16934100  0.43313800  1
  Ni  Ni35  1  0.57631100  0.28173200  0.22048700  1
  Ni  Ni36  1  0.53778800  0.67998300  0.93798700  1
  Ni  Ni37  1  0.03468800  0.16934100  0.93313800  1
  Ni  Ni38  1  0.30169000  0.52608800  0.30730600  1
  Ni  Ni39  1  0.98198500  0.31033900  0.00272200  1
  Ni  Ni40  1  0.71646500  0.11139200  0.64954100  1
  Ni  Ni41  1  0.38391100  0.88223200  0.20610600  1
  Ni  Ni42  1  0.03468800  0.83065900  0.56686200  1
  Ni  Ni43  1  0.17992600  0.70525500  0.11933800  1
  Ni  Ni44  1  0.31679300  0.21057800  0.60917100  1
  Ni  Ni45  1  0.21717700  0.62879800  0.66512100  1
  Ni  Ni46  1  0.21100000  0.04180000  0.80136900  1
  Ni  Ni47  1  0.90551100  0.43726400  0.17115700  1
  Ni  Ni48  1  0.52773300  0.21957600  0.99006700  1
  Ni  Ni49  1  0.46221200  0.32001700  0.06201300  1
  Ni  Ni50  1  0.82007400  0.70525500  0.61933800  1
  Ni  Ni51  1  0.90551100  0.56273600  0.32884300  1
  Ni  Ni52  1  0.92644800  0.79392000  0.70711200  1
  Ni  Ni53  1  0.30169000  0.47391200  0.19269400  1
  Ni  Ni54  1  0.61608900  0.88223200  0.70610600  1
  Ni  Ni55  1  0.41376900  0.03337800  0.90764400  1
  Ni  Ni56  1  0.68320700  0.21057800  0.10917100  1
  Ni  Ni57  1  0.28353500  0.11139200  0.14954100  1
  Ni  Ni58  1  0.69831000  0.47391200  0.69269400  1
  Ni  Ni59  1  0.21717700  0.37120200  0.83487900  1
  Ni  Ni60  1  0.38391100  0.11776800  0.29389400  1
  Ni  Ni61  1  0.01801500  0.68966100  0.99727800  1
  Ni  Ni62  1  0.98198500  0.68966100  0.49727800  1
  Ni  Ni63  1  0.46221200  0.67998300  0.43798700  1
  Ni  Ni64  1  0.82007400  0.29474500  0.88066200  1
  Ni  Ni65  1  0.71646500  0.88860800  0.85045900  1
  Ni  Ni66  1  0.47226700  0.78042400  0.00993300  1
  Ni  Ni67  1  0.47226700  0.21957600  0.49006700  1
  Ni  Ni68  1  0.57631100  0.71826800  0.27951300  1
  Ni  Ni69  1  0.53778800  0.32001700  0.56201300  1
  Ni  Ni70  1  0.52773300  0.78042400  0.50993300  1
  Ni  Ni71  1  0.07355200  0.20608000  0.29288800  1
  Ni  Ni72  1  0.78900000  0.04180000  0.30136900  1
  Ni  Ni73  1  0.07355200  0.79392000  0.20711200  1
  Ni  Ni74  1  0.41376900  0.96662200  0.59235600  1
  Ni  Ni75  1  0.21100000  0.95820000  0.69863100  1
  Ni  Ni76  1  0.92644800  0.20608000  0.79288800  1
  Ni  Ni77  1  0.28353500  0.88860800  0.35045900  1
  Ni  Ni78  1  0.17992600  0.29474500  0.38066200  1
  Ni  Ni79  1  0.09448900  0.56273600  0.82884300  1
  Ni  Ni80  1  0.88262200  0.54162500  0.90775800  1
  Ni  Ni81  1  0.68320700  0.78942200  0.39082900  1
  Ni  Ni82  1  0.11737800  0.54162500  0.40775800  1
  Ni  Ni83  1  0.78282300  0.37120200  0.33487900  1
  Ni  Ni84  1  0.01801500  0.31033900  0.50272200  1
  Ni  Ni85  1  0.58623100  0.96662200  0.09235600  1
  Ni  Ni86  1  0.11737800  0.45837500  0.09224200  1
  Ni  Ni87  1  0.69831000  0.52608800  0.80730600  1
  Cu  Cu88  1  0.90899900  0.14282200  0.77447200  1
  Cu  Cu89  1  0.31712900  0.84172600  0.19017500  1
  Cu  Cu90  1  0.76697400  0.78648800  0.55320000  1
  Cu  Cu91  1  0.14779700  0.61498400  0.84531500  1
  Cu  Cu92  1  0.22631300  0.81994600  0.41327300  1
  Cu  Cu93  1  0.39511000  0.38601200  0.68504800  1
  Cu  Cu94  1  0.60489000  0.38601200  0.18504800  1
  Cu  Cu95  1  0.37508300  0.00722000  0.52150700  1
  Cu  Cu96  1  0.28006000  0.29357600  0.88452400  1
  Cu  Cu97  1  0.76697400  0.21351200  0.94680000  1
  Cu  Cu98  1  0.15295800  0.93324900  0.66646300  1
  Cu  Cu99  1  0.84704200  0.93324900  0.16646300  1
  Cu  Cu100  1  0.41030700  0.59062300  0.46853900  1
  Cu  Cu101  1  0.83469200  0.59108200  0.92780500  1
  Cu  Cu102  1  0.63318200  0.46562500  0.65534000  1
  Cu  Cu103  1  0.77368700  0.81994600  0.91327300  1
  Cu  Cu104  1  0.08476600  0.08513300  0.99815500  1
  Cu  Cu105  1  0.77368700  0.18005400  0.58672700  1
  Cu  Cu106  1  0.16530800  0.40891800  0.07219500  1
  Cu  Cu107  1  0.58969300  0.40937700  0.53146100  1
  Cu  Cu108  1  0.41030700  0.40937700  0.03146100  1
  Cu  Cu109  1  0.91523400  0.08513300  0.49815500  1
  Cu  Cu110  1  0.08476600  0.91486700  0.50184500  1
  Cu  Cu111  1  0.22631300  0.18005400  0.08672700  1
  Cu  Cu112  1  0.68287100  0.15827400  0.80982500  1
  Cu  Cu113  1  0.58969300  0.59062300  0.96853900  1
  Cu  Cu114  1  0.71994000  0.29357600  0.38452400  1
  Cu  Cu115  1  0.23302600  0.78648800  0.05320000  1
  Cu  Cu116  1  0.62491700  0.99278000  0.47849300  1
  Cu  Cu117  1  0.00938600  0.21653000  0.58366700  1
  Cu  Cu118  1  0.25482200  0.29465500  0.56449000  1
  Cu  Cu119  1  0.52034400  0.73669000  0.58831300  1
  Cu  Cu120  1  0.62491700  0.00722000  0.02150700  1
  Cu  Cu121  1  0.84704200  0.06675100  0.33353700  1
  Cu  Cu122  1  0.60489000  0.61398800  0.31495200  1
  Cu  Cu123  1  0.63318200  0.53437500  0.84466000  1
  Cu  Cu124  1  0.09100100  0.85717800  0.22552800  1
  Cu  Cu125  1  0.36681800  0.53437500  0.34466000  1
  Cu  Cu126  1  0.74517800  0.29465500  0.06449000  1
  Cu  Cu127  1  0.91523400  0.91486700  0.00184500  1
  Cu  Cu128  1  0.14779700  0.38501600  0.65468500  1
  Cu  Cu129  1  0.71994000  0.70642400  0.11547600  1
  Cu  Cu130  1  0.68287100  0.84172600  0.69017500  1
  Cu  Cu131  1  0.36681800  0.46562500  0.15534000  1
  Cu  Cu132  1  0.31712900  0.15827400  0.30982500  1
  Cu  Cu133  1  0.90899900  0.85717800  0.72552800  1
  Cu  Cu134  1  0.15295800  0.06675100  0.83353700  1
  Cu  Cu135  1  0.99061400  0.21653000  0.08366700  1
  Cu  Cu136  1  0.85220300  0.38501600  0.15468500  1
  Cu  Cu137  1  0.47965600  0.73669000  0.08831300  1
  Cu  Cu138  1  0.25482200  0.70534500  0.93551000  1
  Cu  Cu139  1  0.23302600  0.21351200  0.44680000  1
  Cu  Cu140  1  0.28006000  0.70642400  0.61547600  1
  Cu  Cu141  1  0.47965600  0.26331000  0.41168700  1
  Cu  Cu142  1  0.16530800  0.59108200  0.42780500  1
  Cu  Cu143  1  0.74517800  0.70534500  0.43551000  1
  Cu  Cu144  1  0.85220300  0.61498400  0.34531500  1
  Cu  Cu145  1  0.99061400  0.78347000  0.41633300  1
  Cu  Cu146  1  0.09100100  0.14282200  0.27447200  1
  Cu  Cu147  1  0.39511000  0.61398800  0.81495200  1
  Cu  Cu148  1  0.83469200  0.40891800  0.57219500  1
  Cu  Cu149  1  0.00938600  0.78347000  0.91633300  1
  Cu  Cu150  1  0.52034400  0.26331000  0.91168700  1
  Cu  Cu151  1  0.37508300  0.99278000  0.97849300  1
