# generated using pymatgen
data_Cu11(NiC5)4
_symmetry_space_group_name_H-M   'P 1'
_cell_length_a   7.92999975
_cell_length_b   7.92999975
_cell_length_c   23.32367110
_cell_angle_alpha   82.50138229
_cell_angle_beta   82.50138229
_cell_angle_gamma   59.36331946
_symmetry_Int_Tables_number   1
_chemical_formula_structural   Cu11(NiC5)4
_chemical_formula_sum   'Cu11 Ni4 C20'
_cell_volume   1247.65925326
_cell_formula_units_Z   1
loop_
 _symmetry_equiv_pos_site_id
 _symmetry_equiv_pos_as_xyz
  1  'x, y, z'
loop_
 _atom_site_type_symbol
 _atom_site_label
 _atom_site_symmetry_multiplicity
 _atom_site_fract_x
 _atom_site_fract_y
 _atom_site_fract_z
 _atom_site_occupancy
  Ni  Ni0  1  0.63870800  0.63870800  0.10959800  1
  Ni  Ni1  1  0.36129200  0.36129200  0.89040200  1
  Ni  Ni2  1  0.75919700  0.75919700  0.61401200  1
  Ni  Ni3  1  0.24080300  0.24080300  0.38598800  1
  Cu  Cu4  1  0.03164800  0.03164800  0.88360600  1
  Cu  Cu5  1  0.76647600  0.76647600  0.28301300  1
  Cu  Cu6  1  0.47081500  0.47081500  0.55733500  1
  Cu  Cu7  1  0.73299800  0.23500600  0.72077800  1
  Cu  Cu8  1  0.26700200  0.76499400  0.27922200  1
  Cu  Cu9  1  0.76499400  0.26700200  0.27922200  1
  Cu  Cu10  1  0.23500600  0.73299800  0.72077800  1
  Cu  Cu11  1  0.52918500  0.52918500  0.44266500  1
  Cu  Cu12  1  0.96835200  0.96835200  0.11639400  1
  Cu  Cu13  1  0.00000000  0.00000000  0.00000000  1
  Cu  Cu14  1  0.23352400  0.23352400  0.71698700  1
  C  C15  1  0.94286200  0.94286200  0.23139700  1
  C  C16  1  0.05713800  0.05713800  0.76860300  1
  C  C17  1  0.58641200  0.58641200  0.33006400  1
  C  C18  1  0.41358800  0.41358800  0.66993600  1
  C  C19  1  0.53353600  0.04924500  0.85083200  1
  C  C20  1  0.07139500  0.07139500  0.42071500  1
  C  C21  1  0.53109100  0.53109100  0.85106000  1
  C  C22  1  0.43412600  0.93001800  0.58493600  1
  C  C23  1  0.73753400  0.73753400  0.71667500  1
  C  C24  1  0.33703900  0.33703900  0.99091700  1
  C  C25  1  0.46646400  0.95075500  0.14916800  1
  C  C26  1  0.95075500  0.46646400  0.14916800  1
  C  C27  1  0.46890900  0.46890900  0.14894000  1
  C  C28  1  0.56587400  0.06998200  0.41506400  1
  C  C29  1  0.66296100  0.66296100  0.00908300  1
  C  C30  1  0.93001800  0.43412600  0.58493600  1
  C  C31  1  0.26246600  0.26246600  0.28332500  1
  C  C32  1  0.06998200  0.56587400  0.41506400  1
  C  C33  1  0.92860500  0.92860500  0.57928500  1
  C  C34  1  0.04924500  0.53353600  0.85083200  1
