# generated using pymatgen
data_CuNiC2
_symmetry_space_group_name_H-M   'P 1'
_cell_length_a   12.15722482
_cell_length_b   12.15722482
_cell_length_c   12.87587883
_cell_angle_alpha   84.34389913
_cell_angle_beta   84.34389913
_cell_angle_gamma   42.49230665
_symmetry_Int_Tables_number   1
_chemical_formula_structural   CuNiC2
_chemical_formula_sum   'Cu12 Ni12 C24'
_cell_volume   1278.27318118
_cell_formula_units_Z   12
loop_
 _symmetry_equiv_pos_site_id
 _symmetry_equiv_pos_as_xyz
  1  'x, y, z'
loop_
 _atom_site_type_symbol
 _atom_site_label
 _atom_site_symmetry_multiplicity
 _atom_site_fract_x
 _atom_site_fract_y
 _atom_site_fract_z
 _atom_site_occupancy
  C  C0  1  0.37096900  0.64484200  0.83593200  1
  C  C1  1  0.00419700  0.31884400  0.24527900  1
  C  C2  1  0.68115600  0.99580300  0.25472100  1
  C  C3  1  0.62903100  0.35515800  0.16406800  1
  C  C4  1  0.99580300  0.68115600  0.75472100  1
  C  C5  1  0.35515800  0.62903100  0.66406800  1
  C  C6  1  0.64484200  0.37096900  0.33593200  1
  C  C7  1  0.31884400  0.00419700  0.74527900  1
  Ni  Ni8  1  0.01424700  0.45151300  0.16412900  1
  Ni  Ni9  1  0.98575300  0.54848700  0.83587100  1
  Ni  Ni10  1  0.12611100  0.21678400  0.69291100  1
  Ni  Ni11  1  0.54848700  0.98575300  0.33587100  1
  Ni  Ni12  1  0.09248400  0.31749300  0.36164200  1
  Ni  Ni13  1  0.68250700  0.90751600  0.13835800  1
  Ni  Ni14  1  0.21678400  0.12611100  0.19291100  1
  Ni  Ni15  1  0.31749300  0.09248400  0.86164200  1
  Ni  Ni16  1  0.45151300  0.01424700  0.66412900  1
  Ni  Ni17  1  0.87388900  0.78321600  0.30708900  1
  Ni  Ni18  1  0.78321600  0.87388900  0.80708900  1
  Ni  Ni19  1  0.90751600  0.68250700  0.63835800  1
  C  C20  1  0.34201300  0.85307600  0.57495600  1
  C  C21  1  0.66974800  0.38031500  0.60391300  1
  C  C22  1  0.02401000  0.87073800  0.63768600  1
  C  C23  1  0.33025200  0.61968500  0.39608700  1
  C  C24  1  0.12926200  0.97599000  0.86231400  1
  C  C25  1  0.97599000  0.12926200  0.36231400  1
  C  C26  1  0.32485500  0.42467300  0.67301700  1
  C  C27  1  0.14692400  0.65798700  0.92504400  1
  C  C28  1  0.42467300  0.32485500  0.17301700  1
  C  C29  1  0.87073800  0.02401000  0.13768600  1
  C  C30  1  0.57532700  0.67514500  0.82698300  1
  C  C31  1  0.85307600  0.34201300  0.07495600  1
  C  C32  1  0.67514500  0.57532700  0.32698300  1
  C  C33  1  0.38031500  0.66974800  0.10391300  1
  C  C34  1  0.65798700  0.14692400  0.42504400  1
  C  C35  1  0.61968500  0.33025200  0.89608700  1
  Cu  Cu36  1  0.47026000  0.97549500  0.38574700  1
  Cu  Cu37  1  0.68181300  0.85409200  0.06841300  1
  Cu  Cu38  1  0.02450500  0.52974000  0.11425300  1
  Cu  Cu39  1  0.00678900  0.34650300  0.66221600  1
  Cu  Cu40  1  0.31818700  0.14590800  0.93158700  1
  Cu  Cu41  1  0.65349700  0.99321100  0.83778400  1
  Cu  Cu42  1  0.14590800  0.31818700  0.43158700  1
  Cu  Cu43  1  0.34650300  0.00678900  0.16221600  1
  Cu  Cu44  1  0.52974000  0.02450500  0.61425300  1
  Cu  Cu45  1  0.97549500  0.47026000  0.88574700  1
  Cu  Cu46  1  0.99321100  0.65349700  0.33778400  1
  Cu  Cu47  1  0.85409200  0.68181300  0.56841300  1
