# generated using pymatgen
data_Cu2(NiC3)3
_symmetry_space_group_name_H-M   'P 1'
_cell_length_a   9.68338882
_cell_length_b   7.39486532
_cell_length_c   6.70004816
_cell_angle_alpha   86.64061590
_cell_angle_beta   49.67205269
_cell_angle_gamma   43.68733141
_symmetry_Int_Tables_number   1
_chemical_formula_structural   Cu2(NiC3)3
_chemical_formula_sum   'Cu4 Ni6 C18'
_cell_volume   158.89901462
_cell_formula_units_Z   2
loop_
 _symmetry_equiv_pos_site_id
 _symmetry_equiv_pos_as_xyz
  1  'x, y, z'
loop_
 _atom_site_type_symbol
 _atom_site_label
 _atom_site_symmetry_multiplicity
 _atom_site_fract_x
 _atom_site_fract_y
 _atom_site_fract_z
 _atom_site_occupancy
  C  C0  1  0.25902500  0.58980800  0.03120100  1
  C  C1  1  0.11996600  0.03120100  0.58980800  1
  C  C2  1  0.21879900  0.13003400  0.99097500  1
  C  C3  1  0.66019200  0.99097500  0.13003400  1
  C  C4  1  0.67551100  0.06434300  0.86515700  1
  C  C5  1  0.39499000  0.86515700  0.06434300  1
  C  C6  1  0.38484300  0.85501000  0.57448900  1
  C  C7  1  0.18565700  0.57448900  0.85501000  1
  C  C8  1  0.58496300  0.07867900  0.70325200  1
  C  C9  1  0.63310600  0.70325200  0.07867900  1
  C  C10  1  0.54674800  0.61689400  0.66503700  1
  C  C11  1  0.17132100  0.66503700  0.61689400  1
  C  C12  1  0.66501900  0.37159400  0.91403500  1
  C  C13  1  0.04935200  0.91403500  0.37159400  1
  C  C14  1  0.33596500  0.20064800  0.58498100  1
  C  C15  1  0.87840600  0.58498100  0.20064800  1
  Ni  Ni16  1  0.67727200  0.32272800  0.32272800  1
  Ni  Ni17  1  0.92727200  0.57272800  0.57272800  1
  Ni  Ni18  1  0.82315900  0.86792400  0.61226700  1
  Ni  Ni19  1  0.69665100  0.61226700  0.86792400  1
  Ni  Ni20  1  0.63773300  0.55334900  0.42684100  1
  Ni  Ni21  1  0.38207600  0.42684100  0.55334900  1
  Cu  Cu22  1  0.16668500  0.67970300  0.25691300  1
  Cu  Cu23  1  0.89670000  0.25691300  0.67970300  1
  Cu  Cu24  1  0.99308700  0.35330000  0.08331500  1
  Cu  Cu25  1  0.57029700  0.08331500  0.35330000  1
  C  C26  1  0.02723300  0.97276700  0.97276700  1
  C  C27  1  0.27723300  0.22276700  0.22276700  1
