# generated using pymatgen
data_CuNi2C3
_symmetry_space_group_name_H-M   'P 1'
_cell_length_a   4.33614600
_cell_length_b   9.35180400
_cell_length_c   11.59126400
_cell_angle_alpha   90.00000000
_cell_angle_beta   90.00000000
_cell_angle_gamma   90.00000000
_symmetry_Int_Tables_number   1
_chemical_formula_structural   CuNi2C3
_chemical_formula_sum   'Cu4 Ni8 C12'
_cell_volume   470.03488341
_cell_formula_units_Z   4
loop_
 _symmetry_equiv_pos_site_id
 _symmetry_equiv_pos_as_xyz
  1  'x, y, z'
loop_
 _atom_site_type_symbol
 _atom_site_label
 _atom_site_symmetry_multiplicity
 _atom_site_fract_x
 _atom_site_fract_y
 _atom_site_fract_z
 _atom_site_occupancy
  C  C0  1  0.25000000  0.38699600  0.68874400  1
  C  C1  1  0.25000000  0.11300400  0.18874400  1
  C  C2  1  0.75000000  0.61300400  0.31125600  1
  C  C3  1  0.75000000  0.88699600  0.81125600  1
  C  C4  1  0.75000000  0.30606100  0.87865400  1
  C  C5  1  0.75000000  0.19393900  0.37865400  1
  C  C6  1  0.25000000  0.69393900  0.12134600  1
  C  C7  1  0.25000000  0.80606100  0.62134600  1
  C  C8  1  0.75000000  0.47259800  0.87787900  1
  C  C9  1  0.75000000  0.02740200  0.37787900  1
  C  C10  1  0.25000000  0.52740200  0.12212100  1
  C  C11  1  0.25000000  0.97259800  0.62212100  1
  Ni  Ni12  1  0.75000000  0.61318500  0.60055200  1
  Ni  Ni13  1  0.75000000  0.88681500  0.10055200  1
  Ni  Ni14  1  0.25000000  0.38681500  0.39944800  1
  Ni  Ni15  1  0.25000000  0.11318500  0.89944800  1
  Ni  Ni16  1  0.75000000  0.15383100  0.61590400  1
  Ni  Ni17  1  0.75000000  0.34616900  0.11590400  1
  Ni  Ni18  1  0.25000000  0.84616900  0.38409600  1
  Ni  Ni19  1  0.25000000  0.65383100  0.88409600  1
  Cu  Cu20  1  0.75000000  0.38912600  0.82646800  1
  Cu  Cu21  1  0.75000000  0.11087400  0.32646800  1
  Cu  Cu22  1  0.25000000  0.61087400  0.17353200  1
  Cu  Cu23  1  0.25000000  0.88912600  0.67353200  1
