# generated using pymatgen
data_Cu6Ni3C5
_symmetry_space_group_name_H-M   'P 1'
_cell_length_a   9.22250422
_cell_length_b   9.22250422
_cell_length_c   5.85296500
_cell_angle_alpha   90.00000000
_cell_angle_beta   90.00000000
_cell_angle_gamma   120.00000155
_symmetry_Int_Tables_number   1
_chemical_formula_structural   Cu6Ni3C5
_chemical_formula_sum   'Cu12 Ni6 C10'
_cell_volume   431.12606170
_cell_formula_units_Z   2
loop_
 _symmetry_equiv_pos_site_id
 _symmetry_equiv_pos_as_xyz
  1  'x, y, z'
loop_
 _atom_site_type_symbol
 _atom_site_label
 _atom_site_symmetry_multiplicity
 _atom_site_fract_x
 _atom_site_fract_y
 _atom_site_fract_z
 _atom_site_occupancy
  C  C0  1  0.33657900  0.38641600  0.75000000  1
  C  C1  1  0.04983700  0.66342100  0.75000000  1
  C  C2  1  0.66342100  0.61358400  0.25000000  1
  C  C3  1  0.38641600  0.04983700  0.25000000  1
  C  C4  1  0.61358400  0.95016300  0.75000000  1
  C  C5  1  0.95016300  0.33657900  0.25000000  1
  C  C6  1  0.66666700  0.33333300  0.51339400  1
  C  C7  1  0.66666700  0.33333300  0.98660600  1
  C  C8  1  0.33333300  0.66666700  0.01339400  1
  C  C9  1  0.33333300  0.66666700  0.48660600  1
  Ni  Ni10  1  0.03689300  0.79778100  0.25000000  1
  Ni  Ni11  1  0.23911200  0.03689300  0.75000000  1
  Ni  Ni12  1  0.76088800  0.96310700  0.25000000  1
  Ni  Ni13  1  0.96310700  0.20221900  0.75000000  1
  Ni  Ni14  1  0.79778100  0.76088800  0.75000000  1
  Ni  Ni15  1  0.20221900  0.23911200  0.25000000  1
  Cu  Cu16  1  0.17083700  0.53654900  0.50085900  1
  Cu  Cu17  1  0.82916300  0.46345100  0.00085900  1
  Cu  Cu18  1  0.36571200  0.82916300  0.50085900  1
  Cu  Cu19  1  0.53654900  0.36571200  0.00085900  1
  Cu  Cu20  1  0.63428800  0.17083700  0.00085900  1
  Cu  Cu21  1  0.46345100  0.63428800  0.99914100  1
  Cu  Cu22  1  0.46345100  0.63428800  0.50085900  1
  Cu  Cu23  1  0.53654900  0.36571200  0.49914100  1
  Cu  Cu24  1  0.36571200  0.82916300  0.99914100  1
  Cu  Cu25  1  0.63428800  0.17083700  0.49914100  1
  Cu  Cu26  1  0.17083700  0.53654900  0.99914100  1
  Cu  Cu27  1  0.82916300  0.46345100  0.49914100  1
