# generated using pymatgen
data_CuNiC7
_symmetry_space_group_name_H-M   'P 1'
_cell_length_a   7.49328861
_cell_length_b   7.49328861
_cell_length_c   7.49328861
_cell_angle_alpha   121.68738670
_cell_angle_beta   120.34825806
_cell_angle_gamma   88.24997280
_symmetry_Int_Tables_number   1
_chemical_formula_structural   CuNiC7
_chemical_formula_sum   'Cu2 Ni2 C14'
_cell_volume   292.73336960
_cell_formula_units_Z   2
loop_
 _symmetry_equiv_pos_site_id
 _symmetry_equiv_pos_as_xyz
  1  'x, y, z'
loop_
 _atom_site_type_symbol
 _atom_site_label
 _atom_site_symmetry_multiplicity
 _atom_site_fract_x
 _atom_site_fract_y
 _atom_site_fract_z
 _atom_site_occupancy
  C  C0  1  0.12620600  0.37620600  0.75000000  1
  C  C1  1  0.87379400  0.62379400  0.25000000  1
  Ni  Ni2  1  0.50000000  0.50000000  0.50000000  1
  Ni  Ni3  1  0.50000000  0.00000000  0.00000000  1
  Cu  Cu4  1  0.00000000  0.00000000  0.00000000  1
  Cu  Cu5  1  0.50000000  0.00000000  0.50000000  1
  C  C6  1  0.53978700  0.28978700  0.25000000  1
  C  C7  1  0.46021300  0.71021300  0.75000000  1
  C  C8  1  0.81274600  0.08358600  0.14682900  1
  C  C9  1  0.82078400  0.07078400  0.75000000  1
  C  C10  1  0.81274600  0.66591700  0.72916000  1
  C  C11  1  0.43675700  0.08358600  0.77084000  1
  C  C12  1  0.56324300  0.33408300  0.64682900  1
  C  C13  1  0.43675700  0.66591700  0.35317100  1
  C  C14  1  0.56324300  0.91641400  0.22916000  1
  C  C15  1  0.18725400  0.33408300  0.27084000  1
  C  C16  1  0.17921600  0.92921600  0.25000000  1
  C  C17  1  0.18725400  0.91641400  0.85317100  1
