# generated using pymatgen
data_Cu5NiC2
_symmetry_space_group_name_H-M   'P 1'
_cell_length_a   4.39335000
_cell_length_b   4.92678500
_cell_length_c   11.03618900
_cell_angle_alpha   90.00000000
_cell_angle_beta   90.00000000
_cell_angle_gamma   90.00000000
_symmetry_Int_Tables_number   1
_chemical_formula_structural   Cu5NiC2
_chemical_formula_sum   'Cu10 Ni2 C4'
_cell_volume   238.87931387
_cell_formula_units_Z   2
loop_
 _symmetry_equiv_pos_site_id
 _symmetry_equiv_pos_as_xyz
  1  'x, y, z'
loop_
 _atom_site_type_symbol
 _atom_site_label
 _atom_site_symmetry_multiplicity
 _atom_site_fract_x
 _atom_site_fract_y
 _atom_site_fract_z
 _atom_site_occupancy
  C  C0  1  0.23956700  0.50000000  0.75192300  1
  C  C1  1  0.76043300  0.00000000  0.25192300  1
  C  C2  1  0.72006000  0.50000000  0.49735300  1
  C  C3  1  0.27994000  0.00000000  0.99735300  1
  Ni  Ni4  1  0.90012900  0.50000000  0.00186600  1
  Ni  Ni5  1  0.09987100  0.00000000  0.50186600  1
  Cu  Cu6  1  0.77243100  0.26640700  0.01171100  1
  Cu  Cu7  1  0.22756900  0.23359300  0.51171100  1
  Cu  Cu8  1  0.28021800  0.00000000  0.82957500  1
  Cu  Cu9  1  0.71978200  0.50000000  0.32957500  1
  Cu  Cu10  1  0.72833900  0.50000000  0.66591800  1
  Cu  Cu11  1  0.80524400  0.00000000  0.48014900  1
  Cu  Cu12  1  0.22756900  0.76640700  0.51171100  1
  Cu  Cu13  1  0.19475600  0.50000000  0.98014900  1
  Cu  Cu14  1  0.27166100  0.00000000  0.16591800  1
  Cu  Cu15  1  0.77243100  0.73359300  0.01171100  1
