# generated using pymatgen
data_Cu6Ni4C15
_symmetry_space_group_name_H-M   'P 1'
_cell_length_a   12.10769285
_cell_length_b   12.10769285
_cell_length_c   15.44687095
_cell_angle_alpha   67.49858075
_cell_angle_beta   67.49858075
_cell_angle_gamma   89.51330008
_symmetry_Int_Tables_number   1
_chemical_formula_structural   Cu6Ni4C15
_chemical_formula_sum   'Cu48 Ni32 C120'
_cell_volume   1907.37369755
_cell_formula_units_Z   8
loop_
 _symmetry_equiv_pos_site_id
 _symmetry_equiv_pos_as_xyz
  1  'x, y, z'
loop_
 _atom_site_type_symbol
 _atom_site_label
 _atom_site_symmetry_multiplicity
 _atom_site_fract_x
 _atom_site_fract_y
 _atom_site_fract_z
 _atom_site_occupancy
  C  C0  1  0.25118700  0.24119400  0.99681300  1
  C  C1  1  0.75880600  0.74881300  0.50318700  1
  C  C2  1  0.74881300  0.75880600  0.00318700  1
  C  C3  1  0.24119400  0.25118700  0.49681300  1
  C  C4  1  0.74850700  0.25681400  0.00265800  1
  C  C5  1  0.74318600  0.25149300  0.49734200  1
  C  C6  1  0.25149300  0.74318600  0.99734200  1
  C  C7  1  0.25681400  0.74850700  0.50265800  1
  C  C8  1  0.54381100  0.34722700  0.66902600  1
  C  C9  1  0.65277300  0.45618900  0.83097400  1
  C  C10  1  0.45618900  0.65277300  0.33097400  1
  C  C11  1  0.34722700  0.54381100  0.16902600  1
  C  C12  1  0.50374400  0.48604700  0.60720000  1
  C  C13  1  0.51395300  0.49625600  0.89280000  1
  C  C14  1  0.49625600  0.51395300  0.39280000  1
  C  C15  1  0.48604700  0.50374400  0.10720000  1
  C  C16  1  0.24056300  0.46021000  0.82115200  1
  C  C17  1  0.53979000  0.75943700  0.67884800  1
  C  C18  1  0.75943700  0.53979000  0.17884800  1
  C  C19  1  0.46021000  0.24056300  0.32115200  1
  C  C20  1  0.33025500  0.54218800  0.68849400  1
  C  C21  1  0.45781200  0.66974500  0.81150600  1
  C  C22  1  0.66974500  0.45781200  0.31150600  1
  C  C23  1  0.54218800  0.33025500  0.18849400  1
  C  C24  1  0.97073300  0.01804000  0.32694600  1
  C  C25  1  0.98196000  0.02926700  0.17305400  1
  C  C26  1  0.02926700  0.98196000  0.67305400  1
  C  C27  1  0.01804000  0.97073300  0.82694600  1
  C  C28  1  0.00379900  0.09846400  0.38927200  1
  C  C29  1  0.90153600  0.99620100  0.11072800  1
  C  C30  1  0.99620100  0.90153600  0.61072800  1
  C  C31  1  0.09846400  0.00379900  0.88927200  1
  C  C32  1  0.17287200  0.24223600  0.30656200  1
  C  C33  1  0.75776400  0.82712800  0.19343800  1
  C  C34  1  0.82712800  0.75776400  0.69343800  1
  C  C35  1  0.24223600  0.17287200  0.80656200  1
  C  C36  1  0.25201500  0.29887100  0.17248200  1
  C  C37  1  0.70112900  0.74798500  0.32751800  1
  C  C38  1  0.74798500  0.70112900  0.82751800  1
  C  C39  1  0.29887100  0.25201500  0.67248200  1
  C  C40  1  0.58366900  0.04446800  0.39901700  1
  C  C41  1  0.95553200  0.41633100  0.10098300  1
  C  C42  1  0.41633100  0.95553200  0.60098300  1
  C  C43  1  0.04446800  0.58366900  0.89901700  1
  C  C44  1  0.70664500  0.16393100  0.33394800  1
  C  C45  1  0.83606900  0.29335500  0.16605200  1
  C  C46  1  0.29335500  0.83606900  0.66605200  1
  C  C47  1  0.16393100  0.70664500  0.83394800  1
  C  C48  1  0.49362500  0.98808500  0.31572400  1
  C  C49  1  0.01191500  0.50637500  0.18427600  1
  C  C50  1  0.50637500  0.01191500  0.68427600  1
  C  C51  1  0.98808500  0.49362500  0.81572400  1
  C  C52  1  0.55606600  0.05283900  0.17991300  1
  C  C53  1  0.94716100  0.44393400  0.32008700  1
  C  C54  1  0.44393400  0.94716100  0.82008700  1
  C  C55  1  0.05283900  0.55606600  0.67991300  1
  C  C56  1  0.93071800  0.44354700  0.60764500  1
  C  C57  1  0.55645300  0.06928200  0.89235500  1
  C  C58  1  0.06928200  0.55645300  0.39235500  1
  C  C59  1  0.44354700  0.93071800  0.10764500  1
  C  C60  1  0.80500200  0.49830000  0.67238700  1
  C  C61  1  0.50170000  0.19499800  0.82761300  1
  C  C62  1  0.19499800  0.50170000  0.32761300  1
  C  C63  1  0.49830000  0.80500200  0.17238700  1
  C  C64  1  0.93799100  0.21598800  0.82936200  1
  C  C65  1  0.78401200  0.06200900  0.67063800  1
  C  C66  1  0.06200900  0.78401200  0.17063800  1
  C  C67  1  0.21598800  0.93799100  0.32936200  1
  C  C68  1  0.01085800  0.29364100  0.69415900  1
  C  C69  1  0.70635900  0.98914200  0.80584100  1
  C  C70  1  0.98914200  0.70635900  0.30584100  1
  C  C71  1  0.29364100  0.01085800  0.19415900  1
  C  C72  1  0.28430500  0.97473000  0.04135300  1
  C  C73  1  0.02527000  0.71569500  0.45864700  1
  C  C74  1  0.71569500  0.02527000  0.95864700  1
  C  C75  1  0.97473000  0.28430500  0.54135300  1
  C  C76  1  0.50573500  0.30448700  0.97512700  1
  C  C77  1  0.69551300  0.49426500  0.52487300  1
  C  C78  1  0.49426500  0.69551300  0.02487300  1
  C  C79  1  0.30448700  0.50573500  0.47512700  1
  C  C80  1  0.99261300  0.19157900  0.01469800  1
  C  C81  1  0.80842100  0.00738700  0.48530200  1
  C  C82  1  0.00738700  0.80842100  0.98530200  1
  C  C83  1  0.19157900  0.99261300  0.51469800  1
  C  C84  1  0.17593600  0.48111000  0.03891100  1
  C  C85  1  0.51889000  0.82406400  0.46108900  1
  C  C86  1  0.82406400  0.51889000  0.96108900  1
  C  C87  1  0.48111000  0.17593600  0.53891100  1
  C  C88  1  0.39121300  0.39094200  0.76003000  1
  C  C89  1  0.60905800  0.60878700  0.73997000  1
  C  C90  1  0.60878700  0.60905800  0.23997000  1
  C  C91  1  0.39094200  0.39121300  0.26003000  1
  C  C92  1  0.11488400  0.15660100  0.23553800  1
  C  C93  1  0.84339900  0.88511600  0.26446200  1
  C  C94  1  0.88511500  0.84339900  0.76446200  1
  C  C95  1  0.15660100  0.11488400  0.73553800  1
  C  C96  1  0.21695700  0.98888600  0.00736400  1
  C  C97  1  0.01111400  0.78304300  0.49263600  1
  C  C98  1  0.78304300  0.01111400  0.99263600  1
  C  C99  1  0.98888600  0.21695700  0.50736400  1
  C  C100  1  0.48973900  0.20590500  0.02003700  1
  C  C101  1  0.79409500  0.51026100  0.47996300  1
  C  C102  1  0.51026100  0.79409500  0.97996300  1
  C  C103  1  0.20590500  0.48973900  0.52003700  1
  C  C104  1  0.64722800  0.11475500  0.24254400  1
  C  C105  1  0.88524500  0.35277200  0.25745600  1
  C  C106  1  0.35277200  0.88524500  0.75745600  1
  C  C107  1  0.11475500  0.64722800  0.74254400  1
  C  C108  1  0.85577800  0.35214400  0.76504500  1
  C  C109  1  0.64785600  0.14422200  0.73495500  1
  C  C110  1  0.14422200  0.64785600  0.23495500  1
  C  C111  1  0.35214400  0.85577800  0.26504500  1
  C  C112  1  0.01310200  0.29115400  0.97688600  1
  C  C113  1  0.70884600  0.98689800  0.52311400  1
  C  C114  1  0.98689800  0.70884600  0.02311400  1
  C  C115  1  0.29115400  0.01310200  0.47688600  1
  C  C116  1  0.27605600  0.49219700  0.00418300  1
  C  C117  1  0.50780300  0.72394400  0.49581700  1
  C  C118  1  0.72394400  0.50780300  0.99581700  1
  C  C119  1  0.49219700  0.27605600  0.50418300  1
  Ni  Ni120  1  0.48306200  0.40655700  0.67017300  1
  Ni  Ni121  1  0.59344300  0.51693800  0.82982700  1
  Ni  Ni122  1  0.51693800  0.59344300  0.32982700  1
  Ni  Ni123  1  0.40655700  0.48306200  0.17017300  1
  Ni  Ni124  1  0.31842300  0.47616200  0.75758900  1
  Ni  Ni125  1  0.52383800  0.68157700  0.74241100  1
  Ni  Ni126  1  0.68157700  0.52383800  0.24241100  1
  Ni  Ni127  1  0.47616200  0.31842300  0.25758900  1
  Ni  Ni128  1  0.02924200  0.07888200  0.32632800  1
  Ni  Ni129  1  0.92111800  0.97075800  0.17367200  1
  Ni  Ni130  1  0.97075800  0.92111800  0.67367200  1
  Ni  Ni131  1  0.07888200  0.02924200  0.82632800  1
  Ni  Ni132  1  0.18880800  0.23646500  0.23887500  1
  Ni  Ni133  1  0.76353500  0.81119200  0.26112500  1
  Ni  Ni134  1  0.81119200  0.76353500  0.76112500  1
  Ni  Ni135  1  0.23646500  0.18880800  0.73887500  1
  Ni  Ni136  1  0.64619800  0.10678500  0.33212200  1
  Ni  Ni137  1  0.89321500  0.35380200  0.16787800  1
  Ni  Ni138  1  0.35380200  0.89321500  0.66787800  1
  Ni  Ni139  1  0.10678500  0.64619800  0.83212200  1
  Ni  Ni140  1  0.56421000  0.03686200  0.24685800  1
  Ni  Ni141  1  0.96313800  0.43579000  0.25314200  1
  Ni  Ni142  1  0.43579000  0.96313800  0.75314200  1
  Ni  Ni143  1  0.03686200  0.56421000  0.74685800  1
  Ni  Ni144  1  0.86435100  0.43730100  0.67428400  1
  Ni  Ni145  1  0.56269900  0.13564900  0.82571600  1
  Ni  Ni146  1  0.13564900  0.56269900  0.32571600  1
  Ni  Ni147  1  0.43730100  0.86435100  0.17428400  1
  Ni  Ni148  1  0.94024500  0.27877700  0.76194900  1
  Ni  Ni149  1  0.72122300  0.05975500  0.73805100  1
  Ni  Ni150  1  0.05975500  0.72122300  0.23805100  1
  Ni  Ni151  1  0.27877700  0.94024500  0.26194900  1
  Cu  Cu152  1  0.37531400  0.29820100  0.84160400  1
  Cu  Cu153  1  0.70179900  0.62468600  0.65839600  1
  Cu  Cu154  1  0.62468600  0.70179900  0.15839600  1
  Cu  Cu155  1  0.29820100  0.37531400  0.34160400  1
  Cu  Cu156  1  0.12672700  0.14972400  0.15215100  1
  Cu  Cu157  1  0.85027600  0.87327300  0.34784900  1
  Cu  Cu158  1  0.87327300  0.85027600  0.84784900  1
  Cu  Cu159  1  0.14972400  0.12672700  0.65215100  1
  Cu  Cu160  1  0.18997300  0.09404800  0.97555900  1
  Cu  Cu161  1  0.90595200  0.81002700  0.52444100  1
  Cu  Cu162  1  0.81002700  0.90595200  0.02444100  1
  Cu  Cu163  1  0.09404800  0.18997300  0.47555900  1
  Cu  Cu164  1  0.38740800  0.14753500  0.04482500  1
  Cu  Cu165  1  0.85246500  0.61259200  0.45517500  1
  Cu  Cu166  1  0.61259200  0.85246500  0.95517500  1
  Cu  Cu167  1  0.14753500  0.38740800  0.54482500  1
  Cu  Cu168  1  0.11750700  0.34153600  0.95605500  1
  Cu  Cu169  1  0.65846400  0.88249300  0.54394500  1
  Cu  Cu170  1  0.88249300  0.65846400  0.04394500  1
  Cu  Cu171  1  0.34153600  0.11750700  0.45605500  1
  Cu  Cu172  1  0.32493600  0.40061100  0.99805000  1
  Cu  Cu173  1  0.59938900  0.67506400  0.50195000  1
  Cu  Cu174  1  0.67506400  0.59938900  0.00195000  1
  Cu  Cu175  1  0.40061100  0.32493600  0.49805000  1
  Cu  Cu176  1  0.77065000  0.34353800  0.84872700  1
  Cu  Cu177  1  0.65646200  0.22935000  0.65127300  1
  Cu  Cu178  1  0.22935000  0.65646200  0.15127300  1
  Cu  Cu179  1  0.34353800  0.77065000  0.34872700  1
  Cu  Cu180  1  0.72548400  0.19295100  0.15754900  1
  Cu  Cu181  1  0.80704900  0.27451600  0.34245100  1
  Cu  Cu182  1  0.27451600  0.80704900  0.84245100  1
  Cu  Cu183  1  0.19295100  0.72548400  0.65754900  1
  Cu  Cu184  1  0.93113200  0.34836700  0.95659700  1
  Cu  Cu185  1  0.65163300  0.06886800  0.54340300  1
  Cu  Cu186  1  0.06886800  0.65163300  0.04340300  1
  Cu  Cu187  1  0.34836700  0.93113200  0.45659700  1
  Cu  Cu188  1  0.33515000  0.59611900  0.97281900  1
  Cu  Cu189  1  0.40388100  0.66485000  0.52718100  1
  Cu  Cu190  1  0.66485000  0.40388100  0.02718100  1
  Cu  Cu191  1  0.59611900  0.33515000  0.47281900  1
  Cu  Cu192  1  0.17161200  0.89890600  0.00171700  1
  Cu  Cu193  1  0.10109400  0.82838800  0.49828300  1
  Cu  Cu194  1  0.82838800  0.10109400  0.99828300  1
  Cu  Cu195  1  0.89890600  0.17161200  0.50171700  1
  Cu  Cu196  1  0.57381300  0.15817200  0.04374500  1
  Cu  Cu197  1  0.84182800  0.42618700  0.45625500  1
  Cu  Cu198  1  0.42618700  0.84182800  0.95625500  1
  Cu  Cu199  1  0.15817200  0.57381300  0.54374500  1
