# generated using pymatgen
data_Cu11Ni2C15
_symmetry_space_group_name_H-M   'P 1'
_cell_length_a   6.99037800
_cell_length_b   16.51006700
_cell_length_c   18.16450800
_cell_angle_alpha   90.00000000
_cell_angle_beta   90.00000000
_cell_angle_gamma   90.00000000
_symmetry_Int_Tables_number   1
_chemical_formula_structural   Cu11Ni2C15
_chemical_formula_sum   'Cu44 Ni8 C60'
_cell_volume   2096.39509743
_cell_formula_units_Z   4
loop_
 _symmetry_equiv_pos_site_id
 _symmetry_equiv_pos_as_xyz
  1  'x, y, z'
loop_
 _atom_site_type_symbol
 _atom_site_label
 _atom_site_symmetry_multiplicity
 _atom_site_fract_x
 _atom_site_fract_y
 _atom_site_fract_z
 _atom_site_occupancy
  Ni  Ni0  1  0.99508700  0.29210800  0.73548800  1
  Ni  Ni1  1  0.50491300  0.29210800  0.23548800  1
  Ni  Ni2  1  0.00491300  0.70789200  0.26451200  1
  Ni  Ni3  1  0.50491300  0.20789200  0.73548800  1
  Ni  Ni4  1  0.49508700  0.79210800  0.26451200  1
  Ni  Ni5  1  0.49508700  0.70789200  0.76451200  1
  Ni  Ni6  1  0.00491300  0.79210800  0.76451200  1
  Ni  Ni7  1  0.99508700  0.20789200  0.23548800  1
  C  C8  1  0.17337200  0.66953200  0.84943600  1
  C  C9  1  0.67106300  0.33482300  0.81109600  1
  C  C10  1  0.17337200  0.83046800  0.34943600  1
  C  C11  1  0.32893700  0.83482300  0.68890400  1
  C  C12  1  0.82662800  0.33046800  0.15056400  1
  C  C13  1  0.32893700  0.66517700  0.18890400  1
  C  C14  1  0.82893700  0.33482300  0.31109600  1
  C  C15  1  0.82662800  0.16953200  0.65056400  1
  C  C16  1  0.67337200  0.33046800  0.65056400  1
  C  C17  1  0.17106300  0.83482300  0.18890400  1
  C  C18  1  0.32662800  0.83046800  0.84943600  1
  C  C19  1  0.82893700  0.16517700  0.81109600  1
  C  C20  1  0.17106300  0.66517700  0.68890400  1
  C  C21  1  0.67337200  0.16953200  0.15056400  1
  C  C22  1  0.67106300  0.16517700  0.31109600  1
  C  C23  1  0.32662800  0.66953200  0.34943600  1
  Cu  Cu24  1  0.56021100  0.86070400  0.89341100  1
  Cu  Cu25  1  0.08841000  0.92965800  0.24112700  1
  Cu  Cu26  1  0.43978900  0.13929600  0.10658900  1
  Cu  Cu27  1  0.41159000  0.57034200  0.24112700  1
  Cu  Cu28  1  0.20552100  0.91907800  0.89515400  1
  Cu  Cu29  1  0.70552100  0.08092200  0.60484600  1
  Cu  Cu30  1  0.17333700  0.88709100  0.61769100  1
  Cu  Cu31  1  0.46789500  0.16907900  0.38014400  1
  Cu  Cu32  1  0.82666300  0.38709100  0.88230900  1
  Cu  Cu33  1  0.75000000  0.25000000  0.06793100  1
  Cu  Cu34  1  0.91159000  0.07034200  0.75887300  1
  Cu  Cu35  1  0.06021100  0.13929600  0.60658900  1
  Cu  Cu36  1  0.93978900  0.63929600  0.89341100  1
  Cu  Cu37  1  0.58841000  0.42965800  0.75887300  1
  Cu  Cu38  1  0.20552100  0.58092200  0.39515400  1
  Cu  Cu39  1  0.32666300  0.61290900  0.61769100  1
  Cu  Cu40  1  0.67333700  0.38709100  0.38230900  1
  Cu  Cu41  1  0.03210500  0.16907900  0.88014400  1
  Cu  Cu42  1  0.08841000  0.57034200  0.74112700  1
  Cu  Cu43  1  0.29447900  0.91907800  0.39515400  1
  Cu  Cu44  1  0.56021100  0.63929600  0.39341100  1
  Cu  Cu45  1  0.53210500  0.83092100  0.61985600  1
  Cu  Cu46  1  0.82666300  0.11290900  0.38230900  1
  Cu  Cu47  1  0.93978900  0.86070400  0.39341100  1
  Cu  Cu48  1  0.03210500  0.33092100  0.38014400  1
  Cu  Cu49  1  0.17333700  0.61290900  0.11769100  1
  Cu  Cu50  1  0.46789500  0.33092100  0.88014400  1
  Cu  Cu51  1  0.58841000  0.07034200  0.25887300  1
  Cu  Cu52  1  0.75000000  0.25000000  0.56793100  1
  Cu  Cu53  1  0.29447900  0.58092200  0.89515400  1
  Cu  Cu54  1  0.79447900  0.41907800  0.60484600  1
  Cu  Cu55  1  0.67333700  0.11290900  0.88230900  1
  Cu  Cu56  1  0.41159000  0.92965800  0.74112700  1
  Cu  Cu57  1  0.32666300  0.88709100  0.11769100  1
  Cu  Cu58  1  0.91159000  0.42965800  0.25887300  1
  Cu  Cu59  1  0.96789500  0.66907900  0.61985600  1
  Cu  Cu60  1  0.25000000  0.75000000  0.43206900  1
  Cu  Cu61  1  0.25000000  0.75000000  0.93206900  1
  Cu  Cu62  1  0.70552100  0.41907800  0.10484600  1
  Cu  Cu63  1  0.79447900  0.08092200  0.10484600  1
  Cu  Cu64  1  0.96789500  0.83092100  0.11985600  1
  Cu  Cu65  1  0.43978900  0.36070400  0.60658900  1
  Cu  Cu66  1  0.06021100  0.36070400  0.10658900  1
  Cu  Cu67  1  0.53210500  0.66907900  0.11985600  1
  C  C68  1  0.13161700  0.97383100  0.92354000  1
  C  C69  1  0.25000000  0.75000000  0.49728200  1
  C  C70  1  0.42175800  0.91938200  0.07441000  1
  C  C71  1  0.75000000  0.25000000  0.00271800  1
  C  C72  1  0.29546800  0.37897200  0.57941500  1
  C  C73  1  0.65223300  0.82851200  0.57593500  1
  C  C74  1  0.20453200  0.37897200  0.07941500  1
  C  C75  1  0.47345700  0.50532200  0.25116800  1
  C  C76  1  0.52654300  0.00532200  0.24883200  1
  C  C77  1  0.15223300  0.32851200  0.42406500  1
  C  C78  1  0.25000000  0.75000000  0.99728200  1
  C  C79  1  0.57824200  0.41938200  0.42559000  1
  C  C80  1  0.86838300  0.47383100  0.57646000  1
  C  C81  1  0.07824200  0.58061800  0.07441000  1
  C  C82  1  0.79546800  0.87897200  0.42058500  1
  C  C83  1  0.92175800  0.41938200  0.92559000  1
  C  C84  1  0.75000000  0.25000000  0.50271800  1
  C  C85  1  0.70453200  0.87897200  0.92058500  1
  C  C86  1  0.57824200  0.08061800  0.92559000  1
  C  C87  1  0.36838300  0.52616900  0.92354000  1
  C  C88  1  0.97345700  0.00532200  0.74883200  1
  C  C89  1  0.13161700  0.52616900  0.42354000  1
  C  C90  1  0.52654300  0.49467800  0.74883200  1
  C  C91  1  0.34776700  0.32851200  0.92406500  1
  C  C92  1  0.63161700  0.02616900  0.57646000  1
  C  C93  1  0.29546800  0.12102800  0.07941500  1
  C  C94  1  0.84776700  0.67148800  0.57593500  1
  C  C95  1  0.63161700  0.47383100  0.07646000  1
  C  C96  1  0.86838300  0.02616900  0.07646000  1
  C  C97  1  0.36838300  0.97383100  0.42354000  1
  C  C98  1  0.84776700  0.82851200  0.07593500  1
  C  C99  1  0.42175800  0.58061800  0.57441000  1
  C  C100  1  0.70453200  0.62102800  0.42058500  1
  C  C101  1  0.79546800  0.62102800  0.92058500  1
  C  C102  1  0.97345700  0.49467800  0.24883200  1
  C  C103  1  0.47345700  0.99467800  0.75116800  1
  C  C104  1  0.07824200  0.91938200  0.57441000  1
  C  C105  1  0.34776700  0.17148800  0.42406500  1
  C  C106  1  0.02654300  0.50532200  0.75116800  1
  C  C107  1  0.02654300  0.99467800  0.25116800  1
  C  C108  1  0.15223300  0.17148800  0.92406500  1
  C  C109  1  0.92175800  0.08061800  0.42559000  1
  C  C110  1  0.20453200  0.12102800  0.57941500  1
  C  C111  1  0.65223300  0.67148800  0.07593500  1
