# generated using pymatgen
data_Cu2Ni4C9
_symmetry_space_group_name_H-M   'P 1'
_cell_length_a   7.12584700
_cell_length_b   9.78299100
_cell_length_c   12.46874800
_cell_angle_alpha   90.00000000
_cell_angle_beta   90.00000000
_cell_angle_gamma   90.00000000
_symmetry_Int_Tables_number   1
_chemical_formula_structural   Cu2Ni4C9
_chemical_formula_sum   'Cu8 Ni16 C36'
_cell_volume   869.22257090
_cell_formula_units_Z   4
loop_
 _symmetry_equiv_pos_site_id
 _symmetry_equiv_pos_as_xyz
  1  'x, y, z'
loop_
 _atom_site_type_symbol
 _atom_site_label
 _atom_site_symmetry_multiplicity
 _atom_site_fract_x
 _atom_site_fract_y
 _atom_site_fract_z
 _atom_site_occupancy
  C  C0  1  0.75000000  0.99134800  0.23867900  1
  C  C1  1  0.75000000  0.49134800  0.26132100  1
  C  C2  1  0.25000000  0.00865200  0.76132100  1
  C  C3  1  0.25000000  0.50865200  0.73867900  1
  C  C4  1  0.75000000  0.03082300  0.10788400  1
  C  C5  1  0.75000000  0.53082300  0.39211600  1
  C  C6  1  0.25000000  0.96917700  0.89211600  1
  C  C7  1  0.25000000  0.46917700  0.60788400  1
  C  C8  1  0.63151500  0.89035200  0.15245600  1
  C  C9  1  0.86848500  0.39035200  0.34754400  1
  C  C10  1  0.13151500  0.10964800  0.84754400  1
  C  C11  1  0.36848500  0.60964800  0.65245600  1
  C  C12  1  0.36848500  0.10964800  0.84754400  1
  C  C13  1  0.13151500  0.60964800  0.65245600  1
  C  C14  1  0.86848500  0.89035200  0.15245600  1
  C  C15  1  0.63151500  0.39035200  0.34754400  1
  C  C16  1  0.75000000  0.74498300  0.83398500  1
  C  C17  1  0.75000000  0.24498300  0.66601500  1
  C  C18  1  0.25000000  0.25501700  0.16601500  1
  C  C19  1  0.25000000  0.75501700  0.33398500  1
  C  C20  1  0.75000000  0.57326000  0.84674600  1
  C  C21  1  0.75000000  0.07326000  0.65325400  1
  C  C22  1  0.25000000  0.42674000  0.15325400  1
  C  C23  1  0.25000000  0.92674000  0.34674600  1
  C  C24  1  0.63078600  0.67041700  0.93547200  1
  C  C25  1  0.86921400  0.17041700  0.56452800  1
  C  C26  1  0.13078600  0.32958300  0.06452800  1
  C  C27  1  0.36921400  0.82958300  0.43547200  1
  C  C28  1  0.36921400  0.32958300  0.06452800  1
  C  C29  1  0.13078600  0.82958300  0.43547200  1
  C  C30  1  0.86921400  0.67041700  0.93547200  1
  C  C31  1  0.63078600  0.17041700  0.56452800  1
  C  C32  1  0.75000000  0.25216400  0.92844700  1
  C  C33  1  0.75000000  0.75216400  0.57155300  1
  C  C34  1  0.25000000  0.74783600  0.07155300  1
  C  C35  1  0.25000000  0.24783600  0.42844700  1
  Ni  Ni36  1  0.75000000  0.03164500  0.88982900  1
  Ni  Ni37  1  0.75000000  0.53164500  0.61017100  1
  Ni  Ni38  1  0.25000000  0.96835500  0.11017100  1
  Ni  Ni39  1  0.25000000  0.46835500  0.38982900  1
  Ni  Ni40  1  0.75000000  0.28183800  0.10375900  1
  Ni  Ni41  1  0.75000000  0.78183800  0.39624100  1
  Ni  Ni42  1  0.25000000  0.71816200  0.89624100  1
  Ni  Ni43  1  0.25000000  0.21816200  0.60375900  1
  Ni  Ni44  1  0.49858600  0.34984500  0.85950700  1
  Ni  Ni45  1  0.00141400  0.84984500  0.64049300  1
  Ni  Ni46  1  0.99858600  0.65015500  0.14049300  1
  Ni  Ni47  1  0.50141400  0.15015500  0.35950700  1
  Ni  Ni48  1  0.50141400  0.65015500  0.14049300  1
  Ni  Ni49  1  0.99858600  0.15015500  0.35950700  1
  Ni  Ni50  1  0.00141400  0.34984500  0.85950700  1
  Ni  Ni51  1  0.49858600  0.84984500  0.64049300  1
  Cu  Cu52  1  0.75000000  0.95077400  0.16238100  1
  Cu  Cu53  1  0.75000000  0.45077400  0.33761900  1
  Cu  Cu54  1  0.25000000  0.04922600  0.83761900  1
  Cu  Cu55  1  0.25000000  0.54922600  0.66238100  1
  Cu  Cu56  1  0.75000000  0.66510800  0.88805700  1
  Cu  Cu57  1  0.75000000  0.16510800  0.61194300  1
  Cu  Cu58  1  0.25000000  0.33489200  0.11194300  1
  Cu  Cu59  1  0.25000000  0.83489200  0.38805700  1
