# generated using pymatgen
data_Cu3Ni8C7
_symmetry_space_group_name_H-M   'P 1'
_cell_length_a   6.51927400
_cell_length_b   6.52146400
_cell_length_c   11.47812756
_cell_angle_alpha   55.86524551
_cell_angle_beta   90.00000000
_cell_angle_gamma   90.00000000
_symmetry_Int_Tables_number   1
_chemical_formula_structural   Cu3Ni8C7
_chemical_formula_sum   'Cu6 Ni16 C14'
_cell_volume   403.92328442
_cell_formula_units_Z   2
loop_
 _symmetry_equiv_pos_site_id
 _symmetry_equiv_pos_as_xyz
  1  'x, y, z'
loop_
 _atom_site_type_symbol
 _atom_site_label
 _atom_site_symmetry_multiplicity
 _atom_site_fract_x
 _atom_site_fract_y
 _atom_site_fract_z
 _atom_site_occupancy
  C  C0  1  0.50000000  0.00000000  0.50000000  1
  C  C1  1  0.00000000  0.00000000  0.00000000  1
  Ni  Ni2  1  0.42517100  0.89196200  0.16316900  1
  Ni  Ni3  1  0.07482900  0.89196200  0.66316900  1
  Ni  Ni4  1  0.57482900  0.10803800  0.83683100  1
  Ni  Ni5  1  0.92517100  0.10803800  0.33683100  1
  Ni  Ni6  1  0.47047900  0.74870300  0.33720000  1
  Ni  Ni7  1  0.02952100  0.74870300  0.83720000  1
  Ni  Ni8  1  0.52952100  0.25129700  0.66280000  1
  Ni  Ni9  1  0.97047900  0.25129700  0.16280000  1
  Ni  Ni10  1  0.66638800  0.78533200  0.22854900  1
  Ni  Ni11  1  0.83361200  0.78533200  0.72854900  1
  Ni  Ni12  1  0.33361200  0.21466800  0.77145100  1
  Ni  Ni13  1  0.16638800  0.21466800  0.27145100  1
  Ni  Ni14  1  0.47922600  0.58200700  0.26510800  1
  Ni  Ni15  1  0.02077400  0.58200700  0.76510800  1
  Ni  Ni16  1  0.52077400  0.41799300  0.73489200  1
  Ni  Ni17  1  0.97922600  0.41799300  0.23489200  1
  Cu  Cu18  1  0.00000000  0.50000000  0.50000000  1
  Cu  Cu19  1  0.50000000  0.50000000  0.00000000  1
  Cu  Cu20  1  0.51059800  0.75281200  0.24876200  1
  Cu  Cu21  1  0.98940200  0.75281200  0.74876200  1
  Cu  Cu22  1  0.48940200  0.24718800  0.75123800  1
  Cu  Cu23  1  0.01059800  0.24718800  0.25123800  1
  C  C24  1  0.76458800  0.89878900  0.45287800  1
  C  C25  1  0.73541200  0.89878900  0.95287800  1
  C  C26  1  0.23541200  0.10121100  0.54712200  1
  C  C27  1  0.26458800  0.10121100  0.04712200  1
  C  C28  1  0.45413500  0.28065900  0.29403700  1
  C  C29  1  0.04586500  0.28065900  0.79403700  1
  C  C30  1  0.54586500  0.71934100  0.70596300  1
  C  C31  1  0.95413500  0.71934100  0.20596300  1
  C  C32  1  0.34545400  0.76514500  0.46723200  1
  C  C33  1  0.15454600  0.76514500  0.96723200  1
  C  C34  1  0.65454600  0.23485500  0.53276800  1
  C  C35  1  0.84545400  0.23485500  0.03276800  1
