# generated using pymatgen
data_Cu3NiC14
_symmetry_space_group_name_H-M   'P 1'
_cell_length_a   11.55121409
_cell_length_b   11.55121409
_cell_length_c   7.12744036
_cell_angle_alpha   73.66393824
_cell_angle_beta   73.66393824
_cell_angle_gamma   34.18845083
_symmetry_Int_Tables_number   1
_chemical_formula_structural   Cu3NiC14
_chemical_formula_sum   'Cu6 Ni2 C28'
_cell_volume   510.73117857
_cell_formula_units_Z   2
loop_
 _symmetry_equiv_pos_site_id
 _symmetry_equiv_pos_as_xyz
  1  'x, y, z'
loop_
 _atom_site_type_symbol
 _atom_site_label
 _atom_site_symmetry_multiplicity
 _atom_site_fract_x
 _atom_site_fract_y
 _atom_site_fract_z
 _atom_site_occupancy
  C  C0  1  0.99347800  0.28635700  0.34303200  1
  C  C1  1  0.71364300  0.00652200  0.15696800  1
  C  C2  1  0.00652200  0.71364300  0.65696800  1
  C  C3  1  0.28635700  0.99347800  0.84303200  1
  Ni  Ni4  1  0.50000000  0.50000000  0.00000000  1
  Ni  Ni5  1  0.50000000  0.50000000  0.50000000  1
  Cu  Cu6  1  0.85901100  0.14098900  0.75000000  1
  Cu  Cu7  1  0.14098900  0.85901100  0.25000000  1
  Cu  Cu8  1  0.13582900  0.50122300  0.19493500  1
  Cu  Cu9  1  0.49877700  0.86417100  0.30506500  1
  Cu  Cu10  1  0.86417100  0.49877700  0.80506500  1
  Cu  Cu11  1  0.50122300  0.13582900  0.69493500  1
  C  C12  1  0.03876900  0.06572900  0.78854900  1
  C  C13  1  0.93427100  0.96123100  0.71145100  1
  C  C14  1  0.96123100  0.93427100  0.21145100  1
  C  C15  1  0.06572900  0.03876900  0.28854900  1
  C  C16  1  0.75865200  0.31194700  0.57289100  1
  C  C17  1  0.68805300  0.24134800  0.92710900  1
  C  C18  1  0.24134800  0.68805300  0.42710900  1
  C  C19  1  0.31194700  0.75865200  0.07289100  1
  C  C20  1  0.01658800  0.64232800  0.36202100  1
  C  C21  1  0.35767200  0.98341200  0.13797900  1
  C  C22  1  0.98341200  0.35767200  0.63797900  1
  C  C23  1  0.64232800  0.01658800  0.86202100  1
  C  C24  1  0.33984600  0.36823600  0.67765400  1
  C  C25  1  0.63176400  0.66015400  0.82234600  1
  C  C26  1  0.66015400  0.63176400  0.32234600  1
  C  C27  1  0.36823600  0.33984600  0.17765400  1
  C  C28  1  0.66223300  0.03203600  0.50821300  1
  C  C29  1  0.96796400  0.33776700  0.99178700  1
  C  C30  1  0.33776700  0.96796400  0.49178700  1
  C  C31  1  0.03203600  0.66223300  0.00821300  1
  C  C32  1  0.39596300  0.09957700  0.72418200  1
  C  C33  1  0.90042300  0.60403700  0.77581800  1
  C  C34  1  0.60403700  0.90042300  0.27581800  1
  C  C35  1  0.09957700  0.39596300  0.22418200  1
