# generated using pymatgen
data_CuNiC
_symmetry_space_group_name_H-M   'P 1'
_cell_length_a   4.69036746
_cell_length_b   4.69036746
_cell_length_c   6.74572482
_cell_angle_alpha   72.37633799
_cell_angle_beta   72.37633799
_cell_angle_gamma   68.92930026
_symmetry_Int_Tables_number   1
_chemical_formula_structural   CuNiC
_chemical_formula_sum   'Cu4 Ni4 C4'
_cell_volume   128.80527879
_cell_formula_units_Z   4
loop_
 _symmetry_equiv_pos_site_id
 _symmetry_equiv_pos_as_xyz
  1  'x, y, z'
loop_
 _atom_site_type_symbol
 _atom_site_label
 _atom_site_symmetry_multiplicity
 _atom_site_fract_x
 _atom_site_fract_y
 _atom_site_fract_z
 _atom_site_occupancy
  C  C0  1  0.26324900  0.22727600  0.92435800  1
  C  C1  1  0.22727600  0.26324900  0.42435800  1
  C  C2  1  0.73675100  0.77272400  0.07564200  1
  C  C3  1  0.77272400  0.73675100  0.57564200  1
  Ni  Ni4  1  0.59473700  0.40526300  0.75000000  1
  Ni  Ni5  1  0.40526300  0.59473700  0.25000000  1
  Ni  Ni6  1  0.81437600  0.18562400  0.75000000  1
  Ni  Ni7  1  0.18562400  0.81437600  0.25000000  1
  Cu  Cu8  1  0.27677900  0.44371500  0.87230900  1
  Cu  Cu9  1  0.44371500  0.27677900  0.37230900  1
  Cu  Cu10  1  0.72322100  0.55628500  0.12769100  1
  Cu  Cu11  1  0.55628500  0.72322100  0.62769100  1
