# generated using pymatgen
data_Cu3Ni6C31
_symmetry_space_group_name_H-M   'P 1'
_cell_length_a   17.34809050
_cell_length_b   17.34809050
_cell_length_c   17.34809097
_cell_angle_alpha   117.40072225
_cell_angle_beta   117.40072225
_cell_angle_gamma   117.40072333
_symmetry_Int_Tables_number   1
_chemical_formula_structural   Cu3Ni6C31
_chemical_formula_sum   'Cu12 Ni24 C124'
_cell_volume   2150.63776804
_cell_formula_units_Z   4
loop_
 _symmetry_equiv_pos_site_id
 _symmetry_equiv_pos_as_xyz
  1  'x, y, z'
loop_
 _atom_site_type_symbol
 _atom_site_label
 _atom_site_symmetry_multiplicity
 _atom_site_fract_x
 _atom_site_fract_y
 _atom_site_fract_z
 _atom_site_occupancy
  C  C0  1  0.50000000  0.00000000  0.50000000  1
  C  C1  1  0.00000000  0.00000000  0.00000000  1
  C  C2  1  0.50000000  0.50000000  0.00000000  1
  C  C3  1  0.00000000  0.50000000  0.50000000  1
  C  C4  1  0.32605300  0.09526900  0.56301300  1
  C  C5  1  0.94358600  0.11556800  0.47675500  1
  C  C6  1  0.54895800  0.61519100  0.32622100  1
  C  C7  1  0.23948300  0.64868600  0.01786900  1
  C  C8  1  0.67310100  0.95974400  0.87719400  1
  C  C9  1  0.40210500  0.69024200  0.56958700  1
  C  C10  1  0.48211600  0.66807400  0.54250400  1
  C  C11  1  0.93566000  0.75692000  0.71664800  1
  C  C12  1  0.58753200  0.98099600  0.80148300  1
  C  C13  1  0.71664800  0.93566000  0.75692000  1
  C  C14  1  0.64868600  0.01786900  0.23948300  1
  C  C15  1  0.52324500  0.05641400  0.88443200  1
  C  C16  1  0.30975800  0.43041300  0.59789500  1
  C  C17  1  0.94584000  0.03140500  0.55401400  1
  C  C18  1  0.01786900  0.23948300  0.64868600  1
  C  C19  1  0.67377900  0.45104200  0.38480900  1
  C  C20  1  0.62520300  0.94412500  0.67959200  1
  C  C21  1  0.03140500  0.55401400  0.94584000  1
  C  C22  1  0.20010300  0.06952400  0.44826500  1
  C  C23  1  0.88443200  0.52324500  0.05641400  1
  C  C24  1  0.61519100  0.32622100  0.54895800  1
  C  C25  1  0.95459200  0.80082200  0.13336800  1
  C  C26  1  0.05587500  0.32040800  0.37479700  1
  C  C27  1  0.93047600  0.55173500  0.79989700  1
  C  C28  1  0.90473100  0.43698700  0.67394700  1
  C  C29  1  0.43041300  0.59789500  0.30975800  1
  C  C30  1  0.12161000  0.63817800  0.24909900  1
  C  C31  1  0.04540800  0.19917800  0.86663200  1
  C  C32  1  0.55401400  0.94584000  0.03140500  1
  C  C33  1  0.45104200  0.38480900  0.67377900  1
  C  C34  1  0.59789500  0.30975800  0.43041300  1
  C  C35  1  0.06952400  0.44826500  0.20010300  1
  C  C36  1  0.66807400  0.54250400  0.48211600  1
  C  C37  1  0.86663200  0.04540800  0.19917800  1
  C  C38  1  0.67394700  0.90473100  0.43698700  1
  C  C39  1  0.69024200  0.56958700  0.40210500  1
  C  C40  1  0.05416000  0.96859500  0.44598600  1
  C  C41  1  0.92254400  0.55524300  0.19081700  1
  C  C42  1  0.89184100  0.34897500  0.11420300  1
  C  C43  1  0.35131400  0.98213100  0.76051700  1
  C  C44  1  0.56958700  0.40210500  0.69024200  1
  C  C45  1  0.87839000  0.36182200  0.75090100  1
  C  C46  1  0.96859500  0.44598600  0.05416000  1
  C  C47  1  0.45749600  0.51788400  0.33192600  1
  C  C48  1  0.12280600  0.32689900  0.04025600  1
  C  C49  1  0.88579700  0.10815900  0.65102500  1
  C  C50  1  0.04025600  0.12280600  0.32689900  1
  C  C51  1  0.44826500  0.20010300  0.06952400  1
  C  C52  1  0.44598600  0.05416000  0.96859500  1
  C  C53  1  0.55524300  0.19081700  0.92254400  1
  C  C54  1  0.19081700  0.92254400  0.55524300  1
  C  C55  1  0.63817800  0.24909900  0.12161000  1
  C  C56  1  0.06434000  0.24308000  0.28335200  1
  C  C57  1  0.54250400  0.48211600  0.66807400  1
  C  C58  1  0.24308000  0.28335200  0.06434000  1
  C  C59  1  0.76051700  0.35131400  0.98213100  1
  C  C60  1  0.28335200  0.06434000  0.24308000  1
  C  C61  1  0.38480900  0.67377900  0.45104200  1
  C  C62  1  0.80082200  0.13336800  0.95459200  1
  C  C63  1  0.24909900  0.12161000  0.63817800  1
  C  C64  1  0.94412500  0.67959200  0.62520300  1
  C  C65  1  0.55173500  0.79989700  0.93047600  1
  C  C66  1  0.80918300  0.07745600  0.44475700  1
  C  C67  1  0.43698700  0.67394700  0.90473100  1
  C  C68  1  0.95974400  0.87719400  0.67310100  1
  C  C69  1  0.80148300  0.58753200  0.98099600  1
  C  C70  1  0.56301300  0.32605300  0.09526900  1
  C  C71  1  0.34897500  0.11420300  0.89184100  1
  C  C72  1  0.51788400  0.33192600  0.45749600  1
  C  C73  1  0.36182200  0.75090100  0.87839000  1
  C  C74  1  0.47675500  0.94358600  0.11556800  1
  C  C75  1  0.11556800  0.47675500  0.94358600  1
  C  C76  1  0.41246800  0.01900400  0.19851700  1
  C  C77  1  0.19851700  0.41246800  0.01900400  1
  C  C78  1  0.05641400  0.88443200  0.52324500  1
  C  C79  1  0.87719400  0.67310100  0.95974400  1
  C  C80  1  0.19917800  0.86663200  0.04540800  1
  C  C81  1  0.01900400  0.19851700  0.41246800  1
  C  C82  1  0.75692000  0.71664800  0.93566000  1
  C  C83  1  0.13336800  0.95459200  0.80082200  1
  C  C84  1  0.11420300  0.89184100  0.34897500  1
  C  C85  1  0.32622100  0.54895800  0.61519100  1
  C  C86  1  0.65102500  0.88579700  0.10815900  1
  C  C87  1  0.09526900  0.56301300  0.32605300  1
  C  C88  1  0.44475700  0.80918300  0.07745600  1
  C  C89  1  0.98099600  0.80148300  0.58753200  1
  C  C90  1  0.37479700  0.05587500  0.32040800  1
  C  C91  1  0.07745600  0.44475700  0.80918300  1
  C  C92  1  0.32040800  0.37479700  0.05587500  1
  C  C93  1  0.32689900  0.04025600  0.12280600  1
  C  C94  1  0.75090100  0.87839000  0.36182200  1
  C  C95  1  0.10815900  0.65102500  0.88579700  1
  C  C96  1  0.33192600  0.45749600  0.51788400  1
  C  C97  1  0.67959200  0.62520300  0.94412500  1
  C  C98  1  0.98213100  0.76051700  0.35131400  1
  C  C99  1  0.79989700  0.93047600  0.55173500  1
  C  C100  1  0.44262800  0.53858100  0.27938700  1
  C  C101  1  0.46141900  0.72061300  0.55737200  1
  C  C102  1  0.90903800  0.11552200  0.51608300  1
  C  C103  1  0.32518100  0.99852200  0.15452600  1
  C  C104  1  0.20105300  0.01594400  0.46484100  1
  C  C105  1  0.84547400  0.67481900  0.00147800  1
  C  C106  1  0.15452600  0.32518100  0.99852200  1
  C  C107  1  0.48391700  0.09096200  0.88447800  1
  C  C108  1  0.55737200  0.46141900  0.72061300  1
  C  C109  1  0.11552200  0.51608300  0.90903800  1
  C  C110  1  0.99852200  0.15452600  0.32518100  1
  C  C111  1  0.79894700  0.98405600  0.53515900  1
  C  C112  1  0.09096200  0.88447800  0.48391700  1
  C  C113  1  0.53515900  0.79894700  0.98405600  1
  C  C114  1  0.72061300  0.55737200  0.46141900  1
  C  C115  1  0.27938700  0.44262800  0.53858100  1
  C  C116  1  0.46484100  0.20105300  0.01594400  1
  C  C117  1  0.01594400  0.46484100  0.20105300  1
  C  C118  1  0.88447800  0.48391700  0.09096200  1
  C  C119  1  0.67481900  0.00147800  0.84547400  1
  C  C120  1  0.51608300  0.90903800  0.11552200  1
  C  C121  1  0.53858100  0.27938700  0.44262800  1
  C  C122  1  0.98405600  0.53515900  0.79894700  1
  C  C123  1  0.00147800  0.84547400  0.67481900  1
  Ni  Ni124  1  0.17382600  0.11137300  0.26377600  1
  Ni  Ni125  1  0.57696400  0.40145300  0.94244700  1
  Ni  Ni126  1  0.31455000  0.36254500  0.72317900  1
  Ni  Ni127  1  0.19429000  0.78326300  0.80552000  1
  Ni  Ni128  1  0.26377600  0.17382600  0.11137300  1
  Ni  Ni129  1  0.42303600  0.59854700  0.05755300  1
  Ni  Ni130  1  0.80552000  0.19429000  0.78326300  1
  Ni  Ni131  1  0.05755300  0.42303600  0.59854700  1
  Ni  Ni132  1  0.59854700  0.05755300  0.42303600  1
  Ni  Ni133  1  0.11137300  0.26377600  0.17382600  1
  Ni  Ni134  1  0.80571000  0.21673700  0.19448000  1
  Ni  Ni135  1  0.19448000  0.80571000  0.21673700  1
  Ni  Ni136  1  0.88862700  0.73622400  0.82617400  1
  Ni  Ni137  1  0.73622400  0.82617400  0.88862700  1
  Ni  Ni138  1  0.78326300  0.80552000  0.19429000  1
  Ni  Ni139  1  0.94244700  0.57696400  0.40145300  1
  Ni  Ni140  1  0.63745500  0.27682100  0.68545000  1
  Ni  Ni141  1  0.36254500  0.72317900  0.31455000  1
  Ni  Ni142  1  0.68545000  0.63745500  0.27682100  1
  Ni  Ni143  1  0.40145300  0.94244700  0.57696400  1
  Ni  Ni144  1  0.21673700  0.19448000  0.80571000  1
  Ni  Ni145  1  0.72317900  0.31455000  0.36254500  1
  Ni  Ni146  1  0.82617400  0.88862700  0.73622400  1
  Ni  Ni147  1  0.27682100  0.68545000  0.63745500  1
  Cu  Cu148  1  0.71143400  0.62634700  0.90620400  1
  Cu  Cu149  1  0.51294900  0.14897500  0.00421900  1
  Cu  Cu150  1  0.90620400  0.71143400  0.62634700  1
  Cu  Cu151  1  0.85102500  0.99578100  0.48705100  1
  Cu  Cu152  1  0.48705100  0.85102500  0.99578100  1
  Cu  Cu153  1  0.99578100  0.48705100  0.85102500  1
  Cu  Cu154  1  0.37365300  0.09379600  0.28856600  1
  Cu  Cu155  1  0.62634700  0.90620400  0.71143400  1
  Cu  Cu156  1  0.28856600  0.37365300  0.09379600  1
  Cu  Cu157  1  0.09379600  0.28856600  0.37365300  1
  Cu  Cu158  1  0.00421900  0.51294900  0.14897500  1
  Cu  Cu159  1  0.14897500  0.00421900  0.51294900  1
