# generated using pymatgen
data_Cu3Ni3C
_symmetry_space_group_name_H-M   'P 1'
_cell_length_a   11.02266600
_cell_length_b   11.02266600
_cell_length_c   21.56623600
_cell_angle_alpha   90.00000000
_cell_angle_beta   90.00000000
_cell_angle_gamma   90.00000000
_symmetry_Int_Tables_number   1
_chemical_formula_structural   Cu3Ni3C
_chemical_formula_sum   'Cu60 Ni60 C20'
_cell_volume   2620.27968231
_cell_formula_units_Z   20
loop_
 _symmetry_equiv_pos_site_id
 _symmetry_equiv_pos_as_xyz
  1  'x, y, z'
loop_
 _atom_site_type_symbol
 _atom_site_label
 _atom_site_symmetry_multiplicity
 _atom_site_fract_x
 _atom_site_fract_y
 _atom_site_fract_z
 _atom_site_occupancy
  C  C0  1  0.03620400  0.11805300  0.78228300  1
  C  C1  1  0.53620400  0.38194700  0.96771700  1
  C  C2  1  0.11805300  0.03620400  0.21771700  1
  C  C3  1  0.96379600  0.88194700  0.28228300  1
  C  C4  1  0.88194700  0.96379600  0.71771700  1
  C  C5  1  0.38194700  0.53620400  0.03228300  1
  C  C6  1  0.46379600  0.61805300  0.46771700  1
  C  C7  1  0.61805300  0.46379600  0.53228300  1
  C  C8  1  0.81342300  0.77983800  0.80247400  1
  C  C9  1  0.72016200  0.31342300  0.05247400  1
  C  C10  1  0.77983800  0.81342300  0.19752600  1
  C  C11  1  0.27983800  0.68657700  0.55247400  1
  C  C12  1  0.21150600  0.78849400  0.25000000  1
  C  C13  1  0.68657700  0.27983800  0.44752600  1
  C  C14  1  0.71150600  0.71150600  0.50000000  1
  C  C15  1  0.22016200  0.18657700  0.69752600  1
  C  C16  1  0.18657700  0.22016200  0.30247400  1
  C  C17  1  0.78849400  0.21150600  0.75000000  1
  C  C18  1  0.28849400  0.28849400  0.00000000  1
  C  C19  1  0.31342300  0.72016200  0.94752600  1
  Ni  Ni20  1  0.72470900  0.14981200  0.83505700  1
  Ni  Ni21  1  0.84351800  0.84351800  0.50000000  1
  Ni  Ni22  1  0.11233800  0.64842400  0.29229300  1
  Ni  Ni23  1  0.16543000  0.71408700  0.47773100  1
  Ni  Ni24  1  0.26872100  0.86073800  0.89105200  1
  Ni  Ni25  1  0.27529100  0.85018800  0.33505700  1
  Ni  Ni26  1  0.23127900  0.36073800  0.35894800  1
  Ni  Ni27  1  0.14981200  0.72470900  0.16494300  1
  Ni  Ni28  1  0.66164200  0.13382100  0.05207600  1
  Ni  Ni29  1  0.86073800  0.26872100  0.10894800  1
  Ni  Ni30  1  0.14842400  0.38766200  0.04229300  1
  Ni  Ni31  1  0.76872100  0.63926200  0.85894800  1
  Ni  Ni32  1  0.22470900  0.35018800  0.91494300  1
  Ni  Ni33  1  0.13382100  0.66164200  0.94792400  1
  Ni  Ni34  1  0.21408700  0.33457000  0.22773100  1
  Ni  Ni35  1  0.15648200  0.15648200  0.00000000  1
  Ni  Ni36  1  0.72535700  0.99443600  0.20034500  1
  Ni  Ni37  1  0.35157600  0.88766200  0.20770700  1
  Ni  Ni38  1  0.14557600  0.11804800  0.38158100  1
  Ni  Ni39  1  0.36073800  0.23127900  0.64105200  1
  Ni  Ni40  1  0.34351800  0.65648200  0.25000000  1
  Ni  Ni41  1  0.35442400  0.61804800  0.86841900  1
  Ni  Ni42  1  0.66543000  0.78591300  0.27226900  1
  Ni  Ni43  1  0.61804800  0.35442400  0.13158100  1
  Ni  Ni44  1  0.86617900  0.33835800  0.44792400  1
  Ni  Ni45  1  0.61233800  0.85157600  0.45770700  1
  Ni  Ni46  1  0.38766200  0.14842400  0.95770700  1
  Ni  Ni47  1  0.85442400  0.88195200  0.88158100  1
  Ni  Ni48  1  0.49443600  0.77464300  0.95034500  1
  Ni  Ni49  1  0.65648200  0.34351800  0.75000000  1
  Ni  Ni50  1  0.33835800  0.86617900  0.55207600  1
  Ni  Ni51  1  0.28591300  0.83457000  0.02226900  1
  Ni  Ni52  1  0.85157600  0.61233800  0.54229300  1
  Ni  Ni53  1  0.88195200  0.85442400  0.11841900  1
  Ni  Ni54  1  0.36617900  0.16164200  0.30207600  1
  Ni  Ni55  1  0.64557600  0.38195200  0.36841900  1
  Ni  Ni56  1  0.35018800  0.22470900  0.08505700  1
  Ni  Ni57  1  0.64842400  0.11233800  0.70770700  1
  Ni  Ni58  1  0.99443600  0.72535700  0.79965500  1
  Ni  Ni59  1  0.33457000  0.21408700  0.77226900  1
  Ni  Ni60  1  0.63926200  0.76872100  0.14105200  1
  Ni  Ni61  1  0.85018800  0.27529100  0.66494300  1
  Ni  Ni62  1  0.77529100  0.64981200  0.41494300  1
  Ni  Ni63  1  0.16164200  0.36617900  0.69792400  1
  Ni  Ni64  1  0.50556400  0.22535700  0.45034500  1
  Ni  Ni65  1  0.78591300  0.66543000  0.72773100  1
  Ni  Ni66  1  0.27464300  0.00556400  0.70034500  1
  Ni  Ni67  1  0.77464300  0.49443600  0.04965500  1
  Ni  Ni68  1  0.00556400  0.27464300  0.29965500  1
  Ni  Ni69  1  0.71408700  0.16543000  0.52226900  1
  Ni  Ni70  1  0.63382100  0.83835800  0.80207600  1
  Ni  Ni71  1  0.73127900  0.13926200  0.39105200  1
  Ni  Ni72  1  0.64981200  0.77529100  0.58505700  1
  Ni  Ni73  1  0.22535700  0.50556400  0.54965500  1
  Ni  Ni74  1  0.88766200  0.35157600  0.79229300  1
  Ni  Ni75  1  0.13926200  0.73127900  0.60894800  1
  Ni  Ni76  1  0.83457000  0.28591300  0.97773100  1
  Ni  Ni77  1  0.11804800  0.14557600  0.61841900  1
  Ni  Ni78  1  0.83835800  0.63382100  0.19792400  1
  Ni  Ni79  1  0.38195200  0.64557600  0.63158100  1
  Cu  Cu80  1  0.18507900  0.38150100  0.86782200  1
  Cu  Cu81  1  0.61859900  0.43431700  0.32379500  1
  Cu  Cu82  1  0.61849900  0.81492100  0.63217800  1
  Cu  Cu83  1  0.87112900  0.53349500  0.19746900  1
  Cu  Cu84  1  0.43732200  0.06632600  0.93595100  1
  Cu  Cu85  1  0.05772600  0.75649800  0.64115100  1
  Cu  Cu86  1  0.93367400  0.56267800  0.56404900  1
  Cu  Cu87  1  0.94227400  0.24350200  0.14115100  1
  Cu  Cu88  1  0.74350200  0.55772600  0.89115100  1
  Cu  Cu89  1  0.30539000  0.90480500  0.70270200  1
  Cu  Cu90  1  0.88150100  0.31492100  0.61782200  1
  Cu  Cu91  1  0.03349500  0.62887100  0.94746900  1
  Cu  Cu92  1  0.93431700  0.88140100  0.07379500  1
  Cu  Cu93  1  0.56568300  0.38140100  0.17620500  1
  Cu  Cu94  1  0.11859900  0.06568300  0.42620500  1
  Cu  Cu95  1  0.09519500  0.69461000  0.79729800  1
  Cu  Cu96  1  0.22401500  0.40518700  0.18768300  1
  Cu  Cu97  1  0.59481300  0.77598500  0.31231700  1
  Cu  Cu98  1  0.25649800  0.44227400  0.39115100  1
  Cu  Cu99  1  0.06267800  0.56632600  0.31404900  1
  Cu  Cu100  1  0.27598500  0.90518700  0.06231700  1
  Cu  Cu101  1  0.56267800  0.93367400  0.43595100  1
  Cu  Cu102  1  0.96650500  0.37112900  0.44746900  1
  Cu  Cu103  1  0.37112900  0.96650500  0.55253100  1
  Cu  Cu104  1  0.31492100  0.88150100  0.38217800  1
  Cu  Cu105  1  0.62887100  0.03349500  0.05253100  1
  Cu  Cu106  1  0.56632600  0.06267800  0.68595100  1
  Cu  Cu107  1  0.41778000  0.58222000  0.25000000  1
  Cu  Cu108  1  0.68507900  0.11849900  0.88217800  1
  Cu  Cu109  1  0.81492100  0.61849900  0.36782200  1
  Cu  Cu110  1  0.40518700  0.22401500  0.81231700  1
  Cu  Cu111  1  0.72401500  0.09481300  0.56231700  1
  Cu  Cu112  1  0.58222000  0.41778000  0.75000000  1
  Cu  Cu113  1  0.11849900  0.68507900  0.11782200  1
  Cu  Cu114  1  0.88140100  0.93431700  0.92620500  1
  Cu  Cu115  1  0.91778000  0.91778000  0.50000000  1
  Cu  Cu116  1  0.90480500  0.30539000  0.29729800  1
  Cu  Cu117  1  0.06568300  0.11859900  0.57379500  1
  Cu  Cu118  1  0.38150100  0.18507900  0.13217800  1
  Cu  Cu119  1  0.90518700  0.27598500  0.93768300  1
  Cu  Cu120  1  0.40480500  0.19461000  0.45270200  1
  Cu  Cu121  1  0.06632600  0.43732200  0.06404900  1
  Cu  Cu122  1  0.77598500  0.59481300  0.68768300  1
  Cu  Cu123  1  0.69461000  0.09519500  0.20270200  1
  Cu  Cu124  1  0.46650500  0.12887100  0.30253100  1
  Cu  Cu125  1  0.59519500  0.80539000  0.95270200  1
  Cu  Cu126  1  0.93732200  0.43367400  0.81404900  1
  Cu  Cu127  1  0.24350200  0.94227400  0.85884900  1
  Cu  Cu128  1  0.12887100  0.46650500  0.69746900  1
  Cu  Cu129  1  0.19461000  0.40480500  0.54729800  1
  Cu  Cu130  1  0.09481300  0.72401500  0.43768300  1
  Cu  Cu131  1  0.08222000  0.08222000  0.00000000  1
  Cu  Cu132  1  0.75649800  0.05772600  0.35884900  1
  Cu  Cu133  1  0.53349500  0.87112900  0.80253100  1
  Cu  Cu134  1  0.44227400  0.25649800  0.60884900  1
  Cu  Cu135  1  0.55772600  0.74350200  0.10884900  1
  Cu  Cu136  1  0.38140100  0.56568300  0.82379500  1
  Cu  Cu137  1  0.80539000  0.59519500  0.04729800  1
  Cu  Cu138  1  0.43367400  0.93732200  0.18595100  1
  Cu  Cu139  1  0.43431700  0.61859900  0.67620500  1
