# generated using pymatgen
data_CuNiC10
_symmetry_space_group_name_H-M   'P 1'
_cell_length_a   5.49687600
_cell_length_b   6.53590400
_cell_length_c   17.69202400
_cell_angle_alpha   90.00000000
_cell_angle_beta   90.00000000
_cell_angle_gamma   90.00000000
_symmetry_Int_Tables_number   1
_chemical_formula_structural   CuNiC10
_chemical_formula_sum   'Cu4 Ni4 C40'
_cell_volume   635.62229871
_cell_formula_units_Z   4
loop_
 _symmetry_equiv_pos_site_id
 _symmetry_equiv_pos_as_xyz
  1  'x, y, z'
loop_
 _atom_site_type_symbol
 _atom_site_label
 _atom_site_symmetry_multiplicity
 _atom_site_fract_x
 _atom_site_fract_y
 _atom_site_fract_z
 _atom_site_occupancy
  C  C0  1  0.75000000  0.93502200  0.26324700  1
  C  C1  1  0.75000000  0.43502200  0.23675300  1
  C  C2  1  0.25000000  0.06497800  0.73675300  1
  C  C3  1  0.25000000  0.56497800  0.76324700  1
  C  C4  1  0.60614100  0.25488900  0.37527100  1
  C  C5  1  0.89385900  0.75488900  0.12472900  1
  C  C6  1  0.10614100  0.74511100  0.62472900  1
  C  C7  1  0.39385900  0.24511100  0.87527100  1
  C  C8  1  0.39385900  0.74511100  0.62472900  1
  C  C9  1  0.10614100  0.24511100  0.87527100  1
  C  C10  1  0.89385900  0.25488900  0.37527100  1
  C  C11  1  0.60614100  0.75488900  0.12472900  1
  Ni  Ni12  1  0.25000000  0.77707200  0.42906100  1
  Ni  Ni13  1  0.25000000  0.27707200  0.07093900  1
  Ni  Ni14  1  0.75000000  0.22292800  0.57093900  1
  Ni  Ni15  1  0.75000000  0.72292800  0.92906100  1
  Cu  Cu16  1  0.25000000  0.61219900  0.34296600  1
  Cu  Cu17  1  0.25000000  0.11219900  0.15703400  1
  Cu  Cu18  1  0.75000000  0.38780100  0.65703400  1
  Cu  Cu19  1  0.75000000  0.88780100  0.84296600  1
  C  C20  1  0.75000000  0.21266300  0.34679100  1
  C  C21  1  0.75000000  0.71266300  0.15320900  1
  C  C22  1  0.25000000  0.78733700  0.65320900  1
  C  C23  1  0.25000000  0.28733700  0.84679100  1
  C  C24  1  0.25000000  0.40375200  0.37279800  1
  C  C25  1  0.25000000  0.90375200  0.12720200  1
  C  C26  1  0.75000000  0.59624800  0.62720200  1
  C  C27  1  0.75000000  0.09624800  0.87279800  1
  C  C28  1  0.47333400  0.67127700  0.30386400  1
  C  C29  1  0.02666600  0.17127700  0.19613600  1
  C  C30  1  0.97333400  0.32872300  0.69613600  1
  C  C31  1  0.52666600  0.82872300  0.80386400  1
  C  C32  1  0.52666600  0.32872300  0.69613600  1
  C  C33  1  0.97333400  0.82872300  0.80386400  1
  C  C34  1  0.02666600  0.67127700  0.30386400  1
  C  C35  1  0.47333400  0.17127700  0.19613600  1
  C  C36  1  0.25000000  0.97787300  0.40948100  1
  C  C37  1  0.25000000  0.47787300  0.09051900  1
  C  C38  1  0.75000000  0.02212700  0.59051900  1
  C  C39  1  0.75000000  0.52212700  0.90948100  1
  C  C40  1  0.45000300  0.73964600  0.47171400  1
  C  C41  1  0.04999700  0.23964600  0.02828600  1
  C  C42  1  0.95000300  0.26035400  0.52828600  1
  C  C43  1  0.54999700  0.76035400  0.97171400  1
  C  C44  1  0.54999700  0.26035400  0.52828600  1
  C  C45  1  0.95000300  0.76035400  0.97171400  1
  C  C46  1  0.04999700  0.73964600  0.47171400  1
  C  C47  1  0.45000300  0.23964600  0.02828600  1
