# generated using pymatgen
data_Cu48Ni2C31
_symmetry_space_group_name_H-M   'P 1'
_cell_length_a   13.78476200
_cell_length_b   9.72076200
_cell_length_c   9.75081759
_cell_angle_alpha   60.17154545
_cell_angle_beta   90.00000000
_cell_angle_gamma   90.00000000
_symmetry_Int_Tables_number   1
_chemical_formula_structural   Cu48Ni2C31
_chemical_formula_sum   'Cu48 Ni2 C31'
_cell_volume   1133.49439630
_cell_formula_units_Z   1
loop_
 _symmetry_equiv_pos_site_id
 _symmetry_equiv_pos_as_xyz
  1  'x, y, z'
loop_
 _atom_site_type_symbol
 _atom_site_label
 _atom_site_symmetry_multiplicity
 _atom_site_fract_x
 _atom_site_fract_y
 _atom_site_fract_z
 _atom_site_occupancy
  C  C0  1  0.00000000  0.02021500  0.72559600  1
  C  C1  1  0.50000000  0.02072400  0.73985700  1
  C  C2  1  0.00000000  0.29272900  0.95688700  1
  C  C3  1  0.50000000  0.27811400  0.95771400  1
  C  C4  1  0.87672300  0.67152400  0.67094200  1
  C  C5  1  0.12327700  0.67152400  0.67094200  1
  C  C6  1  0.63144300  0.65763900  0.68561800  1
  C  C7  1  0.36855700  0.65763900  0.68561800  1
  C  C8  1  0.74899500  0.25771400  0.74821600  1
  C  C9  1  0.25100500  0.25771400  0.74821600  1
  C  C10  1  0.50000000  0.73182300  0.25922900  1
  C  C11  1  0.87213300  0.34084900  0.34739100  1
  C  C12  1  0.63012100  0.32625800  0.35497400  1
  C  C13  1  0.36987900  0.32625800  0.35497400  1
  C  C14  1  0.12786700  0.34084900  0.34739100  1
  C  C15  1  0.75133600  0.74786000  0.97500500  1
  C  C16  1  0.24866400  0.74786000  0.97500500  1
  C  C17  1  0.75026800  0.02407900  0.26817500  1
  C  C18  1  0.24973200  0.02407900  0.26817500  1
  C  C19  1  0.74942800  0.39094000  0.97770800  1
  C  C20  1  0.25057200  0.39094000  0.97770800  1
  C  C21  1  0.74938100  0.96697000  0.63100700  1
  C  C22  1  0.25061900  0.96697000  0.63100700  1
  C  C23  1  0.00000000  0.36800700  0.60721100  1
  C  C24  1  0.50000000  0.38630600  0.58521300  1
  C  C25  1  0.25232500  0.64464200  0.39047700  1
  C  C26  1  0.74767500  0.64464200  0.39047700  1
  C  C27  1  0.00000000  0.02572600  0.36294600  1
  C  C28  1  0.50000000  0.03155200  0.37415400  1
  C  C29  1  0.00000000  0.59976200  0.03402500  1
  C  C30  1  0.50000000  0.58093700  0.03860700  1
  Ni  Ni31  1  0.64762900  0.98980700  0.01459500  1
  Ni  Ni32  1  0.35237100  0.98980700  0.01459500  1
  Cu  Cu33  1  0.84158200  0.91448300  0.75624300  1
  Cu  Cu34  1  0.64922600  0.89743900  0.73800700  1
  Cu  Cu35  1  0.35077400  0.89743900  0.73800700  1
  Cu  Cu36  1  0.15841800  0.91448300  0.75624300  1
  Cu  Cu37  1  0.00000000  0.65524000  0.85944200  1
  Cu  Cu38  1  0.50000000  0.63954100  0.86586300  1
  Cu  Cu39  1  0.76583900  0.58538300  0.87333500  1
  Cu  Cu40  1  0.23416100  0.58538300  0.87333500  1
  Cu  Cu41  1  0.83468400  0.29829400  0.93743400  1
  Cu  Cu42  1  0.34978300  0.36871000  0.89628600  1
  Cu  Cu43  1  0.65021700  0.36871000  0.89628600  1
  Cu  Cu44  1  0.16531600  0.29829400  0.93743400  1
  Cu  Cu45  1  0.24184900  0.86667700  0.53437200  1
  Cu  Cu46  1  0.75815100  0.86667700  0.53437200  1
  Cu  Cu47  1  0.00000000  0.49239400  0.67835600  1
  Cu  Cu48  1  0.50000000  0.51492900  0.64744300  1
  Cu  Cu49  1  0.00000000  0.85827100  0.49179200  1
  Cu  Cu50  1  0.50000000  0.85810200  0.48210200  1
  Cu  Cu51  1  0.76527300  0.54654900  0.56651500  1
  Cu  Cu52  1  0.23472700  0.54654900  0.56651500  1
  Cu  Cu53  1  0.90638400  0.24448100  0.67678100  1
  Cu  Cu54  1  0.40526000  0.26680000  0.64314600  1
  Cu  Cu55  1  0.09361600  0.24448100  0.67678100  1
  Cu  Cu56  1  0.59474000  0.26680000  0.64314600  1
  Cu  Cu57  1  0.65111600  0.72192900  0.37026300  1
  Cu  Cu58  1  0.17779800  0.76667300  0.31261800  1
  Cu  Cu59  1  0.82220200  0.76667300  0.31261800  1
  Cu  Cu60  1  0.34888400  0.72192900  0.37026300  1
  Cu  Cu61  1  0.00000000  0.44484000  0.41532100  1
  Cu  Cu62  1  0.50000000  0.47079200  0.38935800  1
  Cu  Cu63  1  0.75113100  0.15815400  0.50605400  1
  Cu  Cu64  1  0.24886900  0.15815400  0.50605400  1
  Cu  Cu65  1  0.74594200  0.53541200  0.32307700  1
  Cu  Cu66  1  0.25405800  0.53541200  0.32307700  1
  Cu  Cu67  1  0.00000000  0.12848000  0.43963600  1
  Cu  Cu68  1  0.50000000  0.11976500  0.46450100  1
  Cu  Cu69  1  0.08841600  0.65384400  0.07775300  1
  Cu  Cu70  1  0.91158400  0.65384400  0.07775300  1
  Cu  Cu71  1  0.58720600  0.63931700  0.08439600  1
  Cu  Cu72  1  0.41279400  0.63931700  0.08439600  1
  Cu  Cu73  1  0.00000000  0.41967100  0.12030500  1
  Cu  Cu74  1  0.50000000  0.40362000  0.12712600  1
  Cu  Cu75  1  0.74589300  0.32248900  0.16989500  1
  Cu  Cu76  1  0.25410700  0.32248900  0.16989500  1
  Cu  Cu77  1  0.08565600  0.06771200  0.25854200  1
  Cu  Cu78  1  0.91434400  0.06771200  0.25854200  1
  Cu  Cu79  1  0.58649900  0.08400200  0.27013500  1
  Cu  Cu80  1  0.41350100  0.08400200  0.27013500  1
