# generated using pymatgen
data_CuNiC3
_symmetry_space_group_name_H-M   'P 1'
_cell_length_a   6.98034100
_cell_length_b   15.06526300
_cell_length_c   20.71351000
_cell_angle_alpha   90.00000000
_cell_angle_beta   90.00000000
_cell_angle_gamma   90.00000000
_symmetry_Int_Tables_number   1
_chemical_formula_structural   CuNiC3
_chemical_formula_sum   'Cu32 Ni32 C96'
_cell_volume   2178.24665168
_cell_formula_units_Z   32
loop_
 _symmetry_equiv_pos_site_id
 _symmetry_equiv_pos_as_xyz
  1  'x, y, z'
loop_
 _atom_site_type_symbol
 _atom_site_label
 _atom_site_symmetry_multiplicity
 _atom_site_fract_x
 _atom_site_fract_y
 _atom_site_fract_z
 _atom_site_occupancy
  C  C0  1  0.26045100  0.47043300  0.94299000  1
  C  C1  1  0.39397700  0.60366100  0.19335700  1
  C  C2  1  0.76045100  0.02956700  0.05701000  1
  C  C3  1  0.73954900  0.52956700  0.05701000  1
  C  C4  1  0.76045100  0.47043300  0.55701000  1
  C  C5  1  0.39397700  0.89633900  0.69335700  1
  C  C6  1  0.26045100  0.02956700  0.44299000  1
  C  C7  1  0.10602300  0.39633900  0.69335700  1
  C  C8  1  0.23954900  0.97043300  0.94299000  1
  C  C9  1  0.60602300  0.39633900  0.80664300  1
  C  C10  1  0.60602300  0.10366100  0.30664300  1
  C  C11  1  0.23954900  0.52956700  0.44299000  1
  C  C12  1  0.10602300  0.10366100  0.19335700  1
  C  C13  1  0.89397700  0.60366100  0.30664300  1
  C  C14  1  0.89397700  0.89633900  0.80664300  1
  C  C15  1  0.73954900  0.97043300  0.55701000  1
  C  C16  1  0.55878400  0.69843300  0.61175300  1
  C  C17  1  0.05878400  0.80156700  0.38824700  1
  C  C18  1  0.94121600  0.19843300  0.61175300  1
  C  C19  1  0.55878400  0.80156700  0.11175300  1
  C  C20  1  0.44121600  0.19843300  0.88824700  1
  C  C21  1  0.05878400  0.69843300  0.88824700  1
  C  C22  1  0.94121600  0.30156700  0.11175300  1
  C  C23  1  0.44121600  0.30156700  0.38824700  1
  Ni  Ni24  1  0.71611900  0.59158600  0.85304600  1
  Ni  Ni25  1  0.21611900  0.59158600  0.64695400  1
  Ni  Ni26  1  0.02999200  0.22455100  0.84100500  1
  Ni  Ni27  1  0.30549100  0.23592900  0.53207700  1
  Ni  Ni28  1  0.78388100  0.09158600  0.85304600  1
  Ni  Ni29  1  0.37668700  0.10783000  0.75853200  1
  Ni  Ni30  1  0.47000800  0.72455100  0.84100500  1
  Ni  Ni31  1  0.62331300  0.89217000  0.24146800  1
  Ni  Ni32  1  0.80549100  0.26407100  0.46792300  1
  Ni  Ni33  1  0.19450900  0.76407100  0.03207700  1
  Ni  Ni34  1  0.80549100  0.23592900  0.96792300  1
  Ni  Ni35  1  0.62331300  0.60783000  0.74146800  1
  Ni  Ni36  1  0.30549100  0.26407100  0.03207700  1
  Ni  Ni37  1  0.69450900  0.76407100  0.46792300  1
  Ni  Ni38  1  0.37668700  0.39217000  0.25853200  1
  Ni  Ni39  1  0.97000800  0.72455100  0.65899500  1
  Ni  Ni40  1  0.71611900  0.90841400  0.35304600  1
  Ni  Ni41  1  0.28388100  0.40841400  0.14695400  1
  Ni  Ni42  1  0.52999200  0.22455100  0.65899500  1
  Ni  Ni43  1  0.12331300  0.89217000  0.25853200  1
  Ni  Ni44  1  0.12331300  0.60783000  0.75853200  1
  Ni  Ni45  1  0.28388100  0.09158600  0.64695400  1
  Ni  Ni46  1  0.78388100  0.40841400  0.35304600  1
  Ni  Ni47  1  0.69450900  0.73592900  0.96792300  1
  Ni  Ni48  1  0.52999200  0.27544900  0.15899500  1
  Ni  Ni49  1  0.21611900  0.90841400  0.14695400  1
  Ni  Ni50  1  0.87668700  0.10783000  0.74146800  1
  Ni  Ni51  1  0.02999200  0.27544900  0.34100500  1
  Ni  Ni52  1  0.47000800  0.77544900  0.34100500  1
  Ni  Ni53  1  0.87668700  0.39217000  0.24146800  1
  Ni  Ni54  1  0.19450900  0.73592900  0.53207700  1
  Ni  Ni55  1  0.97000800  0.77544900  0.15899500  1
  Cu  Cu56  1  0.08363000  0.29353300  0.84617100  1
  Cu  Cu57  1  0.70276200  0.21168200  0.48229200  1
  Cu  Cu58  1  0.41637000  0.70646700  0.34617100  1
  Cu  Cu59  1  0.24901500  0.43656300  0.09881400  1
  Cu  Cu60  1  0.91637000  0.70646700  0.15382900  1
  Cu  Cu61  1  0.70276200  0.28831800  0.98229200  1
  Cu  Cu62  1  0.29723800  0.78831800  0.51770800  1
  Cu  Cu63  1  0.72334600  0.92680700  0.20860500  1
  Cu  Cu64  1  0.75098500  0.93656300  0.40118600  1
  Cu  Cu65  1  0.79723800  0.71168200  0.48229200  1
  Cu  Cu66  1  0.20276200  0.28831800  0.51770800  1
  Cu  Cu67  1  0.77665400  0.42680700  0.20860500  1
  Cu  Cu68  1  0.58363000  0.20646700  0.15382900  1
  Cu  Cu69  1  0.22334600  0.57319300  0.79139500  1
  Cu  Cu70  1  0.74901500  0.06343700  0.90118600  1
  Cu  Cu71  1  0.24901500  0.06343700  0.59881400  1
  Cu  Cu72  1  0.72334600  0.57319300  0.70860500  1
  Cu  Cu73  1  0.58363000  0.29353300  0.65382900  1
  Cu  Cu74  1  0.22334600  0.92680700  0.29139500  1
  Cu  Cu75  1  0.27665400  0.42680700  0.29139500  1
  Cu  Cu76  1  0.77665400  0.07319300  0.70860500  1
  Cu  Cu77  1  0.25098500  0.93656300  0.09881400  1
  Cu  Cu78  1  0.27665400  0.07319300  0.79139500  1
  Cu  Cu79  1  0.08363000  0.20646700  0.34617100  1
  Cu  Cu80  1  0.25098500  0.56343700  0.59881400  1
  Cu  Cu81  1  0.29723800  0.71168200  0.01770800  1
  Cu  Cu82  1  0.74901500  0.43656300  0.40118600  1
  Cu  Cu83  1  0.75098500  0.56343700  0.90118600  1
  Cu  Cu84  1  0.91637000  0.79353300  0.65382900  1
  Cu  Cu85  1  0.41637000  0.79353300  0.84617100  1
  Cu  Cu86  1  0.79723800  0.78831800  0.98229200  1
  Cu  Cu87  1  0.20276200  0.21168200  0.01770800  1
  C  C88  1  0.41837100  0.71450500  0.67467100  1
  C  C89  1  0.24427800  0.69936800  0.36961000  1
  C  C90  1  0.34719200  0.49814300  0.07591700  1
  C  C91  1  0.01677700  0.85828300  0.66943800  1
  C  C92  1  0.32118400  0.50921500  0.77166400  1
  C  C93  1  0.10323900  0.09907900  0.56955600  1
  C  C94  1  0.34719200  0.00185700  0.57591700  1
  C  C95  1  0.75564800  0.83709300  0.02948100  1
  C  C96  1  0.89676100  0.59907900  0.93044400  1
  C  C97  1  0.51677700  0.85828300  0.83056200  1
  C  C98  1  0.72986500  0.89692900  0.14996300  1
  C  C99  1  0.04677700  0.20524500  0.04984900  1
  C  C100  1  0.22986500  0.60307100  0.85003700  1
  C  C101  1  0.15280800  0.50185700  0.57591700  1
  C  C102  1  0.95322300  0.79475500  0.95015100  1
  C  C103  1  0.77013500  0.39692900  0.14996300  1
  C  C104  1  0.95322300  0.70524500  0.45015100  1
  C  C105  1  0.08162900  0.28549500  0.17467100  1
  C  C106  1  0.75572200  0.19936800  0.13039000  1
  C  C107  1  0.84719200  0.49814300  0.42408300  1
  C  C108  1  0.48322300  0.14171700  0.16943800  1
  C  C109  1  0.74435200  0.33709300  0.02948100  1
  C  C110  1  0.58162900  0.21450500  0.82532900  1
  C  C111  1  0.75564800  0.66290700  0.52948100  1
  C  C112  1  0.60323900  0.09907900  0.93044400  1
  C  C113  1  0.72986500  0.60307100  0.64996300  1
  C  C114  1  0.74427800  0.80063200  0.63039000  1
  C  C115  1  0.15280800  0.99814300  0.07591700  1
  C  C116  1  0.01677700  0.64171700  0.16943800  1
  C  C117  1  0.54677700  0.20524500  0.45015100  1
  C  C118  1  0.41837100  0.78549500  0.17467100  1
  C  C119  1  0.67881600  0.00921500  0.72833600  1
  C  C120  1  0.25572200  0.19936800  0.36961000  1
  C  C121  1  0.39676100  0.90092100  0.06955600  1
  C  C122  1  0.17881600  0.49078500  0.27166400  1
  C  C123  1  0.82118400  0.50921500  0.72833600  1
  C  C124  1  0.24427800  0.80063200  0.86961000  1
  C  C125  1  0.10323900  0.40092100  0.06955600  1
  C  C126  1  0.74427800  0.69936800  0.13039000  1
  C  C127  1  0.75572200  0.30063200  0.63039000  1
  C  C128  1  0.17881600  0.00921500  0.77166400  1
  C  C129  1  0.74435200  0.16290700  0.52948100  1
  C  C130  1  0.84719200  0.00185700  0.92408300  1
  C  C131  1  0.27013500  0.10307100  0.85003700  1
  C  C132  1  0.04677700  0.29475500  0.54984900  1
  C  C133  1  0.65280800  0.99814300  0.42408300  1
  C  C134  1  0.98322300  0.35828300  0.83056200  1
  C  C135  1  0.27013500  0.39692900  0.35003700  1
  C  C136  1  0.25564800  0.83709300  0.47051900  1
  C  C137  1  0.51677700  0.64171700  0.33056200  1
  C  C138  1  0.54677700  0.29475500  0.95015100  1
  C  C139  1  0.45322300  0.79475500  0.54984900  1
  C  C140  1  0.58162900  0.28549500  0.32532900  1
  C  C141  1  0.77013500  0.10307100  0.64996300  1
  C  C142  1  0.67881600  0.49078500  0.22833600  1
  C  C143  1  0.60323900  0.40092100  0.43044400  1
  C  C144  1  0.65280800  0.50185700  0.92408300  1
  C  C145  1  0.24435200  0.33709300  0.47051900  1
  C  C146  1  0.45322300  0.70524500  0.04984900  1
  C  C147  1  0.22986500  0.89692900  0.35003700  1
  C  C148  1  0.25572200  0.30063200  0.86961000  1
  C  C149  1  0.32118400  0.99078500  0.27166400  1
  C  C150  1  0.91837100  0.78549500  0.32532900  1
  C  C151  1  0.48322300  0.35828300  0.66943800  1
  C  C152  1  0.08162900  0.21450500  0.67467100  1
  C  C153  1  0.98322300  0.14171700  0.33056200  1
  C  C154  1  0.24435200  0.16290700  0.97051900  1
  C  C155  1  0.91837100  0.71450500  0.82532900  1
  C  C156  1  0.82118400  0.99078500  0.22833600  1
  C  C157  1  0.25564800  0.66290700  0.97051900  1
  C  C158  1  0.89676100  0.90092100  0.43044400  1
  C  C159  1  0.39676100  0.59907900  0.56955600  1
