# generated using pymatgen
data_Cu2NiC22
_symmetry_space_group_name_H-M   'P 1'
_cell_length_a   8.77090200
_cell_length_b   8.77090200
_cell_length_c   12.61897400
_cell_angle_alpha   90.00000000
_cell_angle_beta   90.00000000
_cell_angle_gamma   90.00000000
_symmetry_Int_Tables_number   1
_chemical_formula_structural   Cu2NiC22
_chemical_formula_sum   'Cu4 Ni2 C44'
_cell_volume   970.76154143
_cell_formula_units_Z   2
loop_
 _symmetry_equiv_pos_site_id
 _symmetry_equiv_pos_as_xyz
  1  'x, y, z'
loop_
 _atom_site_type_symbol
 _atom_site_label
 _atom_site_symmetry_multiplicity
 _atom_site_fract_x
 _atom_site_fract_y
 _atom_site_fract_z
 _atom_site_occupancy
  C  C0  1  0.23094400  0.27346800  0.29503900  1
  C  C1  1  0.76905600  0.72653200  0.29503900  1
  C  C2  1  0.27346800  0.76905600  0.79503900  1
  C  C3  1  0.72653200  0.23094400  0.79503900  1
  C  C4  1  0.23094400  0.72653200  0.29503900  1
  C  C5  1  0.76905600  0.27346800  0.29503900  1
  C  C6  1  0.27346800  0.23094400  0.79503900  1
  C  C7  1  0.72653200  0.76905600  0.79503900  1
  C  C8  1  0.00000000  0.00000000  0.93947600  1
  C  C9  1  0.00000000  0.00000000  0.43947600  1
  C  C10  1  0.50000000  0.50000000  0.54813600  1
  C  C11  1  0.50000000  0.50000000  0.04813600  1
  C  C12  1  0.25715100  0.72493500  0.03630800  1
  C  C13  1  0.74284900  0.27506500  0.03630800  1
  C  C14  1  0.27506500  0.25715100  0.53630800  1
  C  C15  1  0.72493500  0.74284900  0.53630800  1
  C  C16  1  0.27506500  0.74284900  0.53630800  1
  C  C17  1  0.72493500  0.25715100  0.53630800  1
  C  C18  1  0.25715100  0.27506500  0.03630800  1
  C  C19  1  0.74284900  0.72493500  0.03630800  1
  Ni  Ni20  1  0.50000000  0.50000000  0.80123300  1
  Ni  Ni21  1  0.50000000  0.50000000  0.30123300  1
  Cu  Cu22  1  0.00000000  0.00000000  0.68589900  1
  Cu  Cu23  1  0.00000000  0.00000000  0.18589900  1
  Cu  Cu24  1  0.00000000  0.50000000  0.50364200  1
  Cu  Cu25  1  0.50000000  0.00000000  0.00364200  1
  C  C26  1  0.00000000  0.69472100  0.41127700  1
  C  C27  1  0.00000000  0.30527900  0.41127700  1
  C  C28  1  0.30527900  0.00000000  0.91127700  1
  C  C29  1  0.69472100  0.00000000  0.91127700  1
  C  C30  1  0.50000000  0.19029900  0.09715600  1
  C  C31  1  0.50000000  0.80970100  0.09715600  1
  C  C32  1  0.19029900  0.50000000  0.59715600  1
  C  C33  1  0.80970100  0.50000000  0.59715600  1
  C  C34  1  0.00000000  0.80395500  0.09395900  1
  C  C35  1  0.00000000  0.19604500  0.09395900  1
  C  C36  1  0.19604500  0.00000000  0.59395900  1
  C  C37  1  0.80395500  0.00000000  0.59395900  1
  C  C38  1  0.50000000  0.29854800  0.39974100  1
  C  C39  1  0.50000000  0.70145200  0.39974100  1
  C  C40  1  0.29854800  0.50000000  0.89974100  1
  C  C41  1  0.70145200  0.50000000  0.89974100  1
  C  C42  1  0.00000000  0.19265000  0.77735900  1
  C  C43  1  0.00000000  0.80735000  0.77735900  1
  C  C44  1  0.80735000  0.00000000  0.27735900  1
  C  C45  1  0.19265000  0.00000000  0.27735900  1
  C  C46  1  0.50000000  0.69886300  0.70222700  1
  C  C47  1  0.50000000  0.30113700  0.70222700  1
  C  C48  1  0.69886300  0.50000000  0.20222700  1
  C  C49  1  0.30113700  0.50000000  0.20222700  1
