# generated using pymatgen
data_Cu3NiC7
_symmetry_space_group_name_H-M   'P 1'
_cell_length_a   6.91993542
_cell_length_b   6.91993542
_cell_length_c   6.91993529
_cell_angle_alpha   91.24169572
_cell_angle_beta   91.24169572
_cell_angle_gamma   91.24169178
_symmetry_Int_Tables_number   1
_chemical_formula_structural   Cu3NiC7
_chemical_formula_sum   'Cu6 Ni2 C14'
_cell_volume   331.12774097
_cell_formula_units_Z   2
loop_
 _symmetry_equiv_pos_site_id
 _symmetry_equiv_pos_as_xyz
  1  'x, y, z'
loop_
 _atom_site_type_symbol
 _atom_site_label
 _atom_site_symmetry_multiplicity
 _atom_site_fract_x
 _atom_site_fract_y
 _atom_site_fract_z
 _atom_site_occupancy
  Ni  Ni0  1  0.75000000  0.75000000  0.75000000  1
  Ni  Ni1  1  0.25000000  0.25000000  0.25000000  1
  Cu  Cu2  1  0.75000000  0.10079700  0.39920300  1
  Cu  Cu3  1  0.39920300  0.75000000  0.10079700  1
  Cu  Cu4  1  0.10079700  0.39920300  0.75000000  1
  Cu  Cu5  1  0.25000000  0.89920300  0.60079700  1
  Cu  Cu6  1  0.60079700  0.25000000  0.89920300  1
  Cu  Cu7  1  0.89920300  0.60079700  0.25000000  1
  C  C8  1  0.00000000  0.00000000  0.00000000  1
  C  C9  1  0.50000000  0.50000000  0.50000000  1
  C  C10  1  0.92763400  0.05384000  0.71942100  1
  C  C11  1  0.71942100  0.92763400  0.05384000  1
  C  C12  1  0.05384000  0.71942100  0.92763400  1
  C  C13  1  0.57236600  0.78057900  0.44616000  1
  C  C14  1  0.44616000  0.57236600  0.78057900  1
  C  C15  1  0.78057900  0.44616000  0.57236600  1
  C  C16  1  0.07236600  0.94616000  0.28057900  1
  C  C17  1  0.28057900  0.07236600  0.94616000  1
  C  C18  1  0.94616000  0.28057900  0.07236600  1
  C  C19  1  0.42763400  0.21942100  0.55384000  1
  C  C20  1  0.21942100  0.55384000  0.42763400  1
  C  C21  1  0.55384000  0.42763400  0.21942100  1
