# generated using pymatgen
data_Cu(NiC6)2
_symmetry_space_group_name_H-M   'P 1'
_cell_length_a   13.87398175
_cell_length_b   13.87398175
_cell_length_c   3.87946000
_cell_angle_alpha   90.00000000
_cell_angle_beta   90.00000000
_cell_angle_gamma   163.86412868
_symmetry_Int_Tables_number   1
_chemical_formula_structural   Cu(NiC6)2
_chemical_formula_sum   'Cu1 Ni2 C12'
_cell_volume   207.53304020
_cell_formula_units_Z   1
loop_
 _symmetry_equiv_pos_site_id
 _symmetry_equiv_pos_as_xyz
  1  'x, y, z'
loop_
 _atom_site_type_symbol
 _atom_site_label
 _atom_site_symmetry_multiplicity
 _atom_site_fract_x
 _atom_site_fract_y
 _atom_site_fract_z
 _atom_site_occupancy
  Ni  Ni0  1  0.63554700  0.36445300  0.50000000  1
  Ni  Ni1  1  0.36445300  0.63554700  0.50000000  1
  Cu  Cu2  1  0.50000000  0.50000000  0.50000000  1
  C  C3  1  0.06091700  0.93908300  0.00000000  1
  C  C4  1  0.93908300  0.06091700  0.00000000  1
  C  C5  1  0.21260300  0.78739700  0.00000000  1
  C  C6  1  0.78739700  0.21260300  0.00000000  1
  C  C7  1  0.71845500  0.28154500  0.00000000  1
  C  C8  1  0.28154500  0.71845500  0.00000000  1
  C  C9  1  0.55149200  0.44850800  0.00000000  1
  C  C10  1  0.44850800  0.55149200  0.00000000  1
  C  C11  1  0.05161000  0.94839000  0.50000000  1
  C  C12  1  0.94839000  0.05161000  0.50000000  1
  C  C13  1  0.14524900  0.85475100  0.00000000  1
  C  C14  1  0.85475100  0.14524900  0.00000000  1
