# generated using pymatgen
data_Cu6NiC32
_symmetry_space_group_name_H-M   'P 1'
_cell_length_a   10.88446056
_cell_length_b   10.88446056
_cell_length_c   8.00524455
_cell_angle_alpha   81.40874797
_cell_angle_beta   81.40874797
_cell_angle_gamma   124.20184177
_symmetry_Int_Tables_number   1
_chemical_formula_structural   Cu6NiC32
_chemical_formula_sum   'Cu6 Ni1 C32'
_cell_volume   743.33292145
_cell_formula_units_Z   1
loop_
 _symmetry_equiv_pos_site_id
 _symmetry_equiv_pos_as_xyz
  1  'x, y, z'
loop_
 _atom_site_type_symbol
 _atom_site_label
 _atom_site_symmetry_multiplicity
 _atom_site_fract_x
 _atom_site_fract_y
 _atom_site_fract_z
 _atom_site_occupancy
  Ni  Ni0  1  0.00000000  0.00000000  0.00000000  1
  C  C1  1  0.21487300  0.21487300  0.35885900  1
  C  C2  1  0.51593800  0.86362900  0.89688100  1
  C  C3  1  0.66639500  0.33360500  0.50000000  1
  C  C4  1  0.78512700  0.78512700  0.64114100  1
  C  C5  1  0.48406200  0.13637100  0.10311900  1
  C  C6  1  0.33360500  0.66639500  0.50000000  1
  C  C7  1  0.86362900  0.51593800  0.89688100  1
  C  C8  1  0.13637100  0.48406200  0.10311900  1
  Cu  Cu9  1  0.94428000  0.25977700  0.70833100  1
  Cu  Cu10  1  0.05572000  0.74022300  0.29166900  1
  Cu  Cu11  1  0.61253700  0.61253700  0.21325200  1
  Cu  Cu12  1  0.74022300  0.05572000  0.29166900  1
  Cu  Cu13  1  0.25977700  0.94428000  0.70833100  1
  Cu  Cu14  1  0.38746300  0.38746300  0.78674800  1
  C  C15  1  0.05943900  0.90889500  0.19228600  1
  C  C16  1  0.93518900  0.58459700  0.20741800  1
  C  C17  1  0.90889500  0.05943900  0.19228600  1
  C  C18  1  0.75705200  0.21693600  0.77084300  1
  C  C19  1  0.94056100  0.09110500  0.80771400  1
  C  C20  1  0.24294800  0.78306400  0.22915700  1
  C  C21  1  0.67698800  0.97729800  0.52557400  1
  C  C22  1  0.56249500  0.41321000  0.79955900  1
  C  C23  1  0.02270200  0.32301200  0.47442600  1
  C  C24  1  0.21693600  0.75705200  0.77084300  1
  C  C25  1  0.41540300  0.06481100  0.79258200  1
  C  C26  1  0.43750500  0.58679000  0.20044100  1
  C  C27  1  0.78507900  0.78507900  0.03591700  1
  C  C28  1  0.78306400  0.24294800  0.22915700  1
  C  C29  1  0.32301200  0.02270200  0.47442600  1
  C  C30  1  0.41321000  0.56249500  0.79955900  1
  C  C31  1  0.97729800  0.67698800  0.52557400  1
  C  C32  1  0.58459700  0.93518900  0.20741800  1
  C  C33  1  0.06481100  0.41540300  0.79258200  1
  C  C34  1  0.34953300  0.34953300  0.58511200  1
  C  C35  1  0.21492100  0.21492100  0.96408300  1
  C  C36  1  0.09110500  0.94056100  0.80771400  1
  C  C37  1  0.65046700  0.65046700  0.41488800  1
  C  C38  1  0.58679000  0.43750500  0.20044100  1
