# generated using pymatgen
data_Cu8Ni12C47
_symmetry_space_group_name_H-M   'P 1'
_cell_length_a   15.64684200
_cell_length_b   13.41195700
_cell_length_c   13.55671168
_cell_angle_alpha   74.31016397
_cell_angle_beta   90.00000000
_cell_angle_gamma   90.00000000
_symmetry_Int_Tables_number   1
_chemical_formula_structural   Cu8Ni12C47
_chemical_formula_sum   'Cu16 Ni24 C94'
_cell_volume   2738.93739559
_cell_formula_units_Z   2
loop_
 _symmetry_equiv_pos_site_id
 _symmetry_equiv_pos_as_xyz
  1  'x, y, z'
loop_
 _atom_site_type_symbol
 _atom_site_label
 _atom_site_symmetry_multiplicity
 _atom_site_fract_x
 _atom_site_fract_y
 _atom_site_fract_z
 _atom_site_occupancy
  C  C0  1  0.60155800  0.02280800  0.83352900  1
  C  C1  1  0.39844200  0.52280800  0.33352900  1
  C  C2  1  0.00884400  0.01280800  0.49727400  1
  C  C3  1  0.24737500  0.04914300  0.46334400  1
  C  C4  1  0.75427900  0.25058600  0.25116300  1
  C  C5  1  0.41015600  0.25492400  0.24816600  1
  C  C6  1  0.07242600  0.25619900  0.23538300  1
  C  C7  1  0.11098600  0.19519900  0.99396400  1
  C  C8  1  0.10989000  0.31542700  0.50634200  1
  C  C9  1  0.23433800  0.46559900  0.00108700  1
  C  C10  1  0.61721700  0.47481500  0.69563900  1
  C  C11  1  0.99115600  0.51280800  0.99727400  1
  C  C12  1  0.49967500  0.50086800  0.98131300  1
  C  C13  1  0.75262500  0.54914300  0.96334400  1
  C  C14  1  0.88901400  0.69519900  0.49396400  1
  C  C15  1  0.89011000  0.81542700  0.00634200  1
  C  C16  1  0.92757400  0.75619900  0.73538300  1
  C  C17  1  0.58984400  0.75492400  0.74816600  1
  C  C18  1  0.24572100  0.75058600  0.75116300  1
  C  C19  1  0.38278300  0.97481500  0.19563900  1
  C  C20  1  0.76566200  0.96559900  0.50108700  1
  C  C21  1  0.50032500  0.00086800  0.48131300  1
  Ni  Ni22  1  0.66234000  0.98697400  0.28290200  1
  Ni  Ni23  1  0.93599400  0.07861400  0.20936400  1
  Ni  Ni24  1  0.23412900  0.05212600  0.71798300  1
  Ni  Ni25  1  0.86234500  0.29796300  0.96589200  1
  Ni  Ni26  1  0.54842100  0.20909200  0.08507700  1
  Ni  Ni27  1  0.70424000  0.20323600  0.63614400  1
  Ni  Ni28  1  0.55998300  0.28950300  0.41377000  1
  Ni  Ni29  1  0.83071800  0.19177200  0.52671900  1
  Ni  Ni30  1  0.72881800  0.26078200  0.94094600  1
  Ni  Ni31  1  0.94441200  0.42366300  0.29426600  1
  Ni  Ni32  1  0.63378000  0.50448500  0.19226400  1
  Ni  Ni33  1  0.76587100  0.55212600  0.21798300  1
  Ni  Ni34  1  0.22717800  0.35991300  0.77362300  1
  Ni  Ni35  1  0.33766000  0.48697400  0.78290200  1
  Ni  Ni36  1  0.06400600  0.57861400  0.70936400  1
  Ni  Ni37  1  0.29576000  0.70323600  0.13614400  1
  Ni  Ni38  1  0.13765500  0.79796300  0.46589200  1
  Ni  Ni39  1  0.45157900  0.70909200  0.58507700  1
  Ni  Ni40  1  0.27118200  0.76078200  0.44094600  1
  Ni  Ni41  1  0.44001700  0.78950300  0.91377000  1
  Ni  Ni42  1  0.16928200  0.69177200  0.02671900  1
  Ni  Ni43  1  0.77282200  0.85991300  0.27362300  1
  Ni  Ni44  1  0.05558800  0.92366300  0.79426600  1
  Ni  Ni45  1  0.36622000  0.00448500  0.69226400  1
  Cu  Cu46  1  0.50182800  0.97223200  0.03748000  1
  Cu  Cu47  1  0.74910400  0.94461400  0.95694500  1
  Cu  Cu48  1  0.00379200  0.96991800  0.02217900  1
  Cu  Cu49  1  0.77689300  0.33612500  0.69440800  1
  Cu  Cu50  1  0.31849300  0.23448200  0.78666600  1
  Cu  Cu51  1  0.07110800  0.21717500  0.79136400  1
  Cu  Cu52  1  0.56347300  0.24657400  0.76614000  1
  Cu  Cu53  1  0.73965500  0.58010000  0.54049300  1
  Cu  Cu54  1  0.49817200  0.47223200  0.53748000  1
  Cu  Cu55  1  0.99620800  0.46991800  0.52217900  1
  Cu  Cu56  1  0.25089600  0.44461400  0.45694500  1
  Cu  Cu57  1  0.92889200  0.71717500  0.29136400  1
  Cu  Cu58  1  0.68150700  0.73448200  0.28666600  1
  Cu  Cu59  1  0.43652700  0.74657400  0.26614000  1
  Cu  Cu60  1  0.22310700  0.83612500  0.19440800  1
  Cu  Cu61  1  0.26034500  0.08010000  0.04049300  1
  C  C62  1  0.48096000  0.97120100  0.31975800  1
  C  C63  1  0.31669500  0.09335100  0.28925900  1
  C  C64  1  0.75023100  0.05973400  0.30104100  1
  C  C65  1  0.96344400  0.10122300  0.32501400  1
  C  C66  1  0.38547300  0.07216800  0.56370300  1
  C  C67  1  0.12746600  0.13252300  0.37730300  1
  C  C68  1  0.63378300  0.09794300  0.57169100  1
  C  C69  1  0.03111800  0.12964200  0.14533100  1
  C  C70  1  0.62898700  0.17456700  0.17333200  1
  C  C71  1  0.10115500  0.12963000  0.57870000  1
  C  C72  1  0.46038700  0.14126200  0.15037500  1
  C  C73  1  0.87041300  0.06592300  0.57035300  1
  C  C74  1  0.37017600  0.11035200  0.37553300  1
  C  C75  1  0.86977500  0.18245900  0.16089600  1
  C  C76  1  0.76662700  0.16270700  0.43392500  1
  C  C77  1  0.53007000  0.17639000  0.38285200  1
  C  C78  1  0.18070100  0.22055400  0.39340600  1
  C  C79  1  0.02013200  0.17570400  0.53220200  1
  C  C80  1  0.03476900  0.33197000  0.02428900  1
  C  C81  1  0.19222600  0.26574500  0.11489200  1
  C  C82  1  0.51695700  0.32866500  0.10350900  1
  C  C83  1  0.79397300  0.40398900  0.11517300  1
  C  C84  1  0.87233800  0.32478900  0.33002000  1
  C  C85  1  0.34564200  0.38642900  0.11534800  1
  C  C86  1  0.47840700  0.36546700  0.34095700  1
  C  C87  1  0.64623600  0.32870800  0.33540100  1
  C  C88  1  0.03772300  0.35877600  0.35251600  1
  C  C89  1  0.17217800  0.36105200  0.14395400  1
  C  C90  1  0.97500400  0.41185100  0.17411000  1
  C  C91  1  0.70657600  0.38399700  0.09955400  1
  C  C92  1  0.87009300  0.43307200  0.92334500  1
  C  C93  1  0.32536800  0.40783300  0.20954700  1
  C  C94  1  0.09983800  0.39081800  0.94956900  1
  C  C95  1  0.43240900  0.55618800  0.13776400  1
  C  C96  1  0.58884300  0.41320000  0.88173900  1
  C  C97  1  0.61452700  0.57216800  0.06370300  1
  C  C98  1  0.36565700  0.44239600  0.91180900  1
  C  C99  1  0.36621700  0.59794300  0.07169100  1
  C  C100  1  0.51904000  0.47120100  0.81975800  1
  C  C101  1  0.89884500  0.62963000  0.07870000  1
  C  C102  1  0.68330500  0.59335100  0.78925900  1
  C  C103  1  0.12958700  0.56592300  0.07035300  1
  C  C104  1  0.24976900  0.55973400  0.80104100  1
  C  C105  1  0.03655600  0.60122300  0.82501400  1
  C  C106  1  0.87253400  0.63252300  0.87730300  1
  C  C107  1  0.96888200  0.62964200  0.64533100  1
  C  C108  1  0.37101300  0.67456700  0.67333200  1
  C  C109  1  0.53961300  0.64126200  0.65037500  1
  C  C110  1  0.62982400  0.61035200  0.87553300  1
  C  C111  1  0.13022500  0.68245900  0.66089600  1
  C  C112  1  0.23337300  0.66270700  0.93392500  1
  C  C113  1  0.46993000  0.67639000  0.88285200  1
  C  C114  1  0.81929900  0.72055400  0.89340600  1
  C  C115  1  0.97986800  0.67570400  0.03220200  1
  C  C116  1  0.96523100  0.83197000  0.52428900  1
  C  C117  1  0.80777400  0.76574500  0.61489200  1
  C  C118  1  0.48304300  0.82866500  0.60350900  1
  C  C119  1  0.20602700  0.90398900  0.61517300  1
  C  C120  1  0.12766200  0.82478900  0.83002000  1
  C  C121  1  0.65435800  0.88642900  0.61534800  1
  C  C122  1  0.12990700  0.93307200  0.42334500  1
  C  C123  1  0.52159300  0.86546700  0.84095700  1
  C  C124  1  0.90016200  0.89081800  0.44956900  1
  C  C125  1  0.35376400  0.82870800  0.83540100  1
  C  C126  1  0.96227700  0.85877600  0.85251600  1
  C  C127  1  0.41115700  0.91320000  0.38173900  1
  C  C128  1  0.82782200  0.86105200  0.64395400  1
  C  C129  1  0.63434300  0.94239600  0.41180900  1
  C  C130  1  0.02499600  0.91185100  0.67411000  1
  C  C131  1  0.29342400  0.88399700  0.59955400  1
  C  C132  1  0.67463200  0.90783300  0.70954700  1
  C  C133  1  0.56759100  0.05618800  0.63776400  1
