# generated using pymatgen
data_Cu13NiC16
_symmetry_space_group_name_H-M   'P 1'
_cell_length_a   12.26611300
_cell_length_b   10.91951300
_cell_length_c   14.32736333
_cell_angle_alpha   66.06655437
_cell_angle_beta   90.00000000
_cell_angle_gamma   90.00000000
_symmetry_Int_Tables_number   1
_chemical_formula_structural   Cu13NiC16
_chemical_formula_sum   'Cu52 Ni4 C64'
_cell_volume   1754.00538736
_cell_formula_units_Z   4
loop_
 _symmetry_equiv_pos_site_id
 _symmetry_equiv_pos_as_xyz
  1  'x, y, z'
loop_
 _atom_site_type_symbol
 _atom_site_label
 _atom_site_symmetry_multiplicity
 _atom_site_fract_x
 _atom_site_fract_y
 _atom_site_fract_z
 _atom_site_occupancy
  C  C0  1  0.40050500  0.13562500  0.08268400  1
  C  C1  1  0.10840000  0.12761000  0.89637600  1
  C  C2  1  0.07701800  0.48096200  0.65605400  1
  C  C3  1  0.59949500  0.86437500  0.91731600  1
  C  C4  1  0.09949500  0.13562500  0.58268400  1
  C  C5  1  0.42298200  0.48096200  0.15605400  1
  C  C6  1  0.57701800  0.51903800  0.84394600  1
  C  C7  1  0.39160000  0.12761000  0.39637600  1
  C  C8  1  0.89160000  0.87239000  0.10362400  1
  C  C9  1  0.92298200  0.51903800  0.34394600  1
  C  C10  1  0.90050500  0.86437500  0.41731600  1
  C  C11  1  0.60840000  0.87239000  0.60362400  1
  C  C12  1  0.10615400  0.77057400  0.81374300  1
  C  C13  1  0.60615400  0.22942600  0.68625700  1
  C  C14  1  0.39384600  0.77057400  0.31374300  1
  C  C15  1  0.89384600  0.22942600  0.18625700  1
  C  C16  1  0.33947500  0.32334300  0.51474500  1
  C  C17  1  0.35139600  0.55918600  0.94010200  1
  C  C18  1  0.31925100  0.42025800  0.94786700  1
  C  C19  1  0.14683500  0.43493100  0.90538400  1
  C  C20  1  0.35203600  0.77106000  0.96629500  1
  C  C21  1  0.86381200  0.18950300  0.44117800  1
  C  C22  1  0.14796400  0.77106000  0.46629500  1
  C  C23  1  0.63618800  0.18950300  0.94117800  1
  C  C24  1  0.16052500  0.32334300  0.01474500  1
  C  C25  1  0.64860400  0.44081400  0.05989800  1
  C  C26  1  0.81925100  0.57974200  0.55213300  1
  C  C27  1  0.18074900  0.42025800  0.44786700  1
  C  C28  1  0.68074900  0.57974200  0.05213300  1
  C  C29  1  0.85316500  0.56506900  0.09461600  1
  C  C30  1  0.85139600  0.44081400  0.55989800  1
  C  C31  1  0.66052500  0.67665700  0.48525500  1
  C  C32  1  0.35316500  0.43493100  0.40538400  1
  C  C33  1  0.85203600  0.22894000  0.53370500  1
  C  C34  1  0.36381200  0.81049700  0.05882200  1
  C  C35  1  0.13618800  0.81049700  0.55882200  1
  C  C36  1  0.64796400  0.22894000  0.03370500  1
  C  C37  1  0.14860400  0.55918600  0.44010200  1
  C  C38  1  0.64683500  0.56506900  0.59461600  1
  C  C39  1  0.83947500  0.67665700  0.98525500  1
  C  C40  1  0.17547000  0.87317600  0.16686300  1
  C  C41  1  0.13174400  0.59682800  0.08322000  1
  C  C42  1  0.82453000  0.12682400  0.83313700  1
  C  C43  1  0.36825600  0.59682800  0.58322000  1
  C  C44  1  0.15987800  0.21043000  0.21919700  1
  C  C45  1  0.34012200  0.21043000  0.71919700  1
  C  C46  1  0.38864400  0.14378800  0.82963800  1
  C  C47  1  0.65987800  0.78957000  0.28080300  1
  C  C48  1  0.67547000  0.12682400  0.33313700  1
  C  C49  1  0.11135600  0.14378800  0.32963800  1
  C  C50  1  0.63174400  0.40317200  0.41678000  1
  C  C51  1  0.32453000  0.87317600  0.66686300  1
  C  C52  1  0.86825600  0.40317200  0.91678000  1
  C  C53  1  0.62643400  0.20891400  0.22532700  1
  C  C54  1  0.61135600  0.85621200  0.17036200  1
  C  C55  1  0.84012200  0.78957000  0.78080300  1
  C  C56  1  0.87356600  0.20891400  0.72532700  1
  C  C57  1  0.37356600  0.79108600  0.77467300  1
  C  C58  1  0.12643400  0.79108600  0.27467300  1
  C  C59  1  0.88864400  0.85621200  0.67036200  1
  C  C60  1  0.65389400  0.46542700  0.29573800  1
  C  C61  1  0.15389400  0.53457300  0.20426200  1
  C  C62  1  0.34610600  0.53457300  0.70426200  1
  C  C63  1  0.84610600  0.46542700  0.79573800  1
  Ni  Ni64  1  0.61579000  0.35699000  0.50637500  1
  Ni  Ni65  1  0.88421000  0.35699000  0.00637500  1
  Ni  Ni66  1  0.38421000  0.64301000  0.49362500  1
  Ni  Ni67  1  0.11579000  0.64301000  0.99362500  1
  Cu  Cu68  1  0.39410300  0.61178800  0.29805700  1
  Cu  Cu69  1  0.97366500  0.22740400  0.71385700  1
  Cu  Cu70  1  0.52633500  0.22740400  0.21385700  1
  Cu  Cu71  1  0.41380500  0.24753600  0.64806900  1
  Cu  Cu72  1  0.49245200  0.12123100  0.83111100  1
  Cu  Cu73  1  0.38988200  0.92768300  0.32943300  1
  Cu  Cu74  1  0.10589700  0.61178800  0.79805700  1
  Cu  Cu75  1  0.99245200  0.87876900  0.66888900  1
  Cu  Cu76  1  0.81082900  0.64634900  0.05550700  1
  Cu  Cu77  1  0.08619500  0.24753600  0.14806900  1
  Cu  Cu78  1  0.80145900  0.25094800  0.65255500  1
  Cu  Cu79  1  0.19854100  0.74905200  0.34744500  1
  Cu  Cu80  1  0.50754800  0.87876900  0.16888900  1
  Cu  Cu81  1  0.18917100  0.35365100  0.94449300  1
  Cu  Cu82  1  0.26025000  0.22116600  0.20565500  1
  Cu  Cu83  1  0.21884500  0.87594200  0.66575600  1
  Cu  Cu84  1  0.11904700  0.46815100  0.46310500  1
  Cu  Cu85  1  0.68917100  0.64634900  0.55550700  1
  Cu  Cu86  1  0.89726400  0.24379100  0.47352600  1
  Cu  Cu87  1  0.69854100  0.25094800  0.15255500  1
  Cu  Cu88  1  0.38553300  0.92993400  0.59272500  1
  Cu  Cu89  1  0.78115500  0.12405800  0.33424400  1
  Cu  Cu90  1  0.39726400  0.75620900  0.02647400  1
  Cu  Cu91  1  0.67028600  0.88388500  0.09407000  1
  Cu  Cu92  1  0.11446700  0.92993400  0.09272500  1
  Cu  Cu93  1  0.10273600  0.75620900  0.52647400  1
  Cu  Cu94  1  0.61904700  0.53184900  0.03689500  1
  Cu  Cu95  1  0.31082900  0.35365100  0.44449300  1
  Cu  Cu96  1  0.61011800  0.07231700  0.67056700  1
  Cu  Cu97  1  0.82971400  0.88388500  0.59407000  1
  Cu  Cu98  1  0.11011800  0.92768300  0.82943300  1
  Cu  Cu99  1  0.60589700  0.38821200  0.70194300  1
  Cu  Cu100  1  0.23975000  0.22116600  0.70565500  1
  Cu  Cu101  1  0.91380500  0.75246400  0.85193100  1
  Cu  Cu102  1  0.88988200  0.07231700  0.17056700  1
  Cu  Cu103  1  0.32971400  0.11611500  0.90593000  1
  Cu  Cu104  1  0.88095300  0.53184900  0.53689500  1
  Cu  Cu105  1  0.00754800  0.12123100  0.33111100  1
  Cu  Cu106  1  0.02633500  0.77259600  0.28614300  1
  Cu  Cu107  1  0.58619500  0.75246400  0.35193100  1
  Cu  Cu108  1  0.88553300  0.07006600  0.90727500  1
  Cu  Cu109  1  0.60273600  0.24379100  0.97352600  1
  Cu  Cu110  1  0.28115500  0.87594200  0.16575600  1
  Cu  Cu111  1  0.76025000  0.77883400  0.29434500  1
  Cu  Cu112  1  0.61446700  0.07006600  0.40727500  1
  Cu  Cu113  1  0.38095300  0.46815100  0.96310500  1
  Cu  Cu114  1  0.73975000  0.77883400  0.79434500  1
  Cu  Cu115  1  0.17028600  0.11611500  0.40593000  1
  Cu  Cu116  1  0.47366500  0.77259600  0.78614300  1
  Cu  Cu117  1  0.89410300  0.38821200  0.20194300  1
  Cu  Cu118  1  0.71884500  0.12405800  0.83424400  1
  Cu  Cu119  1  0.30145900  0.74905200  0.84744500  1
