# generated using pymatgen
data_CuNiC3
_symmetry_space_group_name_H-M   'P 1'
_cell_length_a   8.48329000
_cell_length_b   4.91301500
_cell_length_c   9.48355728
_cell_angle_alpha   81.78613552
_cell_angle_beta   90.00000000
_cell_angle_gamma   90.00000000
_symmetry_Int_Tables_number   1
_chemical_formula_structural   CuNiC3
_chemical_formula_sum   'Cu8 Ni8 C24'
_cell_volume   391.20602871
_cell_formula_units_Z   8
loop_
 _symmetry_equiv_pos_site_id
 _symmetry_equiv_pos_as_xyz
  1  'x, y, z'
loop_
 _atom_site_type_symbol
 _atom_site_label
 _atom_site_symmetry_multiplicity
 _atom_site_fract_x
 _atom_site_fract_y
 _atom_site_fract_z
 _atom_site_occupancy
  Ni  Ni0  1  0.97017800  0.07642000  0.77659100  1
  Ni  Ni1  1  0.84083300  0.40917500  0.27031200  1
  Ni  Ni2  1  0.47017800  0.42358000  0.22340900  1
  Ni  Ni3  1  0.02982200  0.92358000  0.22340900  1
  Ni  Ni4  1  0.15916700  0.59082500  0.72968800  1
  Ni  Ni5  1  0.65916700  0.90917500  0.27031200  1
  Ni  Ni6  1  0.34083300  0.09082500  0.72968800  1
  Ni  Ni7  1  0.52982200  0.57642000  0.77659100  1
  Cu  Cu8  1  0.34334200  0.80868800  0.44934900  1
  Cu  Cu9  1  0.83382800  0.51212200  0.99021700  1
  Cu  Cu10  1  0.16617200  0.48787800  0.00978300  1
  Cu  Cu11  1  0.84334200  0.69131200  0.55065100  1
  Cu  Cu12  1  0.65665800  0.19131200  0.55065100  1
  Cu  Cu13  1  0.15665800  0.30868800  0.44934900  1
  Cu  Cu14  1  0.66617200  0.01212200  0.99021700  1
  Cu  Cu15  1  0.33382800  0.98787800  0.00978300  1
  C  C16  1  0.48611700  0.70062700  0.36401900  1
  C  C17  1  0.81603400  0.35370000  0.60280700  1
  C  C18  1  0.15122300  0.26802300  0.62396200  1
  C  C19  1  0.18396600  0.64630000  0.39719300  1
  C  C20  1  0.68396600  0.85370000  0.60280700  1
  C  C21  1  0.30655700  0.65392400  0.10331100  1
  C  C22  1  0.99621100  0.59468500  0.10630100  1
  C  C23  1  0.31603400  0.14630000  0.39719300  1
  C  C24  1  0.69344300  0.34607600  0.89668900  1
  C  C25  1  0.68686300  0.65129100  0.11493800  1
  C  C26  1  0.01388300  0.20062700  0.36401900  1
  C  C27  1  0.80655700  0.84607600  0.89668900  1
  C  C28  1  0.51388300  0.29937300  0.63598100  1
  C  C29  1  0.50378900  0.09468500  0.10630100  1
  C  C30  1  0.65122300  0.23197700  0.37603800  1
  C  C31  1  0.19344300  0.15392400  0.10331100  1
  C  C32  1  0.34877700  0.76802300  0.62396200  1
  C  C33  1  0.18686300  0.84870900  0.88506200  1
  C  C34  1  0.00378900  0.40531500  0.89369900  1
  C  C35  1  0.98611700  0.79937300  0.63598100  1
  C  C36  1  0.31313700  0.34870900  0.88506200  1
  C  C37  1  0.84877700  0.73197700  0.37603800  1
  C  C38  1  0.49621100  0.90531500  0.89369900  1
  C  C39  1  0.81313700  0.15129100  0.11493800  1
