# generated using pymatgen
data_Cu(NiC3)2
_symmetry_space_group_name_H-M   'P 1'
_cell_length_a   7.55783995
_cell_length_b   7.55783995
_cell_length_c   8.00209467
_cell_angle_alpha   62.98248548
_cell_angle_beta   62.98248548
_cell_angle_gamma   90.09603976
_symmetry_Int_Tables_number   1
_chemical_formula_structural   Cu(NiC3)2
_chemical_formula_sum   'Cu2 Ni4 C12'
_cell_volume   350.08103998
_cell_formula_units_Z   2
loop_
 _symmetry_equiv_pos_site_id
 _symmetry_equiv_pos_as_xyz
  1  'x, y, z'
loop_
 _atom_site_type_symbol
 _atom_site_label
 _atom_site_symmetry_multiplicity
 _atom_site_fract_x
 _atom_site_fract_y
 _atom_site_fract_z
 _atom_site_occupancy
  Ni  Ni0  1  0.00000000  0.00000000  0.50000000  1
  Ni  Ni1  1  0.00000000  0.00000000  0.00000000  1
  Ni  Ni2  1  0.50000000  0.00000000  0.00000000  1
  Ni  Ni3  1  0.00000000  0.50000000  0.50000000  1
  Cu  Cu4  1  0.37473900  0.62526100  0.75000000  1
  Cu  Cu5  1  0.62526100  0.37473900  0.25000000  1
  C  C6  1  0.19491000  0.80509000  0.75000000  1
  C  C7  1  0.55358300  0.80431300  0.75257100  1
  C  C8  1  0.52944300  0.78122200  0.43702300  1
  C  C9  1  0.78122200  0.52944300  0.93702300  1
  C  C10  1  0.55463300  0.44536700  0.75000000  1
  C  C11  1  0.19568700  0.44641700  0.74742900  1
  C  C12  1  0.80431300  0.55358300  0.25257100  1
  C  C13  1  0.44536700  0.55463300  0.25000000  1
  C  C14  1  0.21877800  0.47055700  0.06297700  1
  C  C15  1  0.47055700  0.21877800  0.56297700  1
  C  C16  1  0.44641700  0.19568700  0.24742900  1
  C  C17  1  0.80509000  0.19491000  0.25000000  1
