# generated using pymatgen
data_CuNi3C7
_symmetry_space_group_name_H-M   'P 1'
_cell_length_a   8.22534849
_cell_length_b   8.22534849
_cell_length_c   6.23500686
_cell_angle_alpha   86.66831637
_cell_angle_beta   86.66831637
_cell_angle_gamma   114.15889758
_symmetry_Int_Tables_number   1
_chemical_formula_structural   CuNi3C7
_chemical_formula_sum   'Cu1 Ni3 C7'
_cell_volume   382.68382057
_cell_formula_units_Z   1
loop_
 _symmetry_equiv_pos_site_id
 _symmetry_equiv_pos_as_xyz
  1  'x, y, z'
loop_
 _atom_site_type_symbol
 _atom_site_label
 _atom_site_symmetry_multiplicity
 _atom_site_fract_x
 _atom_site_fract_y
 _atom_site_fract_z
 _atom_site_occupancy
  Ni  Ni0  1  0.50000000  0.50000000  0.00000000  1
  Ni  Ni1  1  0.00000000  0.50000000  0.00000000  1
  Ni  Ni2  1  0.50000000  0.00000000  0.00000000  1
  Cu  Cu3  1  0.00000000  0.00000000  0.00000000  1
  C  C4  1  0.50000000  0.50000000  0.50000000  1
  C  C5  1  0.25056600  0.50895900  0.32804200  1
  C  C6  1  0.23330200  0.23330200  0.75227300  1
  C  C7  1  0.50895900  0.25056600  0.32804200  1
  C  C8  1  0.74943400  0.49104100  0.67195800  1
  C  C9  1  0.76669800  0.76669800  0.24772700  1
  C  C10  1  0.49104100  0.74943400  0.67195800  1
