# generated using pymatgen
data_Cu2Ni2C9
_symmetry_space_group_name_H-M   'P 1'
_cell_length_a   7.98620200
_cell_length_b   8.28775700
_cell_length_c   9.03232400
_cell_angle_alpha   90.00000000
_cell_angle_beta   90.00000000
_cell_angle_gamma   90.00000000
_symmetry_Int_Tables_number   1
_chemical_formula_structural   Cu2Ni2C9
_chemical_formula_sum   'Cu8 Ni8 C36'
_cell_volume   597.82876502
_cell_formula_units_Z   4
loop_
 _symmetry_equiv_pos_site_id
 _symmetry_equiv_pos_as_xyz
  1  'x, y, z'
loop_
 _atom_site_type_symbol
 _atom_site_label
 _atom_site_symmetry_multiplicity
 _atom_site_fract_x
 _atom_site_fract_y
 _atom_site_fract_z
 _atom_site_occupancy
  C  C0  1  0.25000000  0.89166800  0.57644500  1
  C  C1  1  0.75000000  0.10833200  0.42355500  1
  C  C2  1  0.25000000  0.39166800  0.92355500  1
  C  C3  1  0.75000000  0.60833200  0.07644500  1
  Ni  Ni4  1  0.05767800  0.43748600  0.30930800  1
  Ni  Ni5  1  0.55767800  0.56251400  0.69069200  1
  Ni  Ni6  1  0.44232200  0.93748600  0.19069200  1
  Ni  Ni7  1  0.94232200  0.06251400  0.80930800  1
  Ni  Ni8  1  0.94232200  0.56251400  0.69069200  1
  Ni  Ni9  1  0.44232200  0.43748600  0.30930800  1
  Ni  Ni10  1  0.55767800  0.06251400  0.80930800  1
  Ni  Ni11  1  0.05767800  0.93748600  0.19069200  1
  Cu  Cu12  1  0.91852000  0.73265400  0.41463400  1
  Cu  Cu13  1  0.91852000  0.23265400  0.08536600  1
  Cu  Cu14  1  0.41852000  0.76734600  0.91463400  1
  Cu  Cu15  1  0.58148000  0.73265400  0.41463400  1
  Cu  Cu16  1  0.08148000  0.26734600  0.58536600  1
  Cu  Cu17  1  0.41852000  0.26734600  0.58536600  1
  Cu  Cu18  1  0.58148000  0.23265400  0.08536600  1
  Cu  Cu19  1  0.08148000  0.76734600  0.91463400  1
  C  C20  1  0.25000000  0.69907000  0.91453900  1
  C  C21  1  0.75000000  0.80093000  0.41453900  1
  C  C22  1  0.25000000  0.19907000  0.58546100  1
  C  C23  1  0.75000000  0.30093000  0.08546100  1
  C  C24  1  0.75000000  0.99677100  0.82609800  1
  C  C25  1  0.25000000  0.00322900  0.17390200  1
  C  C26  1  0.75000000  0.49677100  0.67390200  1
  C  C27  1  0.25000000  0.50322900  0.32609800  1
  C  C28  1  0.92807800  0.08953400  0.18118500  1
  C  C29  1  0.42807800  0.91046600  0.81881500  1
  C  C30  1  0.57192200  0.58953400  0.31881500  1
  C  C31  1  0.07192200  0.41046600  0.68118500  1
  C  C32  1  0.01335200  0.80190300  0.06533900  1
  C  C33  1  0.51335200  0.19809700  0.93466100  1
  C  C34  1  0.48664800  0.30190300  0.43466100  1
  C  C35  1  0.98664800  0.69809700  0.56533900  1
  C  C36  1  0.98664800  0.19809700  0.93466100  1
  C  C37  1  0.48664800  0.80190300  0.06533900  1
  C  C38  1  0.51335200  0.69809700  0.56533900  1
  C  C39  1  0.01335200  0.30190300  0.43466100  1
  C  C40  1  0.03430900  0.86387500  0.35835700  1
  C  C41  1  0.53430900  0.13612500  0.64164300  1
  C  C42  1  0.46569100  0.36387500  0.14164300  1
  C  C43  1  0.96569100  0.63612500  0.85835700  1
  C  C44  1  0.96569100  0.13612500  0.64164300  1
  C  C45  1  0.46569100  0.86387500  0.35835700  1
  C  C46  1  0.53430900  0.63612500  0.85835700  1
  C  C47  1  0.03430900  0.36387500  0.14164300  1
  C  C48  1  0.92807800  0.58953400  0.31881500  1
  C  C49  1  0.42807800  0.41046600  0.68118500  1
  C  C50  1  0.57192200  0.08953400  0.18118500  1
  C  C51  1  0.07192200  0.91046600  0.81881500  1
