# generated using pymatgen
data_Cu4NiC4
_symmetry_space_group_name_H-M   'P 1'
_cell_length_a   7.52267027
_cell_length_b   7.52267027
_cell_length_c   7.52267027
_cell_angle_alpha   99.01547472
_cell_angle_beta   99.01547472
_cell_angle_gamma   133.36137624
_symmetry_Int_Tables_number   1
_chemical_formula_structural   Cu4NiC4
_chemical_formula_sum   'Cu4 Ni1 C4'
_cell_volume   284.22595542
_cell_formula_units_Z   1
loop_
 _symmetry_equiv_pos_site_id
 _symmetry_equiv_pos_as_xyz
  1  'x, y, z'
loop_
 _atom_site_type_symbol
 _atom_site_label
 _atom_site_symmetry_multiplicity
 _atom_site_fract_x
 _atom_site_fract_y
 _atom_site_fract_z
 _atom_site_occupancy
  C  C0  1  0.33679400  0.33679400  0.33300000  1
  C  C1  1  0.66320600  0.99620600  0.00000000  1
  C  C2  1  0.00379400  0.00379400  0.66700000  1
  C  C3  1  0.99620600  0.66320600  0.00000000  1
  Ni  Ni4  1  0.50000000  0.50000000  0.00000000  1
  Cu  Cu5  1  0.44924700  0.27713200  0.00000000  1
  Cu  Cu6  1  0.55075300  0.55075300  0.82788500  1
  Cu  Cu7  1  0.72286800  0.72286800  0.17211500  1
  Cu  Cu8  1  0.27713200  0.44924700  0.00000000  1
