# generated using pymatgen
data_Cu2(NiC3)3
_symmetry_space_group_name_H-M   'P 1'
_cell_length_a   5.78607171
_cell_length_b   5.78607171
_cell_length_c   10.86263600
_cell_angle_alpha   90.00000000
_cell_angle_beta   90.00000000
_cell_angle_gamma   119.99999663
_symmetry_Int_Tables_number   1
_chemical_formula_structural   Cu2(NiC3)3
_chemical_formula_sum   'Cu4 Ni6 C18'
_cell_volume   314.94411398
_cell_formula_units_Z   2
loop_
 _symmetry_equiv_pos_site_id
 _symmetry_equiv_pos_as_xyz
  1  'x, y, z'
loop_
 _atom_site_type_symbol
 _atom_site_label
 _atom_site_symmetry_multiplicity
 _atom_site_fract_x
 _atom_site_fract_y
 _atom_site_fract_z
 _atom_site_occupancy
  C  C0  1  0.83509500  0.67019000  0.23229900  1
  C  C1  1  0.32981000  0.16490500  0.23229900  1
  C  C2  1  0.83509500  0.16490500  0.23229900  1
  C  C3  1  0.66666700  0.33333300  0.75125100  1
  C  C4  1  0.67019000  0.83509500  0.73229900  1
  C  C5  1  0.16490500  0.32981000  0.73229900  1
  C  C6  1  0.33333300  0.66666700  0.25125100  1
  C  C7  1  0.16490500  0.83509500  0.73229900  1
  Ni  Ni8  1  0.76287600  0.23712400  0.53889300  1
  Ni  Ni9  1  0.47424900  0.23712400  0.53889300  1
  Ni  Ni10  1  0.76287600  0.52575100  0.53889300  1
  Ni  Ni11  1  0.52575100  0.76287600  0.03889300  1
  Ni  Ni12  1  0.23712400  0.47424900  0.03889300  1
  Ni  Ni13  1  0.23712400  0.76287600  0.03889300  1
  Cu  Cu14  1  0.66666700  0.33333300  0.03131800  1
  Cu  Cu15  1  0.00000000  0.00000000  0.93909500  1
  Cu  Cu16  1  0.33333300  0.66666700  0.53131800  1
  Cu  Cu17  1  0.00000000  0.00000000  0.43909500  1
  C  C18  1  0.66666700  0.33333300  0.57190900  1
  C  C19  1  0.00000000  0.00000000  0.82036200  1
  C  C20  1  0.00000000  0.00000000  0.54933900  1
  C  C21  1  0.00000000  0.00000000  0.04933900  1
  C  C22  1  0.66666700  0.33333300  0.92182900  1
  C  C23  1  0.00000000  0.00000000  0.32036200  1
  C  C24  1  0.66666700  0.33333300  0.15052400  1
  C  C25  1  0.33333300  0.66666700  0.42182900  1
  C  C26  1  0.33333300  0.66666700  0.07190900  1
  C  C27  1  0.33333300  0.66666700  0.65052400  1
