# generated using pymatgen
data_CuNi2C9
_symmetry_space_group_name_H-M   'P 1'
_cell_length_a   3.90483400
_cell_length_b   3.90483400
_cell_length_c   13.05860400
_cell_angle_alpha   90.00000000
_cell_angle_beta   90.00000000
_cell_angle_gamma   90.00000000
_symmetry_Int_Tables_number   1
_chemical_formula_structural   CuNi2C9
_chemical_formula_sum   'Cu1 Ni2 C9'
_cell_volume   199.11404926
_cell_formula_units_Z   1
loop_
 _symmetry_equiv_pos_site_id
 _symmetry_equiv_pos_as_xyz
  1  'x, y, z'
loop_
 _atom_site_type_symbol
 _atom_site_label
 _atom_site_symmetry_multiplicity
 _atom_site_fract_x
 _atom_site_fract_y
 _atom_site_fract_z
 _atom_site_occupancy
  C  C0  1  0.50000000  0.50000000  0.22990600  1
  C  C1  1  0.50000000  0.50000000  0.77009400  1
  C  C2  1  0.50000000  0.50000000  0.50000000  1
  Ni  Ni3  1  0.00000000  0.00000000  0.38508800  1
  Ni  Ni4  1  0.00000000  0.00000000  0.61491200  1
  Cu  Cu5  1  0.00000000  0.00000000  0.00000000  1
  C  C6  1  0.00000000  0.00000000  0.84585200  1
  C  C7  1  0.00000000  0.00000000  0.15414800  1
  C  C8  1  0.50000000  0.00000000  0.62106900  1
  C  C9  1  0.00000000  0.50000000  0.62106900  1
  C  C10  1  0.50000000  0.00000000  0.37893100  1
  C  C11  1  0.00000000  0.50000000  0.37893100  1
