# generated using pymatgen
data_CuNiC
_symmetry_space_group_name_H-M   'P 1'
_cell_length_a   6.46673230
_cell_length_b   6.46673230
_cell_length_c   8.02976100
_cell_angle_alpha   90.00000000
_cell_angle_beta   90.00000000
_cell_angle_gamma   104.51389998
_symmetry_Int_Tables_number   1
_chemical_formula_structural   CuNiC
_chemical_formula_sum   'Cu8 Ni8 C8'
_cell_volume   325.07735291
_cell_formula_units_Z   8
loop_
 _symmetry_equiv_pos_site_id
 _symmetry_equiv_pos_as_xyz
  1  'x, y, z'
loop_
 _atom_site_type_symbol
 _atom_site_label
 _atom_site_symmetry_multiplicity
 _atom_site_fract_x
 _atom_site_fract_y
 _atom_site_fract_z
 _atom_site_occupancy
  C  C0  1  0.71729900  0.28270100  0.50000000  1
  C  C1  1  0.80547400  0.80547400  0.18523300  1
  C  C2  1  0.28270100  0.71729900  0.50000000  1
  C  C3  1  0.30547400  0.30547400  0.31476700  1
  C  C4  1  0.78270100  0.21729900  0.00000000  1
  C  C5  1  0.19452600  0.19452600  0.81476700  1
  C  C6  1  0.69452600  0.69452600  0.68523300  1
  C  C7  1  0.21729900  0.78270100  0.00000000  1
  Ni  Ni8  1  0.35695400  0.10186200  0.54439000  1
  Ni  Ni9  1  0.10186200  0.35695400  0.54439000  1
  Ni  Ni10  1  0.60186200  0.85695400  0.95561000  1
  Ni  Ni11  1  0.14304600  0.39813800  0.04439000  1
  Ni  Ni12  1  0.64304600  0.89813800  0.45561000  1
  Ni  Ni13  1  0.39813800  0.14304600  0.04439000  1
  Ni  Ni14  1  0.85695400  0.60186200  0.95561000  1
  Ni  Ni15  1  0.89813800  0.64304600  0.45561000  1
  Cu  Cu16  1  0.41695300  0.66960700  0.22689400  1
  Cu  Cu17  1  0.33039300  0.58304700  0.77310600  1
  Cu  Cu18  1  0.83039300  0.08304700  0.72689400  1
  Cu  Cu19  1  0.66960700  0.41695300  0.22689400  1
  Cu  Cu20  1  0.16960700  0.91695300  0.27310600  1
  Cu  Cu21  1  0.08304700  0.83039300  0.72689400  1
  Cu  Cu22  1  0.91695300  0.16960700  0.27310600  1
  Cu  Cu23  1  0.58304700  0.33039300  0.77310600  1
