# generated using pymatgen
data_Cu4Ni5C31
_symmetry_space_group_name_H-M   'P 1'
_cell_length_a   7.28909500
_cell_length_b   8.91684209
_cell_length_c   13.79810807
_cell_angle_alpha   77.00989107
_cell_angle_beta   81.22795882
_cell_angle_gamma   66.76857787
_symmetry_Int_Tables_number   1
_chemical_formula_structural   Cu4Ni5C31
_chemical_formula_sum   'Cu8 Ni10 C62'
_cell_volume   800.96983105
_cell_formula_units_Z   2
loop_
 _symmetry_equiv_pos_site_id
 _symmetry_equiv_pos_as_xyz
  1  'x, y, z'
loop_
 _atom_site_type_symbol
 _atom_site_label
 _atom_site_symmetry_multiplicity
 _atom_site_fract_x
 _atom_site_fract_y
 _atom_site_fract_z
 _atom_site_occupancy
  Ni  Ni0  1  0.02156700  0.97495700  0.99831100  1
  Ni  Ni1  1  0.95117300  0.77168300  0.27576400  1
  Ni  Ni2  1  0.96026400  0.25240800  0.77290300  1
  Ni  Ni3  1  0.72381500  0.35112900  0.14574900  1
  Ni  Ni4  1  0.69210500  0.89146800  0.64837800  1
  Ni  Ni5  1  0.48996600  0.46754400  0.50685600  1
  Ni  Ni6  1  0.23608100  0.09783700  0.38444400  1
  Ni  Ni7  1  0.24477400  0.58799000  0.87564200  1
  Ni  Ni8  1  0.26821500  0.36491900  0.11092200  1
  Ni  Ni9  1  0.26863600  0.85266000  0.61638300  1
  Cu  Cu10  1  0.89034800  0.65315700  0.06761600  1
  Cu  Cu11  1  0.88667300  0.16135800  0.56380500  1
  Cu  Cu12  1  0.57249700  0.80310200  0.44033800  1
  Cu  Cu13  1  0.58135300  0.29331300  0.93475600  1
  Cu  Cu14  1  0.37245000  0.40652600  0.33502400  1
  Cu  Cu15  1  0.36436200  0.89962300  0.84204700  1
  Cu  Cu16  1  0.19865400  0.05071200  0.17627600  1
  Cu  Cu17  1  0.11139000  0.54804600  0.67876900  1
  C  C18  1  0.01868400  0.48141500  0.48493400  1
  C  C19  1  0.51727600  0.95468100  0.99001700  1
  C  C20  1  0.98130000  0.38646800  0.28124300  1
  C  C21  1  0.97370400  0.89207600  0.78405900  1
  C  C22  1  0.69067100  0.10095900  0.38496900  1
  C  C23  1  0.69259300  0.59642900  0.88832800  1
  C  C24  1  0.66867200  0.03080100  0.13512500  1
  C  C25  1  0.68620400  0.53747900  0.63607000  1
  C  C26  1  0.33066200  0.68839900  0.08025600  1
  C  C27  1  0.32360200  0.19394800  0.57429600  1
  C  C28  1  0.48065800  0.70327000  0.28422400  1
  C  C29  1  0.47384500  0.21587600  0.77196600  1
  C  C30  1  0.09572200  0.80941000  0.46274800  1
  C  C31  1  0.10130900  0.30167000  0.96082400  1
  C  C32  1  0.85800500  0.49774000  0.18201000  1
  C  C33  1  0.85834400  0.00688100  0.68304900  1
  C  C34  1  0.90755700  0.38747900  0.39795000  1
  C  C35  1  0.89205700  0.91123000  0.89849300  1
  C  C36  1  0.89587500  0.93102000  0.39109800  1
  C  C37  1  0.89806400  0.42601400  0.89247000  1
  C  C38  1  0.68795700  0.67425800  0.98796900  1
  C  C39  1  0.68576100  0.17737300  0.48546600  1
  C  C40  1  0.84861000  0.00007000  0.20030500  1
  C  C41  1  0.88043400  0.49382800  0.69940800  1
  C  C42  1  0.70608600  0.85494600  0.10026900  1
  C  C43  1  0.71002900  0.36624400  0.59821900  1
  C  C44  1  0.61536600  0.75899700  0.79605000  1
  C  C45  1  0.61550100  0.26064100  0.29032600  1
  C  C46  1  0.49107100  0.52911000  0.36171900  1
  C  C47  1  0.47936500  0.03967800  0.84527100  1
  C  C48  1  0.53333400  0.00894800  0.38050200  1
  C  C49  1  0.53737900  0.50291100  0.88590900  1
  C  C50  1  0.45737000  0.47721600  0.07490400  1
  C  C51  1  0.44712300  0.97968500  0.56944600  1
  C  C52  1  0.72546000  0.15741300  0.03380600  1
  C  C53  1  0.73196200  0.65999600  0.53125800  1
  C  C54  1  0.67301100  0.73036100  0.31934100  1
  C  C55  1  0.66533700  0.23961900  0.81019200  1
  C  C56  1  0.45937200  0.64368200  0.18413400  1
  C  C57  1  0.47593800  0.15464400  0.66766700  1
  C  C58  1  0.30198700  0.27284400  0.44507500  1
  C  C59  1  0.29248800  0.76790400  0.94912700  1
  C  C60  1  0.42549100  0.11657200  0.16330300  1
  C  C61  1  0.45516000  0.62486500  0.67481900  1
  C  C62  1  0.35531800  0.74465800  0.47850100  1
  C  C63  1  0.35830600  0.24714700  0.96812000  1
  C  C64  1  0.19060300  0.42807800  0.25603300  1
  C  C65  1  0.18765400  0.92816100  0.75895200  1
  C  C66  1  0.08834700  0.50354400  0.99551600  1
  C  C67  1  0.08464800  0.00343000  0.49716300  1
  C  C68  1  0.11507300  0.65464800  0.39653400  1
  C  C69  1  0.10836500  0.14336100  0.90096800  1
  C  C70  1  0.08673100  0.70924100  0.11360800  1
  C  C71  1  0.08865600  0.20354100  0.61429800  1
  C  C72  1  0.28816800  0.88302500  0.28626300  1
  C  C73  1  0.27106100  0.38598400  0.77812300  1
  C  C74  1  0.27513100  0.91328700  0.08095400  1
  C  C75  1  0.25235500  0.42184500  0.57989700  1
  C  C76  1  0.03948100  0.23061600  0.08065100  1
  C  C77  1  0.02165900  0.74025200  0.58110500  1
  C  C78  1  0.06105900  0.18994400  0.26915600  1
  C  C79  1  0.04667000  0.69575500  0.77156200  1
