# generated using pymatgen
data_Cu4NiC3
_symmetry_space_group_name_H-M   'P 1'
_cell_length_a   6.31088300
_cell_length_b   6.38489284
_cell_length_c   6.83159231
_cell_angle_alpha   76.27712105
_cell_angle_beta   86.84698645
_cell_angle_gamma   81.54069391
_symmetry_Int_Tables_number   1
_chemical_formula_structural   Cu4NiC3
_chemical_formula_sum   'Cu8 Ni2 C6'
_cell_volume   264.44922042
_cell_formula_units_Z   2
loop_
 _symmetry_equiv_pos_site_id
 _symmetry_equiv_pos_as_xyz
  1  'x, y, z'
loop_
 _atom_site_type_symbol
 _atom_site_label
 _atom_site_symmetry_multiplicity
 _atom_site_fract_x
 _atom_site_fract_y
 _atom_site_fract_z
 _atom_site_occupancy
  C  C0  1  0.98347000  0.79385500  0.32604700  1
  C  C1  1  0.04869900  0.07597900  0.76812100  1
  C  C2  1  0.52990200  0.53937100  0.82192200  1
  C  C3  1  0.43911500  0.34856500  0.32645700  1
  C  C4  1  0.09271100  0.50991700  0.88147900  1
  C  C5  1  0.50952100  0.90725300  0.09817300  1
  Ni  Ni6  1  0.38952200  0.90084400  0.53435600  1
  Ni  Ni7  1  0.48117200  0.85928600  0.37667700  1
  Cu  Cu8  1  0.16508300  0.46136000  0.60996900  1
  Cu  Cu9  1  0.27884800  0.24979900  0.01083300  1
  Cu  Cu10  1  0.84935900  0.71699200  0.80786500  1
  Cu  Cu11  1  0.75651800  0.72469600  0.01519900  1
  Cu  Cu12  1  0.77119100  0.22476300  0.12662000  1
  Cu  Cu13  1  0.24553200  0.65965200  0.05033500  1
  Cu  Cu14  1  0.84123900  0.25770500  0.32087900  1
  Cu  Cu15  1  0.42711900  0.14296200  0.87406900  1
