# generated using pymatgen
data_Cu25(NiC)6
_symmetry_space_group_name_H-M   'P 1'
_cell_length_a   18.68257200
_cell_length_b   9.18399100
_cell_length_c   14.30592308
_cell_angle_alpha   72.54465530
_cell_angle_beta   90.00000000
_cell_angle_gamma   90.00000000
_symmetry_Int_Tables_number   1
_chemical_formula_structural   Cu25(NiC)6
_chemical_formula_sum   'Cu100 Ni24 C24'
_cell_volume   2341.58581825
_cell_formula_units_Z   4
loop_
 _symmetry_equiv_pos_site_id
 _symmetry_equiv_pos_as_xyz
  1  'x, y, z'
loop_
 _atom_site_type_symbol
 _atom_site_label
 _atom_site_symmetry_multiplicity
 _atom_site_fract_x
 _atom_site_fract_y
 _atom_site_fract_z
 _atom_site_occupancy
  C  C0  1  0.53740100  0.08694900  0.30924400  1
  C  C1  1  0.96259900  0.08694900  0.80924400  1
  C  C2  1  0.46259900  0.91305100  0.69075600  1
  C  C3  1  0.03740100  0.91305100  0.19075600  1
  C  C4  1  0.11503800  0.95151200  0.42155300  1
  C  C5  1  0.91044300  0.64971600  0.34505600  1
  C  C6  1  0.34034100  0.58237100  0.74284300  1
  C  C7  1  0.82597800  0.82185100  0.94965300  1
  C  C8  1  0.41044300  0.35028400  0.15494400  1
  C  C9  1  0.07548900  0.75582300  0.84790900  1
  C  C10  1  0.17402200  0.17814900  0.05034700  1
  C  C11  1  0.88496200  0.04848800  0.57844700  1
  C  C12  1  0.15965900  0.58237100  0.24284300  1
  C  C13  1  0.38496200  0.95151200  0.92155300  1
  C  C14  1  0.92451100  0.24417700  0.15209100  1
  C  C15  1  0.32597800  0.17814900  0.55034700  1
  C  C16  1  0.67402200  0.82185100  0.44965300  1
  C  C17  1  0.42451100  0.75582300  0.34790900  1
  C  C18  1  0.65965900  0.41762900  0.25715700  1
  C  C19  1  0.61503800  0.04848800  0.07844700  1
  C  C20  1  0.08955700  0.35028400  0.65494400  1
  C  C21  1  0.58955700  0.64971600  0.84505600  1
  C  C22  1  0.84034100  0.41762900  0.75715700  1
  C  C23  1  0.57548900  0.24417700  0.65209100  1
  Ni  Ni24  1  0.07984100  0.72004100  0.19835100  1
  Ni  Ni25  1  0.97415500  0.89953300  0.10654600  1
  Ni  Ni26  1  0.10776800  0.01114000  0.09563400  1
  Ni  Ni27  1  0.02584500  0.10046700  0.89345400  1
  Ni  Ni28  1  0.10729500  0.93055400  0.29389000  1
  Ni  Ni29  1  0.99414300  0.88906800  0.80426400  1
  Ni  Ni30  1  0.57984100  0.27995900  0.30164900  1
  Ni  Ni31  1  0.52584500  0.89953300  0.60654600  1
  Ni  Ni32  1  0.47415500  0.10046700  0.39345400  1
  Ni  Ni33  1  0.89270500  0.06944600  0.70611000  1
  Ni  Ni34  1  0.00585700  0.11093200  0.19573600  1
  Ni  Ni35  1  0.52352100  0.81792500  0.80139200  1
  Ni  Ni36  1  0.47647900  0.18207500  0.19860800  1
  Ni  Ni37  1  0.60729500  0.06944600  0.20611000  1
  Ni  Ni38  1  0.97647900  0.81792500  0.30139200  1
  Ni  Ni39  1  0.89223200  0.98886000  0.90436600  1
  Ni  Ni40  1  0.42015900  0.72004100  0.69835100  1
  Ni  Ni41  1  0.39270500  0.93055400  0.79389000  1
  Ni  Ni42  1  0.49414300  0.11093200  0.69573600  1
  Ni  Ni43  1  0.02352100  0.18207500  0.69860800  1
  Ni  Ni44  1  0.50585700  0.88906800  0.30426400  1
  Ni  Ni45  1  0.60776800  0.98886000  0.40436600  1
  Ni  Ni46  1  0.39223200  0.01114000  0.59563400  1
  Ni  Ni47  1  0.92015900  0.27995900  0.80164900  1
  Cu  Cu48  1  0.58161400  0.27053600  0.77623000  1
  Cu  Cu49  1  0.81785800  0.87044400  0.06669400  1
  Cu  Cu50  1  0.75010600  0.95233800  0.89721700  1
  Cu  Cu51  1  0.83362900  0.77000300  0.83326300  1
  Cu  Cu52  1  0.67160600  0.42388800  0.38562400  1
  Cu  Cu53  1  0.26203600  0.33996700  0.50306600  1
  Cu  Cu54  1  0.68214200  0.87044400  0.56669400  1
  Cu  Cu55  1  0.72414400  0.25461800  0.28203200  1
  Cu  Cu56  1  0.85094300  0.41346700  0.62803700  1
  Cu  Cu57  1  0.76420400  0.55393600  0.71767300  1
  Cu  Cu58  1  0.59748300  0.69095300  0.50138300  1
  Cu  Cu59  1  0.86153200  0.07819900  0.19063400  1
  Cu  Cu60  1  0.16772800  0.22174500  0.70079400  1
  Cu  Cu61  1  0.13846800  0.92180100  0.80936600  1
  Cu  Cu62  1  0.22414400  0.74538200  0.21796800  1
  Cu  Cu63  1  0.07003100  0.78159300  0.97308000  1
  Cu  Cu64  1  0.01332900  0.58919300  0.88792300  1
  Cu  Cu65  1  0.65264700  0.48559800  0.88981200  1
  Cu  Cu66  1  0.27585600  0.74538200  0.71796800  1
  Cu  Cu67  1  0.34735300  0.51440200  0.11018800  1
  Cu  Cu68  1  0.83210700  0.86744100  0.62428000  1
  Cu  Cu69  1  0.48667100  0.58919300  0.38792300  1
  Cu  Cu70  1  0.25010600  0.04766200  0.60278300  1
  Cu  Cu71  1  0.17160600  0.57611200  0.11437600  1
  Cu  Cu72  1  0.16637100  0.22999700  0.16673700  1
  Cu  Cu73  1  0.41580000  0.39210900  0.27548200  1
  Cu  Cu74  1  0.40393200  0.31212100  0.03423600  1
  Cu  Cu75  1  0.91838600  0.27053600  0.27623000  1
  Cu  Cu76  1  0.51332900  0.41080700  0.61207700  1
  Cu  Cu77  1  0.59546000  0.58013700  0.23259300  1
  Cu  Cu78  1  0.84735300  0.48559800  0.38981200  1
  Cu  Cu79  1  0.09606800  0.31212100  0.53423600  1
  Cu  Cu80  1  0.16789300  0.13255900  0.37572000  1
  Cu  Cu81  1  0.77585600  0.25461800  0.78203200  1
  Cu  Cu82  1  0.32839400  0.57611200  0.61437600  1
  Cu  Cu83  1  0.06366900  0.77021900  0.47654900  1
  Cu  Cu84  1  0.66637100  0.77000300  0.33326300  1
  Cu  Cu85  1  0.96948700  0.93254500  0.59658000  1
  Cu  Cu86  1  0.37856500  0.96964400  0.04823300  1
  Cu  Cu87  1  0.12143500  0.96964400  0.54823300  1
  Cu  Cu88  1  0.84687100  0.37598000  0.11039000  1
  Cu  Cu89  1  0.31785800  0.12955600  0.43330600  1
  Cu  Cu90  1  0.33227200  0.22174500  0.20079400  1
  Cu  Cu91  1  0.90393200  0.68787900  0.46576400  1
  Cu  Cu92  1  0.36153200  0.92180100  0.30936600  1
  Cu  Cu93  1  0.64905700  0.41346700  0.12803700  1
  Cu  Cu94  1  0.73796400  0.66003300  0.49693400  1
  Cu  Cu95  1  0.87856500  0.03035600  0.45176700  1
  Cu  Cu96  1  0.40454000  0.41986300  0.76740700  1
  Cu  Cu97  1  0.40251700  0.30904700  0.49861700  1
  Cu  Cu98  1  0.08420000  0.39210900  0.77548200  1
  Cu  Cu99  1  0.08161400  0.72946400  0.72377000  1
  Cu  Cu100  1  0.57003100  0.21840700  0.52692000  1
  Cu  Cu101  1  0.48807400  0.48131300  0.11003000  1
  Cu  Cu102  1  0.14905700  0.58653300  0.37196300  1
  Cu  Cu103  1  0.09546000  0.41986300  0.26740700  1
  Cu  Cu104  1  0.62143500  0.03035600  0.95176700  1
  Cu  Cu105  1  0.92996900  0.21840700  0.02692000  1
  Cu  Cu106  1  0.15264700  0.51440200  0.61018800  1
  Cu  Cu107  1  0.35094300  0.58653300  0.87196300  1
  Cu  Cu108  1  0.46948700  0.06745500  0.90342000  1
  Cu  Cu109  1  0.73579600  0.55393600  0.21767300  1
  Cu  Cu110  1  0.74989400  0.95233800  0.39721700  1
  Cu  Cu111  1  0.24989400  0.04766200  0.10278300  1
  Cu  Cu112  1  0.98667100  0.41080700  0.11207700  1
  Cu  Cu113  1  0.33210700  0.13255900  0.87572000  1
  Cu  Cu114  1  0.66789300  0.86744100  0.12428000  1
  Cu  Cu115  1  0.42996900  0.78159300  0.47308000  1
  Cu  Cu116  1  0.29847800  0.84250400  0.94391100  1
  Cu  Cu117  1  0.09748300  0.30904700  0.99861700  1
  Cu  Cu118  1  0.03051300  0.06745500  0.40342000  1
  Cu  Cu119  1  0.79847800  0.15749600  0.55608900  1
  Cu  Cu120  1  0.90251700  0.69095300  0.00138300  1
  Cu  Cu121  1  0.33362900  0.22999700  0.66673700  1
  Cu  Cu122  1  0.53051300  0.93254500  0.09658000  1
  Cu  Cu123  1  0.56366900  0.22978100  0.02345100  1
  Cu  Cu124  1  0.59606800  0.68787900  0.96576400  1
  Cu  Cu125  1  0.34687100  0.62402000  0.38961000  1
  Cu  Cu126  1  0.41838600  0.72946400  0.22377000  1
  Cu  Cu127  1  0.01192600  0.48131300  0.61003000  1
  Cu  Cu128  1  0.66772800  0.77825500  0.79920600  1
  Cu  Cu129  1  0.26420400  0.44606400  0.78232700  1
  Cu  Cu130  1  0.91580000  0.60789100  0.22451800  1
  Cu  Cu131  1  0.51192600  0.51868700  0.88997000  1
  Cu  Cu132  1  0.70152200  0.15749600  0.05608900  1
  Cu  Cu133  1  0.83227200  0.77825500  0.29920600  1
  Cu  Cu134  1  0.58420000  0.60789100  0.72451800  1
  Cu  Cu135  1  0.15312900  0.62402000  0.88961000  1
  Cu  Cu136  1  0.23796400  0.33996700  0.00306600  1
  Cu  Cu137  1  0.90454000  0.58013700  0.73259300  1
  Cu  Cu138  1  0.63846800  0.07819900  0.69063400  1
  Cu  Cu139  1  0.65312900  0.37598000  0.61039000  1
  Cu  Cu140  1  0.43633100  0.77021900  0.97654900  1
  Cu  Cu141  1  0.76203600  0.66003300  0.99693400  1
  Cu  Cu142  1  0.20152200  0.84250400  0.44391100  1
  Cu  Cu143  1  0.23579600  0.44606400  0.28232700  1
  Cu  Cu144  1  0.98807400  0.51868700  0.38997000  1
  Cu  Cu145  1  0.82839400  0.42388800  0.88562400  1
  Cu  Cu146  1  0.93633100  0.22978100  0.52345100  1
  Cu  Cu147  1  0.18214200  0.12955600  0.93330600  1
