# generated using pymatgen
data_Cu2Ni4C7
_symmetry_space_group_name_H-M   'P 1'
_cell_length_a   9.23941705
_cell_length_b   9.23941705
_cell_length_c   9.23941705
_cell_angle_alpha   103.72416908
_cell_angle_beta   103.72416908
_cell_angle_gamma   121.70218473
_symmetry_Int_Tables_number   1
_chemical_formula_structural   Cu2Ni4C7
_chemical_formula_sum   'Cu8 Ni16 C28'
_cell_volume   586.06842940
_cell_formula_units_Z   4
loop_
 _symmetry_equiv_pos_site_id
 _symmetry_equiv_pos_as_xyz
  1  'x, y, z'
loop_
 _atom_site_type_symbol
 _atom_site_label
 _atom_site_symmetry_multiplicity
 _atom_site_fract_x
 _atom_site_fract_y
 _atom_site_fract_z
 _atom_site_occupancy
  C  C0  1  0.50000000  0.50000000  0.00000000  1
  C  C1  1  0.75000000  0.25000000  0.50000000  1
  C  C2  1  0.25000000  0.75000000  0.50000000  1
  C  C3  1  0.00000000  0.00000000  0.00000000  1
  Ni  Ni4  1  0.39276800  0.22692400  0.65577000  1
  Ni  Ni5  1  0.57115400  0.73699800  0.34423000  1
  Ni  Ni6  1  0.26300200  0.60723200  0.83415600  1
  Ni  Ni7  1  0.77307600  0.42884600  0.16584400  1
  Ni  Ni8  1  0.46847400  0.38288700  0.58999500  1
  Ni  Ni9  1  0.79289100  0.87847800  0.41000500  1
  Ni  Ni10  1  0.12152200  0.53152600  0.91441300  1
  Ni  Ni11  1  0.61711300  0.20710900  0.08558700  1
  Ni  Ni12  1  0.63390800  0.55008500  0.42714300  1
  Ni  Ni13  1  0.12294100  0.20676500  0.57285700  1
  Ni  Ni14  1  0.79323500  0.36609200  0.91617600  1
  Ni  Ni15  1  0.44991500  0.87705900  0.08382400  1
  Ni  Ni16  1  0.48394800  0.32770600  0.33275000  1
  Ni  Ni17  1  0.99495600  0.15119800  0.66725000  1
  Ni  Ni18  1  0.84880200  0.51605200  0.84375800  1
  Ni  Ni19  1  0.67229400  0.00504400  0.15624200  1
  Cu  Cu20  1  0.55905900  0.79453300  0.77594700  1
  Cu  Cu21  1  0.01858600  0.78311200  0.22405300  1
  Cu  Cu22  1  0.21688800  0.44094100  0.23547400  1
  Cu  Cu23  1  0.20546700  0.98141400  0.76452600  1
  Cu  Cu24  1  0.67212100  0.94772300  0.72241600  1
  Cu  Cu25  1  0.22530700  0.94970500  0.27758400  1
  Cu  Cu26  1  0.05029500  0.32787900  0.27560200  1
  Cu  Cu27  1  0.05227700  0.77469300  0.72439800  1
  C  C28  1  0.37740900  0.69406000  0.69428400  1
  C  C29  1  0.99977700  0.68312600  0.30571600  1
  C  C30  1  0.31687400  0.62259100  0.31665100  1
  C  C31  1  0.30594000  0.00022300  0.68334900  1
  C  C32  1  0.64380800  0.77850700  0.88951100  1
  C  C33  1  0.88899600  0.75429700  0.11048900  1
  C  C34  1  0.24570300  0.35619200  0.13469900  1
  C  C35  1  0.22149300  0.11100400  0.86530100  1
  C  C36  1  0.84943000  0.05315200  0.79203900  1
  C  C37  1  0.26111400  0.05739200  0.20796100  1
  C  C38  1  0.94260800  0.15057000  0.20372200  1
  C  C39  1  0.94684800  0.73888600  0.79627800  1
  C  C40  1  0.56948600  0.95299500  0.60717500  1
  C  C41  1  0.34582000  0.96231100  0.39282500  1
  C  C42  1  0.03768900  0.43051400  0.38350900  1
  C  C43  1  0.04700500  0.65418000  0.61649100  1
  C  C44  1  0.39116800  0.33068000  0.64808800  1
  C  C45  1  0.68259200  0.74308000  0.35191200  1
  C  C46  1  0.25692000  0.60883200  0.93951200  1
  C  C47  1  0.66932000  0.31740800  0.06048800  1
  C  C48  1  0.58445200  0.43256900  0.44130600  1
  C  C49  1  0.99126200  0.14314600  0.55869400  1
  C  C50  1  0.85685400  0.41554800  0.84811700  1
  C  C51  1  0.56743100  0.00873800  0.15188300  1
