# generated using pymatgen
data_Cu8NiC8
_symmetry_space_group_name_H-M   'P 1'
_cell_length_a   10.12274400
_cell_length_b   8.81565900
_cell_length_c   9.23004129
_cell_angle_alpha   89.52342983
_cell_angle_beta   90.00000000
_cell_angle_gamma   90.00000000
_symmetry_Int_Tables_number   1
_chemical_formula_structural   Cu8NiC8
_chemical_formula_sum   'Cu32 Ni4 C32'
_cell_volume   823.64801651
_cell_formula_units_Z   4
loop_
 _symmetry_equiv_pos_site_id
 _symmetry_equiv_pos_as_xyz
  1  'x, y, z'
loop_
 _atom_site_type_symbol
 _atom_site_label
 _atom_site_symmetry_multiplicity
 _atom_site_fract_x
 _atom_site_fract_y
 _atom_site_fract_z
 _atom_site_occupancy
  C  C0  1  0.08509700  0.91876500  0.52579100  1
  C  C1  1  0.69392300  0.57275700  0.18147500  1
  C  C2  1  0.19392300  0.42724300  0.81852500  1
  C  C3  1  0.58509700  0.08123500  0.47420900  1
  C  C4  1  0.34886800  0.86547600  0.06717400  1
  C  C5  1  0.83599400  0.58317400  0.66578700  1
  C  C6  1  0.33599400  0.41682600  0.33421300  1
  C  C7  1  0.84886800  0.13452400  0.93282600  1
  C  C8  1  0.81183800  0.93233400  0.64376400  1
  C  C9  1  0.64241600  0.93682300  0.16647300  1
  C  C10  1  0.11209600  0.56754400  0.51071300  1
  C  C11  1  0.42277900  0.53027800  0.02177300  1
  C  C12  1  0.61209600  0.43245600  0.48928700  1
  C  C13  1  0.92277900  0.46972200  0.97822700  1
  C  C14  1  0.31183800  0.06766600  0.35623600  1
  C  C15  1  0.14241600  0.06317700  0.83352700  1
  C  C16  1  0.37646900  0.84690800  0.60982300  1
  C  C17  1  0.09426600  0.87413800  0.06948400  1
  C  C18  1  0.53226400  0.79827700  0.64288000  1
  C  C19  1  0.82819100  0.86259200  0.05082000  1
  C  C20  1  0.41096100  0.73485000  0.75624900  1
  C  C21  1  0.14922600  0.76754700  0.20703400  1
  C  C22  1  0.42400400  0.66385400  0.58785600  1
  C  C23  1  0.13407200  0.69264800  0.04337300  1
  C  C24  1  0.92400400  0.33614600  0.41214400  1
  C  C25  1  0.63407200  0.30735200  0.95662700  1
  C  C26  1  0.91096100  0.26515000  0.24375100  1
  C  C27  1  0.64922600  0.23245300  0.79296600  1
  C  C28  1  0.03226400  0.20172300  0.35712000  1
  C  C29  1  0.32819100  0.13740800  0.94918000  1
  C  C30  1  0.87646900  0.15309200  0.39017700  1
  C  C31  1  0.59426600  0.12586200  0.93051600  1
  Ni  Ni32  1  0.43492100  0.76024600  0.64950800  1
  Ni  Ni33  1  0.16018900  0.79017000  0.09800300  1
  Ni  Ni34  1  0.93492100  0.23975400  0.35049200  1
  Ni  Ni35  1  0.66018900  0.20983000  0.90199700  1
  Cu  Cu36  1  0.89325100  0.94938300  0.50358400  1
  Cu  Cu37  1  0.53474500  0.94820300  0.04788400  1
  Cu  Cu38  1  0.66260800  0.93321000  0.61065000  1
  Cu  Cu39  1  0.78597800  0.96127100  0.06892600  1
  Cu  Cu40  1  0.14702000  0.93053200  0.73040800  1
  Cu  Cu41  1  0.35080900  0.93391500  0.25739300  1
  Cu  Cu42  1  0.84756800  0.78146800  0.72634900  1
  Cu  Cu43  1  0.65614800  0.78222000  0.23661000  1
  Cu  Cu44  1  0.12545900  0.72355900  0.43705800  1
  Cu  Cu45  1  0.39759400  0.69404600  0.95507200  1
  Cu  Cu46  1  0.66722900  0.55554300  0.59460000  1
  Cu  Cu47  1  0.18513600  0.56510100  0.65576400  1
  Cu  Cu48  1  0.86020700  0.59048600  0.07524100  1
  Cu  Cu49  1  0.35623500  0.54136100  0.17465900  1
  Cu  Cu50  1  0.96182200  0.52216200  0.53005500  1
  Cu  Cu51  1  0.57061600  0.49638300  0.03494200  1
  Cu  Cu52  1  0.46182200  0.47783800  0.46994500  1
  Cu  Cu53  1  0.07061600  0.50361700  0.96505800  1
  Cu  Cu54  1  0.68513600  0.43489900  0.34423600  1
  Cu  Cu55  1  0.16722900  0.44445700  0.40540000  1
  Cu  Cu56  1  0.85623500  0.45863900  0.82534100  1
  Cu  Cu57  1  0.36020700  0.40951400  0.92475900  1
  Cu  Cu58  1  0.62545900  0.27644100  0.56294200  1
  Cu  Cu59  1  0.89759400  0.30595400  0.04492800  1
  Cu  Cu60  1  0.34756800  0.21853200  0.27365100  1
  Cu  Cu61  1  0.15614800  0.21778000  0.76339000  1
  Cu  Cu62  1  0.64702000  0.06946800  0.26959200  1
  Cu  Cu63  1  0.85080900  0.06608500  0.74260700  1
  Cu  Cu64  1  0.16260800  0.06679000  0.38935000  1
  Cu  Cu65  1  0.28597800  0.03872900  0.93107400  1
  Cu  Cu66  1  0.39325100  0.05061700  0.49641600  1
  Cu  Cu67  1  0.03474500  0.05179700  0.95211600  1
