# generated using pymatgen
data_Cu4Ni
_symmetry_space_group_name_H-M   'P 1'
_cell_length_a   16.94188500
_cell_length_b   16.94188500
_cell_length_c   16.94188500
_cell_angle_alpha   90.00000000
_cell_angle_beta   90.00000000
_cell_angle_gamma   90.00000000
_symmetry_Int_Tables_number   1
_chemical_formula_structural   Cu4Ni
_chemical_formula_sum   'Cu128 Ni32'
_cell_volume   4862.78634374
_cell_formula_units_Z   32
loop_
 _symmetry_equiv_pos_site_id
 _symmetry_equiv_pos_as_xyz
  1  'x, y, z'
loop_
 _atom_site_type_symbol
 _atom_site_label
 _atom_site_symmetry_multiplicity
 _atom_site_fract_x
 _atom_site_fract_y
 _atom_site_fract_z
 _atom_site_occupancy
  Ni  Ni0  1  0.09147400  0.59861100  0.66943600  1
  Ni  Ni1  1  0.83056400  0.90138900  0.59147400  1
  Ni  Ni2  1  0.08830300  0.91169700  0.91169700  1
  Ni  Ni3  1  0.40138900  0.66943600  0.90852600  1
  Ni  Ni4  1  0.59147400  0.83056400  0.90138900  1
  Ni  Ni5  1  0.90852600  0.40138900  0.66943600  1
  Ni  Ni6  1  0.40138900  0.33056400  0.09147400  1
  Ni  Ni7  1  0.59861100  0.66943600  0.09147400  1
  Ni  Ni8  1  0.58830300  0.41169700  0.41169700  1
  Ni  Ni9  1  0.16943600  0.90138900  0.40852600  1
  Ni  Ni10  1  0.91169700  0.91169700  0.08830300  1
  Ni  Ni11  1  0.41169700  0.58830300  0.41169700  1
  Ni  Ni12  1  0.09861100  0.59147400  0.16943600  1
  Ni  Ni13  1  0.83056400  0.09861100  0.40852600  1
  Ni  Ni14  1  0.33056400  0.09147400  0.40138900  1
  Ni  Ni15  1  0.33056400  0.90852600  0.59861100  1
  Ni  Ni16  1  0.40852600  0.16943600  0.90138900  1
  Ni  Ni17  1  0.66943600  0.90852600  0.40138900  1
  Ni  Ni18  1  0.90852600  0.59861100  0.33056400  1
  Ni  Ni19  1  0.90138900  0.40852600  0.16943600  1
  Ni  Ni20  1  0.66943600  0.09147400  0.59861100  1
  Ni  Ni21  1  0.08830300  0.08830300  0.08830300  1
  Ni  Ni22  1  0.41169700  0.41169700  0.58830300  1
  Ni  Ni23  1  0.58830300  0.58830300  0.58830300  1
  Ni  Ni24  1  0.40852600  0.83056400  0.09861100  1
  Ni  Ni25  1  0.90138900  0.59147400  0.83056400  1
  Ni  Ni26  1  0.09861100  0.40852600  0.83056400  1
  Ni  Ni27  1  0.91169700  0.08830300  0.91169700  1
  Ni  Ni28  1  0.16943600  0.09861100  0.59147400  1
  Ni  Ni29  1  0.59861100  0.33056400  0.90852600  1
  Ni  Ni30  1  0.09147400  0.40138900  0.33056400  1
  Ni  Ni31  1  0.59147400  0.16943600  0.09861100  1
  Cu  Cu32  1  0.03842300  0.09893500  0.59556100  1
  Cu  Cu33  1  0.27939100  0.18703100  0.90280700  1
  Cu  Cu34  1  0.27939100  0.81296900  0.09719300  1
  Cu  Cu35  1  0.28146200  0.58374400  0.42139200  1
  Cu  Cu36  1  0.17022300  0.07147700  0.42129600  1
  Cu  Cu37  1  0.78146200  0.07860800  0.91625600  1
  Cu  Cu38  1  0.57694600  0.42305400  0.57694600  1
  Cu  Cu39  1  0.31832800  0.07629800  0.27270700  1
  Cu  Cu40  1  0.59893500  0.53842300  0.09556100  1
  Cu  Cu41  1  0.09893500  0.40443900  0.96157700  1
  Cu  Cu42  1  0.82977700  0.07147700  0.57870400  1
  Cu  Cu43  1  0.18703100  0.09719300  0.72060900  1
  Cu  Cu44  1  0.53842300  0.09556100  0.59893500  1
  Cu  Cu45  1  0.59556100  0.03842300  0.09893500  1
  Cu  Cu46  1  0.22729300  0.57629800  0.18167200  1
  Cu  Cu47  1  0.92305400  0.07694600  0.07694600  1
  Cu  Cu48  1  0.40106500  0.53842300  0.90443900  1
  Cu  Cu49  1  0.90443900  0.59893500  0.46157700  1
  Cu  Cu50  1  0.42852300  0.32977700  0.92129600  1
  Cu  Cu51  1  0.31832800  0.92370200  0.72729300  1
  Cu  Cu52  1  0.21853800  0.92139200  0.91625600  1
  Cu  Cu53  1  0.78146200  0.92139200  0.08374400  1
  Cu  Cu54  1  0.57694600  0.57694600  0.42305400  1
  Cu  Cu55  1  0.71853800  0.41625600  0.42139200  1
  Cu  Cu56  1  0.32977700  0.07870400  0.57147700  1
  Cu  Cu57  1  0.09556100  0.40106500  0.46157700  1
  Cu  Cu58  1  0.40106500  0.46157700  0.09556100  1
  Cu  Cu59  1  0.68703100  0.22060900  0.59719300  1
  Cu  Cu60  1  0.67022300  0.92129600  0.57147700  1
  Cu  Cu61  1  0.72060900  0.18703100  0.09719300  1
  Cu  Cu62  1  0.57870400  0.17022300  0.92852300  1
  Cu  Cu63  1  0.90106500  0.40443900  0.03842300  1
  Cu  Cu64  1  0.40443900  0.03842300  0.90106500  1
  Cu  Cu65  1  0.57147700  0.32977700  0.07870400  1
  Cu  Cu66  1  0.32977700  0.92129600  0.42852300  1
  Cu  Cu67  1  0.28146200  0.41625600  0.57860800  1
  Cu  Cu68  1  0.71853800  0.58374400  0.57860800  1
  Cu  Cu69  1  0.57629800  0.81832800  0.77270700  1
  Cu  Cu70  1  0.53842300  0.90443900  0.40106500  1
  Cu  Cu71  1  0.92129600  0.42852300  0.32977700  1
  Cu  Cu72  1  0.67022300  0.07870400  0.42852300  1
  Cu  Cu73  1  0.42305400  0.42305400  0.42305400  1
  Cu  Cu74  1  0.07629800  0.72729300  0.68167200  1
  Cu  Cu75  1  0.92139200  0.08374400  0.78146200  1
  Cu  Cu76  1  0.58374400  0.42139200  0.28146200  1
  Cu  Cu77  1  0.81832800  0.77270700  0.57629800  1
  Cu  Cu78  1  0.31296900  0.22060900  0.40280700  1
  Cu  Cu79  1  0.59556100  0.96157700  0.90106500  1
  Cu  Cu80  1  0.96157700  0.09893500  0.40443900  1
  Cu  Cu81  1  0.18167200  0.22729300  0.57629800  1
  Cu  Cu82  1  0.08374400  0.21853800  0.07860800  1
  Cu  Cu83  1  0.09719300  0.72060900  0.18703100  1
  Cu  Cu84  1  0.77270700  0.57629800  0.81832800  1
  Cu  Cu85  1  0.92852300  0.42129600  0.82977700  1
  Cu  Cu86  1  0.22060900  0.40280700  0.31296900  1
  Cu  Cu87  1  0.18167200  0.77270700  0.42370200  1
  Cu  Cu88  1  0.27270700  0.68167200  0.92370200  1
  Cu  Cu89  1  0.17022300  0.92852300  0.57870400  1
  Cu  Cu90  1  0.68167200  0.92370200  0.27270700  1
  Cu  Cu91  1  0.57147700  0.67022300  0.92129600  1
  Cu  Cu92  1  0.82977700  0.92852300  0.42129600  1
  Cu  Cu93  1  0.09556100  0.59893500  0.53842300  1
  Cu  Cu94  1  0.42305400  0.57694600  0.57694600  1
  Cu  Cu95  1  0.41625600  0.57860800  0.28146200  1
  Cu  Cu96  1  0.90280700  0.27939100  0.18703100  1
  Cu  Cu97  1  0.03842300  0.90106500  0.40443900  1
  Cu  Cu98  1  0.42139200  0.28146200  0.58374400  1
  Cu  Cu99  1  0.59719300  0.68703100  0.22060900  1
  Cu  Cu100  1  0.91625600  0.78146200  0.07860800  1
  Cu  Cu101  1  0.72060900  0.81296900  0.90280700  1
  Cu  Cu102  1  0.90106500  0.59556100  0.96157700  1
  Cu  Cu103  1  0.07860800  0.91625600  0.78146200  1
  Cu  Cu104  1  0.22729300  0.42370200  0.81832800  1
  Cu  Cu105  1  0.77939100  0.40280700  0.68703100  1
  Cu  Cu106  1  0.46157700  0.09556100  0.40106500  1
  Cu  Cu107  1  0.77939100  0.59719300  0.31296900  1
  Cu  Cu108  1  0.42129600  0.17022300  0.07147700  1
  Cu  Cu109  1  0.92370200  0.72729300  0.31832800  1
  Cu  Cu110  1  0.07694600  0.07694600  0.92305400  1
  Cu  Cu111  1  0.92305400  0.92305400  0.92305400  1
  Cu  Cu112  1  0.92370200  0.27270700  0.68167200  1
  Cu  Cu113  1  0.42370200  0.81832800  0.22729300  1
  Cu  Cu114  1  0.96157700  0.90106500  0.59556100  1
  Cu  Cu115  1  0.92852300  0.57870400  0.17022300  1
  Cu  Cu116  1  0.90280700  0.72060900  0.81296900  1
  Cu  Cu117  1  0.81296900  0.90280700  0.72060900  1
  Cu  Cu118  1  0.27270700  0.31832800  0.07629800  1
  Cu  Cu119  1  0.42370200  0.18167200  0.77270700  1
  Cu  Cu120  1  0.07629800  0.27270700  0.31832800  1
  Cu  Cu121  1  0.07694600  0.92305400  0.07694600  1
  Cu  Cu122  1  0.46157700  0.90443900  0.59893500  1
  Cu  Cu123  1  0.92129600  0.57147700  0.67022300  1
  Cu  Cu124  1  0.58374400  0.57860800  0.71853800  1
  Cu  Cu125  1  0.42129600  0.82977700  0.92852300  1
  Cu  Cu126  1  0.57860800  0.71853800  0.58374400  1
  Cu  Cu127  1  0.22060900  0.59719300  0.68703100  1
  Cu  Cu128  1  0.09893500  0.59556100  0.03842300  1
  Cu  Cu129  1  0.42852300  0.67022300  0.07870400  1
  Cu  Cu130  1  0.09719300  0.27939100  0.81296900  1
  Cu  Cu131  1  0.91625600  0.21853800  0.92139200  1
  Cu  Cu132  1  0.42139200  0.71853800  0.41625600  1
  Cu  Cu133  1  0.07147700  0.42129600  0.17022300  1
  Cu  Cu134  1  0.57870400  0.82977700  0.07147700  1
  Cu  Cu135  1  0.40443900  0.96157700  0.09893500  1
  Cu  Cu136  1  0.68167200  0.07629800  0.72729300  1
  Cu  Cu137  1  0.07870400  0.57147700  0.32977700  1
  Cu  Cu138  1  0.59893500  0.46157700  0.90443900  1
  Cu  Cu139  1  0.68703100  0.77939100  0.40280700  1
  Cu  Cu140  1  0.90443900  0.40106500  0.53842300  1
  Cu  Cu141  1  0.40280700  0.31296900  0.22060900  1
  Cu  Cu142  1  0.31296900  0.77939100  0.59719300  1
  Cu  Cu143  1  0.07870400  0.42852300  0.67022300  1
  Cu  Cu144  1  0.57860800  0.28146200  0.41625600  1
  Cu  Cu145  1  0.07860800  0.08374400  0.21853800  1
  Cu  Cu146  1  0.81832800  0.22729300  0.42370200  1
  Cu  Cu147  1  0.92139200  0.91625600  0.21853800  1
  Cu  Cu148  1  0.18703100  0.90280700  0.27939100  1
  Cu  Cu149  1  0.21853800  0.07860800  0.08374400  1
  Cu  Cu150  1  0.72729300  0.31832800  0.92370200  1
  Cu  Cu151  1  0.72729300  0.68167200  0.07629800  1
  Cu  Cu152  1  0.07147700  0.57870400  0.82977700  1
  Cu  Cu153  1  0.77270700  0.42370200  0.18167200  1
  Cu  Cu154  1  0.57629800  0.18167200  0.22729300  1
  Cu  Cu155  1  0.81296900  0.09719300  0.27939100  1
  Cu  Cu156  1  0.59719300  0.31296900  0.77939100  1
  Cu  Cu157  1  0.40280700  0.68703100  0.77939100  1
  Cu  Cu158  1  0.08374400  0.78146200  0.92139200  1
  Cu  Cu159  1  0.41625600  0.42139200  0.71853800  1
