# generated using pymatgen
data_Cu(NiC2)2
_symmetry_space_group_name_H-M   'P 1'
_cell_length_a   7.11813338
_cell_length_b   7.11813338
_cell_length_c   19.45315700
_cell_angle_alpha   90.00000000
_cell_angle_beta   90.00000000
_cell_angle_gamma   117.16752005
_symmetry_Int_Tables_number   1
_chemical_formula_structural   Cu(NiC2)2
_chemical_formula_sum   'Cu2 Ni4 C8'
_cell_volume   876.90771872
_cell_formula_units_Z   2
loop_
 _symmetry_equiv_pos_site_id
 _symmetry_equiv_pos_as_xyz
  1  'x, y, z'
loop_
 _atom_site_type_symbol
 _atom_site_label
 _atom_site_symmetry_multiplicity
 _atom_site_fract_x
 _atom_site_fract_y
 _atom_site_fract_z
 _atom_site_occupancy
  Ni  Ni0  1  0.50000000  0.50000000  0.00000000  1
  Ni  Ni1  1  0.00000000  0.50000000  0.00000000  1
  Ni  Ni2  1  0.50000000  0.50000000  0.50000000  1
  Ni  Ni3  1  0.50000000  0.00000000  0.50000000  1
  Cu  Cu4  1  0.00000000  0.50000000  0.50000000  1
  Cu  Cu5  1  0.50000000  0.00000000  0.00000000  1
  C  C6  1  0.64927400  0.31913000  0.59699400  1
  C  C7  1  0.68087000  0.35072600  0.09699400  1
  C  C8  1  0.68087000  0.35072600  0.90300600  1
  C  C9  1  0.64927400  0.31913000  0.40300600  1
  C  C10  1  0.35072600  0.68087000  0.59699400  1
  C  C11  1  0.31913000  0.64927400  0.90300600  1
  C  C12  1  0.31913000  0.64927400  0.09699400  1
  C  C13  1  0.35072600  0.68087000  0.40300600  1
