# generated using pymatgen
data_Cu(NiC4)2
_symmetry_space_group_name_H-M   'P 1'
_cell_length_a   17.81058439
_cell_length_b   17.81058439
_cell_length_c   17.81058439
_cell_angle_alpha   60.00000000
_cell_angle_beta   60.00000000
_cell_angle_gamma   60.00000000
_symmetry_Int_Tables_number   1
_chemical_formula_structural   Cu(NiC4)2
_chemical_formula_sum   'Cu16 Ni32 C128'
_cell_volume   3995.02508639
_cell_formula_units_Z   16
loop_
 _symmetry_equiv_pos_site_id
 _symmetry_equiv_pos_as_xyz
  1  'x, y, z'
loop_
 _atom_site_type_symbol
 _atom_site_label
 _atom_site_symmetry_multiplicity
 _atom_site_fract_x
 _atom_site_fract_y
 _atom_site_fract_z
 _atom_site_occupancy
  Ni  Ni0  1  0.93843300  0.18470000  0.93843300  1
  Ni  Ni1  1  0.43361900  0.97702500  0.68777400  1
  Ni  Ni2  1  0.18777400  0.47702500  0.93361900  1
  Ni  Ni3  1  0.18470000  0.93843300  0.93843300  1
  Ni  Ni4  1  0.93843300  0.93843300  0.93843300  1
  Ni  Ni5  1  0.68777400  0.43361900  0.97702500  1
  Ni  Ni6  1  0.43843300  0.43843300  0.68470000  1
  Ni  Ni7  1  0.68470000  0.43843300  0.43843300  1
  Ni  Ni8  1  0.90158100  0.97702500  0.43361900  1
  Ni  Ni9  1  0.97702500  0.43361900  0.90158100  1
  Ni  Ni10  1  0.40158100  0.47702500  0.18777400  1
  Ni  Ni11  1  0.93361900  0.40158100  0.18777400  1
  Ni  Ni12  1  0.97702500  0.90158100  0.68777400  1
  Ni  Ni13  1  0.47702500  0.40158100  0.93361900  1
  Ni  Ni14  1  0.90158100  0.68777400  0.97702500  1
  Ni  Ni15  1  0.43843300  0.68470000  0.43843300  1
  Ni  Ni16  1  0.43843300  0.43843300  0.43843300  1
  Ni  Ni17  1  0.18777400  0.93361900  0.40158100  1
  Ni  Ni18  1  0.90158100  0.43361900  0.68777400  1
  Ni  Ni19  1  0.40158100  0.18777400  0.93361900  1
  Ni  Ni20  1  0.43361900  0.68777400  0.90158100  1
  Ni  Ni21  1  0.47702500  0.18777400  0.40158100  1
  Ni  Ni22  1  0.93361900  0.47702500  0.40158100  1
  Ni  Ni23  1  0.40158100  0.93361900  0.47702500  1
  Ni  Ni24  1  0.68777400  0.97702500  0.90158100  1
  Ni  Ni25  1  0.93843300  0.93843300  0.18470000  1
  Ni  Ni26  1  0.18777400  0.40158100  0.47702500  1
  Ni  Ni27  1  0.68777400  0.90158100  0.43361900  1
  Ni  Ni28  1  0.43361900  0.90158100  0.97702500  1
  Ni  Ni29  1  0.93361900  0.18777400  0.47702500  1
  Ni  Ni30  1  0.97702500  0.68777400  0.43361900  1
  Ni  Ni31  1  0.47702500  0.93361900  0.18777400  1
  Cu  Cu32  1  0.62876100  0.11371600  0.62876100  1
  Cu  Cu33  1  0.62876100  0.62876100  0.62876100  1
  Cu  Cu34  1  0.62876100  0.62876100  0.11371600  1
  Cu  Cu35  1  0.61371600  0.12876100  0.12876100  1
  Cu  Cu36  1  0.75000000  0.75000000  0.75000000  1
  Cu  Cu37  1  0.12876100  0.61371600  0.12876100  1
  Cu  Cu38  1  0.25000000  0.75000000  0.25000000  1
  Cu  Cu39  1  0.11371600  0.62876100  0.62876100  1
  Cu  Cu40  1  0.25000000  0.75000000  0.75000000  1
  Cu  Cu41  1  0.75000000  0.25000000  0.75000000  1
  Cu  Cu42  1  0.25000000  0.25000000  0.25000000  1
  Cu  Cu43  1  0.75000000  0.75000000  0.25000000  1
  Cu  Cu44  1  0.12876100  0.12876100  0.12876100  1
  Cu  Cu45  1  0.12876100  0.12876100  0.61371600  1
  Cu  Cu46  1  0.25000000  0.25000000  0.75000000  1
  Cu  Cu47  1  0.75000000  0.25000000  0.25000000  1
  C  C48  1  0.61424100  0.76458600  0.06462300  1
  C  C49  1  0.61424100  0.55655000  0.76458600  1
  C  C50  1  0.11424100  0.05655000  0.56462300  1
  C  C51  1  0.56462300  0.11424100  0.05655000  1
  C  C52  1  0.82972900  0.11738900  0.76433800  1
  C  C53  1  0.28854300  0.11738900  0.82972900  1
  C  C54  1  0.06462300  0.76458600  0.55655000  1
  C  C55  1  0.79586000  0.79586000  0.79586000  1
  C  C56  1  0.26458600  0.11424100  0.56462300  1
  C  C57  1  0.05655000  0.26458600  0.56462300  1
  C  C58  1  0.82972900  0.28854300  0.11738900  1
  C  C59  1  0.05655000  0.11424100  0.26458600  1
  C  C60  1  0.26458600  0.56462300  0.05655000  1
  C  C61  1  0.26433800  0.78854300  0.61738900  1
  C  C62  1  0.11738900  0.82972900  0.28854300  1
  C  C63  1  0.61424100  0.06462300  0.55655000  1
  C  C64  1  0.11424100  0.56462300  0.26458600  1
  C  C65  1  0.76433800  0.82972900  0.11738900  1
  C  C66  1  0.78854300  0.32972900  0.61738900  1
  C  C67  1  0.25439100  0.58187000  0.58187000  1
  C  C68  1  0.08187000  0.08187000  0.75439100  1
  C  C69  1  0.79586000  0.61241900  0.79586000  1
  C  C70  1  0.29586000  0.29586000  0.11241900  1
  C  C71  1  0.29586000  0.29586000  0.29586000  1
  C  C72  1  0.11738900  0.28854300  0.76433800  1
  C  C73  1  0.26433800  0.61738900  0.32972900  1
  C  C74  1  0.78854300  0.26433800  0.32972900  1
  C  C75  1  0.32972900  0.26433800  0.61738900  1
  C  C76  1  0.11424100  0.26458600  0.05655000  1
  C  C77  1  0.11241900  0.29586000  0.29586000  1
  C  C78  1  0.55655000  0.06462300  0.76458600  1
  C  C79  1  0.28854300  0.76433800  0.11738900  1
  C  C80  1  0.26433800  0.32972900  0.78854300  1
  C  C81  1  0.76458600  0.55655000  0.06462300  1
  C  C82  1  0.58187000  0.58187000  0.25439100  1
  C  C83  1  0.78854300  0.61738900  0.26433800  1
  C  C84  1  0.61738900  0.78854300  0.32972900  1
  C  C85  1  0.61738900  0.26433800  0.78854300  1
  C  C86  1  0.05655000  0.56462300  0.11424100  1
  C  C87  1  0.61738900  0.32972900  0.26433800  1
  C  C88  1  0.28854300  0.82972900  0.76433800  1
  C  C89  1  0.79586000  0.79586000  0.61241900  1
  C  C90  1  0.76433800  0.11738900  0.28854300  1
  C  C91  1  0.08187000  0.75439100  0.08187000  1
  C  C92  1  0.06462300  0.55655000  0.61424100  1
  C  C93  1  0.61241900  0.79586000  0.79586000  1
  C  C94  1  0.58187000  0.58187000  0.58187000  1
  C  C95  1  0.56462300  0.05655000  0.26458600  1
  C  C96  1  0.58187000  0.25439100  0.58187000  1
  C  C97  1  0.76458600  0.06462300  0.61424100  1
  C  C98  1  0.82972900  0.76433800  0.28854300  1
  C  C99  1  0.06462300  0.61424100  0.76458600  1
  C  C100  1  0.11738900  0.76433800  0.82972900  1
  C  C101  1  0.56462300  0.26458600  0.11424100  1
  C  C102  1  0.29586000  0.11241900  0.29586000  1
  C  C103  1  0.76458600  0.61424100  0.55655000  1
  C  C104  1  0.08187000  0.08187000  0.08187000  1
  C  C105  1  0.55655000  0.61424100  0.06462300  1
  C  C106  1  0.32972900  0.78854300  0.26433800  1
  C  C107  1  0.55655000  0.76458600  0.61424100  1
  C  C108  1  0.75439100  0.08187000  0.08187000  1
  C  C109  1  0.32972900  0.61738900  0.78854300  1
  C  C110  1  0.76433800  0.28854300  0.82972900  1
  C  C111  1  0.26458600  0.05655000  0.11424100  1
  C  C112  1  0.55489700  0.33531000  0.55489700  1
  C  C113  1  0.77464100  0.30914700  0.87627000  1
  C  C114  1  0.59766700  0.52004400  0.84450300  1
  C  C115  1  0.82283200  0.53150300  0.82283200  1
  C  C116  1  0.87627000  0.77464100  0.30914700  1
  C  C117  1  0.32283200  0.32283200  0.32283200  1
  C  C118  1  0.82283200  0.82283200  0.53150300  1
  C  C119  1  0.77464100  0.03994200  0.30914700  1
  C  C120  1  0.53994200  0.27464100  0.80914700  1
  C  C121  1  0.55489700  0.55489700  0.33531000  1
  C  C122  1  0.33531000  0.55489700  0.55489700  1
  C  C123  1  0.05489700  0.05489700  0.83531000  1
  C  C124  1  0.34450300  0.02004400  0.09766700  1
  C  C125  1  0.30914700  0.77464100  0.03994200  1
  C  C126  1  0.30914700  0.03994200  0.87627000  1
  C  C127  1  0.32283200  0.03150300  0.32283200  1
  C  C128  1  0.03778500  0.84450300  0.52004400  1
  C  C129  1  0.03778500  0.59766700  0.84450300  1
  C  C130  1  0.83531000  0.05489700  0.05489700  1
  C  C131  1  0.87627000  0.03994200  0.77464100  1
  C  C132  1  0.53778500  0.09766700  0.02004400  1
  C  C133  1  0.53150300  0.82283200  0.82283200  1
  C  C134  1  0.27464100  0.37627000  0.80914700  1
  C  C135  1  0.53778500  0.34450300  0.09766700  1
  C  C136  1  0.84450300  0.03778500  0.59766700  1
  C  C137  1  0.03150300  0.32283200  0.32283200  1
  C  C138  1  0.03994200  0.77464100  0.87627000  1
  C  C139  1  0.53994200  0.80914700  0.37627000  1
  C  C140  1  0.53994200  0.37627000  0.27464100  1
  C  C141  1  0.37627000  0.80914700  0.27464100  1
  C  C142  1  0.87627000  0.30914700  0.03994200  1
  C  C143  1  0.05489700  0.05489700  0.05489700  1
  C  C144  1  0.80914700  0.53994200  0.27464100  1
  C  C145  1  0.32283200  0.32283200  0.03150300  1
  C  C146  1  0.84450300  0.52004400  0.03778500  1
  C  C147  1  0.02004400  0.09766700  0.34450300  1
  C  C148  1  0.80914700  0.27464100  0.37627000  1
  C  C149  1  0.09766700  0.34450300  0.02004400  1
  C  C150  1  0.03778500  0.52004400  0.59766700  1
  C  C151  1  0.84450300  0.59766700  0.52004400  1
  C  C152  1  0.27464100  0.53994200  0.37627000  1
  C  C153  1  0.52004400  0.03778500  0.84450300  1
  C  C154  1  0.59766700  0.03778500  0.52004400  1
  C  C155  1  0.09766700  0.02004400  0.53778500  1
  C  C156  1  0.53778500  0.02004400  0.34450300  1
  C  C157  1  0.03994200  0.87627000  0.30914700  1
  C  C158  1  0.34450300  0.09766700  0.53778500  1
  C  C159  1  0.09766700  0.53778500  0.34450300  1
  C  C160  1  0.30914700  0.87627000  0.77464100  1
  C  C161  1  0.59766700  0.84450300  0.03778500  1
  C  C162  1  0.02004400  0.34450300  0.53778500  1
  C  C163  1  0.82283200  0.82283200  0.82283200  1
  C  C164  1  0.02004400  0.53778500  0.09766700  1
  C  C165  1  0.77464100  0.87627000  0.03994200  1
  C  C166  1  0.34450300  0.53778500  0.02004400  1
  C  C167  1  0.05489700  0.83531000  0.05489700  1
  C  C168  1  0.37627000  0.27464100  0.53994200  1
  C  C169  1  0.55489700  0.55489700  0.55489700  1
  C  C170  1  0.52004400  0.59766700  0.03778500  1
  C  C171  1  0.52004400  0.84450300  0.59766700  1
  C  C172  1  0.37627000  0.53994200  0.80914700  1
  C  C173  1  0.03994200  0.30914700  0.77464100  1
  C  C174  1  0.80914700  0.37627000  0.53994200  1
  C  C175  1  0.27464100  0.80914700  0.53994200  1
