# generated using pymatgen
data_CuNi2C5
_symmetry_space_group_name_H-M   'P 1'
_cell_length_a   8.75778200
_cell_length_b   8.75778200
_cell_length_c   5.87814900
_cell_angle_alpha   90.00000000
_cell_angle_beta   90.00000000
_cell_angle_gamma   90.00000000
_symmetry_Int_Tables_number   1
_chemical_formula_structural   CuNi2C5
_chemical_formula_sum   'Cu4 Ni8 C20'
_cell_volume   450.84665451
_cell_formula_units_Z   4
loop_
 _symmetry_equiv_pos_site_id
 _symmetry_equiv_pos_as_xyz
  1  'x, y, z'
loop_
 _atom_site_type_symbol
 _atom_site_label
 _atom_site_symmetry_multiplicity
 _atom_site_fract_x
 _atom_site_fract_y
 _atom_site_fract_z
 _atom_site_occupancy
  Ni  Ni0  1  0.35242900  0.64757100  0.25000000  1
  Ni  Ni1  1  0.85242900  0.14757100  0.75000000  1
  Ni  Ni2  1  0.64757100  0.64757100  0.75000000  1
  Ni  Ni3  1  0.64757100  0.35242900  0.25000000  1
  Ni  Ni4  1  0.85242900  0.85242900  0.25000000  1
  Ni  Ni5  1  0.14757100  0.85242900  0.75000000  1
  Ni  Ni6  1  0.35242900  0.35242900  0.75000000  1
  Ni  Ni7  1  0.14757100  0.14757100  0.25000000  1
  Cu  Cu8  1  0.50000000  0.00000000  0.40643000  1
  Cu  Cu9  1  0.50000000  0.00000000  0.90643000  1
  Cu  Cu10  1  0.00000000  0.50000000  0.09357000  1
  Cu  Cu11  1  0.00000000  0.50000000  0.59357000  1
  C  C12  1  0.08009100  0.28496200  0.60747400  1
  C  C13  1  0.91990900  0.28496200  0.10747400  1
  C  C14  1  0.91990900  0.71503800  0.60747400  1
  C  C15  1  0.71503800  0.91990900  0.89252600  1
  C  C16  1  0.21503800  0.58009100  0.60747400  1
  C  C17  1  0.41990900  0.78496200  0.89252600  1
  C  C18  1  0.41990900  0.21503800  0.39252600  1
  C  C19  1  0.78496200  0.58009100  0.10747400  1
  C  C20  1  0.28496200  0.91990900  0.39252600  1
  C  C21  1  0.58009100  0.21503800  0.89252600  1
  C  C22  1  0.50000000  0.50000000  0.00000000  1
  C  C23  1  0.50000000  0.50000000  0.50000000  1
  C  C24  1  0.78496200  0.41990900  0.60747400  1
  C  C25  1  0.08009100  0.71503800  0.10747400  1
  C  C26  1  0.28496200  0.08009100  0.89252600  1
  C  C27  1  0.58009100  0.78496200  0.39252600  1
  C  C28  1  0.21503800  0.41990900  0.10747400  1
  C  C29  1  0.00000000  0.00000000  0.00000000  1
  C  C30  1  0.00000000  0.00000000  0.50000000  1
  C  C31  1  0.71503800  0.08009100  0.39252600  1
