# generated using pymatgen
data_Cu3NiC44
_symmetry_space_group_name_H-M   'P 1'
_cell_length_a   10.15712141
_cell_length_b   10.15712141
_cell_length_c   14.51307200
_cell_angle_alpha   90.00000000
_cell_angle_beta   90.00000000
_cell_angle_gamma   119.99999616
_symmetry_Int_Tables_number   1
_chemical_formula_structural   Cu3NiC44
_chemical_formula_sum   'Cu6 Ni2 C88'
_cell_volume   1296.67544193
_cell_formula_units_Z   2
loop_
 _symmetry_equiv_pos_site_id
 _symmetry_equiv_pos_as_xyz
  1  'x, y, z'
loop_
 _atom_site_type_symbol
 _atom_site_label
 _atom_site_symmetry_multiplicity
 _atom_site_fract_x
 _atom_site_fract_y
 _atom_site_fract_z
 _atom_site_occupancy
  Ni  Ni0  1  0.00000000  0.00000000  0.25000000  1
  Ni  Ni1  1  0.00000000  0.00000000  0.75000000  1
  Cu  Cu2  1  0.50000000  0.50000000  0.25000000  1
  Cu  Cu3  1  0.50000000  0.00000000  0.75000000  1
  Cu  Cu4  1  0.00000000  0.50000000  0.75000000  1
  Cu  Cu5  1  0.50000000  0.50000000  0.75000000  1
  Cu  Cu6  1  0.50000000  0.00000000  0.25000000  1
  Cu  Cu7  1  0.00000000  0.50000000  0.25000000  1
  C  C8  1  0.76215800  0.11828500  0.89125900  1
  C  C9  1  0.88171500  0.64387300  0.89125900  1
  C  C10  1  0.35612700  0.23784200  0.89125900  1
  C  C11  1  0.64387300  0.76215800  0.89125900  1
  C  C12  1  0.23784200  0.35612700  0.60874100  1
  C  C13  1  0.23784200  0.88171500  0.89125900  1
  C  C14  1  0.11828500  0.35612700  0.89125900  1
  C  C15  1  0.88171500  0.23784200  0.60874100  1
  C  C16  1  0.35612700  0.11828500  0.60874100  1
  C  C17  1  0.64387300  0.88171500  0.60874100  1
  C  C18  1  0.11828500  0.76215800  0.60874100  1
  C  C19  1  0.76215800  0.64387300  0.60874100  1
  C  C20  1  0.23784200  0.88171500  0.10874100  1
  C  C21  1  0.11828500  0.35612700  0.10874100  1
  C  C22  1  0.64387300  0.76215800  0.10874100  1
  C  C23  1  0.23784200  0.35612700  0.39125900  1
  C  C24  1  0.76215800  0.64387300  0.39125900  1
  C  C25  1  0.76215800  0.11828500  0.10874100  1
  C  C26  1  0.88171500  0.64387300  0.10874100  1
  C  C27  1  0.11828500  0.76215800  0.39125900  1
  C  C28  1  0.64387300  0.88171500  0.39125900  1
  C  C29  1  0.35612700  0.11828500  0.39125900  1
  C  C30  1  0.88171500  0.23784200  0.39125900  1
  C  C31  1  0.35612700  0.23784200  0.10874100  1
  C  C32  1  0.33333300  0.66666700  0.25000000  1
  C  C33  1  0.66666700  0.33333300  0.25000000  1
  C  C34  1  0.66666700  0.33333300  0.75000000  1
  C  C35  1  0.33333300  0.66666700  0.75000000  1
  C  C36  1  0.22224100  0.27859200  0.13270700  1
  C  C37  1  0.15781500  0.65652800  0.67271400  1
  C  C38  1  0.15781500  0.50128700  0.82728600  1
  C  C39  1  0.49871300  0.84218500  0.67271400  1
  C  C40  1  0.50128700  0.15781500  0.67271400  1
  C  C41  1  0.65652800  0.49871300  0.67271400  1
  C  C42  1  0.34347200  0.50128700  0.67271400  1
  C  C43  1  0.65652800  0.15781500  0.82728600  1
  C  C44  1  0.50128700  0.34347200  0.82728600  1
  C  C45  1  0.49871300  0.65652800  0.82728600  1
  C  C46  1  0.34347200  0.84218500  0.82728600  1
  C  C47  1  0.84218500  0.49871300  0.82728600  1
  C  C48  1  0.15781500  0.65652800  0.32728600  1
  C  C49  1  0.34347200  0.50128700  0.32728600  1
  C  C50  1  0.49871300  0.84218500  0.32728600  1
  C  C51  1  0.50128700  0.15781500  0.32728600  1
  C  C52  1  0.84218500  0.49871300  0.17271400  1
  C  C53  1  0.84218500  0.34347200  0.32728600  1
  C  C54  1  0.65652800  0.49871300  0.32728600  1
  C  C55  1  0.34347200  0.84218500  0.17271400  1
  C  C56  1  0.49871300  0.65652800  0.17271400  1
  C  C57  1  0.50128700  0.34347200  0.17271400  1
  C  C58  1  0.65652800  0.15781500  0.17271400  1
  C  C59  1  0.05635100  0.27859200  0.63270700  1
  C  C60  1  0.77775900  0.05635100  0.63270700  1
  C  C61  1  0.94364900  0.72140800  0.63270700  1
  C  C62  1  0.27859200  0.22224100  0.63270700  1
  C  C63  1  0.72140800  0.77775900  0.63270700  1
  C  C64  1  0.22224100  0.27859200  0.86729300  1
  C  C65  1  0.22224100  0.94364900  0.63270700  1
  C  C66  1  0.13329500  0.40053300  0.00000000  1
  C  C67  1  0.73276200  0.13329500  0.00000000  1
  C  C68  1  0.40053300  0.26723800  0.00000000  1
  C  C69  1  0.59946700  0.73276200  0.00000000  1
  C  C70  1  0.26723800  0.86670500  0.00000000  1
  C  C71  1  0.73276200  0.59946700  0.50000000  1
  C  C72  1  0.86670500  0.26723800  0.50000000  1
  C  C73  1  0.86670500  0.59946700  0.00000000  1
  C  C74  1  0.40053300  0.13329500  0.50000000  1
  C  C75  1  0.59946700  0.86670500  0.50000000  1
  C  C76  1  0.26723800  0.40053300  0.50000000  1
  C  C77  1  0.13329500  0.73276200  0.50000000  1
  C  C78  1  0.84218500  0.34347200  0.67271400  1
  C  C79  1  0.94364900  0.22224100  0.13270700  1
  C  C80  1  0.27859200  0.05635100  0.13270700  1
  C  C81  1  0.72140800  0.94364900  0.13270700  1
  C  C82  1  0.05635100  0.77775900  0.13270700  1
  C  C83  1  0.94364900  0.72140800  0.36729300  1
  C  C84  1  0.77775900  0.05635100  0.36729300  1
  C  C85  1  0.77775900  0.72140800  0.13270700  1
  C  C86  1  0.27859200  0.22224100  0.36729300  1
  C  C87  1  0.72140800  0.77775900  0.36729300  1
  C  C88  1  0.05635100  0.27859200  0.36729300  1
  C  C89  1  0.22224100  0.94364900  0.36729300  1
  C  C90  1  0.77775900  0.72140800  0.86729300  1
  C  C91  1  0.05635100  0.77775900  0.86729300  1
  C  C92  1  0.72140800  0.94364900  0.86729300  1
  C  C93  1  0.27859200  0.05635100  0.86729300  1
  C  C94  1  0.94364900  0.22224100  0.86729300  1
  C  C95  1  0.15781500  0.50128700  0.17271400  1
