# generated using pymatgen
data_CuNiC7
_symmetry_space_group_name_H-M   'P 1'
_cell_length_a   5.86024000
_cell_length_b   5.28575800
_cell_length_c   10.58239184
_cell_angle_alpha   76.40932463
_cell_angle_beta   90.00000000
_cell_angle_gamma   90.00000000
_symmetry_Int_Tables_number   1
_chemical_formula_structural   CuNiC7
_chemical_formula_sum   'Cu2 Ni2 C14'
_cell_volume   318.61957155
_cell_formula_units_Z   2
loop_
 _symmetry_equiv_pos_site_id
 _symmetry_equiv_pos_as_xyz
  1  'x, y, z'
loop_
 _atom_site_type_symbol
 _atom_site_label
 _atom_site_symmetry_multiplicity
 _atom_site_fract_x
 _atom_site_fract_y
 _atom_site_fract_z
 _atom_site_occupancy
  C  C0  1  0.65226300  0.99136100  0.85613200  1
  C  C1  1  0.15226300  0.00863900  0.14386800  1
  Ni  Ni2  1  0.06649000  0.62118700  0.64804400  1
  Ni  Ni3  1  0.56649000  0.37881300  0.35195600  1
  Cu  Cu4  1  0.66873800  0.43244600  0.18006100  1
  Cu  Cu5  1  0.16873800  0.56755400  0.81993900  1
  C  C6  1  0.00908200  0.37424100  0.89197700  1
  C  C7  1  0.40351400  0.47812800  0.81429800  1
  C  C8  1  0.90351400  0.52187200  0.18570200  1
  C  C9  1  0.50908200  0.62575900  0.10802300  1
  C  C10  1  0.14814700  0.82597700  0.84695600  1
  C  C11  1  0.64814700  0.17402300  0.15304400  1
  C  C12  1  0.20353900  0.78933200  0.56541400  1
  C  C13  1  0.55982400  0.60602400  0.39043500  1
  C  C14  1  0.70353900  0.21066800  0.43458600  1
  C  C15  1  0.05982400  0.39397600  0.60956500  1
  C  C16  1  0.85100300  0.72267300  0.63701500  1
  C  C17  1  0.35100300  0.27732700  0.36298500  1
