# generated using pymatgen
data_Cu4NiC11
_symmetry_space_group_name_H-M   'P 1'
_cell_length_a   7.52183800
_cell_length_b   7.52183800
_cell_length_c   16.55382700
_cell_angle_alpha   90.00000000
_cell_angle_beta   90.00000000
_cell_angle_gamma   90.00000000
_symmetry_Int_Tables_number   1
_chemical_formula_structural   Cu4NiC11
_chemical_formula_sum   'Cu16 Ni4 C44'
_cell_volume   936.58320035
_cell_formula_units_Z   4
loop_
 _symmetry_equiv_pos_site_id
 _symmetry_equiv_pos_as_xyz
  1  'x, y, z'
loop_
 _atom_site_type_symbol
 _atom_site_label
 _atom_site_symmetry_multiplicity
 _atom_site_fract_x
 _atom_site_fract_y
 _atom_site_fract_z
 _atom_site_occupancy
  C  C0  1  0.50000000  0.50000000  0.00000000  1
  C  C1  1  0.00000000  0.00000000  0.00000000  1
  C  C2  1  0.00000000  0.00000000  0.50000000  1
  C  C3  1  0.50000000  0.50000000  0.50000000  1
  Ni  Ni4  1  0.50000000  0.00000000  0.09709400  1
  Ni  Ni5  1  0.00000000  0.50000000  0.40290600  1
  Ni  Ni6  1  0.00000000  0.50000000  0.90290600  1
  Ni  Ni7  1  0.50000000  0.00000000  0.59709400  1
  Cu  Cu8  1  0.18622200  0.26548200  0.65532900  1
  Cu  Cu9  1  0.81377800  0.73451800  0.65532900  1
  Cu  Cu10  1  0.26548200  0.18622200  0.84467100  1
  Cu  Cu11  1  0.76548200  0.31377800  0.65532900  1
  Cu  Cu12  1  0.23451800  0.68622200  0.65532900  1
  Cu  Cu13  1  0.31377800  0.76548200  0.84467100  1
  Cu  Cu14  1  0.68622200  0.23451800  0.84467100  1
  Cu  Cu15  1  0.73451800  0.81377800  0.84467100  1
  Cu  Cu16  1  0.31377800  0.23451800  0.34467100  1
  Cu  Cu17  1  0.68622200  0.76548200  0.34467100  1
  Cu  Cu18  1  0.23451800  0.31377800  0.15532900  1
  Cu  Cu19  1  0.73451800  0.18622200  0.34467100  1
  Cu  Cu20  1  0.26548200  0.81377800  0.34467100  1
  Cu  Cu21  1  0.18622200  0.73451800  0.15532900  1
  Cu  Cu22  1  0.81377800  0.26548200  0.15532900  1
  Cu  Cu23  1  0.76548200  0.68622200  0.15532900  1
  C  C24  1  0.27624600  0.13115100  0.59195800  1
  C  C25  1  0.72375400  0.86884900  0.59195800  1
  C  C26  1  0.13115100  0.27624600  0.90804200  1
  C  C27  1  0.63115100  0.22375400  0.59195800  1
  C  C28  1  0.36884900  0.77624600  0.59195800  1
  C  C29  1  0.22375400  0.63115100  0.90804200  1
  C  C30  1  0.77624600  0.36884900  0.90804200  1
  C  C31  1  0.86884900  0.72375400  0.90804200  1
  C  C32  1  0.22375400  0.36884900  0.40804200  1
  C  C33  1  0.77624600  0.63115100  0.40804200  1
  C  C34  1  0.36884900  0.22375400  0.09195800  1
  C  C35  1  0.86884900  0.27624600  0.40804200  1
  C  C36  1  0.13115100  0.72375400  0.40804200  1
  C  C37  1  0.27624600  0.86884900  0.09195800  1
  C  C38  1  0.72375400  0.13115100  0.09195800  1
  C  C39  1  0.25047300  0.02902700  0.36298000  1
  C  C40  1  0.63115100  0.77624600  0.09195800  1
  C  C41  1  0.75047300  0.52902700  0.63702000  1
  C  C42  1  0.47097300  0.24952700  0.86298000  1
  C  C43  1  0.97097300  0.25047300  0.63702000  1
  C  C44  1  0.02902700  0.74952700  0.63702000  1
  C  C45  1  0.25047300  0.97097300  0.86298000  1
  C  C46  1  0.74952700  0.02902700  0.86298000  1
  C  C47  1  0.52902700  0.75047300  0.86298000  1
  C  C48  1  0.72239700  0.72239700  0.25000000  1
  C  C49  1  0.77760300  0.22239700  0.25000000  1
  C  C50  1  0.22239700  0.77760300  0.25000000  1
  C  C51  1  0.27760300  0.27760300  0.25000000  1
  C  C52  1  0.77760300  0.77760300  0.75000000  1
  C  C53  1  0.72239700  0.27760300  0.75000000  1
  C  C54  1  0.27760300  0.72239700  0.75000000  1
  C  C55  1  0.22239700  0.22239700  0.75000000  1
  C  C56  1  0.97097300  0.74952700  0.13702000  1
  C  C57  1  0.75047300  0.47097300  0.13702000  1
  C  C58  1  0.24952700  0.52902700  0.13702000  1
  C  C59  1  0.47097300  0.75047300  0.36298000  1
  C  C60  1  0.52902700  0.24952700  0.36298000  1
  C  C61  1  0.02902700  0.25047300  0.13702000  1
  C  C62  1  0.74952700  0.97097300  0.36298000  1
  C  C63  1  0.24952700  0.47097300  0.63702000  1
