# generated using pymatgen
data_Cu4Ni2C17
_symmetry_space_group_name_H-M   'P 1'
_cell_length_a   8.54163843
_cell_length_b   8.54163843
_cell_length_c   5.01101600
_cell_angle_alpha   90.00000000
_cell_angle_beta   90.00000000
_cell_angle_gamma   120.00000337
_symmetry_Int_Tables_number   1
_chemical_formula_structural   Cu4Ni2C17
_chemical_formula_sum   'Cu4 Ni2 C17'
_cell_volume   316.62031324
_cell_formula_units_Z   1
loop_
 _symmetry_equiv_pos_site_id
 _symmetry_equiv_pos_as_xyz
  1  'x, y, z'
loop_
 _atom_site_type_symbol
 _atom_site_label
 _atom_site_symmetry_multiplicity
 _atom_site_fract_x
 _atom_site_fract_y
 _atom_site_fract_z
 _atom_site_occupancy
  Ni  Ni0  1  0.66666700  0.33333300  0.49515200  1
  Ni  Ni1  1  0.33333300  0.66666700  0.50484800  1
  Cu  Cu2  1  0.24539900  0.00000000  0.50000000  1
  Cu  Cu3  1  0.00000000  0.00000000  0.00000000  1
  Cu  Cu4  1  0.00000000  0.24539900  0.50000000  1
  Cu  Cu5  1  0.75460100  0.75460100  0.50000000  1
  C  C6  1  0.57913200  0.00000000  0.00000000  1
  C  C7  1  0.00000000  0.57913200  0.00000000  1
  C  C8  1  0.42086800  0.42086800  0.00000000  1
  C  C9  1  0.66666700  0.33333300  0.85260500  1
  C  C10  1  0.55281100  0.71456600  0.66514600  1
  C  C11  1  0.28543400  0.83824600  0.66514600  1
  C  C12  1  0.79237700  0.90970500  0.23263800  1
  C  C13  1  0.11732800  0.20762300  0.23263800  1
  C  C14  1  0.83824600  0.28543400  0.33485400  1
  C  C15  1  0.88267200  0.09029500  0.76736200  1
  C  C16  1  0.44718900  0.16175400  0.33485400  1
  C  C17  1  0.71456600  0.55281100  0.33485400  1
  C  C18  1  0.09029500  0.88267200  0.23263800  1
  C  C19  1  0.90970500  0.79237700  0.76736200  1
  C  C20  1  0.16175400  0.44718900  0.66514600  1
  C  C21  1  0.33333300  0.66666700  0.14739500  1
  C  C22  1  0.20762300  0.11732800  0.76736200  1
