# generated using pymatgen
data_Cu15Ni3C4
_symmetry_space_group_name_H-M   'P 1'
_cell_length_a   14.63561200
_cell_length_b   14.63561200
_cell_length_c   14.92393700
_cell_angle_alpha   90.00000000
_cell_angle_beta   90.00000000
_cell_angle_gamma   90.00000000
_symmetry_Int_Tables_number   1
_chemical_formula_structural   Cu15Ni3C4
_chemical_formula_sum   'Cu120 Ni24 C32'
_cell_volume   3196.72429801
_cell_formula_units_Z   8
loop_
 _symmetry_equiv_pos_site_id
 _symmetry_equiv_pos_as_xyz
  1  'x, y, z'
loop_
 _atom_site_type_symbol
 _atom_site_label
 _atom_site_symmetry_multiplicity
 _atom_site_fract_x
 _atom_site_fract_y
 _atom_site_fract_z
 _atom_site_occupancy
  C  C0  1  0.75000000  0.25000000  0.22845900  1
  C  C1  1  0.75000000  0.25000000  0.72845900  1
  C  C2  1  0.25000000  0.75000000  0.27154100  1
  C  C3  1  0.25000000  0.75000000  0.77154100  1
  C  C4  1  0.50000000  0.50000000  0.50000000  1
  C  C5  1  0.50000000  0.00000000  0.00000000  1
  C  C6  1  0.00000000  0.50000000  0.00000000  1
  C  C7  1  0.00000000  0.00000000  0.50000000  1
  C  C8  1  0.95336600  0.55184500  0.23629100  1
  C  C9  1  0.04663400  0.44815500  0.76370900  1
  C  C10  1  0.46026800  0.74675300  0.52917200  1
  C  C11  1  0.24675300  0.53973200  0.02917200  1
  C  C12  1  0.75324700  0.46026800  0.97082800  1
  C  C13  1  0.45967600  0.24061800  0.05418600  1
  C  C14  1  0.25938200  0.45967600  0.44581400  1
  C  C15  1  0.75938200  0.95967600  0.55418600  1
  C  C16  1  0.53973200  0.25324700  0.47082800  1
  C  C17  1  0.05184500  0.04663400  0.73629100  1
  C  C18  1  0.04032400  0.25938200  0.05418600  1
  C  C19  1  0.24061800  0.04032400  0.44581400  1
  C  C20  1  0.55184500  0.54663400  0.26370900  1
  C  C21  1  0.95967600  0.74061800  0.94581400  1
  C  C22  1  0.44815500  0.45336600  0.73629100  1
  C  C23  1  0.74061800  0.54032400  0.55418600  1
  C  C24  1  0.45336600  0.05184500  0.76370900  1
  C  C25  1  0.25324700  0.96026800  0.02917200  1
  C  C26  1  0.54663400  0.94815500  0.23629100  1
  C  C27  1  0.03973200  0.75324700  0.52917200  1
  C  C28  1  0.96026800  0.24675300  0.47082800  1
  C  C29  1  0.54032400  0.75938200  0.94581400  1
  C  C30  1  0.94815500  0.95336600  0.26370900  1
  C  C31  1  0.74675300  0.03973200  0.97082800  1
  Ni  Ni32  1  0.55282300  0.38034200  0.46207700  1
  Ni  Ni33  1  0.44615300  0.44492300  0.60982700  1
  Ni  Ni34  1  0.53040300  0.88715800  0.93220500  1
  Ni  Ni35  1  0.94717700  0.11965800  0.46207700  1
  Ni  Ni36  1  0.11284200  0.03040300  0.43220500  1
  Ni  Ni37  1  0.05384700  0.05507700  0.60982700  1
  Ni  Ni38  1  0.88715800  0.96959700  0.56779500  1
  Ni  Ni39  1  0.05507700  0.44615300  0.89017300  1
  Ni  Ni40  1  0.55384700  0.55507700  0.39017300  1
  Ni  Ni41  1  0.38034200  0.94717700  0.03792300  1
  Ni  Ni42  1  0.94492300  0.55384700  0.10982700  1
  Ni  Ni43  1  0.96959700  0.61284200  0.93220500  1
  Ni  Ni44  1  0.88034200  0.44717700  0.96207700  1
  Ni  Ni45  1  0.38715800  0.46959700  0.43220500  1
  Ni  Ni46  1  0.44492300  0.05384700  0.89017300  1
  Ni  Ni47  1  0.03040300  0.38715800  0.06779500  1
  Ni  Ni48  1  0.05282300  0.88034200  0.53792300  1
  Ni  Ni49  1  0.55507700  0.94615300  0.10982700  1
  Ni  Ni50  1  0.61965800  0.05282300  0.96207700  1
  Ni  Ni51  1  0.46959700  0.11284200  0.06779500  1
  Ni  Ni52  1  0.11965800  0.55282300  0.03792300  1
  Ni  Ni53  1  0.61284200  0.53040300  0.56779500  1
  Ni  Ni54  1  0.44717700  0.61965800  0.53792300  1
  Ni  Ni55  1  0.94615300  0.94492300  0.39017300  1
  Cu  Cu56  1  0.75003500  0.93490100  0.04231000  1
  Cu  Cu57  1  0.45254100  0.05744800  0.63859300  1
  Cu  Cu58  1  0.14803300  0.37038400  0.76315200  1
  Cu  Cu59  1  0.23538700  0.14480500  0.51815100  1
  Cu  Cu60  1  0.24476300  0.56605500  0.37480100  1
  Cu  Cu61  1  0.75019100  0.11157000  0.07640200  1
  Cu  Cu62  1  0.35269300  0.75402500  0.59881500  1
  Cu  Cu63  1  0.62961600  0.64803300  0.26315200  1
  Cu  Cu64  1  0.15356600  0.96703400  0.73627500  1
  Cu  Cu65  1  0.03296600  0.65356600  0.23627500  1
  Cu  Cu66  1  0.74980900  0.38843000  0.07640200  1
  Cu  Cu67  1  0.11227700  0.25871500  0.15775500  1
  Cu  Cu68  1  0.44458700  0.02544500  0.24431600  1
  Cu  Cu69  1  0.88772300  0.74128500  0.84224500  1
  Cu  Cu70  1  0.64480500  0.76461300  0.01815100  1
  Cu  Cu71  1  0.75402500  0.14730700  0.90118500  1
  Cu  Cu72  1  0.25230200  0.53436400  0.54830400  1
  Cu  Cu73  1  0.95044400  0.86815600  0.94721000  1
  Cu  Cu74  1  0.03204300  0.25379600  0.36694600  1
  Cu  Cu75  1  0.12961600  0.14803300  0.73684800  1
  Cu  Cu76  1  0.84643400  0.03296600  0.26372500  1
  Cu  Cu77  1  0.95552700  0.37426700  0.47233200  1
  Cu  Cu78  1  0.95254100  0.55744800  0.36140700  1
  Cu  Cu79  1  0.25871500  0.38772300  0.34224500  1
  Cu  Cu80  1  0.37426700  0.54447300  0.02766800  1
  Cu  Cu81  1  0.04447300  0.62573300  0.52766800  1
  Cu  Cu82  1  0.93394500  0.24476300  0.12519900  1
  Cu  Cu83  1  0.44255200  0.45254100  0.86140700  1
  Cu  Cu84  1  0.35519500  0.23538700  0.98184900  1
  Cu  Cu85  1  0.06509900  0.25003500  0.54231000  1
  Cu  Cu86  1  0.05160100  0.87652600  0.25385000  1
  Cu  Cu87  1  0.62347400  0.05160100  0.24615000  1
  Cu  Cu88  1  0.54955600  0.63184400  0.94721000  1
  Cu  Cu89  1  0.94458700  0.52544500  0.75568400  1
  Cu  Cu90  1  0.74476300  0.06605500  0.62519900  1
  Cu  Cu91  1  0.53436400  0.24769800  0.95169600  1
  Cu  Cu92  1  0.05541300  0.47455500  0.24431600  1
  Cu  Cu93  1  0.88843000  0.25019100  0.57640200  1
  Cu  Cu94  1  0.75523700  0.43394500  0.62519900  1
  Cu  Cu95  1  0.62573300  0.45552700  0.97233200  1
  Cu  Cu96  1  0.43394500  0.74476300  0.87480100  1
  Cu  Cu97  1  0.06605500  0.75523700  0.87480100  1
  Cu  Cu98  1  0.61157000  0.24980900  0.57640200  1
  Cu  Cu99  1  0.74769800  0.46563600  0.45169600  1
  Cu  Cu100  1  0.26461300  0.35519500  0.51815100  1
  Cu  Cu101  1  0.46703400  0.84643400  0.23627500  1
  Cu  Cu102  1  0.85196700  0.62961600  0.23684800  1
  Cu  Cu103  1  0.96563600  0.25230200  0.95169600  1
  Cu  Cu104  1  0.37652600  0.94839900  0.75385000  1
  Cu  Cu105  1  0.87652600  0.44839900  0.24615000  1
  Cu  Cu106  1  0.24980900  0.88843000  0.92359800  1
  Cu  Cu107  1  0.45044400  0.36815600  0.05279000  1
  Cu  Cu108  1  0.24996500  0.06509900  0.95769000  1
  Cu  Cu109  1  0.74620400  0.53204300  0.86694600  1
  Cu  Cu110  1  0.56509900  0.75003500  0.45769000  1
  Cu  Cu111  1  0.25402500  0.64730700  0.09881500  1
  Cu  Cu112  1  0.53204300  0.75379600  0.63305400  1
  Cu  Cu113  1  0.97455500  0.94458700  0.74431600  1
  Cu  Cu114  1  0.36815600  0.04955600  0.44721000  1
  Cu  Cu115  1  0.74128500  0.61227700  0.65775500  1
  Cu  Cu116  1  0.47455500  0.44458700  0.25568400  1
  Cu  Cu117  1  0.96795700  0.74620400  0.63305400  1
  Cu  Cu118  1  0.24769800  0.96563600  0.54830400  1
  Cu  Cu119  1  0.87426700  0.04447300  0.97233200  1
  Cu  Cu120  1  0.35196700  0.12961600  0.76315200  1
  Cu  Cu121  1  0.14730700  0.74597500  0.59881500  1
  Cu  Cu122  1  0.54447300  0.12573300  0.47233200  1
  Cu  Cu123  1  0.12573300  0.95552700  0.02766800  1
  Cu  Cu124  1  0.93490100  0.74996500  0.45769000  1
  Cu  Cu125  1  0.55160100  0.37652600  0.74615000  1
  Cu  Cu126  1  0.65356600  0.46703400  0.26372500  1
  Cu  Cu127  1  0.53296600  0.15356600  0.76372500  1
  Cu  Cu128  1  0.24128500  0.11227700  0.34224500  1
  Cu  Cu129  1  0.55744800  0.54745900  0.13859300  1
  Cu  Cu130  1  0.11157000  0.74980900  0.42359800  1
  Cu  Cu131  1  0.45552700  0.87426700  0.52766800  1
  Cu  Cu132  1  0.02544500  0.05541300  0.25568400  1
  Cu  Cu133  1  0.13184400  0.45044400  0.44721000  1
  Cu  Cu134  1  0.75230200  0.03436400  0.45169600  1
  Cu  Cu135  1  0.64803300  0.87038400  0.23684800  1
  Cu  Cu136  1  0.24620400  0.03204300  0.13305400  1
  Cu  Cu137  1  0.64730700  0.24597500  0.40118500  1
  Cu  Cu138  1  0.74597500  0.35269300  0.90118500  1
  Cu  Cu139  1  0.54745900  0.94255200  0.36140700  1
  Cu  Cu140  1  0.76461300  0.85519500  0.48184900  1
  Cu  Cu141  1  0.46795700  0.24620400  0.36694600  1
  Cu  Cu142  1  0.46563600  0.75230200  0.04830400  1
  Cu  Cu143  1  0.85269300  0.25402500  0.40118500  1
  Cu  Cu144  1  0.25523700  0.93394500  0.37480100  1
  Cu  Cu145  1  0.44839900  0.62347400  0.25385000  1
  Cu  Cu146  1  0.12347400  0.55160100  0.75385000  1
  Cu  Cu147  1  0.85519500  0.73538700  0.01815100  1
  Cu  Cu148  1  0.75871500  0.88772300  0.65775500  1
  Cu  Cu149  1  0.94839900  0.12347400  0.74615000  1
  Cu  Cu150  1  0.63184400  0.95044400  0.55279000  1
  Cu  Cu151  1  0.34643400  0.53296600  0.73627500  1
  Cu  Cu152  1  0.86815600  0.54955600  0.55279000  1
  Cu  Cu153  1  0.38772300  0.24128500  0.15775500  1
  Cu  Cu154  1  0.04955600  0.13184400  0.05279000  1
  Cu  Cu155  1  0.75379600  0.96795700  0.86694600  1
  Cu  Cu156  1  0.25003500  0.43490100  0.95769000  1
  Cu  Cu157  1  0.74996500  0.56509900  0.04231000  1
  Cu  Cu158  1  0.43490100  0.24996500  0.54231000  1
  Cu  Cu159  1  0.25379600  0.46795700  0.13305400  1
  Cu  Cu160  1  0.52544500  0.55541300  0.74431600  1
  Cu  Cu161  1  0.55541300  0.97455500  0.75568400  1
  Cu  Cu162  1  0.37038400  0.35196700  0.73684800  1
  Cu  Cu163  1  0.05744800  0.04745900  0.86140700  1
  Cu  Cu164  1  0.38843000  0.75019100  0.42359800  1
  Cu  Cu165  1  0.87038400  0.85196700  0.26315200  1
  Cu  Cu166  1  0.14480500  0.26461300  0.98184900  1
  Cu  Cu167  1  0.61227700  0.75871500  0.84224500  1
  Cu  Cu168  1  0.96703400  0.34643400  0.76372500  1
  Cu  Cu169  1  0.56605500  0.25523700  0.12519900  1
  Cu  Cu170  1  0.94255200  0.95254100  0.13859300  1
  Cu  Cu171  1  0.73538700  0.64480500  0.48184900  1
  Cu  Cu172  1  0.04745900  0.44255200  0.63859300  1
  Cu  Cu173  1  0.25019100  0.61157000  0.92359800  1
  Cu  Cu174  1  0.03436400  0.74769800  0.04830400  1
  Cu  Cu175  1  0.24597500  0.85269300  0.09881500  1
