# generated using pymatgen
data_CuNiC5
_symmetry_space_group_name_H-M   'P 1'
_cell_length_a   5.21389070
_cell_length_b   5.21389070
_cell_length_c   8.81270000
_cell_angle_alpha   90.00000000
_cell_angle_beta   90.00000000
_cell_angle_gamma   120.00000887
_symmetry_Int_Tables_number   1
_chemical_formula_structural   CuNiC5
_chemical_formula_sum   'Cu2 Ni2 C10'
_cell_volume   207.47387788
_cell_formula_units_Z   2
loop_
 _symmetry_equiv_pos_site_id
 _symmetry_equiv_pos_as_xyz
  1  'x, y, z'
loop_
 _atom_site_type_symbol
 _atom_site_label
 _atom_site_symmetry_multiplicity
 _atom_site_fract_x
 _atom_site_fract_y
 _atom_site_fract_z
 _atom_site_occupancy
  Ni  Ni0  1  0.00000000  0.00000000  0.18028800  1
  Ni  Ni1  1  0.00000000  0.00000000  0.68028800  1
  Cu  Cu2  1  0.33333300  0.66666700  0.49323400  1
  Cu  Cu3  1  0.66666700  0.33333300  0.99323400  1
  C  C4  1  0.33333300  0.66666700  0.88305600  1
  C  C5  1  0.66666700  0.33333300  0.38305600  1
  C  C6  1  0.94022900  0.33945100  0.43801500  1
  C  C7  1  0.60077800  0.66054900  0.93801500  1
  C  C8  1  0.66054900  0.60077800  0.43801500  1
  C  C9  1  0.39922200  0.05977100  0.43801500  1
  C  C10  1  0.33333300  0.66666700  0.71387800  1
  C  C11  1  0.66666700  0.33333300  0.21387800  1
  C  C12  1  0.33945100  0.94022900  0.93801500  1
  C  C13  1  0.05977100  0.39922200  0.93801500  1
