# generated using pymatgen
data_Cu(NiC3)2
_symmetry_space_group_name_H-M   'P 1'
_cell_length_a   5.64998711
_cell_length_b   5.64998711
_cell_length_c   6.77605369
_cell_angle_alpha   88.35719593
_cell_angle_beta   88.35719593
_cell_angle_gamma   71.38183627
_symmetry_Int_Tables_number   1
_chemical_formula_structural   Cu(NiC3)2
_chemical_formula_sum   'Cu2 Ni4 C12'
_cell_volume   204.85987121
_cell_formula_units_Z   2
loop_
 _symmetry_equiv_pos_site_id
 _symmetry_equiv_pos_as_xyz
  1  'x, y, z'
loop_
 _atom_site_type_symbol
 _atom_site_label
 _atom_site_symmetry_multiplicity
 _atom_site_fract_x
 _atom_site_fract_y
 _atom_site_fract_z
 _atom_site_occupancy
  Ni  Ni0  1  0.00000000  0.00000000  0.50000000  1
  Ni  Ni1  1  0.00000000  0.00000000  0.00000000  1
  Ni  Ni2  1  0.38763100  0.38763100  0.28372300  1
  Ni  Ni3  1  0.61236900  0.61236900  0.71627700  1
  Cu  Cu4  1  0.24356000  0.24356000  0.65921300  1
  Cu  Cu5  1  0.75644000  0.75644000  0.34078700  1
  C  C6  1  0.83883000  0.83883000  0.73237900  1
  C  C7  1  0.68585800  0.31414200  0.50000000  1
  C  C8  1  0.31414200  0.68585800  0.50000000  1
  C  C9  1  0.16117000  0.16117000  0.26762100  1
  C  C10  1  0.40876800  0.40876800  0.82843400  1
  C  C11  1  0.71283200  0.09301400  0.19220600  1
  C  C12  1  0.09301400  0.71283200  0.19220600  1
  C  C13  1  0.67775600  0.67775600  0.99818200  1
  C  C14  1  0.32224400  0.32224400  0.00181800  1
  C  C15  1  0.28716800  0.90698600  0.80779400  1
  C  C16  1  0.90698600  0.28716800  0.80779400  1
  C  C17  1  0.59123200  0.59123200  0.17156600  1
