# generated using pymatgen
data_Cu2(NiC3)3
_symmetry_space_group_name_H-M   'P 1'
_cell_length_a   10.86995708
_cell_length_b   10.86995708
_cell_length_c   6.94179588
_cell_angle_alpha   75.61193362
_cell_angle_beta   75.61193362
_cell_angle_gamma   28.27818330
_symmetry_Int_Tables_number   1
_chemical_formula_structural   Cu2(NiC3)3
_chemical_formula_sum   'Cu4 Ni6 C18'
_cell_volume   375.60449756
_cell_formula_units_Z   2
loop_
 _symmetry_equiv_pos_site_id
 _symmetry_equiv_pos_as_xyz
  1  'x, y, z'
loop_
 _atom_site_type_symbol
 _atom_site_label
 _atom_site_symmetry_multiplicity
 _atom_site_fract_x
 _atom_site_fract_y
 _atom_site_fract_z
 _atom_site_occupancy
  Ni  Ni0  1  0.00000000  0.00000000  0.00000000  1
  Ni  Ni1  1  0.00000000  0.00000000  0.50000000  1
  Ni  Ni2  1  0.08616500  0.26629500  0.94175300  1
  Ni  Ni3  1  0.73370500  0.91383500  0.55824700  1
  Ni  Ni4  1  0.91383500  0.73370500  0.05824700  1
  Ni  Ni5  1  0.26629500  0.08616500  0.44175300  1
  Cu  Cu6  1  0.51081100  0.61618900  0.08421200  1
  Cu  Cu7  1  0.38381100  0.48918900  0.41578800  1
  Cu  Cu8  1  0.48918900  0.38381100  0.91578800  1
  Cu  Cu9  1  0.61618900  0.51081100  0.58421200  1
  C  C10  1  0.13820100  0.04967200  0.99139800  1
  C  C11  1  0.95032800  0.86179900  0.50860200  1
  C  C12  1  0.86179900  0.95032800  0.00860200  1
  C  C13  1  0.04967200  0.13820100  0.49139800  1
  C  C14  1  0.73589900  0.55773100  0.97974200  1
  C  C15  1  0.44226900  0.26410100  0.52025800  1
  C  C16  1  0.26410100  0.44226900  0.02025800  1
  C  C17  1  0.55773100  0.73589900  0.47974200  1
  C  C18  1  0.64050300  0.31644700  0.11950100  1
  C  C19  1  0.68355300  0.35949700  0.38049900  1
  C  C20  1  0.35949700  0.68355300  0.88049900  1
  C  C21  1  0.31644700  0.64050300  0.61950100  1
  C  C22  1  0.79324500  0.79341900  0.33753700  1
  C  C23  1  0.20658100  0.20675500  0.16246300  1
  C  C24  1  0.20675500  0.20658100  0.66246300  1
  C  C25  1  0.79341900  0.79324500  0.83753700  1
  C  C26  1  0.18803600  0.81196400  0.25000000  1
  C  C27  1  0.81196400  0.18803600  0.75000000  1
