# generated using pymatgen
data_Cu11Ni14C11
_symmetry_space_group_name_H-M   'P 1'
_cell_length_a   12.65737119
_cell_length_b   12.65737119
_cell_length_c   12.65737119
_cell_angle_alpha   60.00000000
_cell_angle_beta   60.00000000
_cell_angle_gamma   60.00000000
_symmetry_Int_Tables_number   1
_chemical_formula_structural   Cu11Ni14C11
_chemical_formula_sum   'Cu11 Ni14 C11'
_cell_volume   1433.88906018
_cell_formula_units_Z   1
loop_
 _symmetry_equiv_pos_site_id
 _symmetry_equiv_pos_as_xyz
  1  'x, y, z'
loop_
 _atom_site_type_symbol
 _atom_site_label
 _atom_site_symmetry_multiplicity
 _atom_site_fract_x
 _atom_site_fract_y
 _atom_site_fract_z
 _atom_site_occupancy
  Ni  Ni0  1  0.28536800  0.71463200  0.71463200  1
  Ni  Ni1  1  0.10238700  0.10238700  0.10238700  1
  Ni  Ni2  1  0.10238700  0.10238700  0.69283900  1
  Ni  Ni3  1  0.89675300  0.89675300  0.89675300  1
  Ni  Ni4  1  0.89675300  0.89675300  0.30974000  1
  Ni  Ni5  1  0.89675300  0.30974000  0.89675300  1
  Ni  Ni6  1  0.28536800  0.28536800  0.71463200  1
  Ni  Ni7  1  0.28536800  0.71463200  0.28536800  1
  Ni  Ni8  1  0.71463200  0.28536800  0.71463200  1
  Ni  Ni9  1  0.10238700  0.69283900  0.10238700  1
  Ni  Ni10  1  0.30974000  0.89675300  0.89675300  1
  Ni  Ni11  1  0.71463200  0.71463200  0.28536800  1
  Ni  Ni12  1  0.69283900  0.10238700  0.10238700  1
  Ni  Ni13  1  0.71463200  0.28536800  0.28536800  1
  Cu  Cu14  1  0.32969000  0.01092900  0.32969000  1
  Cu  Cu15  1  0.51035700  0.98964300  0.98964300  1
  Cu  Cu16  1  0.32969000  0.32969000  0.32969000  1
  Cu  Cu17  1  0.51035700  0.51035700  0.98964300  1
  Cu  Cu18  1  0.98964300  0.51035700  0.51035700  1
  Cu  Cu19  1  0.50000000  0.50000000  0.50000000  1
  Cu  Cu20  1  0.98964300  0.98964300  0.51035700  1
  Cu  Cu21  1  0.32969000  0.32969000  0.01092900  1
  Cu  Cu22  1  0.51035700  0.98964300  0.51035700  1
  Cu  Cu23  1  0.98964300  0.51035700  0.98964300  1
  Cu  Cu24  1  0.01092900  0.32969000  0.32969000  1
  C  C25  1  0.64302700  0.64302700  0.64302700  1
  C  C26  1  0.64302700  0.64302700  0.07092000  1
  C  C27  1  0.64302700  0.07092000  0.64302700  1
  C  C28  1  0.07092000  0.64302700  0.64302700  1
  C  C29  1  0.00000000  0.00000000  0.00000000  1
  C  C30  1  0.14544700  0.14544700  0.85455300  1
  C  C31  1  0.85455300  0.85455300  0.14544700  1
  C  C32  1  0.14544700  0.85455300  0.14544700  1
  C  C33  1  0.14544700  0.85455300  0.85455300  1
  C  C34  1  0.85455300  0.14544700  0.14544700  1
  C  C35  1  0.85455300  0.14544700  0.85455300  1
