# generated using pymatgen
data_Cu(Ni5C3)2
_symmetry_space_group_name_H-M   'P 1'
_cell_length_a   11.99702500
_cell_length_b   12.69454200
_cell_length_c   14.18961900
_cell_angle_alpha   90.00000000
_cell_angle_beta   90.00000000
_cell_angle_gamma   90.00000000
_symmetry_Int_Tables_number   1
_chemical_formula_structural   Cu(Ni5C3)2
_chemical_formula_sum   'Cu4 Ni40 C24'
_cell_volume   2161.03268344
_cell_formula_units_Z   4
loop_
 _symmetry_equiv_pos_site_id
 _symmetry_equiv_pos_as_xyz
  1  'x, y, z'
loop_
 _atom_site_type_symbol
 _atom_site_label
 _atom_site_symmetry_multiplicity
 _atom_site_fract_x
 _atom_site_fract_y
 _atom_site_fract_z
 _atom_site_occupancy
  C  C0  1  0.28952800  0.89392800  0.63590700  1
  C  C1  1  0.47795600  0.78455500  0.36137900  1
  C  C2  1  0.21047200  0.89392800  0.13590700  1
  C  C3  1  0.02204400  0.28455500  0.63862100  1
  C  C4  1  0.78952800  0.60607200  0.63590700  1
  C  C5  1  0.02204400  0.78455500  0.86137900  1
  C  C6  1  0.71047200  0.10607200  0.36409300  1
  C  C7  1  0.21047200  0.39392800  0.36409300  1
  C  C8  1  0.71047200  0.60607200  0.13590700  1
  C  C9  1  0.28952800  0.39392800  0.86409300  1
  C  C10  1  0.47795600  0.28455500  0.13862100  1
  C  C11  1  0.52204400  0.71544500  0.86137900  1
  C  C12  1  0.52204400  0.21544500  0.63862100  1
  C  C13  1  0.78952800  0.10607200  0.86409300  1
  C  C14  1  0.97795600  0.71544500  0.36137900  1
  C  C15  1  0.97795600  0.21544500  0.13862100  1
  C  C16  1  0.41466400  0.55300000  0.59404200  1
  C  C17  1  0.91466400  0.94700000  0.59404200  1
  C  C18  1  0.58533600  0.44700000  0.40595800  1
  C  C19  1  0.58533600  0.94700000  0.09404200  1
  C  C20  1  0.91466400  0.44700000  0.90595800  1
  C  C21  1  0.08533600  0.55300000  0.09404200  1
  C  C22  1  0.41466400  0.05300000  0.90595800  1
  C  C23  1  0.08533600  0.05300000  0.40595800  1
  Ni  Ni24  1  0.96886900  0.98229900  0.28378400  1
  Ni  Ni25  1  0.51911100  0.71442700  0.60176000  1
  Ni  Ni26  1  0.78339500  0.36729700  0.01121100  1
  Ni  Ni27  1  0.51911100  0.21442700  0.89824000  1
  Ni  Ni28  1  0.28339500  0.13270300  0.01121100  1
  Ni  Ni29  1  0.48088900  0.28557300  0.39824000  1
  Ni  Ni30  1  0.29950600  0.89885200  0.89585900  1
  Ni  Ni31  1  0.71660500  0.86729700  0.98878900  1
  Ni  Ni32  1  0.19627400  0.62382000  0.21658600  1
  Ni  Ni33  1  0.70049400  0.10114800  0.10414100  1
  Ni  Ni34  1  0.19627400  0.12382000  0.28341400  1
  Ni  Ni35  1  0.30372600  0.62382000  0.71658600  1
  Ni  Ni36  1  0.01911100  0.28557300  0.89824000  1
  Ni  Ni37  1  0.80372600  0.87618000  0.71658600  1
  Ni  Ni38  1  0.28339500  0.63270300  0.48878900  1
  Ni  Ni39  1  0.03113100  0.01770100  0.71621600  1
  Ni  Ni40  1  0.20049400  0.89885200  0.39585900  1
  Ni  Ni41  1  0.80372600  0.37618000  0.78341400  1
  Ni  Ni42  1  0.29950600  0.39885200  0.60414100  1
  Ni  Ni43  1  0.79950600  0.60114800  0.89585900  1
  Ni  Ni44  1  0.69627400  0.37618000  0.28341400  1
  Ni  Ni45  1  0.96886900  0.48229900  0.21621600  1
  Ni  Ni46  1  0.48088900  0.78557300  0.10176000  1
  Ni  Ni47  1  0.98088900  0.21442700  0.39824000  1
  Ni  Ni48  1  0.46886900  0.51770100  0.28378400  1
  Ni  Ni49  1  0.78339500  0.86729700  0.48878900  1
  Ni  Ni50  1  0.03113100  0.51770100  0.78378400  1
  Ni  Ni51  1  0.30372600  0.12382000  0.78341400  1
  Ni  Ni52  1  0.21660500  0.13270300  0.51121100  1
  Ni  Ni53  1  0.71660500  0.36729700  0.51121100  1
  Ni  Ni54  1  0.79950600  0.10114800  0.60414100  1
  Ni  Ni55  1  0.21660500  0.63270300  0.98878900  1
  Ni  Ni56  1  0.01911100  0.78557300  0.60176000  1
  Ni  Ni57  1  0.46886900  0.01770100  0.21621600  1
  Ni  Ni58  1  0.53113100  0.98229900  0.78378400  1
  Ni  Ni59  1  0.20049400  0.39885200  0.10414100  1
  Ni  Ni60  1  0.69627400  0.87618000  0.21658600  1
  Ni  Ni61  1  0.53113100  0.48229900  0.71621600  1
  Ni  Ni62  1  0.98088900  0.71442700  0.10176000  1
  Ni  Ni63  1  0.70049400  0.60114800  0.39585900  1
  Cu  Cu64  1  0.50000000  0.00000000  0.00000000  1
  Cu  Cu65  1  0.50000000  0.50000000  0.50000000  1
  Cu  Cu66  1  0.00000000  0.50000000  0.00000000  1
  Cu  Cu67  1  0.00000000  0.00000000  0.50000000  1
