# generated using pymatgen
data_Cu3NiC31
_symmetry_space_group_name_H-M   'P 1'
_cell_length_a   8.29735600
_cell_length_b   8.67471632
_cell_length_c   12.01602294
_cell_angle_alpha   93.68541295
_cell_angle_beta   90.14246209
_cell_angle_gamma   90.19320079
_symmetry_Int_Tables_number   1
_chemical_formula_structural   Cu3NiC31
_chemical_formula_sum   'Cu6 Ni2 C62'
_cell_volume   863.08316915
_cell_formula_units_Z   2
loop_
 _symmetry_equiv_pos_site_id
 _symmetry_equiv_pos_as_xyz
  1  'x, y, z'
loop_
 _atom_site_type_symbol
 _atom_site_label
 _atom_site_symmetry_multiplicity
 _atom_site_fract_x
 _atom_site_fract_y
 _atom_site_fract_z
 _atom_site_occupancy
  C  C0  1  0.34867100  0.72667800  0.08488900  1
  C  C1  1  0.65132900  0.27332200  0.91511100  1
  Ni  Ni2  1  0.50098300  0.78309200  0.85387600  1
  Ni  Ni3  1  0.49901700  0.21690800  0.14612400  1
  Cu  Cu4  1  0.99501700  0.70573000  0.15326900  1
  Cu  Cu5  1  0.99615000  0.28553100  0.35576200  1
  Cu  Cu6  1  0.49979400  0.20057500  0.64228400  1
  Cu  Cu7  1  0.00385000  0.71446900  0.64423800  1
  Cu  Cu8  1  0.50020600  0.79942500  0.35771600  1
  Cu  Cu9  1  0.00498300  0.29427000  0.84673100  1
  C  C10  1  0.14551500  0.35804200  0.60352800  1
  C  C11  1  0.20710600  0.00061400  0.25205400  1
  C  C12  1  0.35075300  0.85570600  0.60226000  1
  C  C13  1  0.64631500  0.85210300  0.10983700  1
  C  C14  1  0.13331300  0.64434000  0.89693000  1
  C  C15  1  0.71244800  0.49221900  0.74651100  1
  C  C16  1  0.28755200  0.50778100  0.25348900  1
  C  C17  1  0.86668700  0.35566000  0.10307000  1
  C  C18  1  0.35368500  0.14789700  0.89016300  1
  C  C19  1  0.64924700  0.14429400  0.39774000  1
  C  C20  1  0.79289400  0.99938600  0.74794600  1
  C  C21  1  0.85448500  0.64195800  0.39647200  1
  C  C22  1  0.18267600  0.39963900  0.30987500  1
  C  C23  1  0.32031500  0.34025700  0.62376200  1
  C  C24  1  0.04874300  0.28809700  0.69138300  1
  C  C25  1  0.10029100  0.27685400  0.49619300  1
  C  C26  1  0.07622300  0.08196300  0.31510500  1
  C  C27  1  0.36149200  0.02750700  0.61524200  1
  C  C28  1  0.38356500  0.98494200  0.90350900  1
  C  C29  1  0.31016400  0.92580100  0.33408200  1
  C  C30  1  0.13628200  0.87933300  0.17031900  1
  C  C31  1  0.70262900  0.89479200  0.81456100  1
  C  C32  1  0.17860600  0.81765400  0.58074300  1
  C  C33  1  0.45027800  0.79741600  0.50658500  1
  C  C34  1  0.81881900  0.83386200  0.13597700  1
  C  C35  1  0.40827600  0.78267700  0.70017400  1
  C  C36  1  0.54087000  0.79234400  0.20158900  1
  C  C37  1  0.59475200  0.75424500  0.01157300  1
  C  C38  1  0.08757500  0.71795200  0.79408400  1
  C  C39  1  0.02731200  0.70274100  0.98923200  1
  C  C40  1  0.30194700  0.68344900  0.92745100  1
  C  C41  1  0.58597700  0.56894900  0.81173100  1
  C  C42  1  0.35553300  0.62109900  0.33843900  1
  C  C43  1  0.19038900  0.59296500  0.16917600  1
  C  C44  1  0.11122800  0.52504700  0.60182500  1
  C  C45  1  0.87335600  0.52652100  0.12015100  1
  C  C46  1  0.12664400  0.47347900  0.87984900  1
  C  C47  1  0.88877200  0.47495300  0.39817500  1
  C  C48  1  0.80961100  0.40703500  0.83082400  1
  C  C49  1  0.64446700  0.37890100  0.66156100  1
  C  C50  1  0.41402300  0.43105100  0.18826900  1
  C  C51  1  0.69805300  0.31655100  0.07254900  1
  C  C52  1  0.97268800  0.29725900  0.01076800  1
  C  C53  1  0.91242500  0.28204800  0.20591600  1
  C  C54  1  0.40524800  0.24575500  0.98842700  1
  C  C55  1  0.45913000  0.20765600  0.79841100  1
  C  C56  1  0.59172400  0.21732300  0.29982600  1
  C  C57  1  0.18118100  0.16613800  0.86402300  1
  C  C58  1  0.54972200  0.20258400  0.49341500  1
  C  C59  1  0.82139400  0.18234600  0.41925700  1
  C  C60  1  0.29737100  0.10520800  0.18543900  1
  C  C61  1  0.86371800  0.12066700  0.82968100  1
  C  C62  1  0.68983600  0.07419900  0.66591800  1
  C  C63  1  0.61643500  0.01505800  0.09649100  1
  C  C64  1  0.63850800  0.97249300  0.38475800  1
  C  C65  1  0.92377700  0.91803700  0.68489500  1
  C  C66  1  0.89970900  0.72314600  0.50380700  1
  C  C67  1  0.95125700  0.71190300  0.30861700  1
  C  C68  1  0.67968500  0.65974300  0.37623800  1
  C  C69  1  0.81732400  0.60036100  0.69012500  1
