# generated using pymatgen
data_Cu5Ni2C3
_symmetry_space_group_name_H-M   'P 1'
_cell_length_a   4.91299900
_cell_length_b   5.94242900
_cell_length_c   34.27215900
_cell_angle_alpha   90.00000000
_cell_angle_beta   90.00000000
_cell_angle_gamma   90.00000000
_symmetry_Int_Tables_number   1
_chemical_formula_structural   Cu5Ni2C3
_chemical_formula_sum   'Cu40 Ni16 C24'
_cell_volume   1000.58074519
_cell_formula_units_Z   8
loop_
 _symmetry_equiv_pos_site_id
 _symmetry_equiv_pos_as_xyz
  1  'x, y, z'
loop_
 _atom_site_type_symbol
 _atom_site_label
 _atom_site_symmetry_multiplicity
 _atom_site_fract_x
 _atom_site_fract_y
 _atom_site_fract_z
 _atom_site_occupancy
  Ni  Ni0  1  0.69591100  0.41766700  0.12379400  1
  Ni  Ni1  1  0.80408900  0.91766700  0.87620600  1
  Ni  Ni2  1  0.80408900  0.41766700  0.62379400  1
  Ni  Ni3  1  0.21952300  0.09011400  0.22698500  1
  Ni  Ni4  1  0.21952300  0.59011400  0.27301500  1
  Ni  Ni5  1  0.19591100  0.08233300  0.12379400  1
  Ni  Ni6  1  0.69591100  0.91766700  0.37620600  1
  Ni  Ni7  1  0.28047700  0.59011400  0.77301500  1
  Ni  Ni8  1  0.19591100  0.58233300  0.37620600  1
  Ni  Ni9  1  0.78047700  0.90988600  0.77301500  1
  Ni  Ni10  1  0.78047700  0.40988600  0.72698500  1
  Ni  Ni11  1  0.30408900  0.58233300  0.87620600  1
  Ni  Ni12  1  0.71952300  0.40988600  0.22698500  1
  Ni  Ni13  1  0.71952300  0.90988600  0.27301500  1
  Ni  Ni14  1  0.30408900  0.08233300  0.62379400  1
  Ni  Ni15  1  0.28047700  0.09011400  0.72698500  1
  Cu  Cu16  1  0.00466500  0.19916300  0.67380000  1
  Cu  Cu17  1  0.51155000  0.30061300  0.97597400  1
  Cu  Cu18  1  0.49202100  0.70519900  0.62802700  1
  Cu  Cu19  1  0.99202100  0.79480100  0.62802700  1
  Cu  Cu20  1  0.49981500  0.71810100  0.71906100  1
  Cu  Cu21  1  0.01155000  0.19938700  0.97597400  1
  Cu  Cu22  1  0.99202100  0.29480100  0.87197300  1
  Cu  Cu23  1  0.49872200  0.78880600  0.43218000  1
  Cu  Cu24  1  0.00797900  0.70519900  0.12802700  1
  Cu  Cu25  1  0.49533500  0.69916300  0.32620000  1
  Cu  Cu26  1  0.48845000  0.19938700  0.47597400  1
  Cu  Cu27  1  0.49872200  0.28880600  0.06782000  1
  Cu  Cu28  1  0.00018500  0.71810100  0.21906100  1
  Cu  Cu29  1  0.50466500  0.30083700  0.67380000  1
  Cu  Cu30  1  0.50127800  0.21119400  0.56782000  1
  Cu  Cu31  1  0.01155000  0.69938700  0.52402600  1
  Cu  Cu32  1  0.00018500  0.21810100  0.28093900  1
  Cu  Cu33  1  0.98845000  0.30061300  0.47597400  1
  Cu  Cu34  1  0.99533500  0.30083700  0.17380000  1
  Cu  Cu35  1  0.49981500  0.21810100  0.78093900  1
  Cu  Cu36  1  0.48845000  0.69938700  0.02402600  1
  Cu  Cu37  1  0.99981500  0.28189900  0.78093900  1
  Cu  Cu38  1  0.50018500  0.28189900  0.28093900  1
  Cu  Cu39  1  0.49202100  0.20519900  0.87197300  1
  Cu  Cu40  1  0.50797900  0.79480100  0.12802700  1
  Cu  Cu41  1  0.99981500  0.78189900  0.71906100  1
  Cu  Cu42  1  0.00127800  0.78880600  0.93218000  1
  Cu  Cu43  1  0.00127800  0.28880600  0.56782000  1
  Cu  Cu44  1  0.99872200  0.71119400  0.43218000  1
  Cu  Cu45  1  0.50127800  0.71119400  0.93218000  1
  Cu  Cu46  1  0.50018500  0.78189900  0.21906100  1
  Cu  Cu47  1  0.50466500  0.80083700  0.82620000  1
  Cu  Cu48  1  0.98845000  0.80061300  0.02402600  1
  Cu  Cu49  1  0.49533500  0.19916300  0.17380000  1
  Cu  Cu50  1  0.99533500  0.80083700  0.32620000  1
  Cu  Cu51  1  0.00797900  0.20519900  0.37197300  1
  Cu  Cu52  1  0.99872200  0.21119400  0.06782000  1
  Cu  Cu53  1  0.51155000  0.80061300  0.52402600  1
  Cu  Cu54  1  0.50797900  0.29480100  0.37197300  1
  Cu  Cu55  1  0.00466500  0.69916300  0.82620000  1
  C  C56  1  0.20536500  0.07258700  0.42549100  1
  C  C57  1  0.68596400  0.93660900  0.67335200  1
  C  C58  1  0.81329100  0.43445400  0.02333500  1
  C  C59  1  0.18596400  0.06339100  0.82664800  1
  C  C60  1  0.68596400  0.43660900  0.82664800  1
  C  C61  1  0.31403600  0.06339100  0.32664800  1
  C  C62  1  0.68670900  0.93445400  0.97666500  1
  C  C63  1  0.70536500  0.92741300  0.07450900  1
  C  C64  1  0.81329100  0.93445400  0.47666500  1
  C  C65  1  0.18670900  0.06554600  0.52333500  1
  C  C66  1  0.18596400  0.56339100  0.67335200  1
  C  C67  1  0.79463500  0.42741300  0.92549100  1
  C  C68  1  0.20536500  0.57258700  0.07450900  1
  C  C69  1  0.70536500  0.42741300  0.42549100  1
  C  C70  1  0.31329100  0.06554600  0.02333500  1
  C  C71  1  0.29463500  0.57258700  0.57450900  1
  C  C72  1  0.81403600  0.43660900  0.32664800  1
  C  C73  1  0.29463500  0.07258700  0.92549100  1
  C  C74  1  0.18670900  0.56554600  0.97666500  1
  C  C75  1  0.68670900  0.43445400  0.52333500  1
  C  C76  1  0.31329100  0.56554600  0.47666500  1
  C  C77  1  0.79463500  0.92741300  0.57450900  1
  C  C78  1  0.31403600  0.56339100  0.17335200  1
  C  C79  1  0.81403600  0.93660900  0.17335200  1
