# generated using pymatgen
data_CuNi2C7
_symmetry_space_group_name_H-M   'P 1'
_cell_length_a   4.72748739
_cell_length_b   4.72748739
_cell_length_c   18.48529100
_cell_angle_alpha   90.00000000
_cell_angle_beta   90.00000000
_cell_angle_gamma   119.99999147
_symmetry_Int_Tables_number   1
_chemical_formula_structural   CuNi2C7
_chemical_formula_sum   'Cu4 Ni8 C28'
_cell_volume   357.78136694
_cell_formula_units_Z   4
loop_
 _symmetry_equiv_pos_site_id
 _symmetry_equiv_pos_as_xyz
  1  'x, y, z'
loop_
 _atom_site_type_symbol
 _atom_site_label
 _atom_site_symmetry_multiplicity
 _atom_site_fract_x
 _atom_site_fract_y
 _atom_site_fract_z
 _atom_site_occupancy
  C  C0  1  0.33333300  0.66666700  0.25000000  1
  C  C1  1  0.66666700  0.33333300  0.75000000  1
  Ni  Ni2  1  0.00000000  0.00000000  0.35131900  1
  Ni  Ni3  1  0.00000000  0.00000000  0.64868100  1
  Ni  Ni4  1  0.00000000  0.00000000  0.85131900  1
  Ni  Ni5  1  0.00000000  0.00000000  0.14868100  1
  Ni  Ni6  1  0.33333300  0.66666700  0.94797400  1
  Ni  Ni7  1  0.66666700  0.33333300  0.05202600  1
  Ni  Ni8  1  0.66666700  0.33333300  0.44797400  1
  Ni  Ni9  1  0.33333300  0.66666700  0.55202600  1
  C  C10  1  0.16367900  0.83632100  0.44877500  1
  C  C11  1  0.16367900  0.32735700  0.44877500  1
  C  C12  1  0.67264300  0.83632100  0.44877500  1
  C  C13  1  0.83632100  0.16367900  0.55122500  1
  C  C14  1  0.83632100  0.67264300  0.55122500  1
  C  C15  1  0.32735700  0.16367900  0.55122500  1
  C  C16  1  0.83632100  0.16367900  0.94877500  1
  C  C17  1  0.83632100  0.67264300  0.94877500  1
  C  C18  1  0.32735700  0.16367900  0.94877500  1
  C  C19  1  0.16367900  0.83632100  0.05122500  1
  C  C20  1  0.16367900  0.32735700  0.05122500  1
  C  C21  1  0.67264300  0.83632100  0.05122500  1
  C  C22  1  0.50216200  0.49783800  0.83952300  1
  C  C23  1  0.50216200  0.00432300  0.83952300  1
  C  C24  1  0.99567700  0.49783800  0.83952300  1
  C  C25  1  0.49783800  0.50216200  0.16047700  1
  C  C26  1  0.49783800  0.99567700  0.16047700  1
  C  C27  1  0.00432300  0.50216200  0.16047700  1
  C  C28  1  0.49783800  0.50216200  0.33952300  1
  C  C29  1  0.49783800  0.99567700  0.33952300  1
  C  C30  1  0.00432300  0.50216200  0.33952300  1
  C  C31  1  0.50216200  0.49783800  0.66047700  1
  C  C32  1  0.50216200  0.00432300  0.66047700  1
  C  C33  1  0.99567700  0.49783800  0.66047700  1
  C  C34  1  0.00000000  0.00000000  0.25000000  1
  C  C35  1  0.00000000  0.00000000  0.75000000  1
  Cu  Cu36  1  0.33333300  0.66666700  0.39567000  1
  Cu  Cu37  1  0.66666700  0.33333300  0.60433000  1
  Cu  Cu38  1  0.66666700  0.33333300  0.89567000  1
  Cu  Cu39  1  0.33333300  0.66666700  0.10433000  1
