# generated using pymatgen
data_Cu(Ni4C15)2
_symmetry_space_group_name_H-M   'P 1'
_cell_length_a   10.76834837
_cell_length_b   10.76834837
_cell_length_c   12.40363700
_cell_angle_alpha   90.00000000
_cell_angle_beta   90.00000000
_cell_angle_gamma   109.76859682
_symmetry_Int_Tables_number   1
_chemical_formula_structural   Cu(Ni4C15)2
_chemical_formula_sum   'Cu2 Ni16 C60'
_cell_volume   1353.52866269
_cell_formula_units_Z   2
loop_
 _symmetry_equiv_pos_site_id
 _symmetry_equiv_pos_as_xyz
  1  'x, y, z'
loop_
 _atom_site_type_symbol
 _atom_site_label
 _atom_site_symmetry_multiplicity
 _atom_site_fract_x
 _atom_site_fract_y
 _atom_site_fract_z
 _atom_site_occupancy
  Ni  Ni0  1  0.85080700  0.61619500  0.50000000  1
  Ni  Ni1  1  0.61619500  0.85080700  0.50000000  1
  Ni  Ni2  1  0.11786800  0.88213200  0.76690400  1
  Ni  Ni3  1  0.88213200  0.11786800  0.23309600  1
  Ni  Ni4  1  0.14919300  0.38380500  0.50000000  1
  Ni  Ni5  1  0.38380500  0.14919300  0.50000000  1
  Ni  Ni6  1  0.35199300  0.11787200  0.00000000  1
  Ni  Ni7  1  0.61871800  0.38128200  0.73968500  1
  Ni  Ni8  1  0.11787200  0.35199300  0.00000000  1
  Ni  Ni9  1  0.88213200  0.11786800  0.76690400  1
  Ni  Ni10  1  0.61871800  0.38128200  0.26031500  1
  Ni  Ni11  1  0.88212800  0.64800700  0.00000000  1
  Ni  Ni12  1  0.64800700  0.88212800  0.00000000  1
  Ni  Ni13  1  0.38128200  0.61871800  0.26031500  1
  Ni  Ni14  1  0.11786800  0.88213200  0.23309600  1
  Ni  Ni15  1  0.38128200  0.61871800  0.73968500  1
  Cu  Cu16  1  0.00000000  0.00000000  0.50000000  1
  Cu  Cu17  1  0.50000000  0.50000000  0.00000000  1
  C  C18  1  0.00000000  0.50000000  0.75024900  1
  C  C19  1  0.50000000  0.00000000  0.24975100  1
  C  C20  1  0.50000000  0.00000000  0.75024900  1
  C  C21  1  0.00000000  0.50000000  0.24975100  1
  C  C22  1  0.24689600  0.75310400  0.50000000  1
  C  C23  1  0.74652100  0.25347900  0.00000000  1
  C  C24  1  0.75038800  0.75038800  0.75118000  1
  C  C25  1  0.24961200  0.24961200  0.24882000  1
  C  C26  1  0.75310400  0.24689600  0.50000000  1
  C  C27  1  0.75038800  0.75038800  0.24882000  1
  C  C28  1  0.25347900  0.74652100  0.00000000  1
  C  C29  1  0.24961200  0.24961200  0.75118000  1
  C  C30  1  0.13076600  0.62577300  0.37848900  1
  C  C31  1  0.86775000  0.86775000  0.63058900  1
  C  C32  1  0.62789700  0.87311700  0.75421900  1
  C  C33  1  0.63058300  0.12759500  0.87870700  1
  C  C34  1  0.63229600  0.63229600  0.12911400  1
  C  C35  1  0.13225000  0.13225000  0.36941100  1
  C  C36  1  0.12759500  0.63058300  0.12129300  1
  C  C37  1  0.87240500  0.36941700  0.87870700  1
  C  C38  1  0.13860900  0.86139100  0.00000000  1
  C  C39  1  0.13326700  0.13326700  0.13481500  1
  C  C40  1  0.63353200  0.63353200  0.36229300  1
  C  C41  1  0.36770400  0.36770400  0.12911400  1
  C  C42  1  0.36134200  0.63865800  0.50000000  1
  C  C43  1  0.63058300  0.12759500  0.12129300  1
  C  C44  1  0.12759500  0.63058300  0.87870700  1
  C  C45  1  0.63229600  0.63229600  0.87088600  1
  C  C46  1  0.63132700  0.36867300  0.00000000  1
  C  C47  1  0.36941700  0.87240500  0.87870700  1
  C  C48  1  0.86777800  0.13222200  0.50000000  1
  C  C49  1  0.62577300  0.13076600  0.37848900  1
  C  C50  1  0.86673300  0.86673300  0.86518500  1
  C  C51  1  0.36646800  0.36646800  0.63770700  1
  C  C52  1  0.63353200  0.63353200  0.63770700  1
  C  C53  1  0.86139100  0.13860900  0.00000000  1
  C  C54  1  0.13326700  0.13326700  0.86518500  1
  C  C55  1  0.87311700  0.62789700  0.24578100  1
  C  C56  1  0.86775000  0.86775000  0.36941100  1
  C  C57  1  0.13076600  0.62577300  0.62151100  1
  C  C58  1  0.36770400  0.36770400  0.87088600  1
  C  C59  1  0.87311700  0.62789700  0.75421900  1
  C  C60  1  0.13222200  0.86777800  0.50000000  1
  C  C61  1  0.63865800  0.36134200  0.50000000  1
  C  C62  1  0.86923400  0.37422700  0.62151100  1
  C  C63  1  0.87240500  0.36941700  0.12129300  1
  C  C64  1  0.86673300  0.86673300  0.13481500  1
  C  C65  1  0.36941700  0.87240500  0.12129300  1
  C  C66  1  0.12688300  0.37210300  0.75421900  1
  C  C67  1  0.37422700  0.86923400  0.37848900  1
  C  C68  1  0.62577300  0.13076600  0.62151100  1
  C  C69  1  0.86923400  0.37422700  0.37848900  1
  C  C70  1  0.12688300  0.37210300  0.24578100  1
  C  C71  1  0.36867300  0.63132700  0.00000000  1
  C  C72  1  0.37210300  0.12688300  0.75421900  1
  C  C73  1  0.37422700  0.86923400  0.62151100  1
  C  C74  1  0.36646800  0.36646800  0.36229300  1
  C  C75  1  0.37210300  0.12688300  0.24578100  1
  C  C76  1  0.62789700  0.87311700  0.24578100  1
  C  C77  1  0.13225000  0.13225000  0.63058900  1
