# generated using pymatgen
data_Cu8Ni2C19
_symmetry_space_group_name_H-M   'P 1'
_cell_length_a   24.87536000
_cell_length_b   7.79524300
_cell_length_c   8.02247293
_cell_angle_alpha   78.69254667
_cell_angle_beta   90.00000000
_cell_angle_gamma   90.00000000
_symmetry_Int_Tables_number   1
_chemical_formula_structural   Cu8Ni2C19
_chemical_formula_sum   'Cu32 Ni8 C76'
_cell_volume   1525.43736963
_cell_formula_units_Z   4
loop_
 _symmetry_equiv_pos_site_id
 _symmetry_equiv_pos_as_xyz
  1  'x, y, z'
loop_
 _atom_site_type_symbol
 _atom_site_label
 _atom_site_symmetry_multiplicity
 _atom_site_fract_x
 _atom_site_fract_y
 _atom_site_fract_z
 _atom_site_occupancy
  C  C0  1  0.63220300  0.12955100  0.10519300  1
  C  C1  1  0.36779700  0.87044900  0.89480700  1
  C  C2  1  0.86779700  0.12955100  0.60519300  1
  C  C3  1  0.13220300  0.87044900  0.39480700  1
  C  C4  1  0.36436800  0.35632900  0.50670800  1
  C  C5  1  0.51946400  0.35120600  0.22889800  1
  C  C6  1  0.04723100  0.23062600  0.91775300  1
  C  C7  1  0.63563200  0.64367100  0.49329200  1
  C  C8  1  0.16344100  0.69691800  0.07867400  1
  C  C9  1  0.66373000  0.24105500  0.63007700  1
  C  C10  1  0.76812600  0.81801400  0.45225600  1
  C  C11  1  0.74777300  0.36076300  0.56976000  1
  C  C12  1  0.42012800  0.29695400  0.23645700  1
  C  C13  1  0.33627000  0.75894500  0.36992300  1
  C  C14  1  0.54540800  0.18030900  0.72488900  1
  C  C15  1  0.86436800  0.64367100  0.99329200  1
  C  C16  1  0.25222700  0.63923700  0.43024000  1
  C  C17  1  0.56806200  0.60490100  0.13504100  1
  C  C18  1  0.42091700  0.62619300  0.35301700  1
  C  C19  1  0.45276900  0.23062600  0.41775300  1
  C  C20  1  0.06806200  0.39509900  0.36495900  1
  C  C21  1  0.33655900  0.69691800  0.57867400  1
  C  C22  1  0.73187400  0.81801400  0.95225600  1
  C  C23  1  0.75222700  0.36076300  0.06976000  1
  C  C24  1  0.07987200  0.29695400  0.73645700  1
  C  C25  1  0.79933000  0.61353000  0.49509200  1
  C  C26  1  0.13563200  0.35632900  0.00670800  1
  C  C27  1  0.01946400  0.64879400  0.27110200  1
  C  C28  1  0.29933000  0.38647000  0.00490800  1
  C  C29  1  0.45336800  0.19852600  0.81063300  1
  C  C30  1  0.24777300  0.63923700  0.93024000  1
  C  C31  1  0.16373000  0.75894500  0.86992300  1
  C  C32  1  0.93193800  0.60490100  0.63504100  1
  C  C33  1  0.23187400  0.18198600  0.54774400  1
  C  C34  1  0.07908300  0.62619300  0.85301700  1
  C  C35  1  0.04663200  0.19852600  0.31063300  1
  C  C36  1  0.48053600  0.64879400  0.77110200  1
  C  C37  1  0.95276900  0.76937400  0.08224700  1
  C  C38  1  0.43193800  0.39509900  0.86495900  1
  C  C39  1  0.32569300  0.16568100  0.58221800  1
  C  C40  1  0.67430700  0.83431900  0.41778200  1
  C  C41  1  0.04540800  0.81969100  0.77511100  1
  C  C42  1  0.20067000  0.38647000  0.50490800  1
  C  C43  1  0.83627000  0.24105500  0.13007700  1
  C  C44  1  0.26812600  0.18198600  0.04774400  1
  C  C45  1  0.57987200  0.70304600  0.76354300  1
  C  C46  1  0.83655900  0.30308200  0.92132600  1
  C  C47  1  0.92091700  0.37380700  0.14698300  1
  C  C48  1  0.95336800  0.80147400  0.68936700  1
  C  C49  1  0.57908300  0.37380700  0.64698300  1
  C  C50  1  0.95459200  0.18030900  0.22488900  1
  C  C51  1  0.82569300  0.83431900  0.91778200  1
  C  C52  1  0.66344100  0.30308200  0.42132600  1
  C  C53  1  0.70067000  0.61353000  0.99509200  1
  C  C54  1  0.45459200  0.81969100  0.27511100  1
  C  C55  1  0.54723100  0.76937400  0.58224700  1
  C  C56  1  0.54663200  0.80147400  0.18936700  1
  C  C57  1  0.92012800  0.70304600  0.26354300  1
  C  C58  1  0.98053600  0.35120600  0.72889800  1
  C  C59  1  0.17430700  0.16568100  0.08221800  1
  Ni  Ni60  1  0.49411100  0.59675300  0.25062100  1
  Ni  Ni61  1  0.50588900  0.40324700  0.74937900  1
  Ni  Ni62  1  0.00588900  0.59675300  0.75062100  1
  Ni  Ni63  1  0.28343400  0.39117700  0.50290600  1
  Ni  Ni64  1  0.99411100  0.40324700  0.24937900  1
  Ni  Ni65  1  0.78343400  0.60882300  0.99709400  1
  Ni  Ni66  1  0.21656600  0.39117700  0.00290600  1
  Ni  Ni67  1  0.71656600  0.60882300  0.49709400  1
  Cu  Cu68  1  0.48802300  0.42408300  0.25949900  1
  Cu  Cu69  1  0.46157900  0.32432500  0.82127700  1
  Cu  Cu70  1  0.44139400  0.33878600  0.33056600  1
  Cu  Cu71  1  0.83586100  0.34869900  0.03318200  1
  Cu  Cu72  1  0.54375700  0.31225800  0.68613600  1
  Cu  Cu73  1  0.78643900  0.43390000  0.04238900  1
  Cu  Cu74  1  0.67176200  0.70330100  0.46437800  1
  Cu  Cu75  1  0.98802300  0.57591700  0.24050100  1
  Cu  Cu76  1  0.55860600  0.66121400  0.66943400  1
  Cu  Cu77  1  0.66413900  0.34869900  0.53318200  1
  Cu  Cu78  1  0.71356100  0.43390000  0.54238900  1
  Cu  Cu79  1  0.73515600  0.68604700  0.98575600  1
  Cu  Cu80  1  0.76484400  0.68604700  0.48575600  1
  Cu  Cu81  1  0.32823800  0.29669900  0.53562200  1
  Cu  Cu82  1  0.05860600  0.33878600  0.83056600  1
  Cu  Cu83  1  0.01197700  0.42408300  0.75949900  1
  Cu  Cu84  1  0.28643900  0.56610000  0.45761100  1
  Cu  Cu85  1  0.45624300  0.68774200  0.31386400  1
  Cu  Cu86  1  0.82823800  0.70330100  0.96437800  1
  Cu  Cu87  1  0.04375700  0.68774200  0.81386400  1
  Cu  Cu88  1  0.21356100  0.56610000  0.95761100  1
  Cu  Cu89  1  0.53842100  0.67567500  0.17872300  1
  Cu  Cu90  1  0.51197700  0.57591700  0.74050100  1
  Cu  Cu91  1  0.95624300  0.31225800  0.18613600  1
  Cu  Cu92  1  0.03842100  0.32432500  0.32127700  1
  Cu  Cu93  1  0.33586100  0.65130100  0.46681800  1
  Cu  Cu94  1  0.96157900  0.67567500  0.67872300  1
  Cu  Cu95  1  0.94139400  0.66121400  0.16943400  1
  Cu  Cu96  1  0.16413900  0.65130100  0.96681800  1
  Cu  Cu97  1  0.23515600  0.31395300  0.51424400  1
  Cu  Cu98  1  0.17176200  0.29669900  0.03562200  1
  Cu  Cu99  1  0.26484400  0.31395300  0.01424400  1
  C  C100  1  0.06266200  0.94741200  0.20202000  1
  C  C101  1  0.37398400  0.01360700  0.11479700  1
  C  C102  1  0.62740900  0.43114000  0.02498900  1
  C  C103  1  0.78684300  0.08791200  0.74409300  1
  C  C104  1  0.21315700  0.91208800  0.25590700  1
  C  C105  1  0.12601600  0.01360700  0.61479700  1
  C  C106  1  0.87398400  0.98639300  0.38520300  1
  C  C107  1  0.62601600  0.98639300  0.88520300  1
  C  C108  1  0.28684300  0.91208800  0.75590700  1
  C  C109  1  0.37259100  0.56886000  0.97501100  1
  C  C110  1  0.43733800  0.94741200  0.70202000  1
  C  C111  1  0.56266200  0.05258800  0.29798000  1
  C  C112  1  0.12740900  0.56886000  0.47501100  1
  C  C113  1  0.87259100  0.43114000  0.52498900  1
  C  C114  1  0.71315700  0.08791200  0.24409300  1
  C  C115  1  0.93733800  0.05258800  0.79798000  1
