# generated using pymatgen
data_Cu(NiC9)4
_symmetry_space_group_name_H-M   'P 1'
_cell_length_a   9.16697732
_cell_length_b   9.16697732
_cell_length_c   7.87241700
_cell_angle_alpha   90.00000000
_cell_angle_beta   90.00000000
_cell_angle_gamma   119.62628486
_symmetry_Int_Tables_number   1
_chemical_formula_structural   Cu(NiC9)4
_chemical_formula_sum   'Cu1 Ni4 C36'
_cell_volume   575.06139745
_cell_formula_units_Z   1
loop_
 _symmetry_equiv_pos_site_id
 _symmetry_equiv_pos_as_xyz
  1  'x, y, z'
loop_
 _atom_site_type_symbol
 _atom_site_label
 _atom_site_symmetry_multiplicity
 _atom_site_fract_x
 _atom_site_fract_y
 _atom_site_fract_z
 _atom_site_occupancy
  Ni  Ni0  1  0.61078400  0.00101400  0.00000000  1
  Ni  Ni1  1  0.59480600  0.99930900  0.50000000  1
  Ni  Ni2  1  0.99930900  0.59480600  0.50000000  1
  Ni  Ni3  1  0.00101400  0.61078400  0.00000000  1
  Cu  Cu4  1  0.39686100  0.39686100  0.50000000  1
  C  C5  1  0.99916400  0.23812900  0.75135400  1
  C  C6  1  0.99916400  0.23812900  0.24864600  1
  C  C7  1  0.23812900  0.99916400  0.24864600  1
  C  C8  1  0.23812900  0.99916400  0.75135400  1
  C  C9  1  0.76388700  0.76388700  0.25017100  1
  C  C10  1  0.76388700  0.76388700  0.74982900  1
  C  C11  1  0.33472800  0.66379400  0.79228900  1
  C  C12  1  0.33472800  0.66379400  0.20771100  1
  C  C13  1  0.66379400  0.33472800  0.79228900  1
  C  C14  1  0.66379400  0.33472800  0.20771100  1
  C  C15  1  0.17361900  0.17361900  0.23997100  1
  C  C16  1  0.76850900  0.76850900  0.50000000  1
  C  C17  1  0.18368400  0.48544200  0.72407000  1
  C  C18  1  0.18368400  0.48544200  0.27593000  1
  C  C19  1  0.51426500  0.69363600  0.72243400  1
  C  C20  1  0.51426500  0.69363600  0.27756600  1
  C  C21  1  0.33527700  0.66635800  0.00000000  1
  C  C22  1  0.82384800  0.00079500  0.76246700  1
  C  C23  1  0.82384800  0.00079500  0.23753300  1
  C  C24  1  0.30544000  0.81731500  0.26974000  1
  C  C25  1  0.30544000  0.81731500  0.73026000  1
  C  C26  1  0.00414500  0.23622000  0.50000000  1
  C  C27  1  0.99575900  0.26839500  0.00000000  1
  C  C28  1  0.00079500  0.82384800  0.23753300  1
  C  C29  1  0.26839500  0.99575900  0.00000000  1
  C  C30  1  0.23622000  0.00414500  0.50000000  1
  C  C31  1  0.81731500  0.30544000  0.26974000  1
  C  C32  1  0.81731500  0.30544000  0.73026000  1
  C  C33  1  0.48544200  0.18368400  0.72407000  1
  C  C34  1  0.48544200  0.18368400  0.27593000  1
  C  C35  1  0.66635800  0.33527700  0.00000000  1
  C  C36  1  0.17361900  0.17361900  0.76002900  1
  C  C37  1  0.69363600  0.51426500  0.72243400  1
  C  C38  1  0.69363600  0.51426500  0.27756600  1
  C  C39  1  0.00079500  0.82384800  0.76246700  1
  C  C40  1  0.73706700  0.73706700  0.00000000  1
