# generated using pymatgen
data_Cu6Ni4C17
_symmetry_space_group_name_H-M   'P 1'
_cell_length_a   3.78911265
_cell_length_b   3.78911217
_cell_length_c   38.88225543
_cell_angle_alpha   60.83970442
_cell_angle_beta   60.83970824
_cell_angle_gamma   59.99999459
_symmetry_Int_Tables_number   1
_chemical_formula_structural   Cu6Ni4C17
_chemical_formula_sum   'Cu6 Ni4 C17'
_cell_volume   399.67638601
_cell_formula_units_Z   1
loop_
 _symmetry_equiv_pos_site_id
 _symmetry_equiv_pos_as_xyz
  1  'x, y, z'
loop_
 _atom_site_type_symbol
 _atom_site_label
 _atom_site_symmetry_multiplicity
 _atom_site_fract_x
 _atom_site_fract_y
 _atom_site_fract_z
 _atom_site_occupancy
  Ni  Ni0  1  0.00635700  0.00635700  0.69809300  1
  Ni  Ni1  1  0.00660300  0.00660300  0.79801900  1
  Ni  Ni2  1  0.00685800  0.00685800  0.59794300  1
  Ni  Ni3  1  0.00752900  0.00752900  0.89774100  1
  Cu  Cu4  1  0.00807000  0.00807000  0.99757900  1
  Cu  Cu5  1  0.98856100  0.98856100  0.10343200  1
  Cu  Cu6  1  0.01032900  0.01032900  0.19690100  1
  Cu  Cu7  1  0.01045400  0.01045400  0.39686400  1
  Cu  Cu8  1  0.98983500  0.98983500  0.50304900  1
  Cu  Cu9  1  0.98933700  0.98933700  0.30319900  1
  C  C10  1  0.24852200  0.24852200  0.12544300  1
  C  C11  1  0.78335400  0.78335400  0.06499400  1
  C  C12  1  0.24922900  0.24922900  0.32523100  1
  C  C13  1  0.71701900  0.71701900  0.18489400  1
  C  C14  1  0.78467600  0.78467600  0.26459700  1
  C  C15  1  0.24768900  0.24768900  0.52569300  1
  C  C16  1  0.71717200  0.71717200  0.38484800  1
  C  C17  1  0.24657100  0.24657100  0.62602900  1
  C  C18  1  0.78457300  0.78457300  0.46462800  1
  C  C19  1  0.24653500  0.24653500  0.72603900  1
  C  C20  1  0.74819600  0.74819600  0.57554100  1
  C  C21  1  0.24643400  0.24643400  0.82607000  1
  C  C22  1  0.74772900  0.74772900  0.67568100  1
  C  C23  1  0.24912600  0.24912600  0.92526200  1
  C  C24  1  0.74798500  0.74798500  0.77560500  1
  C  C25  1  0.74937800  0.74937800  0.87518700  1
  C  C26  1  0.71187900  0.71187900  0.98643600  1
