# generated using pymatgen
data_CuNiC8
_symmetry_space_group_name_H-M   'P 1'
_cell_length_a   5.65929000
_cell_length_b   5.58452000
_cell_length_c   9.68659196
_cell_angle_alpha   54.88911319
_cell_angle_beta   90.00000000
_cell_angle_gamma   90.00000000
_symmetry_Int_Tables_number   1
_chemical_formula_structural   CuNiC8
_chemical_formula_sum   'Cu2 Ni2 C16'
_cell_volume   250.43416825
_cell_formula_units_Z   2
loop_
 _symmetry_equiv_pos_site_id
 _symmetry_equiv_pos_as_xyz
  1  'x, y, z'
loop_
 _atom_site_type_symbol
 _atom_site_label
 _atom_site_symmetry_multiplicity
 _atom_site_fract_x
 _atom_site_fract_y
 _atom_site_fract_z
 _atom_site_occupancy
  C  C0  1  0.46068400  0.25775300  0.25066000  1
  C  C1  1  0.96068400  0.74224700  0.24934000  1
  C  C2  1  0.53931600  0.74224700  0.74934000  1
  C  C3  1  0.03931600  0.25775300  0.75066000  1
  Ni  Ni4  1  0.50000000  0.00000000  0.00000000  1
  Ni  Ni5  1  0.00000000  0.00000000  0.50000000  1
  Cu  Cu6  1  0.00000000  0.50000000  0.00000000  1
  Cu  Cu7  1  0.50000000  0.50000000  0.50000000  1
  C  C8  1  0.52247200  0.82601100  0.25744200  1
  C  C9  1  0.02247200  0.17398900  0.24255800  1
  C  C10  1  0.47752800  0.17398900  0.74255800  1
  C  C11  1  0.97752800  0.82601100  0.75744200  1
  C  C12  1  0.28261400  0.34290600  0.95425000  1
  C  C13  1  0.78261400  0.65709400  0.54575000  1
  C  C14  1  0.71738600  0.65709400  0.04575000  1
  C  C15  1  0.21738600  0.34290600  0.45425000  1
  C  C16  1  0.20336700  0.73812300  0.04310500  1
  C  C17  1  0.70336700  0.26187700  0.45689500  1
  C  C18  1  0.79663300  0.26187700  0.95689500  1
  C  C19  1  0.29663300  0.73812300  0.54310500  1
