# generated using pymatgen
data_Cu4NiC3
_symmetry_space_group_name_H-M   'P 1'
_cell_length_a   5.30974600
_cell_length_b   6.61443900
_cell_length_c   8.37238600
_cell_angle_alpha   90.00000000
_cell_angle_beta   90.00000000
_cell_angle_gamma   90.00000000
_symmetry_Int_Tables_number   1
_chemical_formula_structural   Cu4NiC3
_chemical_formula_sum   'Cu16 Ni4 C12'
_cell_volume   294.04649354
_cell_formula_units_Z   4
loop_
 _symmetry_equiv_pos_site_id
 _symmetry_equiv_pos_as_xyz
  1  'x, y, z'
loop_
 _atom_site_type_symbol
 _atom_site_label
 _atom_site_symmetry_multiplicity
 _atom_site_fract_x
 _atom_site_fract_y
 _atom_site_fract_z
 _atom_site_occupancy
  C  C0  1  0.33339500  0.10108100  0.83033800  1
  C  C1  1  0.64234700  0.09180400  0.81856900  1
  C  C2  1  0.47755700  0.14429200  0.66235800  1
  C  C3  1  0.14234700  0.90819600  0.18143100  1
  C  C4  1  0.97755700  0.85570800  0.33764200  1
  C  C5  1  0.83339500  0.89891900  0.16966200  1
  C  C6  1  0.14234700  0.40819600  0.31856900  1
  C  C7  1  0.97755700  0.35570800  0.16235800  1
  C  C8  1  0.83339500  0.39891900  0.33033800  1
  C  C9  1  0.47755700  0.64429200  0.83764200  1
  C  C10  1  0.33339500  0.60108100  0.66966200  1
  C  C11  1  0.64234700  0.59180400  0.68143100  1
  Ni  Ni12  1  0.97768900  0.21512500  0.60406300  1
  Ni  Ni13  1  0.47768900  0.78487500  0.39593700  1
  Ni  Ni14  1  0.47768900  0.28487500  0.10406300  1
  Ni  Ni15  1  0.97768900  0.71512500  0.89593700  1
  Cu  Cu16  1  0.18594600  0.26617400  0.54202200  1
  Cu  Cu17  1  0.68594600  0.73382600  0.45797800  1
  Cu  Cu18  1  0.68594600  0.23382600  0.04202200  1
  Cu  Cu19  1  0.18594600  0.76617400  0.95797800  1
  Cu  Cu20  1  0.77148800  0.25714300  0.53339400  1
  Cu  Cu21  1  0.27148800  0.74285700  0.46660600  1
  Cu  Cu22  1  0.27148800  0.24285700  0.03339400  1
  Cu  Cu23  1  0.77148800  0.75714300  0.96660600  1
  Cu  Cu24  1  0.97435200  0.12195700  0.73624400  1
  Cu  Cu25  1  0.47435200  0.87804300  0.26375600  1
  Cu  Cu26  1  0.47435200  0.37804300  0.23624400  1
  Cu  Cu27  1  0.97435200  0.62195700  0.76375600  1
  Cu  Cu28  1  0.48015000  0.05905300  0.76191300  1
  Cu  Cu29  1  0.98015000  0.94094700  0.23808700  1
  Cu  Cu30  1  0.98015000  0.44094700  0.26191300  1
  Cu  Cu31  1  0.48015000  0.55905300  0.73808700  1
