# generated using pymatgen
data_CuNiC4
_symmetry_space_group_name_H-M   'P 1'
_cell_length_a   9.42054900
_cell_length_b   6.10370800
_cell_length_c   8.35696319
_cell_angle_alpha   52.25614115
_cell_angle_beta   90.00000000
_cell_angle_gamma   90.00000000
_symmetry_Int_Tables_number   1
_chemical_formula_structural   CuNiC4
_chemical_formula_sum   'Cu4 Ni4 C16'
_cell_volume   379.97979228
_cell_formula_units_Z   4
loop_
 _symmetry_equiv_pos_site_id
 _symmetry_equiv_pos_as_xyz
  1  'x, y, z'
loop_
 _atom_site_type_symbol
 _atom_site_label
 _atom_site_symmetry_multiplicity
 _atom_site_fract_x
 _atom_site_fract_y
 _atom_site_fract_z
 _atom_site_occupancy
  Ni  Ni0  1  0.01789700  0.75994800  0.44476500  1
  Ni  Ni1  1  0.48210300  0.75994800  0.94476500  1
  Ni  Ni2  1  0.98210300  0.24005200  0.55523500  1
  Ni  Ni3  1  0.51789700  0.24005200  0.05523500  1
  Cu  Cu4  1  0.36306100  0.65920200  0.51387600  1
  Cu  Cu5  1  0.13693900  0.65920200  0.01387600  1
  Cu  Cu6  1  0.63693900  0.34079800  0.48612400  1
  Cu  Cu7  1  0.86306100  0.34079800  0.98612400  1
  C  C8  1  0.44859000  0.83918300  0.70137800  1
  C  C9  1  0.14759900  0.65118300  0.61163800  1
  C  C10  1  0.44570600  0.09307500  0.68261800  1
  C  C11  1  0.55429400  0.90692500  0.31738200  1
  C  C12  1  0.94570600  0.90692500  0.81738200  1
  C  C13  1  0.05429400  0.09307500  0.18261800  1
  C  C14  1  0.55141000  0.16081700  0.29862200  1
  C  C15  1  0.63943600  0.73787500  0.03009600  1
  C  C16  1  0.05141000  0.83918300  0.20137800  1
  C  C17  1  0.36056400  0.26212500  0.96990400  1
  C  C18  1  0.64759900  0.34881700  0.88836200  1
  C  C19  1  0.35240100  0.65118300  0.11163800  1
  C  C20  1  0.85240100  0.34881700  0.38836200  1
  C  C21  1  0.13943600  0.26212500  0.46990400  1
  C  C22  1  0.94859000  0.16081700  0.79862200  1
  C  C23  1  0.86056400  0.73787500  0.53009600  1
