# generated using pymatgen
data_Cu2NiC17
_symmetry_space_group_name_H-M   'P 1'
_cell_length_a   10.84603246
_cell_length_b   10.84603246
_cell_length_c   10.84603246
_cell_angle_alpha   109.48114205
_cell_angle_beta   109.48114205
_cell_angle_gamma   109.45137962
_symmetry_Int_Tables_number   1
_chemical_formula_structural   Cu2NiC17
_chemical_formula_sum   'Cu8 Ni4 C68'
_cell_volume   982.17928395
_cell_formula_units_Z   4
loop_
 _symmetry_equiv_pos_site_id
 _symmetry_equiv_pos_as_xyz
  1  'x, y, z'
loop_
 _atom_site_type_symbol
 _atom_site_label
 _atom_site_symmetry_multiplicity
 _atom_site_fract_x
 _atom_site_fract_y
 _atom_site_fract_z
 _atom_site_occupancy
  Ni  Ni0  1  0.75000000  0.75000000  0.00000000  1
  Ni  Ni1  1  0.50000000  0.00000000  0.50000000  1
  Ni  Ni2  1  0.25000000  0.25000000  0.00000000  1
  Ni  Ni3  1  0.00000000  0.50000000  0.50000000  1
  Cu  Cu4  1  0.12500000  0.75230700  0.12730700  1
  Cu  Cu5  1  0.00230700  0.87500000  0.62730700  1
  Cu  Cu6  1  0.12500000  0.25230700  0.62730700  1
  Cu  Cu7  1  0.50230700  0.87500000  0.12730700  1
  Cu  Cu8  1  0.62500000  0.99769300  0.87269300  1
  Cu  Cu9  1  0.24769300  0.37500000  0.37269300  1
  Cu  Cu10  1  0.62500000  0.49769300  0.37269300  1
  Cu  Cu11  1  0.74769300  0.37500000  0.87269300  1
  C  C12  1  0.37500000  0.62500000  0.75000000  1
  C  C13  1  0.87500000  0.12500000  0.25000000  1
  C  C14  1  0.87500000  0.12500000  0.75000000  1
  C  C15  1  0.37500000  0.12500000  0.25000000  1
  C  C16  1  0.37500000  0.12500000  0.75000000  1
  C  C17  1  0.87500000  0.62500000  0.25000000  1
  C  C18  1  0.37500000  0.62500000  0.25000000  1
  C  C19  1  0.87500000  0.62500000  0.75000000  1
  C  C20  1  0.25000000  0.75000000  0.50000000  1
  C  C21  1  0.62500000  0.74985600  0.62485600  1
  C  C22  1  0.25014400  0.87500000  0.87514400  1
  C  C23  1  0.75014400  0.87500000  0.37514400  1
  C  C24  1  0.12500000  0.00014400  0.37514400  1
  C  C25  1  0.00000000  0.00000000  0.00000000  1
  C  C26  1  0.75000000  0.25000000  0.50000000  1
  C  C27  1  0.99985600  0.37500000  0.12485600  1
  C  C28  1  0.62500000  0.24985600  0.12485600  1
  C  C29  1  0.49985600  0.37500000  0.62485600  1
  C  C30  1  0.12500000  0.50014400  0.87514400  1
  C  C31  1  0.50000000  0.50000000  0.00000000  1
  C  C32  1  0.06867600  0.73132400  0.73856000  1
  C  C33  1  0.28109200  0.73990300  0.35094300  1
  C  C34  1  0.26938900  0.64088600  0.05762800  1
  C  C35  1  0.06985100  0.71890800  0.45881100  1
  C  C36  1  0.76938900  0.71176200  0.62850400  1
  C  C37  1  0.78823800  0.73061100  0.37149600  1
  C  C38  1  0.98132400  0.81867600  0.23856000  1
  C  C39  1  0.16674200  0.03823800  0.55762800  1
  C  C40  1  0.28823800  0.91674200  0.05762800  1
  C  C41  1  0.26867600  0.00723700  0.33735200  1
  C  C42  1  0.48990300  0.63896000  0.95881100  1
  C  C43  1  0.66988400  0.93132400  0.66264800  1
  C  C44  1  0.96890800  0.81985100  0.95881100  1
  C  C45  1  0.56867600  0.83011600  0.33735200  1
  C  C46  1  0.89088600  0.01938900  0.55762800  1
  C  C47  1  0.38896000  0.93014900  0.64905700  1
  C  C48  1  0.75723700  0.91988400  0.23856000  1
  C  C49  1  0.58011600  0.74276300  0.76144000  1
  C  C50  1  0.08325800  0.14088600  0.37149600  1
  C  C51  1  0.25723700  0.01867600  0.83735200  1
  C  C52  1  0.18014900  0.13896000  0.14905700  1
  C  C53  1  0.86104000  0.01009700  0.04118900  1
  C  C54  1  0.35911400  0.41674200  0.62850400  1
  C  C55  1  0.98990300  0.03109200  0.85094300  1
  C  C56  1  0.76009700  0.21890800  0.64905700  1
  C  C57  1  0.39088600  0.83325800  0.87149600  1
  C  C58  1  0.88896000  0.23990300  0.45881100  1
  C  C59  1  0.56985100  0.11104000  0.35094300  1
  C  C60  1  0.49276300  0.23132400  0.66264800  1
  C  C61  1  0.66674200  0.10911400  0.12850400  1
  C  C62  1  0.16988400  0.50723700  0.73856000  1
  C  C63  1  0.99276300  0.33011600  0.26144000  1
  C  C64  1  0.36104000  0.31985100  0.85094300  1
  C  C65  1  0.85911400  0.23061100  0.94237200  1
  C  C66  1  0.18132400  0.41988400  0.16264800  1
  C  C67  1  0.78109200  0.43014900  0.54118900  1
  C  C68  1  0.08011600  0.31867600  0.83735200  1
  C  C69  1  0.26009700  0.61104000  0.54118900  1
  C  C70  1  0.48132400  0.24276300  0.16264800  1
  C  C71  1  0.46176200  0.33325800  0.44237200  1
  C  C72  1  0.58325800  0.21176200  0.94237200  1
  C  C73  1  0.76867600  0.43132400  0.26144000  1
  C  C74  1  0.96176200  0.51938900  0.12850400  1
  C  C75  1  0.98061100  0.53823800  0.87149600  1
  C  C76  1  0.68014900  0.53109200  0.04118900  1
  C  C77  1  0.46890800  0.51009700  0.14905700  1
  C  C78  1  0.48061100  0.60911400  0.44237200  1
  C  C79  1  0.68132400  0.51867600  0.76144000  1
