# generated using pymatgen
data_Cu3Ni4C9
_symmetry_space_group_name_H-M   'P 1'
_cell_length_a   8.87488900
_cell_length_b   9.40646400
_cell_length_c   17.10482200
_cell_angle_alpha   90.00000000
_cell_angle_beta   90.00000000
_cell_angle_gamma   90.00000000
_symmetry_Int_Tables_number   1
_chemical_formula_structural   Cu3Ni4C9
_chemical_formula_sum   'Cu24 Ni32 C72'
_cell_volume   1427.93318533
_cell_formula_units_Z   8
loop_
 _symmetry_equiv_pos_site_id
 _symmetry_equiv_pos_as_xyz
  1  'x, y, z'
loop_
 _atom_site_type_symbol
 _atom_site_label
 _atom_site_symmetry_multiplicity
 _atom_site_fract_x
 _atom_site_fract_y
 _atom_site_fract_z
 _atom_site_occupancy
  C  C0  1  0.36945000  0.24204500  0.85648000  1
  C  C1  1  0.13055000  0.75795500  0.35648000  1
  C  C2  1  0.86945000  0.25795500  0.14352000  1
  C  C3  1  0.63055000  0.74204500  0.64352000  1
  C  C4  1  0.12408400  0.24011800  0.63785700  1
  C  C5  1  0.37591600  0.75988200  0.13785700  1
  C  C6  1  0.62408400  0.25988200  0.36214300  1
  C  C7  1  0.87591600  0.74011800  0.86214300  1
  Ni  Ni8  1  0.36417500  0.40977700  0.01324600  1
  Ni  Ni9  1  0.13582500  0.59022300  0.51324600  1
  Ni  Ni10  1  0.86417500  0.09022300  0.98675400  1
  Ni  Ni11  1  0.63582500  0.90977700  0.48675400  1
  Ni  Ni12  1  0.69213500  0.32153600  0.78714900  1
  Ni  Ni13  1  0.80786500  0.67846400  0.28714900  1
  Ni  Ni14  1  0.19213500  0.17846400  0.21285100  1
  Ni  Ni15  1  0.30786500  0.82153600  0.71285100  1
  Ni  Ni16  1  0.41589100  0.05914500  0.60494900  1
  Ni  Ni17  1  0.08410900  0.94085500  0.10494900  1
  Ni  Ni18  1  0.91589100  0.44085500  0.39505100  1
  Ni  Ni19  1  0.58410900  0.55914500  0.89505100  1
  Ni  Ni20  1  0.43639000  0.19819200  0.55517100  1
  Ni  Ni21  1  0.06361000  0.80180800  0.05517100  1
  Ni  Ni22  1  0.93639000  0.30180800  0.44482900  1
  Ni  Ni23  1  0.56361000  0.69819200  0.94482900  1
  Ni  Ni24  1  0.14209100  0.09977300  0.47176700  1
  Ni  Ni25  1  0.35790900  0.90022700  0.97176700  1
  Ni  Ni26  1  0.64209100  0.40022700  0.52823300  1
  Ni  Ni27  1  0.85790900  0.59977300  0.02823300  1
  Ni  Ni28  1  0.18077000  0.25827100  0.45789300  1
  Ni  Ni29  1  0.31923000  0.74172900  0.95789300  1
  Ni  Ni30  1  0.68077000  0.24172900  0.54210700  1
  Ni  Ni31  1  0.81923000  0.75827100  0.04210700  1
  Ni  Ni32  1  0.72368900  0.33026700  0.87647700  1
  Ni  Ni33  1  0.77631100  0.66973300  0.37647700  1
  Ni  Ni34  1  0.22368900  0.16973300  0.12352300  1
  Ni  Ni35  1  0.27631100  0.83026700  0.62352300  1
  Ni  Ni36  1  0.47766400  0.27897100  0.03015500  1
  Ni  Ni37  1  0.02233600  0.72102900  0.53015500  1
  Ni  Ni38  1  0.97766400  0.22102900  0.96984500  1
  Ni  Ni39  1  0.52233600  0.77897100  0.46984500  1
  Cu  Cu40  1  0.63836900  0.00483800  0.89658300  1
  Cu  Cu41  1  0.86163100  0.99516200  0.39658300  1
  Cu  Cu42  1  0.13836900  0.49516200  0.10341700  1
  Cu  Cu43  1  0.36163100  0.50483800  0.60341700  1
  Cu  Cu44  1  0.59167200  0.96225500  0.81167500  1
  Cu  Cu45  1  0.90832800  0.03774500  0.31167500  1
  Cu  Cu46  1  0.09167200  0.53774500  0.18832500  1
  Cu  Cu47  1  0.40832800  0.46225500  0.68832500  1
  Cu  Cu48  1  0.13555200  0.98271100  0.89191600  1
  Cu  Cu49  1  0.36444800  0.01728900  0.39191600  1
  Cu  Cu50  1  0.63555200  0.51728900  0.10808400  1
  Cu  Cu51  1  0.86444800  0.48271100  0.60808400  1
  Cu  Cu52  1  0.08773400  0.01793600  0.80644600  1
  Cu  Cu53  1  0.41226600  0.98206400  0.30644600  1
  Cu  Cu54  1  0.58773400  0.48206400  0.19355400  1
  Cu  Cu55  1  0.91226600  0.51793600  0.69355400  1
  Cu  Cu56  1  0.05548700  0.43620400  0.88628400  1
  Cu  Cu57  1  0.44451300  0.56379600  0.38628400  1
  Cu  Cu58  1  0.55548700  0.06379600  0.11371600  1
  Cu  Cu59  1  0.94451300  0.93620400  0.61371600  1
  Cu  Cu60  1  0.18204800  0.54326100  0.86327600  1
  Cu  Cu61  1  0.31795200  0.45673900  0.36327600  1
  Cu  Cu62  1  0.68204800  0.95673900  0.13672400  1
  Cu  Cu63  1  0.81795200  0.04326100  0.63672400  1
  C  C64  1  0.56200000  0.10144000  0.92845600  1
  C  C65  1  0.93800000  0.89856000  0.42845600  1
  C  C66  1  0.06200000  0.39856000  0.07154400  1
  C  C67  1  0.43800000  0.60144000  0.57154400  1
  C  C68  1  0.49057700  0.03698500  0.78062400  1
  C  C69  1  0.00942300  0.96301500  0.28062400  1
  C  C70  1  0.99057700  0.46301500  0.21937600  1
  C  C71  1  0.50942300  0.53698500  0.71937600  1
  C  C72  1  0.25536000  0.03959000  0.91842500  1
  C  C73  1  0.24464000  0.96041000  0.41842500  1
  C  C74  1  0.75536000  0.46041000  0.08157500  1
  C  C75  1  0.74464000  0.53959000  0.58157500  1
  C  C76  1  0.15880600  0.11874500  0.77178200  1
  C  C77  1  0.34119400  0.88125500  0.27178200  1
  C  C78  1  0.65880600  0.38125500  0.22821800  1
  C  C79  1  0.84119400  0.61874500  0.72821800  1
  C  C80  1  0.09694400  0.30856700  0.89775900  1
  C  C81  1  0.40305600  0.69143300  0.39775900  1
  C  C82  1  0.59694400  0.19143300  0.10224100  1
  C  C83  1  0.90305600  0.80856700  0.60224100  1
  C  C84  1  0.31650800  0.49871600  0.86670800  1
  C  C85  1  0.18349200  0.50128400  0.36670800  1
  C  C86  1  0.81650800  0.00128400  0.13329200  1
  C  C87  1  0.68349200  0.99871600  0.63329200  1
  C  C88  1  0.41564000  0.32747900  0.98990000  1
  C  C89  1  0.08436000  0.67252100  0.48990000  1
  C  C90  1  0.91564000  0.17252100  0.01010000  1
  C  C91  1  0.58436000  0.82747900  0.51010000  1
  C  C92  1  0.64302000  0.33348500  0.83755100  1
  C  C93  1  0.85698000  0.66651500  0.33755100  1
  C  C94  1  0.14302000  0.16651500  0.16244900  1
  C  C95  1  0.35698000  0.83348500  0.66244900  1
  C  C96  1  0.75002300  0.94151000  0.92783300  1
  C  C97  1  0.74997700  0.05849000  0.42783300  1
  C  C98  1  0.25002300  0.55849000  0.07216700  1
  C  C99  1  0.24997700  0.44151000  0.57216700  1
  C  C100  1  0.65881900  0.85481700  0.78107500  1
  C  C101  1  0.84118100  0.14518300  0.28107500  1
  C  C102  1  0.15881900  0.64518300  0.21892500  1
  C  C103  1  0.34118100  0.35481700  0.71892500  1
  C  C104  1  0.36876500  0.14948100  0.59194500  1
  C  C105  1  0.13123500  0.85051900  0.09194500  1
  C  C106  1  0.86876500  0.35051900  0.40805500  1
  C  C107  1  0.63123500  0.64948100  0.90805500  1
  C  C108  1  0.10878000  0.19749300  0.48534300  1
  C  C109  1  0.39122000  0.80250700  0.98534300  1
  C  C110  1  0.60878000  0.30250700  0.51465700  1
  C  C111  1  0.89122000  0.69749300  0.01465700  1
  C  C112  1  0.05446700  0.89623600  0.92849200  1
  C  C113  1  0.44553300  0.10376400  0.42849200  1
  C  C114  1  0.55446700  0.60376400  0.07150800  1
  C  C115  1  0.94553300  0.39623600  0.57150800  1
  C  C116  1  0.98471500  0.94137900  0.77859500  1
  C  C117  1  0.51528500  0.05862100  0.27859500  1
  C  C118  1  0.48471500  0.55862100  0.22140500  1
  C  C119  1  0.01528500  0.44137900  0.72140500  1
  C  C120  1  0.92265500  0.48408200  0.89305300  1
  C  C121  1  0.57734500  0.51591800  0.39305300  1
  C  C122  1  0.42265500  0.01591800  0.10694700  1
  C  C123  1  0.07734500  0.98408200  0.60694700  1
  C  C124  1  0.14184600  0.66809600  0.84462600  1
  C  C125  1  0.35815400  0.33190400  0.34462600  1
  C  C126  1  0.64184600  0.83190400  0.15537400  1
  C  C127  1  0.85815400  0.16809600  0.65537400  1
