# generated using pymatgen
data_Cu9Ni3C
_symmetry_space_group_name_H-M   'P 1'
_cell_length_a   6.02264800
_cell_length_b   8.77329500
_cell_length_c   16.56510424
_cell_angle_alpha   65.19540277
_cell_angle_beta   90.00000000
_cell_angle_gamma   90.00000000
_symmetry_Int_Tables_number   1
_chemical_formula_structural   Cu9Ni3C
_chemical_formula_sum   'Cu36 Ni12 C4'
_cell_volume   794.52522092
_cell_formula_units_Z   4
loop_
 _symmetry_equiv_pos_site_id
 _symmetry_equiv_pos_as_xyz
  1  'x, y, z'
loop_
 _atom_site_type_symbol
 _atom_site_label
 _atom_site_symmetry_multiplicity
 _atom_site_fract_x
 _atom_site_fract_y
 _atom_site_fract_z
 _atom_site_occupancy
  C  C0  1  0.78042800  0.85491600  0.10335900  1
  C  C1  1  0.21957200  0.14508400  0.89664100  1
  C  C2  1  0.28042800  0.14508400  0.39664100  1
  C  C3  1  0.71957200  0.85491600  0.60335900  1
  Ni  Ni4  1  0.85175300  0.35532600  0.97879600  1
  Ni  Ni5  1  0.31090700  0.07486300  0.14533500  1
  Ni  Ni6  1  0.35175300  0.64467400  0.52120400  1
  Ni  Ni7  1  0.64824700  0.35532600  0.47879600  1
  Ni  Ni8  1  0.09594500  0.58098600  0.30119000  1
  Ni  Ni9  1  0.40405500  0.58098600  0.80119000  1
  Ni  Ni10  1  0.59594500  0.41901400  0.19881000  1
  Ni  Ni11  1  0.18909300  0.07486300  0.64533500  1
  Ni  Ni12  1  0.68909300  0.92513700  0.85466500  1
  Ni  Ni13  1  0.14824700  0.64467400  0.02120400  1
  Ni  Ni14  1  0.90405500  0.41901400  0.69881000  1
  Ni  Ni15  1  0.81090700  0.92513700  0.35466500  1
  Cu  Cu16  1  0.68232000  0.65670700  0.75638400  1
  Cu  Cu17  1  0.38193400  0.11284600  0.03097800  1
  Cu  Cu18  1  0.31768000  0.34329300  0.24361600  1
  Cu  Cu19  1  0.62258900  0.12565100  0.51192200  1
  Cu  Cu20  1  0.99429500  0.63918600  0.63496600  1
  Cu  Cu21  1  0.46943300  0.39238600  0.38132600  1
  Cu  Cu22  1  0.00570500  0.36081400  0.36503400  1
  Cu  Cu23  1  0.88193400  0.88715400  0.46902200  1
  Cu  Cu24  1  0.03056700  0.39238600  0.88132600  1
  Cu  Cu25  1  0.42849800  0.35229600  0.55916100  1
  Cu  Cu26  1  0.05591400  0.06075300  0.30748000  1
  Cu  Cu27  1  0.57150200  0.64770400  0.44083900  1
  Cu  Cu28  1  0.53056700  0.60761400  0.61867400  1
  Cu  Cu29  1  0.12258900  0.87434900  0.98807800  1
  Cu  Cu30  1  0.11806600  0.11284600  0.53097800  1
  Cu  Cu31  1  0.50570500  0.63918600  0.13496600  1
  Cu  Cu32  1  0.91437100  0.34348900  0.61051600  1
  Cu  Cu33  1  0.92849800  0.64770400  0.94083900  1
  Cu  Cu34  1  0.18232000  0.34329300  0.74361600  1
  Cu  Cu35  1  0.37741100  0.87434900  0.48807800  1
  Cu  Cu36  1  0.10043400  0.90599700  0.17107000  1
  Cu  Cu37  1  0.60043400  0.09400300  0.32893000  1
  Cu  Cu38  1  0.81768000  0.65670700  0.25638400  1
  Cu  Cu39  1  0.61806600  0.88715400  0.96902200  1
  Cu  Cu40  1  0.39956600  0.90599700  0.67107000  1
  Cu  Cu41  1  0.87741100  0.12565100  0.01192200  1
  Cu  Cu42  1  0.44408600  0.06075300  0.80748000  1
  Cu  Cu43  1  0.58562900  0.34348900  0.11051600  1
  Cu  Cu44  1  0.89956600  0.09400300  0.82893000  1
  Cu  Cu45  1  0.41437100  0.65651100  0.88948400  1
  Cu  Cu46  1  0.55591400  0.93924700  0.19252000  1
  Cu  Cu47  1  0.07150200  0.35229600  0.05916100  1
  Cu  Cu48  1  0.08562900  0.65651100  0.38948400  1
  Cu  Cu49  1  0.96943300  0.60761400  0.11867400  1
  Cu  Cu50  1  0.94408600  0.93924700  0.69252000  1
  Cu  Cu51  1  0.49429500  0.36081400  0.86503400  1
