# generated using pymatgen
data_Cu2NiC8
_symmetry_space_group_name_H-M   'P 1'
_cell_length_a   6.59616100
_cell_length_b   7.32912700
_cell_length_c   12.88719529
_cell_angle_alpha   62.26604090
_cell_angle_beta   90.00000000
_cell_angle_gamma   90.00000000
_symmetry_Int_Tables_number   1
_chemical_formula_structural   Cu2NiC8
_chemical_formula_sum   'Cu8 Ni4 C32'
_cell_volume   551.44608452
_cell_formula_units_Z   4
loop_
 _symmetry_equiv_pos_site_id
 _symmetry_equiv_pos_as_xyz
  1  'x, y, z'
loop_
 _atom_site_type_symbol
 _atom_site_label
 _atom_site_symmetry_multiplicity
 _atom_site_fract_x
 _atom_site_fract_y
 _atom_site_fract_z
 _atom_site_occupancy
  C  C0  1  0.85219400  0.76178600  0.47311500  1
  C  C1  1  0.35219400  0.23821400  0.02688500  1
  C  C2  1  0.14780600  0.23821400  0.52688500  1
  C  C3  1  0.64780600  0.76178600  0.97311500  1
  Ni  Ni4  1  0.60135700  0.78639800  0.22945600  1
  Ni  Ni5  1  0.89864300  0.78639800  0.72945600  1
  Ni  Ni6  1  0.39864300  0.21360200  0.77054400  1
  Ni  Ni7  1  0.10135700  0.21360200  0.27054400  1
  Cu  Cu8  1  0.15805200  0.78986000  0.95019800  1
  Cu  Cu9  1  0.58924100  0.30283000  0.28042600  1
  Cu  Cu10  1  0.34194800  0.78986000  0.45019800  1
  Cu  Cu11  1  0.84194800  0.21014000  0.04980200  1
  Cu  Cu12  1  0.41075900  0.69717000  0.71957400  1
  Cu  Cu13  1  0.91075900  0.30283000  0.78042600  1
  Cu  Cu14  1  0.08924100  0.69717000  0.21957400  1
  Cu  Cu15  1  0.65805200  0.21014000  0.54980200  1
  C  C16  1  0.62000400  0.57307100  0.19654700  1
  C  C17  1  0.12000400  0.42692900  0.30345300  1
  C  C18  1  0.37999600  0.42692900  0.80345300  1
  C  C19  1  0.87999600  0.57307100  0.69654700  1
  C  C20  1  0.81705900  0.16003400  0.31269100  1
  C  C21  1  0.31705900  0.83996600  0.18730900  1
  C  C22  1  0.18294100  0.83996600  0.68730900  1
  C  C23  1  0.68294100  0.16003400  0.81269100  1
  C  C24  1  0.38295000  0.22432200  0.22343000  1
  C  C25  1  0.88295000  0.77567800  0.27657000  1
  C  C26  1  0.61705000  0.77567800  0.77657000  1
  C  C27  1  0.11705000  0.22432200  0.72343000  1
  C  C28  1  0.82607500  0.40673100  0.52437400  1
  C  C29  1  0.32607500  0.59326900  0.97562600  1
  C  C30  1  0.17392500  0.59326900  0.47562600  1
  C  C31  1  0.67392500  0.40673100  0.02437400  1
  C  C32  1  0.99846600  0.24894400  0.92714400  1
  C  C33  1  0.49846600  0.75105600  0.57285600  1
  C  C34  1  0.00153400  0.75105600  0.07285600  1
  C  C35  1  0.50153400  0.24894400  0.42714400  1
  C  C36  1  0.65931200  0.00633900  0.08516900  1
  C  C37  1  0.15931200  0.99366100  0.41483100  1
  C  C38  1  0.34068800  0.99366100  0.91483100  1
  C  C39  1  0.84068800  0.00633900  0.58516900  1
  C  C40  1  0.05151800  0.20535700  0.13532900  1
  C  C41  1  0.55151800  0.79464300  0.36467100  1
  C  C42  1  0.94848200  0.79464300  0.86467100  1
  C  C43  1  0.44848200  0.20535700  0.63532900  1
