# generated using pymatgen
data_Cu2(Ni3C4)3
_symmetry_space_group_name_H-M   'P 1'
_cell_length_a   7.80178730
_cell_length_b   7.80178730
_cell_length_c   14.81648761
_cell_angle_alpha   84.96640101
_cell_angle_beta   84.96640101
_cell_angle_gamma   119.99894255
_symmetry_Int_Tables_number   1
_chemical_formula_structural   Cu2(Ni3C4)3
_chemical_formula_sum   'Cu2 Ni9 C12'
_cell_volume   768.91297203
_cell_formula_units_Z   1
loop_
 _symmetry_equiv_pos_site_id
 _symmetry_equiv_pos_as_xyz
  1  'x, y, z'
loop_
 _atom_site_type_symbol
 _atom_site_label
 _atom_site_symmetry_multiplicity
 _atom_site_fract_x
 _atom_site_fract_y
 _atom_site_fract_z
 _atom_site_occupancy
  Ni  Ni0  1  0.24207000  0.24207000  0.24083500  1
  Ni  Ni1  1  0.50000000  0.50000000  0.50000000  1
  Ni  Ni2  1  0.59748400  0.91978300  0.24066900  1
  Ni  Ni3  1  0.83117200  0.16882800  0.50000000  1
  Ni  Ni4  1  0.08021700  0.40251600  0.75933100  1
  Ni  Ni5  1  0.16882800  0.83117200  0.50000000  1
  Ni  Ni6  1  0.40251600  0.08021700  0.75933100  1
  Ni  Ni7  1  0.91978300  0.59748400  0.24066900  1
  Ni  Ni8  1  0.75793000  0.75793000  0.75916500  1
  Cu  Cu9  1  0.33334600  0.66665400  0.00000000  1
  Cu  Cu10  1  0.66665400  0.33334600  0.00000000  1
  C  C11  1  0.96269200  0.33098400  0.11182600  1
  C  C12  1  0.21025000  0.54333700  0.36920600  1
  C  C13  1  0.33098400  0.96269200  0.11182600  1
  C  C14  1  0.45666300  0.78975000  0.63079400  1
  C  C15  1  0.54333700  0.21025000  0.36920600  1
  C  C16  1  0.66901600  0.03730800  0.88817400  1
  C  C17  1  0.59447300  0.59447300  0.11182800  1
  C  C18  1  0.78975000  0.45666300  0.63079400  1
  C  C19  1  0.87581700  0.87581700  0.37326000  1
  C  C20  1  0.03730800  0.66901600  0.88817400  1
  C  C21  1  0.12418300  0.12418300  0.62674000  1
  C  C22  1  0.40552700  0.40552700  0.88817200  1
