# generated using pymatgen
data_Cu7Ni8
_symmetry_space_group_name_H-M   'P 1'
_cell_length_a   4.28749561
_cell_length_b   4.28749561
_cell_length_c   88.64102600
_cell_angle_alpha   90.00000000
_cell_angle_beta   90.00000000
_cell_angle_gamma   119.99999392
_symmetry_Int_Tables_number   1
_chemical_formula_structural   Cu7Ni8
_chemical_formula_sum   'Cu21 Ni24'
_cell_volume   1411.14879274
_cell_formula_units_Z   3
loop_
 _symmetry_equiv_pos_site_id
 _symmetry_equiv_pos_as_xyz
  1  'x, y, z'
loop_
 _atom_site_type_symbol
 _atom_site_label
 _atom_site_symmetry_multiplicity
 _atom_site_fract_x
 _atom_site_fract_y
 _atom_site_fract_z
 _atom_site_occupancy
  Ni  Ni0  1  0.00000000  0.00000000  0.90029200  1
  Ni  Ni1  1  0.00000000  0.00000000  0.83281900  1
  Ni  Ni2  1  0.00000000  0.00000000  0.56822600  1
  Ni  Ni3  1  0.66666700  0.33333300  0.94294900  1
  Ni  Ni4  1  0.33333300  0.66666700  0.85286300  1
  Ni  Ni5  1  0.00000000  0.00000000  0.36426900  1
  Ni  Ni6  1  0.66666700  0.33333300  0.41175700  1
  Ni  Ni7  1  0.00000000  0.00000000  0.63573100  1
  Ni  Ni8  1  0.33333300  0.66666700  0.58824300  1
  Ni  Ni9  1  0.00000000  0.00000000  0.09970800  1
  Ni  Ni10  1  0.33333300  0.66666700  0.32181400  1
  Ni  Ni11  1  0.66666700  0.33333300  0.74322800  1
  Ni  Ni12  1  0.66666700  0.33333300  0.47881300  1
  Ni  Ni13  1  0.33333300  0.66666700  0.52118700  1
  Ni  Ni14  1  0.00000000  0.00000000  0.43177400  1
  Ni  Ni15  1  0.66666700  0.33333300  0.67818600  1
  Ni  Ni16  1  0.66666700  0.33333300  0.00999500  1
  Ni  Ni17  1  0.33333300  0.66666700  0.05705100  1
  Ni  Ni18  1  0.33333300  0.66666700  0.99000500  1
  Ni  Ni19  1  0.00000000  0.00000000  0.16718100  1
  Ni  Ni20  1  0.66666700  0.33333300  0.21416300  1
  Ni  Ni21  1  0.33333300  0.66666700  0.78583700  1
  Ni  Ni22  1  0.33333300  0.66666700  0.25677200  1
  Ni  Ni23  1  0.66666700  0.33333300  0.14713700  1
  Cu  Cu24  1  0.33333300  0.66666700  0.19665200  1
  Cu  Cu25  1  0.00000000  0.00000000  0.03963600  1
  Cu  Cu26  1  0.66666700  0.33333300  0.27367800  1
  Cu  Cu27  1  0.66666700  0.33333300  0.53854000  1
  Cu  Cu28  1  0.33333300  0.66666700  0.11706300  1
  Cu  Cu29  1  0.33333300  0.66666700  0.46146000  1
  Cu  Cu30  1  0.33333300  0.66666700  0.92169000  1
  Cu  Cu31  1  0.00000000  0.00000000  0.69507400  1
  Cu  Cu32  1  0.00000000  0.00000000  0.30492600  1
  Cu  Cu33  1  0.33333300  0.66666700  0.72632200  1
  Cu  Cu34  1  0.66666700  0.33333300  0.61825600  1
  Cu  Cu35  1  0.66666700  0.33333300  0.34338800  1
  Cu  Cu36  1  0.00000000  0.00000000  0.96036400  1
  Cu  Cu37  1  0.00000000  0.00000000  0.76489900  1
  Cu  Cu38  1  0.33333300  0.66666700  0.65661200  1
  Cu  Cu39  1  0.66666700  0.33333300  0.88293700  1
  Cu  Cu40  1  0.66666700  0.33333300  0.80334800  1
  Cu  Cu41  1  0.00000000  0.00000000  0.50000000  1
  Cu  Cu42  1  0.00000000  0.00000000  0.23510100  1
  Cu  Cu43  1  0.66666700  0.33333300  0.07831000  1
  Cu  Cu44  1  0.33333300  0.66666700  0.38174400  1
