# generated using pymatgen
data_Cu4Ni3C13
_symmetry_space_group_name_H-M   'P 1'
_cell_length_a   5.93059769
_cell_length_b   5.93059769
_cell_length_c   5.93059730
_cell_angle_alpha   104.28063699
_cell_angle_beta   104.28063699
_cell_angle_gamma   104.28064672
_symmetry_Int_Tables_number   1
_chemical_formula_structural   Cu4Ni3C13
_chemical_formula_sum   'Cu4 Ni3 C13'
_cell_volume   185.09913093
_cell_formula_units_Z   1
loop_
 _symmetry_equiv_pos_site_id
 _symmetry_equiv_pos_as_xyz
  1  'x, y, z'
loop_
 _atom_site_type_symbol
 _atom_site_label
 _atom_site_symmetry_multiplicity
 _atom_site_fract_x
 _atom_site_fract_y
 _atom_site_fract_z
 _atom_site_occupancy
  C  C0  1  0.00000000  0.00000000  0.00000000  1
  Ni  Ni1  1  0.00000000  0.44479600  0.55520400  1
  Ni  Ni2  1  0.55520400  0.00000000  0.44479600  1
  Ni  Ni3  1  0.44479600  0.55520400  0.00000000  1
  Cu  Cu4  1  0.50000000  0.05652300  0.94347700  1
  Cu  Cu5  1  0.94347700  0.50000000  0.05652300  1
  Cu  Cu6  1  0.05652300  0.94347700  0.50000000  1
  Cu  Cu7  1  0.50000000  0.50000000  0.50000000  1
  C  C8  1  0.37231200  0.22065500  0.97175400  1
  C  C9  1  0.02824600  0.77934500  0.62768800  1
  C  C10  1  0.77934500  0.62768800  0.02824600  1
  C  C11  1  0.62768800  0.02824600  0.77934500  1
  C  C12  1  0.64863700  0.35136300  0.50000000  1
  C  C13  1  0.35136300  0.50000000  0.64863700  1
  C  C14  1  0.50000000  0.64863700  0.35136300  1
  C  C15  1  0.90820800  0.09179200  0.50000000  1
  C  C16  1  0.09179200  0.50000000  0.90820800  1
  C  C17  1  0.50000000  0.90820800  0.09179200  1
  C  C18  1  0.22065500  0.97175400  0.37231200  1
  C  C19  1  0.97175400  0.37231200  0.22065500  1
