# generated using pymatgen
data_CuNiC8
_symmetry_space_group_name_H-M   'P 1'
_cell_length_a   5.52678486
_cell_length_b   5.55198969
_cell_length_c   38.44301906
_cell_angle_alpha   89.93434465
_cell_angle_beta   89.99316210
_cell_angle_gamma   89.79516861
_symmetry_Int_Tables_number   1
_chemical_formula_structural   CuNiC8
_chemical_formula_sum   'Cu10 Ni10 C80'
_cell_volume   1179.60236234
_cell_formula_units_Z   10
loop_
 _symmetry_equiv_pos_site_id
 _symmetry_equiv_pos_as_xyz
  1  'x, y, z'
loop_
 _atom_site_type_symbol
 _atom_site_label
 _atom_site_symmetry_multiplicity
 _atom_site_fract_x
 _atom_site_fract_y
 _atom_site_fract_z
 _atom_site_occupancy
  C  C0  1  0.48803626  0.46768571  0.34812163  1
  C  C1  1  0.48824353  0.46718005  0.15187508  1
  C  C2  1  0.48760190  0.46602880  0.55112695  1
  C  C3  1  0.48754598  0.46741473  0.94891717  1
  C  C4  1  0.51131773  0.53228034  0.25003147  1
  C  C5  1  0.50900862  0.53632001  0.64824914  1
  C  C6  1  0.50954374  0.53429100  0.85163169  1
  C  C7  1  0.98936267  0.02668499  0.05037042  1
  C  C8  1  0.98953466  0.02852348  0.25003128  1
  C  C9  1  0.98893470  0.02674116  0.44958674  1
  C  C10  1  0.99186683  0.02675425  0.64933821  1
  C  C11  1  0.99034230  0.02693967  0.85055702  1
  C  C12  1  0.00569302  0.98047773  0.15083475  1
  C  C13  1  0.00628179  0.98054940  0.34911631  1
  C  C14  1  0.00633742  0.98010580  0.55014994  1
  C  C15  1  0.00587741  0.98032083  0.75012366  1
  C  C16  1  0.00704244  0.97994954  0.94987342  1
  C  C17  1  0.49171205  0.47590652  0.75012580  1
  C  C18  1  0.50615951  0.52537053  0.05056526  1
  C  C19  1  0.50662114  0.52517679  0.44939398  1
  Ni  Ni20  1  0.00040132  0.49938815  0.00002747  1
  Ni  Ni21  1  0.99804278  0.50061142  0.20173538  1
  Ni  Ni22  1  0.99682221  0.49988548  0.60047787  1
  Ni  Ni23  1  0.99548319  0.50016778  0.80254046  1
  Ni  Ni24  1  0.00029216  0.49953254  0.10112258  1
  Ni  Ni25  1  0.99791986  0.50063902  0.29837892  1
  Ni  Ni26  1  0.00017691  0.49936332  0.39881832  1
  Ni  Ni27  1  0.00048111  0.49942241  0.49985263  1
  Ni  Ni28  1  0.99543701  0.50010930  0.69756175  1
  Ni  Ni29  1  0.99689683  0.49991919  0.89945465  1
  Cu  Cu30  1  0.50075015  0.99975779  0.10019863  1
  Cu  Cu31  1  0.50056142  0.99977342  0.00012493  1
  Cu  Cu32  1  0.49966426  0.99982974  0.29895840  1
  Cu  Cu33  1  0.49944459  0.99972178  0.20110919  1
  Cu  Cu34  1  0.50077937  0.99978738  0.39981091  1
  Cu  Cu35  1  0.50006708  0.00005558  0.60058932  1
  Cu  Cu36  1  0.49952658  -0.00004083  0.89916646  1
  Cu  Cu37  1  0.50025706  0.99964045  0.49971548  1
  Cu  Cu38  1  0.49906674  0.99996136  0.69849930  1
  Cu  Cu39  1  0.49903948  0.99976407  0.80163281  1
  C  C40  1  0.07210621  0.48640366  0.04981733  1
  C  C41  1  0.08562768  0.48328305  0.24988052  1
  C  C42  1  0.07215114  0.48639923  0.45025512  1
  C  C43  1  0.08539938  0.48201374  0.64997268  1
  C  C44  1  0.08555215  0.48202191  0.84999890  1
  C  C45  1  0.22585850  0.22927795  0.19162186  1
  C  C46  1  0.22602102  0.22899924  0.59164310  1
  C  C47  1  0.22807170  0.23331235  0.39181754  1
  C  C48  1  0.22833219  0.23312109  0.10821152  1
  C  C49  1  0.22505597  0.22975863  0.30827454  1
  C  C50  1  0.22716446  0.23168526  0.79134439  1
  C  C51  1  0.22847020  0.23297051  0.99162361  1
  C  C52  1  0.22832697  0.23295609  0.50846723  1
  C  C53  1  0.22724329  0.23147862  0.70866839  1
  C  C54  1  0.22570741  0.22932070  0.90835329  1
  C  C55  1  0.26980099  0.72488878  0.19126709  1
  C  C56  1  0.27299737  0.72091730  0.39151169  1
  C  C57  1  0.26927253  0.72435498  0.30862994  1
  C  C58  1  0.27156709  0.72403493  0.59132115  1
  C  C59  1  0.27313819  0.72108674  0.10850838  1
  C  C60  1  0.27276200  0.72139131  0.99134972  1
  C  C61  1  0.26722406  0.72658130  0.79148768  1
  C  C62  1  0.27266081  0.72129492  0.50873095  1
  C  C63  1  0.26733506  0.72679086  0.70852766  1
  C  C64  1  0.27098873  0.72355020  0.90868877  1
  C  C65  1  0.41362815  0.98436335  0.04990831  1
  C  C66  1  0.41204405  0.98120109  0.24981219  1
  C  C67  1  0.40989996  0.97871890  0.64948836  1
  C  C68  1  0.41388577  0.98459597  0.45016800  1
  C  C69  1  0.41078897  0.97980421  0.85075910  1
  C  C70  1  0.57801504  0.01626635  0.34929625  1
  C  C71  1  0.57798675  0.01638030  0.15084949  1
  C  C72  1  0.57881962  0.01746201  0.55055937  1
  C  C73  1  0.57548246  0.01045592  0.74998667  1
  C  C74  1  0.57831244  0.01699022  0.94926725  1
  C  C75  1  0.73500674  0.27228868  0.09183779  1
  C  C76  1  0.73242596  0.27561585  0.29130592  1
  C  C77  1  0.73475374  0.27228296  0.00821717  1
  C  C78  1  0.73215435  0.27505034  0.89134381  1
  C  C79  1  0.73181883  0.27500561  0.20856907  1
  C  C80  1  0.73493147  0.27228203  0.49188531  1
  C  C81  1  0.73039653  0.27615265  0.69167883  1
  C  C82  1  0.73166934  0.27468348  0.60865710  1
  C  C83  1  0.73512539  0.27251251  0.40823380  1
  C  C84  1  0.73054174  0.27628685  0.80830424  1
  C  C85  1  0.77923797  0.77124254  0.09135049  1
  C  C86  1  0.77882935  0.77164894  0.00862182  1
  C  C87  1  0.77964837  0.77412247  0.20868453  1
  C  C88  1  0.78031892  0.77365241  0.29118164  1
  C  C89  1  0.77915029  0.77162527  0.49146494  1
  C  C90  1  0.77696655  0.76996408  0.69156539  1
  C  C91  1  0.77940211  0.77111776  0.40870441  1
  C  C92  1  0.78030063  0.77439291  0.60879234  1
  C  C93  1  0.77717097  0.76965327  0.80840880  1
  C  C94  1  0.78073654  0.77428339  0.89122557  1
  C  C95  1  0.91876714  0.51071050  0.15001046  1
  C  C96  1  0.91869259  0.51066739  0.34999950  1
  C  C97  1  0.91819391  0.51078840  0.55042094  1
  C  C98  1  0.92968449  0.50712963  0.74996122  1
  C  C99  1  0.91820396  0.51071774  0.94971148  1
