# generated using pymatgen
data_Cu3NiC16
_symmetry_space_group_name_H-M   'P 1'
_cell_length_a   11.17721600
_cell_length_b   5.60077600
_cell_length_c   7.92704114
_cell_angle_alpha   89.40242338
_cell_angle_beta   90.00000000
_cell_angle_gamma   90.00000000
_symmetry_Int_Tables_number   1
_chemical_formula_structural   Cu3NiC16
_chemical_formula_sum   'Cu6 Ni2 C32'
_cell_volume   496.21437147
_cell_formula_units_Z   2
loop_
 _symmetry_equiv_pos_site_id
 _symmetry_equiv_pos_as_xyz
  1  'x, y, z'
loop_
 _atom_site_type_symbol
 _atom_site_label
 _atom_site_symmetry_multiplicity
 _atom_site_fract_x
 _atom_site_fract_y
 _atom_site_fract_z
 _atom_site_occupancy
  C  C0  1  0.00263200  0.50000000  0.75000000  1
  C  C1  1  0.99736800  0.50000000  0.25000000  1
  C  C2  1  0.74843200  0.00000000  0.25000000  1
  C  C3  1  0.49344700  0.50000000  0.75000000  1
  C  C4  1  0.25417900  0.00000000  0.25000000  1
  C  C5  1  0.74582100  0.00000000  0.75000000  1
  C  C6  1  0.50655300  0.50000000  0.25000000  1
  C  C7  1  0.25156800  0.00000000  0.75000000  1
  Ni  Ni8  1  0.00000000  0.00000000  0.50000000  1
  Ni  Ni9  1  0.00000000  0.00000000  0.00000000  1
  Cu  Cu10  1  0.74710500  0.50357500  0.99945900  1
  Cu  Cu11  1  0.50000000  0.00000000  0.50000000  1
  Cu  Cu12  1  0.74710500  0.49642500  0.50054100  1
  Cu  Cu13  1  0.50000000  0.00000000  0.00000000  1
  Cu  Cu14  1  0.25289500  0.50357500  0.49945900  1
  Cu  Cu15  1  0.25289500  0.49642500  0.00054100  1
  C  C16  1  0.86008100  0.22052400  0.97932200  1
  C  C17  1  0.97725400  0.00000000  0.25000000  1
  C  C18  1  0.86008100  0.77947600  0.52067800  1
  C  C19  1  0.60667500  0.71601800  0.47190400  1
  C  C20  1  0.88072700  0.74824300  0.97951400  1
  C  C21  1  0.71530700  0.50000000  0.75000000  1
  C  C22  1  0.75923900  0.50000000  0.25000000  1
  C  C23  1  0.60667500  0.28398200  0.02809600  1
  C  C24  1  0.88072700  0.25175700  0.52048600  1
  C  C25  1  0.35894000  0.21118300  0.96916200  1
  C  C26  1  0.64106000  0.21118300  0.46916200  1
  C  C27  1  0.46821700  0.00000000  0.25000000  1
  C  C28  1  0.53178300  0.00000000  0.75000000  1
  C  C29  1  0.35894000  0.78881700  0.53083800  1
  C  C30  1  0.64106000  0.78881700  0.03083800  1
  C  C31  1  0.11927300  0.74824300  0.47951400  1
  C  C32  1  0.39332500  0.71601800  0.97190400  1
  C  C33  1  0.24076100  0.50000000  0.75000000  1
  C  C34  1  0.28469300  0.50000000  0.25000000  1
  C  C35  1  0.11927300  0.25175700  0.02048600  1
  C  C36  1  0.39332500  0.28398200  0.52809600  1
  C  C37  1  0.13991900  0.22052400  0.47932200  1
  C  C38  1  0.02274600  0.00000000  0.75000000  1
  C  C39  1  0.13991900  0.77947600  0.02067800  1
