# generated using pymatgen
data_Cu27Ni9C5
_symmetry_space_group_name_H-M   'P 1'
_cell_length_a   13.91594900
_cell_length_b   13.91594900
_cell_length_c   13.91594900
_cell_angle_alpha   90.00000000
_cell_angle_beta   90.00000000
_cell_angle_gamma   90.00000000
_symmetry_Int_Tables_number   1
_chemical_formula_structural   Cu27Ni9C5
_chemical_formula_sum   'Cu108 Ni36 C20'
_cell_volume   2694.87413018
_cell_formula_units_Z   4
loop_
 _symmetry_equiv_pos_site_id
 _symmetry_equiv_pos_as_xyz
  1  'x, y, z'
loop_
 _atom_site_type_symbol
 _atom_site_label
 _atom_site_symmetry_multiplicity
 _atom_site_fract_x
 _atom_site_fract_y
 _atom_site_fract_z
 _atom_site_occupancy
  C  C0  1  0.30433400  0.94566600  0.12500000  1
  C  C1  1  0.62500000  0.19566600  0.05433400  1
  C  C2  1  0.55433400  0.87500000  0.80433400  1
  C  C3  1  0.69566600  0.44566600  0.37500000  1
  C  C4  1  0.44566600  0.37500000  0.69566600  1
  C  C5  1  0.37500000  0.69566600  0.44566600  1
  C  C6  1  0.80433400  0.55433400  0.87500000  1
  C  C7  1  0.12500000  0.30433400  0.94566600  1
  C  C8  1  0.19566600  0.05433400  0.62500000  1
  C  C9  1  0.05433400  0.62500000  0.19566600  1
  C  C10  1  0.87500000  0.80433400  0.55433400  1
  C  C11  1  0.94566600  0.12500000  0.30433400  1
  C  C12  1  0.55540300  0.05540300  0.44459700  1
  C  C13  1  0.05540300  0.44459700  0.55540300  1
  C  C14  1  0.94459700  0.94459700  0.94459700  1
  C  C15  1  0.30540300  0.30540300  0.30540300  1
  C  C16  1  0.19459700  0.69459700  0.80540300  1
  C  C17  1  0.80540300  0.19459700  0.69459700  1
  C  C18  1  0.44459700  0.55540300  0.05540300  1
  C  C19  1  0.69459700  0.80540300  0.19459700  1
  Ni  Ni20  1  0.86142100  0.09577800  0.07604000  1
  Ni  Ni21  1  0.09577800  0.07604000  0.86142100  1
  Ni  Ni22  1  0.07604000  0.86142100  0.09577800  1
  Ni  Ni23  1  0.15422200  0.38857900  0.17396000  1
  Ni  Ni24  1  0.17396000  0.15422200  0.38857900  1
  Ni  Ni25  1  0.32604000  0.84577800  0.88857900  1
  Ni  Ni26  1  0.87500000  0.98367500  0.73367500  1
  Ni  Ni27  1  0.01632500  0.23367500  0.62500000  1
  Ni  Ni28  1  0.84577800  0.88857900  0.32604000  1
  Ni  Ni29  1  0.48367500  0.76632500  0.12500000  1
  Ni  Ni30  1  0.62500000  0.01632500  0.23367500  1
  Ni  Ni31  1  0.42396000  0.13857900  0.59577800  1
  Ni  Ni32  1  0.34577800  0.61142100  0.67396000  1
  Ni  Ni33  1  0.57604000  0.63857900  0.90422200  1
  Ni  Ni34  1  0.23367500  0.62500000  0.01632500  1
  Ni  Ni35  1  0.73367500  0.87500000  0.98367500  1
  Ni  Ni36  1  0.90422200  0.57604000  0.63857900  1
  Ni  Ni37  1  0.61142100  0.67396000  0.34577800  1
  Ni  Ni38  1  0.65422200  0.11142100  0.82604000  1
  Ni  Ni39  1  0.98367500  0.73367500  0.87500000  1
  Ni  Ni40  1  0.12500000  0.48367500  0.76632500  1
  Ni  Ni41  1  0.11142100  0.82604000  0.65422200  1
  Ni  Ni42  1  0.37500000  0.51632500  0.26632500  1
  Ni  Ni43  1  0.51632500  0.26632500  0.37500000  1
  Ni  Ni44  1  0.76632500  0.12500000  0.48367500  1
  Ni  Ni45  1  0.40422200  0.92396000  0.36142100  1
  Ni  Ni46  1  0.63857900  0.90422200  0.57604000  1
  Ni  Ni47  1  0.38857900  0.17396000  0.15422200  1
  Ni  Ni48  1  0.13857900  0.59577800  0.42396000  1
  Ni  Ni49  1  0.67396000  0.34577800  0.61142100  1
  Ni  Ni50  1  0.26632500  0.37500000  0.51632500  1
  Ni  Ni51  1  0.59577800  0.42396000  0.13857900  1
  Ni  Ni52  1  0.82604000  0.65422200  0.11142100  1
  Ni  Ni53  1  0.36142100  0.40422200  0.92396000  1
  Ni  Ni54  1  0.88857900  0.32604000  0.84577800  1
  Ni  Ni55  1  0.92396000  0.36142100  0.40422200  1
  Cu  Cu56  1  0.17330500  0.65833800  0.36949600  1
  Cu  Cu57  1  0.67219700  0.07400900  0.74403300  1
  Cu  Cu58  1  0.65833800  0.36949600  0.17330500  1
  Cu  Cu59  1  0.09683200  0.40065600  0.74447600  1
  Cu  Cu60  1  0.25552400  0.59683200  0.09934400  1
  Cu  Cu61  1  0.11949600  0.09166200  0.42330500  1
  Cu  Cu62  1  0.70076300  0.12500000  0.54923700  1
  Cu  Cu63  1  0.17219700  0.42599100  0.25596700  1
  Cu  Cu64  1  0.84934400  0.15316800  0.50552400  1
  Cu  Cu65  1  0.42219700  0.00596700  0.32400900  1
  Cu  Cu66  1  0.84166200  0.63050400  0.67330500  1
  Cu  Cu67  1  0.86949600  0.32669500  0.34166200  1
  Cu  Cu68  1  0.65065600  0.84683200  0.00552400  1
  Cu  Cu69  1  0.57400900  0.75596700  0.32780300  1
  Cu  Cu70  1  0.95076300  0.29923700  0.62500000  1
  Cu  Cu71  1  0.93579300  0.04705700  0.09999200  1
  Cu  Cu72  1  0.00552400  0.65065600  0.84683200  1
  Cu  Cu73  1  0.59934400  0.24447600  0.40316800  1
  Cu  Cu74  1  0.92219700  0.49403300  0.67599100  1
  Cu  Cu75  1  0.75596700  0.32780300  0.57400900  1
  Cu  Cu76  1  0.15833800  0.13050400  0.82669500  1
  Cu  Cu77  1  0.42599100  0.25596700  0.17219700  1
  Cu  Cu78  1  0.40065600  0.74447600  0.09683200  1
  Cu  Cu79  1  0.90065600  0.75552400  0.90316800  1
  Cu  Cu80  1  0.12500000  0.54923700  0.70076300  1
  Cu  Cu81  1  0.13050400  0.82669500  0.15833800  1
  Cu  Cu82  1  0.42330500  0.11949600  0.09166200  1
  Cu  Cu83  1  0.43579300  0.45294300  0.90000800  1
  Cu  Cu84  1  0.29923700  0.62500000  0.95076300  1
  Cu  Cu85  1  0.87500000  0.04923700  0.79923700  1
  Cu  Cu86  1  0.63050400  0.67330500  0.84166200  1
  Cu  Cu87  1  0.74403300  0.67219700  0.07400900  1
  Cu  Cu88  1  0.04923700  0.79923700  0.87500000  1
  Cu  Cu89  1  0.99447600  0.15065600  0.65316800  1
  Cu  Cu90  1  0.25596700  0.17219700  0.42599100  1
  Cu  Cu91  1  0.92330500  0.38050400  0.90833800  1
  Cu  Cu92  1  0.82400900  0.07780300  0.99403300  1
  Cu  Cu93  1  0.81420700  0.34999200  0.79705700  1
  Cu  Cu94  1  0.17599100  0.57780300  0.50596700  1
  Cu  Cu95  1  0.59999200  0.56420700  0.95294300  1
  Cu  Cu96  1  0.82669500  0.15833800  0.13050400  1
  Cu  Cu97  1  0.84683200  0.00552400  0.65065600  1
  Cu  Cu98  1  0.95294300  0.59999200  0.56420700  1
  Cu  Cu99  1  0.04705700  0.09999200  0.93579300  1
  Cu  Cu100  1  0.54705700  0.40000800  0.06420700  1
  Cu  Cu101  1  0.40316800  0.59934400  0.24447600  1
  Cu  Cu102  1  0.50552400  0.84934400  0.15316800  1
  Cu  Cu103  1  0.65316800  0.99447600  0.15065600  1
  Cu  Cu104  1  0.36949600  0.17330500  0.65833800  1
  Cu  Cu105  1  0.56420700  0.95294300  0.59999200  1
  Cu  Cu106  1  0.34934400  0.34683200  0.49447600  1
  Cu  Cu107  1  0.65000800  0.29705700  0.68579300  1
  Cu  Cu108  1  0.49447600  0.34934400  0.34683200  1
  Cu  Cu109  1  0.45294300  0.90000800  0.43579300  1
  Cu  Cu110  1  0.34683200  0.49447600  0.34934400  1
  Cu  Cu111  1  0.61949600  0.40833800  0.57669500  1
  Cu  Cu112  1  0.34999200  0.79705700  0.81420700  1
  Cu  Cu113  1  0.18579300  0.84999200  0.70294300  1
  Cu  Cu114  1  0.32780300  0.57400900  0.75596700  1
  Cu  Cu115  1  0.34166200  0.86949600  0.32669500  1
  Cu  Cu116  1  0.99403300  0.82400900  0.07780300  1
  Cu  Cu117  1  0.74447600  0.09683200  0.40065600  1
  Cu  Cu118  1  0.68579300  0.65000800  0.29705700  1
  Cu  Cu119  1  0.32669500  0.34166200  0.86949600  1
  Cu  Cu120  1  0.40833800  0.57669500  0.61949600  1
  Cu  Cu121  1  0.29705700  0.68579300  0.65000800  1
  Cu  Cu122  1  0.15065600  0.65316800  0.99447600  1
  Cu  Cu123  1  0.90000800  0.43579300  0.45294300  1
  Cu  Cu124  1  0.49403300  0.67599100  0.92219700  1
  Cu  Cu125  1  0.67599100  0.92219700  0.49403300  1
  Cu  Cu126  1  0.32400900  0.42219700  0.00596700  1
  Cu  Cu127  1  0.70294300  0.18579300  0.84999200  1
  Cu  Cu128  1  0.07400900  0.74403300  0.67219700  1
  Cu  Cu129  1  0.15000800  0.20294300  0.31420700  1
  Cu  Cu130  1  0.75552400  0.90316800  0.90065600  1
  Cu  Cu131  1  0.40000800  0.06420700  0.54705700  1
  Cu  Cu132  1  0.88050400  0.59166200  0.07669500  1
  Cu  Cu133  1  0.31420700  0.15000800  0.20294300  1
  Cu  Cu134  1  0.24403300  0.82780300  0.92599100  1
  Cu  Cu135  1  0.67330500  0.84166200  0.63050400  1
  Cu  Cu136  1  0.15316800  0.50552400  0.84934400  1
  Cu  Cu137  1  0.59166200  0.07669500  0.88050400  1
  Cu  Cu138  1  0.57780300  0.50596700  0.17599100  1
  Cu  Cu139  1  0.84999200  0.70294300  0.18579300  1
  Cu  Cu140  1  0.82780300  0.92599100  0.24403300  1
  Cu  Cu141  1  0.92599100  0.24403300  0.82780300  1
  Cu  Cu142  1  0.09166200  0.42330500  0.11949600  1
  Cu  Cu143  1  0.50596700  0.17599100  0.57780300  1
  Cu  Cu144  1  0.06420700  0.54705700  0.40000800  1
  Cu  Cu145  1  0.20076300  0.37500000  0.45076300  1
  Cu  Cu146  1  0.00596700  0.32400900  0.42219700  1
  Cu  Cu147  1  0.38050400  0.90833800  0.92330500  1
  Cu  Cu148  1  0.79923700  0.87500000  0.04923700  1
  Cu  Cu149  1  0.09934400  0.25552400  0.59683200  1
  Cu  Cu150  1  0.57669500  0.61949600  0.40833800  1
  Cu  Cu151  1  0.79705700  0.81420700  0.34999200  1
  Cu  Cu152  1  0.07780300  0.99403300  0.82400900  1
  Cu  Cu153  1  0.54923700  0.70076300  0.12500000  1
  Cu  Cu154  1  0.90316800  0.90065600  0.75552400  1
  Cu  Cu155  1  0.24447600  0.40316800  0.59934400  1
  Cu  Cu156  1  0.62500000  0.95076300  0.29923700  1
  Cu  Cu157  1  0.07669500  0.88050400  0.59166200  1
  Cu  Cu158  1  0.90833800  0.92330500  0.38050400  1
  Cu  Cu159  1  0.37500000  0.45076300  0.20076300  1
  Cu  Cu160  1  0.20294300  0.31420700  0.15000800  1
  Cu  Cu161  1  0.45076300  0.20076300  0.37500000  1
  Cu  Cu162  1  0.59683200  0.09934400  0.25552400  1
  Cu  Cu163  1  0.09999200  0.93579300  0.04705700  1
