# generated using pymatgen
data_Cu8(Ni8C3)3
_symmetry_space_group_name_H-M   'P 1'
_cell_length_a   8.19035381
_cell_length_b   8.19035381
_cell_length_c   8.19035381
_cell_angle_alpha   119.91603695
_cell_angle_beta   119.91603695
_cell_angle_gamma   90.14548989
_symmetry_Int_Tables_number   1
_chemical_formula_structural   Cu8(Ni8C3)3
_chemical_formula_sum   'Cu8 Ni24 C9'
_cell_volume   388.99345046
_cell_formula_units_Z   1
loop_
 _symmetry_equiv_pos_site_id
 _symmetry_equiv_pos_as_xyz
  1  'x, y, z'
loop_
 _atom_site_type_symbol
 _atom_site_label
 _atom_site_symmetry_multiplicity
 _atom_site_fract_x
 _atom_site_fract_y
 _atom_site_fract_z
 _atom_site_occupancy
  Ni  Ni0  1  0.31251300  0.51548800  0.29036800  1
  Ni  Ni1  1  0.22512000  0.02214500  0.70963200  1
  Ni  Ni2  1  0.02214500  0.31251300  0.79702500  1
  Ni  Ni3  1  0.51548800  0.22512000  0.20297500  1
  Ni  Ni4  1  0.68748700  0.48451200  0.70963200  1
  Ni  Ni5  1  0.77488000  0.97785500  0.29036800  1
  Ni  Ni6  1  0.97785500  0.68748700  0.20297500  1
  Ni  Ni7  1  0.48451200  0.77488000  0.79702500  1
  Ni  Ni8  1  0.30994900  0.72263400  0.26620200  1
  Ni  Ni9  1  0.45643300  0.04374800  0.73379800  1
  Ni  Ni10  1  0.04374800  0.30994900  0.58731500  1
  Ni  Ni11  1  0.72263400  0.45643300  0.41268500  1
  Ni  Ni12  1  0.69005100  0.27736600  0.73379800  1
  Ni  Ni13  1  0.54356700  0.95625200  0.26620200  1
  Ni  Ni14  1  0.95625200  0.69005100  0.41268500  1
  Ni  Ni15  1  0.27736600  0.54356700  0.58731500  1
  Ni  Ni16  1  0.51770800  0.74928000  0.51813600  1
  Ni  Ni17  1  0.23114300  0.99957200  0.48186400  1
  Ni  Ni18  1  0.99957200  0.51770800  0.76842900  1
  Ni  Ni19  1  0.74928000  0.23114400  0.23157100  1
  Ni  Ni20  1  0.48229200  0.25072000  0.48186400  1
  Ni  Ni21  1  0.76885600  0.00042800  0.51813600  1
  Ni  Ni22  1  0.00042800  0.48229200  0.23157100  1
  Ni  Ni23  1  0.25072000  0.76885700  0.76842900  1
  C  C24  1  0.00000000  0.00000000  0.00000000  1
  Cu  Cu25  1  0.35607300  0.67856400  0.38499500  1
  Cu  Cu26  1  0.29356900  0.97107800  0.61500500  1
  Cu  Cu27  1  0.97107800  0.35607300  0.67750800  1
  Cu  Cu28  1  0.67856400  0.29356900  0.32249200  1
  Cu  Cu29  1  0.64392700  0.32143600  0.61500500  1
  Cu  Cu30  1  0.70643100  0.02892200  0.38499500  1
  Cu  Cu31  1  0.02892200  0.64392700  0.32249200  1
  Cu  Cu32  1  0.32143600  0.70643100  0.67750800  1
  C  C33  1  0.25000000  0.75000000  0.50000000  1
  C  C34  1  0.75000000  0.25000000  0.50000000  1
  C  C35  1  0.82900500  0.82900500  0.00000000  1
  C  C36  1  0.17099500  0.17099500  0.00000000  1
  C  C37  1  0.20337700  0.87030100  0.07367800  1
  C  C38  1  0.79662300  0.12969900  0.92632200  1
  C  C39  1  0.12969900  0.20337700  0.33307600  1
  C  C40  1  0.87030100  0.79662300  0.66692400  1
