# generated using pymatgen
data_Cu3Ni7C16
_symmetry_space_group_name_H-M   'P 1'
_cell_length_a   14.66633706
_cell_length_b   14.66633706
_cell_length_c   36.88744400
_cell_angle_alpha   90.00000000
_cell_angle_beta   90.00000000
_cell_angle_gamma   119.56255261
_symmetry_Int_Tables_number   1
_chemical_formula_structural   Cu3Ni7C16
_chemical_formula_sum   'Cu18 Ni42 C96'
_cell_volume   6901.60444572
_cell_formula_units_Z   6
loop_
 _symmetry_equiv_pos_site_id
 _symmetry_equiv_pos_as_xyz
  1  'x, y, z'
loop_
 _atom_site_type_symbol
 _atom_site_label
 _atom_site_symmetry_multiplicity
 _atom_site_fract_x
 _atom_site_fract_y
 _atom_site_fract_z
 _atom_site_occupancy
  Ni  Ni0  1  0.62711400  0.62711400  0.54428400  1
  Ni  Ni1  1  0.37593900  0.67279300  0.11999700  1
  Ni  Ni2  1  0.38502100  0.66872000  0.25000000  1
  Ni  Ni3  1  0.66961500  0.00486200  0.62026900  1
  Ni  Ni4  1  0.67279300  0.37593900  0.11999700  1
  Ni  Ni5  1  0.67204300  0.99883900  0.75000000  1
  Ni  Ni6  1  0.33038500  0.99513800  0.37973100  1
  Ni  Ni7  1  0.62406100  0.32720700  0.61999700  1
  Ni  Ni8  1  0.32720700  0.62406100  0.61999700  1
  Ni  Ni9  1  0.66872000  0.38502100  0.25000000  1
  Ni  Ni10  1  0.03990900  0.33686200  0.97166700  1
  Ni  Ni11  1  0.03990900  0.33686200  0.52833300  1
  Ni  Ni12  1  0.33038500  0.99513800  0.12026900  1
  Ni  Ni13  1  0.32720700  0.62406100  0.88000300  1
  Ni  Ni14  1  0.62406100  0.32720700  0.88000300  1
  Ni  Ni15  1  0.32795700  0.00116100  0.25000000  1
  Ni  Ni16  1  0.66961500  0.00486200  0.87973100  1
  Ni  Ni17  1  0.62711400  0.62711400  0.95571600  1
  Ni  Ni18  1  0.96009100  0.66313800  0.02833300  1
  Ni  Ni19  1  0.33686200  0.03990900  0.97166700  1
  Ni  Ni20  1  0.94818200  0.94818200  0.11589000  1
  Ni  Ni21  1  0.96009100  0.66313800  0.47166700  1
  Ni  Ni22  1  0.37288600  0.37288600  0.45571600  1
  Ni  Ni23  1  0.94757400  0.94757400  0.25000000  1
  Ni  Ni24  1  0.94818200  0.94818200  0.38411000  1
  Ni  Ni25  1  0.05181800  0.05181800  0.88411000  1
  Ni  Ni26  1  0.00486200  0.66961500  0.62026900  1
  Ni  Ni27  1  0.99513800  0.33038500  0.37973100  1
  Ni  Ni28  1  0.00116100  0.32795700  0.25000000  1
  Ni  Ni29  1  0.37288600  0.37288600  0.04428400  1
  Ni  Ni30  1  0.99883900  0.67204300  0.75000000  1
  Ni  Ni31  1  0.00486200  0.66961500  0.87973100  1
  Ni  Ni32  1  0.99513800  0.33038500  0.12026900  1
  Ni  Ni33  1  0.33128000  0.61497900  0.75000000  1
  Ni  Ni34  1  0.37593900  0.67279300  0.38000300  1
  Ni  Ni35  1  0.05181800  0.05181800  0.61589000  1
  Ni  Ni36  1  0.05242600  0.05242600  0.75000000  1
  Ni  Ni37  1  0.66313800  0.96009100  0.02833300  1
  Ni  Ni38  1  0.67279300  0.37593900  0.38000300  1
  Ni  Ni39  1  0.61497900  0.33128000  0.75000000  1
  Ni  Ni40  1  0.66313800  0.96009100  0.47166700  1
  Ni  Ni41  1  0.33686200  0.03990900  0.52833300  1
  Cu  Cu42  1  0.32741800  0.00275900  0.81656300  1
  Cu  Cu43  1  0.33553600  0.66446400  0.00000000  1
  Cu  Cu44  1  0.99724100  0.67258200  0.18343700  1
  Cu  Cu45  1  0.33942900  0.33942900  0.31577800  1
  Cu  Cu46  1  0.99724100  0.67258200  0.31656300  1
  Cu  Cu47  1  0.66446400  0.33553600  0.00000000  1
  Cu  Cu48  1  0.32741800  0.00275900  0.68343700  1
  Cu  Cu49  1  0.00000000  0.00000000  0.50000000  1
  Cu  Cu50  1  0.00275900  0.32741800  0.81656300  1
  Cu  Cu51  1  0.66446400  0.33553600  0.50000000  1
  Cu  Cu52  1  0.33553600  0.66446400  0.50000000  1
  Cu  Cu53  1  0.66057100  0.66057100  0.68422200  1
  Cu  Cu54  1  0.66057100  0.66057100  0.81577800  1
  Cu  Cu55  1  0.33942900  0.33942900  0.18422200  1
  Cu  Cu56  1  0.67258200  0.99724100  0.18343700  1
  Cu  Cu57  1  0.67258200  0.99724100  0.31656300  1
  Cu  Cu58  1  0.00000000  0.00000000  0.00000000  1
  Cu  Cu59  1  0.00275900  0.32741800  0.68343700  1
  C  C60  1  0.08281800  0.88582700  0.81523900  1
  C  C61  1  0.95014000  0.13533100  0.44688000  1
  C  C62  1  0.48779700  0.33259600  0.54325700  1
  C  C63  1  0.66740400  0.51220300  0.45674300  1
  C  C64  1  0.33259600  0.48779700  0.95674300  1
  C  C65  1  0.32115000  0.85253500  0.75000000  1
  C  C66  1  0.87823700  0.42628600  0.31382000  1
  C  C67  1  0.87823700  0.42628600  0.18618000  1
  C  C68  1  0.91718200  0.11417300  0.31523900  1
  C  C69  1  0.80719100  0.51572500  0.55369500  1
  C  C70  1  0.19088900  0.19088900  0.53080800  1
  C  C71  1  0.33319800  0.16068500  0.86888000  1
  C  C72  1  0.20877200  0.20877200  0.12193300  1
  C  C73  1  0.88582700  0.08281800  0.68476100  1
  C  C74  1  0.20877200  0.20877200  0.37806700  1
  C  C75  1  0.49676800  0.49676800  0.36659500  1
  C  C76  1  0.15266500  0.33182800  0.75000000  1
  C  C77  1  0.51220300  0.66740400  0.04325700  1
  C  C78  1  0.33182800  0.15266500  0.75000000  1
  C  C79  1  0.46463300  0.21717000  0.18555100  1
  C  C80  1  0.14746500  0.67885000  0.25000000  1
  C  C81  1  0.53536700  0.78283000  0.81444900  1
  C  C82  1  0.51298700  0.51298700  0.75000000  1
  C  C83  1  0.12176300  0.57371400  0.81382000  1
  C  C84  1  0.86466900  0.04986000  0.55312000  1
  C  C85  1  0.67827300  0.13038800  0.37923500  1
  C  C86  1  0.13038800  0.67827300  0.12076500  1
  C  C87  1  0.38129900  0.86470800  0.04574500  1
  C  C88  1  0.86466900  0.04986000  0.94688000  1
  C  C89  1  0.12176300  0.57371400  0.68618000  1
  C  C90  1  0.80911100  0.80911100  0.03080800  1
  C  C91  1  0.83931500  0.66680200  0.13112000  1
  C  C92  1  0.53536700  0.78283000  0.68555100  1
  C  C93  1  0.11417300  0.91718200  0.31523900  1
  C  C94  1  0.46463300  0.21717000  0.31444900  1
  C  C95  1  0.88582700  0.08281800  0.81523900  1
  C  C96  1  0.83931500  0.66680200  0.36888000  1
  C  C97  1  0.33319800  0.16068500  0.63112000  1
  C  C98  1  0.19280900  0.48427500  0.05369500  1
  C  C99  1  0.57371400  0.12176300  0.68618000  1
  C  C100  1  0.19088900  0.19088900  0.96919200  1
  C  C101  1  0.11417300  0.91718200  0.18476100  1
  C  C102  1  0.13533100  0.95014000  0.05312000  1
  C  C103  1  0.48427500  0.19280900  0.44630500  1
  C  C104  1  0.33259600  0.48779700  0.54325700  1
  C  C105  1  0.21717000  0.46463300  0.18555100  1
  C  C106  1  0.08281800  0.88582700  0.68476100  1
  C  C107  1  0.16068500  0.33319800  0.63112000  1
  C  C108  1  0.51220300  0.66740400  0.45674300  1
  C  C109  1  0.67885000  0.14746500  0.25000000  1
  C  C110  1  0.42628600  0.87823700  0.18618000  1
  C  C111  1  0.80911100  0.80911100  0.46919200  1
  C  C112  1  0.66680200  0.83931500  0.36888000  1
  C  C113  1  0.13533100  0.95014000  0.44688000  1
  C  C114  1  0.78283000  0.53536700  0.81444900  1
  C  C115  1  0.21717000  0.46463300  0.31444900  1
  C  C116  1  0.50323200  0.50323200  0.63340500  1
  C  C117  1  0.91718200  0.11417300  0.18476100  1
  C  C118  1  0.49676800  0.49676800  0.13340500  1
  C  C119  1  0.79122800  0.79122800  0.87806700  1
  C  C120  1  0.48427500  0.19280900  0.05369500  1
  C  C121  1  0.51572500  0.80719100  0.55369500  1
  C  C122  1  0.66740400  0.51220300  0.04325700  1
  C  C123  1  0.85253500  0.32115000  0.75000000  1
  C  C124  1  0.13038800  0.67827300  0.37923500  1
  C  C125  1  0.04986000  0.86466900  0.94688000  1
  C  C126  1  0.61870100  0.13529200  0.95425500  1
  C  C127  1  0.86961200  0.32172700  0.62076500  1
  C  C128  1  0.48701300  0.48701300  0.25000000  1
  C  C129  1  0.32172700  0.86961200  0.87923500  1
  C  C130  1  0.32172700  0.86961200  0.62076500  1
  C  C131  1  0.19217500  0.19217500  0.25000000  1
  C  C132  1  0.13529200  0.61870100  0.95425500  1
  C  C133  1  0.80782500  0.80782500  0.75000000  1
  C  C134  1  0.86961200  0.32172700  0.87923500  1
  C  C135  1  0.61870100  0.13529200  0.54574500  1
  C  C136  1  0.04986000  0.86466900  0.55312000  1
  C  C137  1  0.57371400  0.12176300  0.81382000  1
  C  C138  1  0.66680200  0.83931500  0.13112000  1
  C  C139  1  0.13529200  0.61870100  0.54574500  1
  C  C140  1  0.48779700  0.33259600  0.95674300  1
  C  C141  1  0.67827300  0.13038800  0.12076500  1
  C  C142  1  0.51572500  0.80719100  0.94630500  1
  C  C143  1  0.79122800  0.79122800  0.62193300  1
  C  C144  1  0.19280900  0.48427500  0.44630500  1
  C  C145  1  0.42628600  0.87823700  0.31382000  1
  C  C146  1  0.84733500  0.66817200  0.25000000  1
  C  C147  1  0.50323200  0.50323200  0.86659500  1
  C  C148  1  0.78283000  0.53536700  0.68555100  1
  C  C149  1  0.66817200  0.84733500  0.25000000  1
  C  C150  1  0.95014000  0.13533100  0.05312000  1
  C  C151  1  0.86470800  0.38129900  0.04574500  1
  C  C152  1  0.38129900  0.86470800  0.45425500  1
  C  C153  1  0.80719100  0.51572500  0.94630500  1
  C  C154  1  0.16068500  0.33319800  0.86888000  1
  C  C155  1  0.86470800  0.38129900  0.45425500  1
