# generated using pymatgen
data_CuNi2
_symmetry_space_group_name_H-M   'P 1'
_cell_length_a   4.13427800
_cell_length_b   6.79560600
_cell_length_c   13.54941000
_cell_angle_alpha   90.00000000
_cell_angle_beta   90.00000000
_cell_angle_gamma   90.00000000
_symmetry_Int_Tables_number   1
_chemical_formula_structural   CuNi2
_chemical_formula_sum   'Cu8 Ni16'
_cell_volume   380.66964938
_cell_formula_units_Z   8
loop_
 _symmetry_equiv_pos_site_id
 _symmetry_equiv_pos_as_xyz
  1  'x, y, z'
loop_
 _atom_site_type_symbol
 _atom_site_label
 _atom_site_symmetry_multiplicity
 _atom_site_fract_x
 _atom_site_fract_y
 _atom_site_fract_z
 _atom_site_occupancy
  Ni  Ni0  1  0.17376000  0.75000000  0.28062400  1
  Ni  Ni1  1  0.82624000  0.25000000  0.71937600  1
  Ni  Ni2  1  0.17376000  0.25000000  0.21937600  1
  Ni  Ni3  1  0.82624000  0.75000000  0.78062400  1
  Ni  Ni4  1  0.19171300  0.75000000  0.42767100  1
  Ni  Ni5  1  0.80828700  0.25000000  0.57232900  1
  Ni  Ni6  1  0.19171300  0.25000000  0.07232900  1
  Ni  Ni7  1  0.80828700  0.75000000  0.92767100  1
  Ni  Ni8  1  0.67385300  0.60414600  0.12033200  1
  Ni  Ni9  1  0.32614700  0.10414600  0.87966800  1
  Ni  Ni10  1  0.67385300  0.39585400  0.37966800  1
  Ni  Ni11  1  0.32614700  0.89585400  0.62033200  1
  Ni  Ni12  1  0.32614700  0.39585400  0.87966800  1
  Ni  Ni13  1  0.67385300  0.89585400  0.12033200  1
  Ni  Ni14  1  0.32614700  0.60414600  0.62033200  1
  Ni  Ni15  1  0.67385300  0.10414600  0.37966800  1
  Cu  Cu16  1  0.95883000  0.75000000  0.35624500  1
  Cu  Cu17  1  0.04117000  0.25000000  0.64375500  1
  Cu  Cu18  1  0.95883000  0.25000000  0.14375500  1
  Cu  Cu19  1  0.04117000  0.75000000  0.85624500  1
  Cu  Cu20  1  0.46143500  0.75000000  0.09941700  1
  Cu  Cu21  1  0.53856500  0.25000000  0.90058300  1
  Cu  Cu22  1  0.46143500  0.25000000  0.40058300  1
  Cu  Cu23  1  0.53856500  0.75000000  0.59941700  1
