# generated using pymatgen
data_Cu4NiC11
_symmetry_space_group_name_H-M   'P 1'
_cell_length_a   7.37657100
_cell_length_b   7.37657100
_cell_length_c   15.43472300
_cell_angle_alpha   90.00000000
_cell_angle_beta   90.00000000
_cell_angle_gamma   90.00000000
_symmetry_Int_Tables_number   1
_chemical_formula_structural   Cu4NiC11
_chemical_formula_sum   'Cu16 Ni4 C44'
_cell_volume   839.86192603
_cell_formula_units_Z   4
loop_
 _symmetry_equiv_pos_site_id
 _symmetry_equiv_pos_as_xyz
  1  'x, y, z'
loop_
 _atom_site_type_symbol
 _atom_site_label
 _atom_site_symmetry_multiplicity
 _atom_site_fract_x
 _atom_site_fract_y
 _atom_site_fract_z
 _atom_site_occupancy
  C  C0  1  0.50000000  0.50000000  0.50000000  1
  C  C1  1  0.00000000  0.00000000  0.50000000  1
  C  C2  1  0.00000000  0.00000000  0.00000000  1
  C  C3  1  0.50000000  0.50000000  0.00000000  1
  Ni  Ni4  1  0.50000000  0.00000000  0.58390100  1
  Ni  Ni5  1  0.00000000  0.50000000  0.91609900  1
  Ni  Ni6  1  0.00000000  0.50000000  0.41609900  1
  Ni  Ni7  1  0.50000000  0.00000000  0.08390100  1
  Cu  Cu8  1  0.17607000  0.25189200  0.64798000  1
  Cu  Cu9  1  0.82393000  0.74810800  0.64798000  1
  Cu  Cu10  1  0.25189200  0.17607000  0.85202000  1
  Cu  Cu11  1  0.75189200  0.32393000  0.64798000  1
  Cu  Cu12  1  0.24810800  0.67607000  0.64798000  1
  Cu  Cu13  1  0.32393000  0.75189200  0.85202000  1
  Cu  Cu14  1  0.67607000  0.24810800  0.85202000  1
  Cu  Cu15  1  0.74810800  0.82393000  0.85202000  1
  Cu  Cu16  1  0.32393000  0.24810800  0.35202000  1
  Cu  Cu17  1  0.67607000  0.75189200  0.35202000  1
  Cu  Cu18  1  0.24810800  0.32393000  0.14798000  1
  Cu  Cu19  1  0.74810800  0.17607000  0.35202000  1
  Cu  Cu20  1  0.25189200  0.82393000  0.35202000  1
  Cu  Cu21  1  0.17607000  0.74810800  0.14798000  1
  Cu  Cu22  1  0.82393000  0.25189200  0.14798000  1
  Cu  Cu23  1  0.75189200  0.67607000  0.14798000  1
  C  C24  1  0.25491800  0.10116300  0.58270400  1
  C  C25  1  0.74508200  0.89883700  0.58270400  1
  C  C26  1  0.10116300  0.25491800  0.91729600  1
  C  C27  1  0.60116300  0.24508200  0.58270400  1
  C  C28  1  0.39883700  0.75491800  0.58270400  1
  C  C29  1  0.24508200  0.60116300  0.91729600  1
  C  C30  1  0.75491800  0.39883700  0.91729600  1
  C  C31  1  0.89883700  0.74508200  0.91729600  1
  C  C32  1  0.24508200  0.39883700  0.41729600  1
  C  C33  1  0.75491800  0.60116300  0.41729600  1
  C  C34  1  0.39883700  0.24508200  0.08270400  1
  C  C35  1  0.89883700  0.25491800  0.41729600  1
  C  C36  1  0.10116300  0.74508200  0.41729600  1
  C  C37  1  0.25491800  0.89883700  0.08270400  1
  C  C38  1  0.74508200  0.10116300  0.08270400  1
  C  C39  1  0.24724500  0.04349800  0.37304500  1
  C  C40  1  0.60116300  0.75491800  0.08270400  1
  C  C41  1  0.74724500  0.54349800  0.62695500  1
  C  C42  1  0.45650200  0.25275500  0.87304500  1
  C  C43  1  0.95650200  0.24724500  0.62695500  1
  C  C44  1  0.04349800  0.75275500  0.62695500  1
  C  C45  1  0.24724500  0.95650200  0.87304500  1
  C  C46  1  0.75275500  0.04349800  0.87304500  1
  C  C47  1  0.54349800  0.74724500  0.87304500  1
  C  C48  1  0.71015900  0.71015900  0.25000000  1
  C  C49  1  0.78984100  0.21015900  0.25000000  1
  C  C50  1  0.21015900  0.78984100  0.25000000  1
  C  C51  1  0.28984100  0.28984100  0.25000000  1
  C  C52  1  0.78984100  0.78984100  0.75000000  1
  C  C53  1  0.71015900  0.28984100  0.75000000  1
  C  C54  1  0.28984100  0.71015900  0.75000000  1
  C  C55  1  0.21015900  0.21015900  0.75000000  1
  C  C56  1  0.95650200  0.75275500  0.12695500  1
  C  C57  1  0.74724500  0.45650200  0.12695500  1
  C  C58  1  0.25275500  0.54349800  0.12695500  1
  C  C59  1  0.45650200  0.74724500  0.37304500  1
  C  C60  1  0.54349800  0.25275500  0.37304500  1
  C  C61  1  0.04349800  0.24724500  0.12695500  1
  C  C62  1  0.75275500  0.95650200  0.37304500  1
  C  C63  1  0.25275500  0.45650200  0.62695500  1
