# generated using pymatgen
data_Cu(NiC2)2
_symmetry_space_group_name_H-M   'P 1'
_cell_length_a   9.25281700
_cell_length_b   10.97416200
_cell_length_c   14.19477999
_cell_angle_alpha   65.76358916
_cell_angle_beta   90.00000000
_cell_angle_gamma   90.00000000
_symmetry_Int_Tables_number   1
_chemical_formula_structural   Cu(NiC2)2
_chemical_formula_sum   'Cu4 Ni8 C16'
_cell_volume   1314.32236925
_cell_formula_units_Z   4
loop_
 _symmetry_equiv_pos_site_id
 _symmetry_equiv_pos_as_xyz
  1  'x, y, z'
loop_
 _atom_site_type_symbol
 _atom_site_label
 _atom_site_symmetry_multiplicity
 _atom_site_fract_x
 _atom_site_fract_y
 _atom_site_fract_z
 _atom_site_occupancy
  Ni  Ni0  1  0.82225600  0.45805700  0.61192900  1
  Ni  Ni1  1  0.06654800  0.67628000  0.67417500  1
  Ni  Ni2  1  0.93345200  0.32372000  0.32582500  1
  Ni  Ni3  1  0.67774400  0.45805700  0.11192900  1
  Ni  Ni4  1  0.32225600  0.54194300  0.88807100  1
  Ni  Ni5  1  0.43345200  0.67628000  0.17417500  1
  Ni  Ni6  1  0.17774400  0.54194300  0.38807100  1
  Ni  Ni7  1  0.56654800  0.32372000  0.82582500  1
  Cu  Cu8  1  0.91055700  0.13796400  0.05026800  1
  Cu  Cu9  1  0.41055700  0.86203600  0.44973200  1
  Cu  Cu10  1  0.08944300  0.86203600  0.94973200  1
  Cu  Cu11  1  0.58944300  0.13796400  0.55026800  1
  C  C12  1  0.96779600  0.65087700  0.52982700  1
  C  C13  1  0.82668700  0.26766000  0.19646100  1
  C  C14  1  0.03220400  0.34912300  0.47017300  1
  C  C15  1  0.46779600  0.34912300  0.97017300  1
  C  C16  1  0.32668700  0.73234000  0.30353900  1
  C  C17  1  0.17331300  0.73234000  0.80353900  1
  C  C18  1  0.53220400  0.65087700  0.02982700  1
  C  C19  1  0.67331300  0.26766000  0.69646100  1
  C  C20  1  0.69576300  0.95482600  0.45517100  1
  C  C21  1  0.92810700  0.37954300  0.88254400  1
  C  C22  1  0.57189300  0.37954300  0.38254400  1
  C  C23  1  0.30423700  0.04517400  0.54482900  1
  C  C24  1  0.19576300  0.04517400  0.04482900  1
  C  C25  1  0.80423700  0.95482600  0.95517100  1
  C  C26  1  0.07189300  0.62045700  0.11745600  1
  C  C27  1  0.42810700  0.62045700  0.61745600  1
