# generated using pymatgen
data_Cu9NiC20
_symmetry_space_group_name_H-M   'P 1'
_cell_length_a   6.88119200
_cell_length_b   7.94995641
_cell_length_c   8.89756461
_cell_angle_alpha   102.86177569
_cell_angle_beta   97.51130006
_cell_angle_gamma   106.65982680
_symmetry_Int_Tables_number   1
_chemical_formula_structural   Cu9NiC20
_chemical_formula_sum   'Cu9 Ni1 C20'
_cell_volume   444.64062890
_cell_formula_units_Z   1
loop_
 _symmetry_equiv_pos_site_id
 _symmetry_equiv_pos_as_xyz
  1  'x, y, z'
loop_
 _atom_site_type_symbol
 _atom_site_label
 _atom_site_symmetry_multiplicity
 _atom_site_fract_x
 _atom_site_fract_y
 _atom_site_fract_z
 _atom_site_occupancy
  Ni  Ni0  1  0.00000000  0.50000000  0.00000000  1
  Cu  Cu1  1  0.80031100  0.59983900  0.60179100  1
  Cu  Cu2  1  0.60213400  0.20119500  0.19935200  1
  Cu  Cu3  1  0.80067600  0.10137100  0.60161000  1
  Cu  Cu4  1  0.39786600  0.79880500  0.80064800  1
  Cu  Cu5  1  0.59958700  0.69874400  0.19874600  1
  Cu  Cu6  1  0.19968900  0.40016100  0.39820900  1
  Cu  Cu7  1  0.40041300  0.30125600  0.80125400  1
  Cu  Cu8  1  0.00000000  0.00000000  0.00000000  1
  Cu  Cu9  1  0.19932400  0.89862900  0.39839000  1
  C  C10  1  0.64905400  0.92518700  0.04939500  1
  C  C11  1  0.44943100  0.52540200  0.64953500  1
  C  C12  1  0.64430700  0.42335800  0.05117900  1
  C  C13  1  0.74579200  0.37293100  0.74575000  1
  C  C14  1  0.25128000  0.12546600  0.24994100  1
  C  C15  1  0.44956700  0.02426400  0.65009000  1
  C  C16  1  0.05086900  0.72892400  0.84733100  1
  C  C17  1  0.55043300  0.97573600  0.34991000  1
  C  C18  1  0.74872000  0.87453400  0.75005900  1
  C  C19  1  0.25420800  0.62706900  0.25425000  1
  C  C20  1  0.35569300  0.57664200  0.94882100  1
  C  C21  1  0.85052500  0.32564000  0.45019600  1
  C  C22  1  0.05080100  0.22013300  0.84733700  1
  C  C23  1  0.55056900  0.47459800  0.35046500  1
  C  C24  1  0.14992100  0.17519900  0.54932600  1
  C  C25  1  0.35094600  0.07481300  0.95060500  1
  C  C26  1  0.85007900  0.82480100  0.45067400  1
  C  C27  1  0.94919900  0.77986700  0.15266300  1
  C  C28  1  0.14947500  0.67436000  0.54980400  1
  C  C29  1  0.94913100  0.27107600  0.15266900  1
