# generated using pymatgen
data_CuNiC9
_symmetry_space_group_name_H-M   'P 1'
_cell_length_a   9.12325116
_cell_length_b   9.12325116
_cell_length_c   8.78119115
_cell_angle_alpha   85.79855486
_cell_angle_beta   85.79855486
_cell_angle_gamma   87.68423986
_symmetry_Int_Tables_number   1
_chemical_formula_structural   CuNiC9
_chemical_formula_sum   'Cu6 Ni6 C54'
_cell_volume   726.51682705
_cell_formula_units_Z   6
loop_
 _symmetry_equiv_pos_site_id
 _symmetry_equiv_pos_as_xyz
  1  'x, y, z'
loop_
 _atom_site_type_symbol
 _atom_site_label
 _atom_site_symmetry_multiplicity
 _atom_site_fract_x
 _atom_site_fract_y
 _atom_site_fract_z
 _atom_site_occupancy
  C  C0  1  0.60174200  0.56223800  0.70754700  1
  C  C1  1  0.56223800  0.60174200  0.20754700  1
  C  C2  1  0.08174400  0.81583000  0.91858900  1
  C  C3  1  0.81583000  0.08174400  0.41858900  1
  C  C4  1  0.10976000  0.32601100  0.90834300  1
  C  C5  1  0.32601100  0.10976000  0.40834300  1
  Ni  Ni6  1  0.84031800  0.56178300  0.95817900  1
  Ni  Ni7  1  0.56178300  0.84031800  0.45817900  1
  Ni  Ni8  1  0.33022600  0.57850000  0.95742100  1
  Ni  Ni9  1  0.57850000  0.33022600  0.45742100  1
  Ni  Ni10  1  0.05378900  0.08056000  0.67592300  1
  Ni  Ni11  1  0.08056000  0.05378900  0.17592300  1
  C  C12  1  0.69167300  0.92335900  0.84484500  1
  C  C13  1  0.92335900  0.69167300  0.34484500  1
  C  C14  1  0.50372400  0.87782600  0.89498700  1
  C  C15  1  0.87782600  0.50372400  0.39498700  1
  C  C16  1  0.95217600  0.40127100  0.60929000  1
  C  C17  1  0.40127100  0.95217600  0.10929000  1
  C  C18  1  0.78332600  0.14443700  0.93444100  1
  C  C19  1  0.63312000  0.27193500  0.90760900  1
  C  C20  1  0.22046700  0.68666800  0.59644800  1
  C  C21  1  0.14443700  0.78332600  0.43444100  1
  C  C22  1  0.27193500  0.63312000  0.40760900  1
  C  C23  1  0.68666800  0.22046700  0.09644800  1
  C  C24  1  0.54525200  0.03209800  0.76476200  1
  C  C25  1  0.03209800  0.54525200  0.26476200  1
  C  C26  1  0.37757000  0.32815600  0.80686500  1
  C  C27  1  0.32815600  0.37757000  0.30686500  1
  C  C28  1  0.30557700  0.20018400  0.72746600  1
  C  C29  1  0.20018400  0.30557700  0.22746600  1
  Cu  Cu30  1  0.57921300  0.96787100  0.86792400  1
  Cu  Cu31  1  0.96787100  0.57921300  0.36792400  1
  Cu  Cu32  1  0.67561200  0.18141100  0.98348500  1
  Cu  Cu33  1  0.18141100  0.67561200  0.48348500  1
  Cu  Cu34  1  0.04421000  0.47481800  0.61234400  1
  Cu  Cu35  1  0.47481800  0.04421000  0.11234400  1
  C  C36  1  0.57480300  0.06070900  0.99631900  1
  C  C37  1  0.06070900  0.57480300  0.49631900  1
  C  C38  1  0.93542800  0.69782700  0.95378500  1
  C  C39  1  0.69782700  0.93542800  0.45378500  1
  C  C40  1  0.93148700  0.41941700  0.97484200  1
  C  C41  1  0.75878100  0.56970300  0.80829500  1
  C  C42  1  0.41941700  0.93148700  0.47484200  1
  C  C43  1  0.56970300  0.75878100  0.30829500  1
  C  C44  1  0.57242300  0.72423300  0.59499100  1
  C  C45  1  0.72423300  0.57242300  0.09499100  1
  C  C46  1  0.62162000  0.40996800  0.59612200  1
  C  C47  1  0.92502600  0.09476800  0.57076900  1
  C  C48  1  0.25225300  0.71878200  0.88987700  1
  C  C49  1  0.44808100  0.52119300  0.83585500  1
  C  C50  1  0.05335000  0.92144900  0.74987000  1
  C  C51  1  0.40996800  0.62162000  0.09612200  1
  C  C52  1  0.09476800  0.92502600  0.07076900  1
  C  C53  1  0.71878200  0.25225300  0.38987700  1
  C  C54  1  0.52119300  0.44808100  0.33585500  1
  C  C55  1  0.92144900  0.05335000  0.24987000  1
  C  C56  1  0.45638900  0.22402900  0.50627000  1
  C  C57  1  0.22402900  0.45638900  0.00627000  1
  C  C58  1  0.31011100  0.24629700  0.82614700  1
  C  C59  1  0.24629700  0.31011100  0.32614700  1
  C  C60  1  0.20288100  0.10964700  0.58788500  1
  C  C61  1  0.10964700  0.20288100  0.08788500  1
  C  C62  1  0.02477700  0.19018100  0.79945300  1
  C  C63  1  0.19018100  0.02477700  0.29945300  1
  C  C64  1  0.12745700  0.46273000  0.72278700  1
  C  C65  1  0.46273000  0.12745700  0.22278700  1
