# generated using pymatgen
data_Cu5NiC4
_symmetry_space_group_name_H-M   'P 1'
_cell_length_a   6.99884200
_cell_length_b   7.51292900
_cell_length_c   8.43967833
_cell_angle_alpha   75.91776702
_cell_angle_beta   90.00000000
_cell_angle_gamma   90.00000000
_symmetry_Int_Tables_number   1
_chemical_formula_structural   Cu5NiC4
_chemical_formula_sum   'Cu20 Ni4 C16'
_cell_volume   430.43700577
_cell_formula_units_Z   4
loop_
 _symmetry_equiv_pos_site_id
 _symmetry_equiv_pos_as_xyz
  1  'x, y, z'
loop_
 _atom_site_type_symbol
 _atom_site_label
 _atom_site_symmetry_multiplicity
 _atom_site_fract_x
 _atom_site_fract_y
 _atom_site_fract_z
 _atom_site_occupancy
  C  C0  1  0.84904300  0.54749400  0.58710600  1
  C  C1  1  0.34904300  0.45250600  0.91289400  1
  C  C2  1  0.15095700  0.45250600  0.41289400  1
  C  C3  1  0.65095700  0.54749400  0.08710600  1
  C  C4  1  0.69225000  0.14089600  0.95579800  1
  C  C5  1  0.87025300  0.26063500  0.81345300  1
  C  C6  1  0.61075200  0.19679400  0.77624300  1
  C  C7  1  0.37025300  0.73936500  0.68654700  1
  C  C8  1  0.19225000  0.85910400  0.54420200  1
  C  C9  1  0.11075200  0.80320600  0.72375700  1
  C  C10  1  0.38924800  0.80320600  0.22375700  1
  C  C11  1  0.12974700  0.73936500  0.18654700  1
  C  C12  1  0.30775000  0.85910400  0.04420200  1
  C  C13  1  0.80775000  0.14089600  0.45579800  1
  C  C14  1  0.88924800  0.19679400  0.27624300  1
  C  C15  1  0.62974700  0.26063500  0.31345300  1
  Ni  Ni16  1  0.64162200  0.76151100  0.55043700  1
  Ni  Ni17  1  0.14162200  0.23848900  0.94956300  1
  Ni  Ni18  1  0.35837800  0.23848900  0.44956300  1
  Ni  Ni19  1  0.85837800  0.76151100  0.05043700  1
  Cu  Cu20  1  0.98974900  0.81852700  0.91639200  1
  Cu  Cu21  1  0.48974900  0.18147300  0.58360800  1
  Cu  Cu22  1  0.01025100  0.18147300  0.08360800  1
  Cu  Cu23  1  0.51025100  0.81852700  0.41639200  1
  Cu  Cu24  1  0.53214600  0.71773400  0.71195000  1
  Cu  Cu25  1  0.03214600  0.28226600  0.78805000  1
  Cu  Cu26  1  0.46785400  0.28226600  0.28805000  1
  Cu  Cu27  1  0.96785400  0.71773400  0.21195000  1
  Cu  Cu28  1  0.72284200  0.56735100  0.53495500  1
  Cu  Cu29  1  0.22284200  0.43264900  0.96504500  1
  Cu  Cu30  1  0.27715800  0.43264900  0.46504500  1
  Cu  Cu31  1  0.77715800  0.56735100  0.03495500  1
  Cu  Cu32  1  0.80480500  0.87747400  0.55949300  1
  Cu  Cu33  1  0.30480500  0.12252600  0.94050700  1
  Cu  Cu34  1  0.19519500  0.12252600  0.44050700  1
  Cu  Cu35  1  0.69519500  0.87747400  0.05949300  1
  Cu  Cu36  1  0.69441500  0.23897200  0.85415700  1
  Cu  Cu37  1  0.19441500  0.76102800  0.64584300  1
  Cu  Cu38  1  0.30558500  0.76102800  0.14584300  1
  Cu  Cu39  1  0.80558500  0.23897200  0.35415700  1
