# generated using pymatgen
data_Cu2NiC21
_symmetry_space_group_name_H-M   'P 1'
_cell_length_a   7.50529400
_cell_length_b   8.39236100
_cell_length_c   17.08788500
_cell_angle_alpha   90.00000000
_cell_angle_beta   90.00000000
_cell_angle_gamma   90.00000000
_symmetry_Int_Tables_number   1
_chemical_formula_structural   Cu2NiC21
_chemical_formula_sum   'Cu8 Ni4 C84'
_cell_volume   1076.31694771
_cell_formula_units_Z   4
loop_
 _symmetry_equiv_pos_site_id
 _symmetry_equiv_pos_as_xyz
  1  'x, y, z'
loop_
 _atom_site_type_symbol
 _atom_site_label
 _atom_site_symmetry_multiplicity
 _atom_site_fract_x
 _atom_site_fract_y
 _atom_site_fract_z
 _atom_site_occupancy
  C  C0  1  0.00000000  0.50000000  0.50000000  1
  C  C1  1  0.50000000  0.00000000  0.00000000  1
  C  C2  1  0.00000000  0.00000000  0.00000000  1
  C  C3  1  0.50000000  0.50000000  0.50000000  1
  C  C4  1  0.53086000  0.21235300  0.69203500  1
  C  C5  1  0.25000000  0.25237500  0.12976100  1
  C  C6  1  0.90227800  0.68098300  0.01794300  1
  C  C7  1  0.59772200  0.68098300  0.01794300  1
  C  C8  1  0.09703200  0.37055900  0.73568000  1
  C  C9  1  0.75000000  0.45185100  0.77600900  1
  C  C10  1  0.90296800  0.87055900  0.76432000  1
  C  C11  1  0.75000000  0.75237500  0.37023900  1
  C  C12  1  0.36991700  0.51548900  0.13440900  1
  C  C13  1  0.93780800  0.17934900  0.54230500  1
  C  C14  1  0.58468500  0.68017900  0.71654200  1
  C  C15  1  0.91531500  0.81982100  0.21654200  1
  C  C16  1  0.63008300  0.48451100  0.86559100  1
  C  C17  1  0.91531500  0.68017900  0.71654200  1
  C  C18  1  0.75000000  0.04814900  0.27600900  1
  C  C19  1  0.53086000  0.28764700  0.19203500  1
  C  C20  1  0.75000000  0.74762500  0.87023900  1
  C  C21  1  0.63008300  0.01548900  0.36559100  1
  C  C22  1  0.41531500  0.31982100  0.28345800  1
  C  C23  1  0.59703200  0.87055900  0.76432000  1
  C  C24  1  0.03086000  0.71235300  0.80796500  1
  C  C25  1  0.43780800  0.67934900  0.95769500  1
  C  C26  1  0.25000000  0.54814900  0.22399100  1
  C  C27  1  0.03086000  0.78764700  0.30796500  1
  C  C28  1  0.13008300  0.98451100  0.63440900  1
  C  C29  1  0.86991700  0.01548900  0.36559100  1
  C  C30  1  0.56219200  0.32065100  0.04230500  1
  C  C31  1  0.36991700  0.98451100  0.63440900  1
  C  C32  1  0.25000000  0.24762500  0.62976100  1
  C  C33  1  0.46914000  0.78764700  0.30796500  1
  C  C34  1  0.25000000  0.95185100  0.72399100  1
  C  C35  1  0.93780800  0.32065100  0.04230500  1
  C  C36  1  0.43780800  0.82065100  0.45769500  1
  C  C37  1  0.58468500  0.81982100  0.21654200  1
  C  C38  1  0.96914000  0.28764700  0.19203500  1
  C  C39  1  0.09772200  0.18098300  0.48205700  1
  C  C40  1  0.96914000  0.21235300  0.69203500  1
  C  C41  1  0.08468500  0.18017900  0.78345800  1
  C  C42  1  0.59772200  0.81901700  0.51794300  1
  C  C43  1  0.08468500  0.31982100  0.28345800  1
  C  C44  1  0.40296800  0.37055900  0.73568000  1
  C  C45  1  0.09703200  0.12944100  0.23568000  1
  C  C46  1  0.56219200  0.17934900  0.54230500  1
  C  C47  1  0.06219200  0.82065100  0.45769500  1
  C  C48  1  0.06219200  0.67934900  0.95769500  1
  C  C49  1  0.90227800  0.81901700  0.51794300  1
  C  C50  1  0.40227800  0.18098300  0.48205700  1
  C  C51  1  0.41531500  0.18017900  0.78345800  1
  C  C52  1  0.40296800  0.12944100  0.23568000  1
  C  C53  1  0.90296800  0.62944100  0.26432000  1
  C  C54  1  0.46914000  0.71235300  0.80796500  1
  C  C55  1  0.86991700  0.48451100  0.86559100  1
  C  C56  1  0.40227800  0.31901700  0.98205700  1
  C  C57  1  0.13008300  0.51548900  0.13440900  1
  C  C58  1  0.09772200  0.31901700  0.98205700  1
  C  C59  1  0.59703200  0.62944100  0.26432000  1
  C  C60  1  0.25000000  0.01465800  0.66784800  1
  C  C61  1  0.25000000  0.48534200  0.16784800  1
  C  C62  1  0.75000000  0.98534200  0.33215200  1
  C  C63  1  0.58711700  0.75824100  0.27299500  1
  C  C64  1  0.41288300  0.25824100  0.22700500  1
  C  C65  1  0.75000000  0.51465800  0.83215200  1
  C  C66  1  0.41288300  0.24175900  0.72700500  1
  C  C67  1  0.58711700  0.74175900  0.77299500  1
  C  C68  1  0.91288300  0.74175900  0.77299500  1
  C  C69  1  0.91288300  0.75824100  0.27299500  1
  C  C70  1  0.08711700  0.25824100  0.22700500  1
  C  C71  1  0.08711700  0.24175900  0.72700500  1
  Ni  Ni72  1  0.25000000  0.19008100  0.68342100  1
  Ni  Ni73  1  0.75000000  0.80991900  0.31657900  1
  Ni  Ni74  1  0.75000000  0.69008100  0.81657900  1
  Ni  Ni75  1  0.25000000  0.30991900  0.18342100  1
  C  C76  1  0.25000000  0.93666800  0.10032700  1
  C  C77  1  0.75000000  0.50109800  0.08710900  1
  C  C78  1  0.75000000  0.50048700  0.60042900  1
  C  C79  1  0.25000000  0.00109800  0.41289100  1
  C  C80  1  0.75000000  0.06333200  0.89967300  1
  C  C81  1  0.25000000  0.56333200  0.60032700  1
  C  C82  1  0.25000000  0.49890200  0.91289100  1
  C  C83  1  0.25000000  0.49951300  0.39957100  1
  C  C84  1  0.75000000  0.43666800  0.39967300  1
  C  C85  1  0.75000000  0.99951300  0.10042900  1
  C  C86  1  0.25000000  0.00048700  0.89957100  1
  C  C87  1  0.75000000  0.99890200  0.58710900  1
  Cu  Cu88  1  0.54092100  0.74394100  0.97580900  1
  Cu  Cu89  1  0.95907900  0.74394100  0.97580900  1
  Cu  Cu90  1  0.95907900  0.75605900  0.47580900  1
  Cu  Cu91  1  0.54092100  0.75605900  0.47580900  1
  Cu  Cu92  1  0.45907900  0.25605900  0.02419100  1
  Cu  Cu93  1  0.45907900  0.24394100  0.52419100  1
  Cu  Cu94  1  0.04092100  0.25605900  0.02419100  1
  Cu  Cu95  1  0.04092100  0.24394100  0.52419100  1
