# generated using pymatgen
data_Cu12Ni4C3
_symmetry_space_group_name_H-M   'P 1'
_cell_length_a   7.80932500
_cell_length_b   10.85155700
_cell_length_c   15.68142037
_cell_angle_alpha   49.20464869
_cell_angle_beta   90.00000000
_cell_angle_gamma   90.00000000
_symmetry_Int_Tables_number   1
_chemical_formula_structural   Cu12Ni4C3
_chemical_formula_sum   'Cu48 Ni16 C12'
_cell_volume   1006.03804799
_cell_formula_units_Z   4
loop_
 _symmetry_equiv_pos_site_id
 _symmetry_equiv_pos_as_xyz
  1  'x, y, z'
loop_
 _atom_site_type_symbol
 _atom_site_label
 _atom_site_symmetry_multiplicity
 _atom_site_fract_x
 _atom_site_fract_y
 _atom_site_fract_z
 _atom_site_occupancy
  C  C0  1  0.16791900  0.13322400  0.82980200  1
  C  C1  1  0.84251900  0.33066000  0.16009300  1
  C  C2  1  0.65748100  0.33066000  0.66009300  1
  C  C3  1  0.66791900  0.86677600  0.67019800  1
  C  C4  1  0.15748100  0.66934000  0.83990700  1
  C  C5  1  0.83208100  0.86677600  0.17019800  1
  C  C6  1  0.34251900  0.66934000  0.33990700  1
  C  C7  1  0.33208100  0.13322400  0.32980200  1
  C  C8  1  0.05138000  0.72566700  0.53040200  1
  C  C9  1  0.55138000  0.27433300  0.96959800  1
  C  C10  1  0.44862000  0.72566700  0.03040200  1
  C  C11  1  0.94862000  0.27433300  0.46959800  1
  Ni  Ni12  1  0.95797500  0.95044500  0.31043900  1
  Ni  Ni13  1  0.04202500  0.04955500  0.68956100  1
  Ni  Ni14  1  0.76296400  0.52726800  0.90152300  1
  Ni  Ni15  1  0.23016600  0.81763400  0.11096400  1
  Ni  Ni16  1  0.26983400  0.81763400  0.61096400  1
  Ni  Ni17  1  0.45797500  0.04955500  0.18956100  1
  Ni  Ni18  1  0.76931800  0.65883200  0.09242400  1
  Ni  Ni19  1  0.23068200  0.34116800  0.90757600  1
  Ni  Ni20  1  0.73068200  0.65883200  0.59242400  1
  Ni  Ni21  1  0.26931800  0.34116800  0.40757600  1
  Ni  Ni22  1  0.54202500  0.95044500  0.81043900  1
  Ni  Ni23  1  0.76983400  0.18236600  0.88903600  1
  Ni  Ni24  1  0.73016600  0.18236600  0.38903600  1
  Ni  Ni25  1  0.26296400  0.47273200  0.59847700  1
  Ni  Ni26  1  0.73703600  0.52726800  0.40152300  1
  Ni  Ni27  1  0.23703600  0.47273200  0.09847700  1
  Cu  Cu28  1  0.09903900  0.93856800  0.78657200  1
  Cu  Cu29  1  0.95391300  0.80263600  0.35418800  1
  Cu  Cu30  1  0.92007100  0.61628900  0.11904800  1
  Cu  Cu31  1  0.69538900  0.12435700  0.48747900  1
  Cu  Cu32  1  0.26792100  0.61597100  0.00234600  1
  Cu  Cu33  1  0.80461100  0.12435700  0.98747900  1
  Cu  Cu34  1  0.76792100  0.38402900  0.49765400  1
  Cu  Cu35  1  0.18113900  0.43215600  0.68258300  1
  Cu  Cu36  1  0.68113900  0.56784400  0.81741700  1
  Cu  Cu37  1  0.54608700  0.80263600  0.85418800  1
  Cu  Cu38  1  0.30461100  0.87564300  0.51252100  1
  Cu  Cu39  1  0.23207900  0.61597100  0.50234600  1
  Cu  Cu40  1  0.20790300  0.21094400  0.43414100  1
  Cu  Cu41  1  0.02196100  0.98088200  0.37058700  1
  Cu  Cu42  1  0.31886100  0.43215600  0.18258300  1
  Cu  Cu43  1  0.36850000  0.38188700  0.60368400  1
  Cu  Cu44  1  0.04608700  0.19736400  0.64581200  1
  Cu  Cu45  1  0.64314900  0.15735400  0.33485900  1
  Cu  Cu46  1  0.73207900  0.38402900  0.99765400  1
  Cu  Cu47  1  0.16025100  0.42927800  0.41003400  1
  Cu  Cu48  1  0.33974900  0.42927800  0.91003400  1
  Cu  Cu49  1  0.42007100  0.38371100  0.38095200  1
  Cu  Cu50  1  0.86453200  0.27433000  0.34257900  1
  Cu  Cu51  1  0.36453200  0.72567000  0.15742100  1
  Cu  Cu52  1  0.14314900  0.84264600  0.16514100  1
  Cu  Cu53  1  0.59903900  0.06143200  0.71342800  1
  Cu  Cu54  1  0.66025100  0.57072200  0.08996600  1
  Cu  Cu55  1  0.57992900  0.61628900  0.61904800  1
  Cu  Cu56  1  0.63546800  0.27433000  0.84257900  1
  Cu  Cu57  1  0.70790300  0.78905600  0.06585900  1
  Cu  Cu58  1  0.07992900  0.38371100  0.88095200  1
  Cu  Cu59  1  0.29209700  0.21094400  0.93414100  1
  Cu  Cu60  1  0.81886100  0.56784400  0.31741700  1
  Cu  Cu61  1  0.85685100  0.15735400  0.83485900  1
  Cu  Cu62  1  0.90096100  0.06143200  0.21342800  1
  Cu  Cu63  1  0.52196100  0.01911800  0.12941300  1
  Cu  Cu64  1  0.13546800  0.72567000  0.65742100  1
  Cu  Cu65  1  0.13150000  0.38188700  0.10368400  1
  Cu  Cu66  1  0.47803900  0.98088200  0.87058700  1
  Cu  Cu67  1  0.63150000  0.61811300  0.39631600  1
  Cu  Cu68  1  0.79209700  0.78905600  0.56585900  1
  Cu  Cu69  1  0.86850000  0.61811300  0.89631600  1
  Cu  Cu70  1  0.19538900  0.87564300  0.01252100  1
  Cu  Cu71  1  0.40096100  0.93856800  0.28657200  1
  Cu  Cu72  1  0.97803900  0.01911800  0.62941300  1
  Cu  Cu73  1  0.83974900  0.57072200  0.58996600  1
  Cu  Cu74  1  0.35685100  0.84264600  0.66514100  1
  Cu  Cu75  1  0.45391300  0.19736400  0.14581200  1
