# generated using pymatgen
data_Cu6NiC37
_symmetry_space_group_name_H-M   'P 1'
_cell_length_a   14.63561200
_cell_length_b   14.63561200
_cell_length_c   14.92393700
_cell_angle_alpha   90.00000000
_cell_angle_beta   90.00000000
_cell_angle_gamma   90.00000000
_symmetry_Int_Tables_number   1
_chemical_formula_structural   Cu6NiC37
_chemical_formula_sum   'Cu24 Ni4 C148'
_cell_volume   3196.72429801
_cell_formula_units_Z   4
loop_
 _symmetry_equiv_pos_site_id
 _symmetry_equiv_pos_as_xyz
  1  'x, y, z'
loop_
 _atom_site_type_symbol
 _atom_site_label
 _atom_site_symmetry_multiplicity
 _atom_site_fract_x
 _atom_site_fract_y
 _atom_site_fract_z
 _atom_site_occupancy
  C  C0  1  0.75000000  0.25000000  0.22845900  1
  C  C1  1  0.75000000  0.25000000  0.72845900  1
  C  C2  1  0.25000000  0.75000000  0.27154100  1
  C  C3  1  0.25000000  0.75000000  0.77154100  1
  Ni  Ni4  1  0.50000000  0.50000000  0.50000000  1
  Ni  Ni5  1  0.50000000  0.00000000  0.00000000  1
  Ni  Ni6  1  0.00000000  0.50000000  0.00000000  1
  Ni  Ni7  1  0.00000000  0.00000000  0.50000000  1
  Cu  Cu8  1  0.95336600  0.55184500  0.23629100  1
  Cu  Cu9  1  0.04663400  0.44815500  0.76370900  1
  Cu  Cu10  1  0.46026800  0.74675300  0.52917200  1
  Cu  Cu11  1  0.24675300  0.53973200  0.02917200  1
  Cu  Cu12  1  0.75324700  0.46026800  0.97082800  1
  Cu  Cu13  1  0.45967600  0.24061800  0.05418600  1
  Cu  Cu14  1  0.25938200  0.45967600  0.44581400  1
  Cu  Cu15  1  0.75938200  0.95967600  0.55418600  1
  Cu  Cu16  1  0.53973200  0.25324700  0.47082800  1
  Cu  Cu17  1  0.05184500  0.04663400  0.73629100  1
  Cu  Cu18  1  0.04032400  0.25938200  0.05418600  1
  Cu  Cu19  1  0.24061800  0.04032400  0.44581400  1
  Cu  Cu20  1  0.55184500  0.54663400  0.26370900  1
  Cu  Cu21  1  0.95967600  0.74061800  0.94581400  1
  Cu  Cu22  1  0.44815500  0.45336600  0.73629100  1
  Cu  Cu23  1  0.74061800  0.54032400  0.55418600  1
  Cu  Cu24  1  0.45336600  0.05184500  0.76370900  1
  Cu  Cu25  1  0.25324700  0.96026800  0.02917200  1
  Cu  Cu26  1  0.54663400  0.94815500  0.23629100  1
  Cu  Cu27  1  0.03973200  0.75324700  0.52917200  1
  Cu  Cu28  1  0.96026800  0.24675300  0.47082800  1
  Cu  Cu29  1  0.54032400  0.75938200  0.94581400  1
  Cu  Cu30  1  0.94815500  0.95336600  0.26370900  1
  Cu  Cu31  1  0.74675300  0.03973200  0.97082800  1
  C  C32  1  0.55282300  0.38034200  0.46207700  1
  C  C33  1  0.44615300  0.44492300  0.60982700  1
  C  C34  1  0.53040300  0.88715800  0.93220500  1
  C  C35  1  0.94717700  0.11965800  0.46207700  1
  C  C36  1  0.11284200  0.03040300  0.43220500  1
  C  C37  1  0.05384700  0.05507700  0.60982700  1
  C  C38  1  0.88715800  0.96959700  0.56779500  1
  C  C39  1  0.05507700  0.44615300  0.89017300  1
  C  C40  1  0.55384700  0.55507700  0.39017300  1
  C  C41  1  0.38034200  0.94717700  0.03792300  1
  C  C42  1  0.94492300  0.55384700  0.10982700  1
  C  C43  1  0.96959700  0.61284200  0.93220500  1
  C  C44  1  0.88034200  0.44717700  0.96207700  1
  C  C45  1  0.38715800  0.46959700  0.43220500  1
  C  C46  1  0.44492300  0.05384700  0.89017300  1
  C  C47  1  0.03040300  0.38715800  0.06779500  1
  C  C48  1  0.05282300  0.88034200  0.53792300  1
  C  C49  1  0.55507700  0.94615300  0.10982700  1
  C  C50  1  0.61965800  0.05282300  0.96207700  1
  C  C51  1  0.46959700  0.11284200  0.06779500  1
  C  C52  1  0.11965800  0.55282300  0.03792300  1
  C  C53  1  0.61284200  0.53040300  0.56779500  1
  C  C54  1  0.44717700  0.61965800  0.53792300  1
  C  C55  1  0.94615300  0.94492300  0.39017300  1
  C  C56  1  0.75003500  0.93490100  0.04231000  1
  C  C57  1  0.45254100  0.05744800  0.63859300  1
  C  C58  1  0.14803300  0.37038400  0.76315200  1
  C  C59  1  0.23538700  0.14480500  0.51815100  1
  C  C60  1  0.24476300  0.56605500  0.37480100  1
  C  C61  1  0.75019100  0.11157000  0.07640200  1
  C  C62  1  0.35269300  0.75402500  0.59881500  1
  C  C63  1  0.62961600  0.64803300  0.26315200  1
  C  C64  1  0.15356600  0.96703400  0.73627500  1
  C  C65  1  0.03296600  0.65356600  0.23627500  1
  C  C66  1  0.74980900  0.38843000  0.07640200  1
  C  C67  1  0.11227700  0.25871500  0.15775500  1
  C  C68  1  0.44458700  0.02544500  0.24431600  1
  C  C69  1  0.88772300  0.74128500  0.84224500  1
  C  C70  1  0.64480500  0.76461300  0.01815100  1
  C  C71  1  0.75402500  0.14730700  0.90118500  1
  C  C72  1  0.25230200  0.53436400  0.54830400  1
  C  C73  1  0.95044400  0.86815600  0.94721000  1
  C  C74  1  0.03204300  0.25379600  0.36694600  1
  C  C75  1  0.12961600  0.14803300  0.73684800  1
  C  C76  1  0.84643400  0.03296600  0.26372500  1
  C  C77  1  0.95552700  0.37426700  0.47233200  1
  C  C78  1  0.95254100  0.55744800  0.36140700  1
  C  C79  1  0.25871500  0.38772300  0.34224500  1
  C  C80  1  0.37426700  0.54447300  0.02766800  1
  C  C81  1  0.04447300  0.62573300  0.52766800  1
  C  C82  1  0.93394500  0.24476300  0.12519900  1
  C  C83  1  0.44255200  0.45254100  0.86140700  1
  C  C84  1  0.35519500  0.23538700  0.98184900  1
  C  C85  1  0.06509900  0.25003500  0.54231000  1
  C  C86  1  0.05160100  0.87652600  0.25385000  1
  C  C87  1  0.62347400  0.05160100  0.24615000  1
  C  C88  1  0.54955600  0.63184400  0.94721000  1
  C  C89  1  0.94458700  0.52544500  0.75568400  1
  C  C90  1  0.74476300  0.06605500  0.62519900  1
  C  C91  1  0.53436400  0.24769800  0.95169600  1
  C  C92  1  0.05541300  0.47455500  0.24431600  1
  C  C93  1  0.88843000  0.25019100  0.57640200  1
  C  C94  1  0.75523700  0.43394500  0.62519900  1
  C  C95  1  0.62573300  0.45552700  0.97233200  1
  C  C96  1  0.43394500  0.74476300  0.87480100  1
  C  C97  1  0.06605500  0.75523700  0.87480100  1
  C  C98  1  0.61157000  0.24980900  0.57640200  1
  C  C99  1  0.74769800  0.46563600  0.45169600  1
  C  C100  1  0.26461300  0.35519500  0.51815100  1
  C  C101  1  0.46703400  0.84643400  0.23627500  1
  C  C102  1  0.85196700  0.62961600  0.23684800  1
  C  C103  1  0.96563600  0.25230200  0.95169600  1
  C  C104  1  0.37652600  0.94839900  0.75385000  1
  C  C105  1  0.87652600  0.44839900  0.24615000  1
  C  C106  1  0.24980900  0.88843000  0.92359800  1
  C  C107  1  0.45044400  0.36815600  0.05279000  1
  C  C108  1  0.24996500  0.06509900  0.95769000  1
  C  C109  1  0.74620400  0.53204300  0.86694600  1
  C  C110  1  0.56509900  0.75003500  0.45769000  1
  C  C111  1  0.25402500  0.64730700  0.09881500  1
  C  C112  1  0.53204300  0.75379600  0.63305400  1
  C  C113  1  0.97455500  0.94458700  0.74431600  1
  C  C114  1  0.36815600  0.04955600  0.44721000  1
  C  C115  1  0.74128500  0.61227700  0.65775500  1
  C  C116  1  0.47455500  0.44458700  0.25568400  1
  C  C117  1  0.96795700  0.74620400  0.63305400  1
  C  C118  1  0.24769800  0.96563600  0.54830400  1
  C  C119  1  0.87426700  0.04447300  0.97233200  1
  C  C120  1  0.35196700  0.12961600  0.76315200  1
  C  C121  1  0.14730700  0.74597500  0.59881500  1
  C  C122  1  0.54447300  0.12573300  0.47233200  1
  C  C123  1  0.12573300  0.95552700  0.02766800  1
  C  C124  1  0.93490100  0.74996500  0.45769000  1
  C  C125  1  0.55160100  0.37652600  0.74615000  1
  C  C126  1  0.65356600  0.46703400  0.26372500  1
  C  C127  1  0.53296600  0.15356600  0.76372500  1
  C  C128  1  0.24128500  0.11227700  0.34224500  1
  C  C129  1  0.55744800  0.54745900  0.13859300  1
  C  C130  1  0.11157000  0.74980900  0.42359800  1
  C  C131  1  0.45552700  0.87426700  0.52766800  1
  C  C132  1  0.02544500  0.05541300  0.25568400  1
  C  C133  1  0.13184400  0.45044400  0.44721000  1
  C  C134  1  0.75230200  0.03436400  0.45169600  1
  C  C135  1  0.64803300  0.87038400  0.23684800  1
  C  C136  1  0.24620400  0.03204300  0.13305400  1
  C  C137  1  0.64730700  0.24597500  0.40118500  1
  C  C138  1  0.74597500  0.35269300  0.90118500  1
  C  C139  1  0.54745900  0.94255200  0.36140700  1
  C  C140  1  0.76461300  0.85519500  0.48184900  1
  C  C141  1  0.46795700  0.24620400  0.36694600  1
  C  C142  1  0.46563600  0.75230200  0.04830400  1
  C  C143  1  0.85269300  0.25402500  0.40118500  1
  C  C144  1  0.25523700  0.93394500  0.37480100  1
  C  C145  1  0.44839900  0.62347400  0.25385000  1
  C  C146  1  0.12347400  0.55160100  0.75385000  1
  C  C147  1  0.85519500  0.73538700  0.01815100  1
  C  C148  1  0.75871500  0.88772300  0.65775500  1
  C  C149  1  0.94839900  0.12347400  0.74615000  1
  C  C150  1  0.63184400  0.95044400  0.55279000  1
  C  C151  1  0.34643400  0.53296600  0.73627500  1
  C  C152  1  0.86815600  0.54955600  0.55279000  1
  C  C153  1  0.38772300  0.24128500  0.15775500  1
  C  C154  1  0.04955600  0.13184400  0.05279000  1
  C  C155  1  0.75379600  0.96795700  0.86694600  1
  C  C156  1  0.25003500  0.43490100  0.95769000  1
  C  C157  1  0.74996500  0.56509900  0.04231000  1
  C  C158  1  0.43490100  0.24996500  0.54231000  1
  C  C159  1  0.25379600  0.46795700  0.13305400  1
  C  C160  1  0.52544500  0.55541300  0.74431600  1
  C  C161  1  0.55541300  0.97455500  0.75568400  1
  C  C162  1  0.37038400  0.35196700  0.73684800  1
  C  C163  1  0.05744800  0.04745900  0.86140700  1
  C  C164  1  0.38843000  0.75019100  0.42359800  1
  C  C165  1  0.87038400  0.85196700  0.26315200  1
  C  C166  1  0.14480500  0.26461300  0.98184900  1
  C  C167  1  0.61227700  0.75871500  0.84224500  1
  C  C168  1  0.96703400  0.34643400  0.76372500  1
  C  C169  1  0.56605500  0.25523700  0.12519900  1
  C  C170  1  0.94255200  0.95254100  0.13859300  1
  C  C171  1  0.73538700  0.64480500  0.48184900  1
  C  C172  1  0.04745900  0.44255200  0.63859300  1
  C  C173  1  0.25019100  0.61157000  0.92359800  1
  C  C174  1  0.03436400  0.74769800  0.04830400  1
  C  C175  1  0.24597500  0.85269300  0.09881500  1
