# generated using pymatgen
data_Cu(NiC6)2
_symmetry_space_group_name_H-M   'P 1'
_cell_length_a   13.87885898
_cell_length_b   13.87885898
_cell_length_c   3.88624600
_cell_angle_alpha   90.00000000
_cell_angle_beta   90.00000000
_cell_angle_gamma   163.85660266
_symmetry_Int_Tables_number   1
_chemical_formula_structural   Cu(NiC6)2
_chemical_formula_sum   'Cu1 Ni2 C12'
_cell_volume   208.13670533
_cell_formula_units_Z   1
loop_
 _symmetry_equiv_pos_site_id
 _symmetry_equiv_pos_as_xyz
  1  'x, y, z'
loop_
 _atom_site_type_symbol
 _atom_site_label
 _atom_site_symmetry_multiplicity
 _atom_site_fract_x
 _atom_site_fract_y
 _atom_site_fract_z
 _atom_site_occupancy
  Ni  Ni0  1  0.63564400  0.36435600  0.50000000  1
  Ni  Ni1  1  0.36435600  0.63564400  0.50000000  1
  Cu  Cu2  1  0.50000000  0.50000000  0.50000000  1
  C  C3  1  0.06124300  0.93875700  0.00000000  1
  C  C4  1  0.93875700  0.06124300  0.00000000  1
  C  C5  1  0.21262900  0.78737100  0.00000000  1
  C  C6  1  0.78737100  0.21262900  0.00000000  1
  C  C7  1  0.71846200  0.28153800  0.00000000  1
  C  C8  1  0.28153800  0.71846200  0.00000000  1
  C  C9  1  0.55187100  0.44812900  0.00000000  1
  C  C10  1  0.44812900  0.55187100  0.00000000  1
  C  C11  1  0.05203500  0.94796500  0.50000000  1
  C  C12  1  0.94796500  0.05203500  0.50000000  1
  C  C13  1  0.14532600  0.85467400  0.00000000  1
  C  C14  1  0.85467400  0.14532600  0.00000000  1
