# generated using pymatgen
data_Cu2NiC4
_symmetry_space_group_name_H-M   'P 1'
_cell_length_a   10.19612200
_cell_length_b   3.39311400
_cell_length_c   8.79410421
_cell_angle_alpha   77.62880217
_cell_angle_beta   90.00000000
_cell_angle_gamma   90.00000000
_symmetry_Int_Tables_number   1
_chemical_formula_structural   Cu2NiC4
_chemical_formula_sum   'Cu8 Ni4 C16'
_cell_volume   297.18157889
_cell_formula_units_Z   4
loop_
 _symmetry_equiv_pos_site_id
 _symmetry_equiv_pos_as_xyz
  1  'x, y, z'
loop_
 _atom_site_type_symbol
 _atom_site_label
 _atom_site_symmetry_multiplicity
 _atom_site_fract_x
 _atom_site_fract_y
 _atom_site_fract_z
 _atom_site_occupancy
  C  C0  1  0.11266600  0.30834300  0.41991900  1
  C  C1  1  0.38733400  0.30834300  0.91991900  1
  C  C2  1  0.88733400  0.69165700  0.58008100  1
  C  C3  1  0.61266600  0.69165700  0.08008100  1
  Ni  Ni4  1  0.14805200  0.66588500  0.66391300  1
  Ni  Ni5  1  0.35194800  0.66588500  0.16391300  1
  Ni  Ni6  1  0.85194800  0.33411500  0.33608700  1
  Ni  Ni7  1  0.64805200  0.33411500  0.83608700  1
  Cu  Cu8  1  0.94953500  0.07486100  0.89502700  1
  Cu  Cu9  1  0.55046500  0.07486100  0.39502700  1
  Cu  Cu10  1  0.41594000  0.14238400  0.44598500  1
  Cu  Cu11  1  0.58406000  0.85761600  0.55401500  1
  Cu  Cu12  1  0.91594000  0.85761600  0.05401500  1
  Cu  Cu13  1  0.44953500  0.92513900  0.60497300  1
  Cu  Cu14  1  0.05046500  0.92513900  0.10497300  1
  Cu  Cu15  1  0.08406000  0.14238400  0.94598500  1
  C  C16  1  0.38733000  0.84026600  0.73299600  1
  C  C17  1  0.11267000  0.84026600  0.23299600  1
  C  C18  1  0.68355800  0.68155000  0.62262400  1
  C  C19  1  0.31644200  0.31845000  0.37737600  1
  C  C20  1  0.88733000  0.15973400  0.76700400  1
  C  C21  1  0.61267000  0.15973400  0.26700400  1
  C  C22  1  0.40228400  0.73654800  0.06630400  1
  C  C23  1  0.59771600  0.26345200  0.93369600  1
  C  C24  1  0.09771600  0.73654800  0.56630400  1
  C  C25  1  0.90228400  0.26345200  0.43369600  1
  C  C26  1  0.81644200  0.68155000  0.12262400  1
  C  C27  1  0.18355800  0.31845000  0.87737600  1
