# generated using pymatgen
data_Cu2NiC17
_symmetry_space_group_name_H-M   'P 1'
_cell_length_a   10.87736625
_cell_length_b   10.87736625
_cell_length_c   10.87736625
_cell_angle_alpha   109.35183260
_cell_angle_beta   109.35183260
_cell_angle_gamma   109.71026148
_symmetry_Int_Tables_number   1
_chemical_formula_structural   Cu2NiC17
_chemical_formula_sum   'Cu8 Ni4 C68'
_cell_volume   990.70348801
_cell_formula_units_Z   4
loop_
 _symmetry_equiv_pos_site_id
 _symmetry_equiv_pos_as_xyz
  1  'x, y, z'
loop_
 _atom_site_type_symbol
 _atom_site_label
 _atom_site_symmetry_multiplicity
 _atom_site_fract_x
 _atom_site_fract_y
 _atom_site_fract_z
 _atom_site_occupancy
  Ni  Ni0  1  0.50000000  0.00000000  0.50000000  1
  Ni  Ni1  1  0.25000000  0.25000000  0.00000000  1
  Ni  Ni2  1  0.00000000  0.50000000  0.50000000  1
  Ni  Ni3  1  0.75000000  0.75000000  0.00000000  1
  Cu  Cu4  1  0.99800200  0.12500000  0.37300200  1
  Cu  Cu5  1  0.37500000  0.00199800  0.12699800  1
  Cu  Cu6  1  0.49800200  0.12500000  0.87300200  1
  Cu  Cu7  1  0.37500000  0.50199800  0.62699800  1
  Cu  Cu8  1  0.75199800  0.62500000  0.62699800  1
  Cu  Cu9  1  0.87500000  0.24800200  0.87300200  1
  Cu  Cu10  1  0.87500000  0.74800200  0.37300200  1
  Cu  Cu11  1  0.25199800  0.62500000  0.12699800  1
  C  C12  1  0.00000000  0.00000000  0.00000000  1
  C  C13  1  0.87500000  0.99935600  0.62435600  1
  C  C14  1  0.24935600  0.12500000  0.62435600  1
  C  C15  1  0.74935600  0.12500000  0.12435600  1
  C  C16  1  0.37500000  0.25064400  0.37564400  1
  C  C17  1  0.75000000  0.25000000  0.50000000  1
  C  C18  1  0.50000000  0.50000000  0.00000000  1
  C  C19  1  0.00064400  0.62500000  0.87564400  1
  C  C20  1  0.87500000  0.49935600  0.12435600  1
  C  C21  1  0.50064400  0.62500000  0.37564400  1
  C  C22  1  0.37500000  0.75064400  0.87564400  1
  C  C23  1  0.25000000  0.75000000  0.50000000  1
  C  C24  1  0.12500000  0.87500000  0.75000000  1
  C  C25  1  0.62500000  0.87500000  0.75000000  1
  C  C26  1  0.62500000  0.37500000  0.75000000  1
  C  C27  1  0.12500000  0.37500000  0.75000000  1
  C  C28  1  0.62500000  0.37500000  0.25000000  1
  C  C29  1  0.12500000  0.37500000  0.25000000  1
  C  C30  1  0.12500000  0.87500000  0.25000000  1
  C  C31  1  0.62500000  0.87500000  0.25000000  1
  C  C32  1  0.74182800  0.98062700  0.16392800  1
  C  C33  1  0.13965800  0.98859500  0.95719100  1
  C  C34  1  0.33290200  0.89277700  0.87100000  1
  C  C35  1  0.01140500  0.96859600  0.15106300  1
  C  C36  1  0.83290200  0.96190200  0.44012500  1
  C  C37  1  0.10722300  0.97822300  0.44012500  1
  C  C38  1  0.32790000  0.06669800  0.33607200  1
  C  C39  1  0.22822300  0.28809800  0.37100000  1
  C  C40  1  0.42210000  0.25817200  0.23879800  1
  C  C41  1  0.60722300  0.16709800  0.12900000  1
  C  C42  1  0.43246700  0.88965800  0.65106300  1
  C  C43  1  0.01937300  0.18330200  0.76120200  1
  C  C44  1  0.61034200  0.06753300  0.34893700  1
  C  C45  1  0.24182800  0.07790000  0.76120200  1
  C  C46  1  0.21190200  0.27177700  0.62900000  1
  C  C47  1  0.43330200  0.17210000  0.66392800  1
  C  C48  1  0.03140400  0.18246700  0.04280900  1
  C  C49  1  0.73062700  0.99182800  0.66392800  1
  C  C50  1  0.93330200  0.26937300  0.26120200  1
  C  C51  1  0.52177700  0.39277700  0.55987500  1
  C  C52  1  0.73859500  0.38965800  0.45719100  1
  C  C53  1  0.71859600  0.26140500  0.65106300  1
  C  C54  1  0.71190200  0.08290200  0.94012500  1
  C  C55  1  0.31753300  0.46859600  0.95719100  1
  C  C56  1  0.93246700  0.28140400  0.54280900  1
  C  C57  1  0.53809800  0.66709800  0.55987500  1
  C  C58  1  0.53140400  0.48859500  0.84893700  1
  C  C59  1  0.51140500  0.36034200  0.04280900  1
  C  C60  1  0.72822300  0.35722300  0.94012500  1
  C  C61  1  0.31669800  0.48062700  0.23879800  1
  C  C62  1  0.51937300  0.75817200  0.83607200  1
  C  C63  1  0.21859600  0.56753300  0.45719100  1
  C  C64  1  0.81669800  0.57790000  0.83607200  1
  C  C65  1  0.03809800  0.47822300  0.87100000  1
  C  C66  1  0.00817200  0.67210000  0.73879800  1
  C  C67  1  0.63965800  0.68246700  0.15106300  1
  C  C68  1  0.23062700  0.56669800  0.73879800  1
  C  C69  1  0.81753300  0.86034200  0.84893700  1
  C  C70  1  0.64277700  0.58290200  0.37100000  1
  C  C71  1  0.82790000  0.49182800  0.26120200  1
  C  C72  1  0.02177700  0.46190200  0.12900000  1
  C  C73  1  0.92210000  0.68330200  0.16392800  1
  C  C74  1  0.14277700  0.77177700  0.05987500  1
  C  C75  1  0.41709800  0.78809800  0.05987500  1
  C  C76  1  0.23859500  0.78140400  0.34893700  1
  C  C77  1  0.91709800  0.85722300  0.62900000  1
  C  C78  1  0.11034200  0.76140500  0.54280900  1
  C  C79  1  0.50817200  0.76937300  0.33607200  1
