# generated using pymatgen
data_Cu7NiC5
_symmetry_space_group_name_H-M   'P 1'
_cell_length_a   8.99396319
_cell_length_b   8.99396319
_cell_length_c   8.99396352
_cell_angle_alpha   59.70542259
_cell_angle_beta   59.70542259
_cell_angle_gamma   59.70542574
_symmetry_Int_Tables_number   1
_chemical_formula_structural   Cu7NiC5
_chemical_formula_sum   'Cu14 Ni2 C10'
_cell_volume   511.00210023
_cell_formula_units_Z   2
loop_
 _symmetry_equiv_pos_site_id
 _symmetry_equiv_pos_as_xyz
  1  'x, y, z'
loop_
 _atom_site_type_symbol
 _atom_site_label
 _atom_site_symmetry_multiplicity
 _atom_site_fract_x
 _atom_site_fract_y
 _atom_site_fract_z
 _atom_site_occupancy
  C  C0  1  0.00000000  0.00000000  0.00000000  1
  C  C1  1  0.00000000  0.00000000  0.50000000  1
  C  C2  1  0.50000000  0.00000000  0.00000000  1
  C  C3  1  0.00000000  0.50000000  0.00000000  1
  C  C4  1  0.05110900  0.48472600  0.48472600  1
  C  C5  1  0.94889100  0.51527400  0.51527400  1
  C  C6  1  0.48472600  0.48472600  0.05110900  1
  C  C7  1  0.48472600  0.05110900  0.48472600  1
  C  C8  1  0.51527400  0.94889100  0.51527400  1
  C  C9  1  0.51527400  0.51527400  0.94889100  1
  Ni  Ni10  1  0.26281900  0.26281900  0.26281900  1
  Ni  Ni11  1  0.73718100  0.73718100  0.73718100  1
  Cu  Cu12  1  0.85221000  0.85221000  0.57802900  1
  Cu  Cu13  1  0.14779000  0.42197100  0.14779000  1
  Cu  Cu14  1  0.85221000  0.57802900  0.85221000  1
  Cu  Cu15  1  0.67209900  0.67209900  0.67209900  1
  Cu  Cu16  1  0.26440100  0.03637300  0.03637300  1
  Cu  Cu17  1  0.96362700  0.73559900  0.96362700  1
  Cu  Cu18  1  0.73559900  0.96362700  0.96362700  1
  Cu  Cu19  1  0.57802900  0.85221000  0.85221000  1
  Cu  Cu20  1  0.32790100  0.32790100  0.32790100  1
  Cu  Cu21  1  0.42197100  0.14779000  0.14779000  1
  Cu  Cu22  1  0.14779000  0.14779000  0.42197100  1
  Cu  Cu23  1  0.03637300  0.03637300  0.26440100  1
  Cu  Cu24  1  0.96362700  0.96362700  0.73559900  1
  Cu  Cu25  1  0.03637300  0.26440100  0.03637300  1
