# generated using pymatgen
data_Cu10Ni7
_symmetry_space_group_name_H-M   'P 1'
_cell_length_a   10.91747641
_cell_length_b   10.91747641
_cell_length_c   10.91747642
_cell_angle_alpha   88.70151910
_cell_angle_beta   88.70151910
_cell_angle_gamma   88.70152485
_symmetry_Int_Tables_number   1
_chemical_formula_structural   Cu10Ni7
_chemical_formula_sum   'Cu20 Ni14'
_cell_volume   1300.28055391
_cell_formula_units_Z   2
loop_
 _symmetry_equiv_pos_site_id
 _symmetry_equiv_pos_as_xyz
  1  'x, y, z'
loop_
 _atom_site_type_symbol
 _atom_site_label
 _atom_site_symmetry_multiplicity
 _atom_site_fract_x
 _atom_site_fract_y
 _atom_site_fract_z
 _atom_site_occupancy
  Ni  Ni0  1  0.33026700  0.75104200  0.17257700  1
  Ni  Ni1  1  0.11937100  0.14556500  0.42536100  1
  Ni  Ni2  1  0.88062900  0.57463900  0.85443500  1
  Ni  Ni3  1  0.75104200  0.17257700  0.33026700  1
  Ni  Ni4  1  0.66973300  0.82742300  0.24895800  1
  Ni  Ni5  1  0.57463900  0.85443500  0.88062900  1
  Ni  Ni6  1  0.14556500  0.42536100  0.11937100  1
  Ni  Ni7  1  0.42668500  0.42668500  0.42668500  1
  Ni  Ni8  1  0.57331500  0.57331500  0.57331500  1
  Ni  Ni9  1  0.82742300  0.24895800  0.66973300  1
  Ni  Ni10  1  0.42536100  0.11937100  0.14556500  1
  Ni  Ni11  1  0.85443500  0.88062900  0.57463900  1
  Ni  Ni12  1  0.24895800  0.66973300  0.82742300  1
  Ni  Ni13  1  0.17257700  0.33026700  0.75104200  1
  Cu  Cu14  1  0.66923200  0.07179000  0.56594600  1
  Cu  Cu15  1  0.92821000  0.33076800  0.43405400  1
  Cu  Cu16  1  0.07179000  0.56594600  0.66923200  1
  Cu  Cu17  1  0.16378600  0.83621400  0.00000000  1
  Cu  Cu18  1  0.22161700  0.56366900  0.32499700  1
  Cu  Cu19  1  0.43633100  0.77838300  0.67500300  1
  Cu  Cu20  1  0.00000000  0.16378600  0.83621400  1
  Cu  Cu21  1  0.09838700  0.90161300  0.50000000  1
  Cu  Cu22  1  0.16446600  0.16446700  0.16446700  1
  Cu  Cu23  1  0.83621400  0.00000000  0.16378600  1
  Cu  Cu24  1  0.32499700  0.22161700  0.56366900  1
  Cu  Cu25  1  0.33076800  0.43405400  0.92821000  1
  Cu  Cu26  1  0.67500300  0.43633100  0.77838300  1
  Cu  Cu27  1  0.83553300  0.83553400  0.83553400  1
  Cu  Cu28  1  0.90161300  0.50000000  0.09838700  1
  Cu  Cu29  1  0.56594600  0.66923200  0.07179000  1
  Cu  Cu30  1  0.77838300  0.67500300  0.43633100  1
  Cu  Cu31  1  0.43405400  0.92821000  0.33076800  1
  Cu  Cu32  1  0.50000000  0.09838700  0.90161300  1
  Cu  Cu33  1  0.56366900  0.32499700  0.22161700  1
