# generated using pymatgen
data_Cu2(NiC3)5
_symmetry_space_group_name_H-M   'P 1'
_cell_length_a   9.12585500
_cell_length_b   11.99056200
_cell_length_c   22.37742200
_cell_angle_alpha   90.00000000
_cell_angle_beta   90.00000000
_cell_angle_gamma   90.00000000
_symmetry_Int_Tables_number   1
_chemical_formula_structural   Cu2(NiC3)5
_chemical_formula_sum   'Cu16 Ni40 C120'
_cell_volume   2448.62993803
_cell_formula_units_Z   8
loop_
 _symmetry_equiv_pos_site_id
 _symmetry_equiv_pos_as_xyz
  1  'x, y, z'
loop_
 _atom_site_type_symbol
 _atom_site_label
 _atom_site_symmetry_multiplicity
 _atom_site_fract_x
 _atom_site_fract_y
 _atom_site_fract_z
 _atom_site_occupancy
  C  C0  1  0.54611700  0.14459100  0.61104600  1
  C  C1  1  0.59540900  0.47003200  0.15820500  1
  C  C2  1  0.35145200  0.48431200  0.12023300  1
  C  C3  1  0.64854800  0.51568800  0.87976700  1
  C  C4  1  0.71553900  0.51729100  0.29025200  1
  C  C5  1  0.84262600  0.85908400  0.35383500  1
  C  C6  1  0.09540900  0.02996800  0.84179500  1
  C  C7  1  0.64854800  0.98431200  0.37976700  1
  C  C8  1  0.80067900  0.29146900  0.39592600  1
  C  C9  1  0.28981800  0.27144500  0.18314300  1
  C  C10  1  0.34597400  0.43502600  0.25083400  1
  C  C11  1  0.34262600  0.85908400  0.14616500  1
  C  C12  1  0.85145200  0.01568800  0.87976700  1
  C  C13  1  0.40459100  0.97003200  0.34179500  1
  C  C14  1  0.78446100  0.01729100  0.29025200  1
  C  C15  1  0.95388300  0.85540900  0.11104600  1
  C  C16  1  0.85145200  0.48431200  0.37976700  1
  C  C17  1  0.90459100  0.97003200  0.15820500  1
  C  C18  1  0.69932100  0.79146900  0.39592600  1
  C  C19  1  0.34597400  0.06497400  0.75083400  1
  C  C20  1  0.71553900  0.98270900  0.79025200  1
  C  C21  1  0.45388300  0.64459100  0.88895400  1
  C  C22  1  0.90459100  0.52996800  0.65820500  1
  C  C23  1  0.04611700  0.14459100  0.88895400  1
  C  C24  1  0.28446100  0.48270900  0.70974800  1
  C  C25  1  0.09540900  0.47003200  0.34179500  1
  C  C26  1  0.34262600  0.64091600  0.64616500  1
  C  C27  1  0.04880500  0.33641000  0.30915000  1
  C  C28  1  0.65402600  0.93502600  0.24916600  1
  C  C29  1  0.21553900  0.51729100  0.20974800  1
  C  C30  1  0.15737400  0.35908400  0.14616500  1
  C  C31  1  0.78446100  0.48270900  0.79025200  1
  C  C32  1  0.45119500  0.83641000  0.30915000  1
  C  C33  1  0.78981800  0.22855500  0.81685700  1
  C  C34  1  0.90308800  0.56338100  0.28249400  1
  C  C35  1  0.69932100  0.70853100  0.89592600  1
  C  C36  1  0.28446100  0.01729100  0.20974800  1
  C  C37  1  0.84597400  0.06497400  0.74916600  1
  C  C38  1  0.65737400  0.35908400  0.35383500  1
  C  C39  1  0.95388300  0.64459100  0.61104600  1
  C  C40  1  0.30067900  0.29146900  0.10407400  1
  C  C41  1  0.59691200  0.06338100  0.28249400  1
  C  C42  1  0.30067900  0.20853100  0.60407400  1
  C  C43  1  0.95119500  0.83641000  0.19085000  1
  C  C44  1  0.14854800  0.51568800  0.62023300  1
  C  C45  1  0.21018200  0.72855500  0.68314300  1
  C  C46  1  0.84262600  0.64091600  0.85383500  1
  C  C47  1  0.71018200  0.77144500  0.31685700  1
  C  C48  1  0.15737400  0.14091600  0.64616500  1
  C  C49  1  0.21018200  0.77144500  0.18314300  1
  C  C50  1  0.65737400  0.14091600  0.85383500  1
  C  C51  1  0.65402600  0.56497400  0.74916600  1
  C  C52  1  0.54611700  0.35540900  0.11104600  1
  C  C53  1  0.59540900  0.02996800  0.65820500  1
  C  C54  1  0.45388300  0.85540900  0.38895400  1
  C  C55  1  0.45119500  0.66359000  0.80915000  1
  C  C56  1  0.21553900  0.98270900  0.70974800  1
  C  C57  1  0.54880500  0.16359000  0.69085000  1
  C  C58  1  0.71018200  0.72855500  0.81685700  1
  C  C59  1  0.54880500  0.33641000  0.19085000  1
  C  C60  1  0.15402600  0.93502600  0.25083400  1
  C  C61  1  0.40308800  0.93661900  0.71750600  1
  C  C62  1  0.09691200  0.43661900  0.71750600  1
  C  C63  1  0.04880500  0.16359000  0.80915000  1
  C  C64  1  0.15402600  0.56497400  0.75083400  1
  C  C65  1  0.90308800  0.93661900  0.78249400  1
  C  C66  1  0.40308800  0.56338100  0.21750600  1
  C  C67  1  0.28981800  0.22855500  0.68314300  1
  C  C68  1  0.14854800  0.98431200  0.12023300  1
  C  C69  1  0.04611700  0.35540900  0.38895400  1
  C  C70  1  0.09691200  0.06338100  0.21750600  1
  C  C71  1  0.95119500  0.66359000  0.69085000  1
  C  C72  1  0.35145200  0.01568800  0.62023300  1
  C  C73  1  0.19932100  0.70853100  0.60407400  1
  C  C74  1  0.80067900  0.20853100  0.89592600  1
  C  C75  1  0.59691200  0.43661900  0.78249400  1
  C  C76  1  0.40459100  0.52996800  0.84179500  1
  C  C77  1  0.78981800  0.27144500  0.31685700  1
  C  C78  1  0.19932100  0.79146900  0.10407400  1
  C  C79  1  0.84597400  0.43502600  0.24916600  1
  Ni  Ni80  1  0.83042900  0.00896200  0.78730100  1
  Ni  Ni81  1  0.22840100  0.83081100  0.14671100  1
  Ni  Ni82  1  0.97345900  0.89541900  0.15437500  1
  Ni  Ni83  1  0.88217400  0.24081500  0.15896000  1
  Ni  Ni84  1  0.77159900  0.33081100  0.35328900  1
  Ni  Ni85  1  0.83042900  0.49103800  0.28730100  1
  Ni  Ni86  1  0.66957100  0.50896200  0.78730100  1
  Ni  Ni87  1  0.97345900  0.60458100  0.65437500  1
  Ni  Ni88  1  0.16957100  0.50896200  0.71269900  1
  Ni  Ni89  1  0.38217400  0.24081500  0.34104000  1
  Ni  Ni90  1  0.54817800  0.43036600  0.60387100  1
  Ni  Ni91  1  0.02654100  0.39541900  0.34562500  1
  Ni  Ni92  1  0.11782600  0.75918500  0.84104000  1
  Ni  Ni93  1  0.47345900  0.60458100  0.84562500  1
  Ni  Ni94  1  0.04817800  0.43036600  0.89612900  1
  Ni  Ni95  1  0.33042900  0.49103800  0.21269900  1
  Ni  Ni96  1  0.47345900  0.89541900  0.34562500  1
  Ni  Ni97  1  0.27159900  0.33081100  0.14671100  1
  Ni  Ni98  1  0.95182200  0.93036600  0.60387100  1
  Ni  Ni99  1  0.16957100  0.99103800  0.21269900  1
  Ni  Ni100  1  0.27159900  0.16918900  0.64671100  1
  Ni  Ni101  1  0.77159900  0.16918900  0.85328900  1
  Ni  Ni102  1  0.22840100  0.66918900  0.64671100  1
  Ni  Ni103  1  0.72840100  0.83081100  0.35328900  1
  Ni  Ni104  1  0.45182200  0.93036600  0.89612900  1
  Ni  Ni105  1  0.95182200  0.56963400  0.10387100  1
  Ni  Ni106  1  0.45182200  0.56963400  0.39612900  1
  Ni  Ni107  1  0.02654100  0.10458100  0.84562500  1
  Ni  Ni108  1  0.52654100  0.10458100  0.65437500  1
  Ni  Ni109  1  0.61782600  0.75918500  0.65896000  1
  Ni  Ni110  1  0.04817800  0.06963400  0.39612900  1
  Ni  Ni111  1  0.61782600  0.74081500  0.15896000  1
  Ni  Ni112  1  0.33042900  0.00896200  0.71269900  1
  Ni  Ni113  1  0.54817800  0.06963400  0.10387100  1
  Ni  Ni114  1  0.38217400  0.25918500  0.84104000  1
  Ni  Ni115  1  0.52654100  0.39541900  0.15437500  1
  Ni  Ni116  1  0.88217400  0.25918500  0.65896000  1
  Ni  Ni117  1  0.72840100  0.66918900  0.85328900  1
  Ni  Ni118  1  0.66957100  0.99103800  0.28730100  1
  Ni  Ni119  1  0.11782600  0.74081500  0.34104000  1
  C  C120  1  0.83444000  0.12106900  0.03775700  1
  C  C121  1  0.33444000  0.37893100  0.96224300  1
  C  C122  1  0.33444000  0.12106900  0.46224300  1
  C  C123  1  0.16556000  0.87893100  0.96224300  1
  C  C124  1  0.66556000  0.62106900  0.03775700  1
  C  C125  1  0.66556000  0.87893100  0.53775700  1
  C  C126  1  0.83444000  0.37893100  0.53775700  1
  C  C127  1  0.16556000  0.62106900  0.46224300  1
  Cu  Cu128  1  0.58197200  0.37014200  0.53803200  1
  Cu  Cu129  1  0.41802800  0.87014200  0.96196800  1
  Cu  Cu130  1  0.63168100  0.78714500  0.08880500  1
  Cu  Cu131  1  0.86831900  0.21285500  0.58880500  1
  Cu  Cu132  1  0.91802800  0.62985800  0.03803200  1
  Cu  Cu133  1  0.36831900  0.21285500  0.91119500  1
  Cu  Cu134  1  0.63168100  0.71285500  0.58880500  1
  Cu  Cu135  1  0.08197200  0.12985800  0.46196800  1
  Cu  Cu136  1  0.13168100  0.78714500  0.41119500  1
  Cu  Cu137  1  0.91802800  0.87014200  0.53803200  1
  Cu  Cu138  1  0.08197200  0.37014200  0.96196800  1
  Cu  Cu139  1  0.58197200  0.12985800  0.03803200  1
  Cu  Cu140  1  0.86831900  0.28714500  0.08880500  1
  Cu  Cu141  1  0.36831900  0.28714500  0.41119500  1
  Cu  Cu142  1  0.13168100  0.71285500  0.91119500  1
  Cu  Cu143  1  0.41802800  0.62985800  0.46196800  1
  C  C144  1  0.17252700  0.40970000  0.53799100  1
  C  C145  1  0.67252700  0.40970000  0.96200900  1
  C  C146  1  0.82747300  0.90970000  0.96200900  1
  C  C147  1  0.82747300  0.59030000  0.46200900  1
  C  C148  1  0.32747300  0.90970000  0.53799100  1
  C  C149  1  0.17252700  0.09030000  0.03799100  1
  C  C150  1  0.67252700  0.09030000  0.46200900  1
  C  C151  1  0.32747300  0.59030000  0.03799100  1
  C  C152  1  0.39270100  0.28764900  0.79067800  1
  C  C153  1  0.36890700  0.07047200  0.65655700  1
  C  C154  1  0.13109300  0.57047200  0.65655700  1
  C  C155  1  0.39270100  0.21235100  0.29067800  1
  C  C156  1  0.52152500  0.47190100  0.65041600  1
  C  C157  1  0.63109300  0.92952800  0.34344300  1
  C  C158  1  0.86890700  0.42952800  0.34344300  1
  C  C159  1  0.63109300  0.57047200  0.84344300  1
  C  C160  1  0.02152500  0.02809900  0.34958400  1
  C  C161  1  0.60729900  0.71235100  0.20932200  1
  C  C162  1  0.10729900  0.78764900  0.79067800  1
  C  C163  1  0.97847500  0.97190100  0.65041600  1
  C  C164  1  0.10729900  0.71235100  0.29067800  1
  C  C165  1  0.36890700  0.42952800  0.15655700  1
  C  C166  1  0.89270100  0.21235100  0.20932200  1
  C  C167  1  0.86890700  0.07047200  0.84344300  1
  C  C168  1  0.60729900  0.78764900  0.70932200  1
  C  C169  1  0.89270100  0.28764900  0.70932200  1
  C  C170  1  0.02152500  0.47190100  0.84958400  1
  C  C171  1  0.52152500  0.02809900  0.15041600  1
  C  C172  1  0.47847500  0.97190100  0.84958400  1
  C  C173  1  0.97847500  0.52809900  0.15041600  1
  C  C174  1  0.47847500  0.52809900  0.34958400  1
  C  C175  1  0.13109300  0.92952800  0.15655700  1
