# generated using pymatgen
data_Cu26Ni13C54
_symmetry_space_group_name_H-M   'P 1'
_cell_length_a   17.51264400
_cell_length_b   17.51999500
_cell_length_c   18.37231000
_cell_angle_alpha   90.00000000
_cell_angle_beta   90.00000000
_cell_angle_gamma   90.00000000
_symmetry_Int_Tables_number   1
_chemical_formula_structural   Cu26Ni13C54
_chemical_formula_sum   'Cu52 Ni26 C108'
_cell_volume   5637.01852428
_cell_formula_units_Z   2
loop_
 _symmetry_equiv_pos_site_id
 _symmetry_equiv_pos_as_xyz
  1  'x, y, z'
loop_
 _atom_site_type_symbol
 _atom_site_label
 _atom_site_symmetry_multiplicity
 _atom_site_fract_x
 _atom_site_fract_y
 _atom_site_fract_z
 _atom_site_occupancy
  Ni  Ni0  1  0.83385800  0.33345600  0.16628800  1
  Ni  Ni1  1  0.00138400  0.83407400  0.83549200  1
  Ni  Ni2  1  0.66614200  0.83345600  0.83371200  1
  Ni  Ni3  1  0.50008600  0.33340600  0.49880500  1
  Ni  Ni4  1  0.66669800  0.16734600  0.83416500  1
  Ni  Ni5  1  0.33455700  0.50136900  0.83477600  1
  Ni  Ni6  1  0.33385800  0.16654400  0.83371200  1
  Ni  Ni7  1  0.49861600  0.33407400  0.16450800  1
  Ni  Ni8  1  0.66544300  0.49863100  0.83477600  1
  Ni  Ni9  1  0.00008600  0.16659400  0.50119500  1
  Ni  Ni10  1  0.99861600  0.16592600  0.83549200  1
  Ni  Ni11  1  0.33330200  0.83265400  0.83416500  1
  Ni  Ni12  1  0.16544300  0.00136900  0.16522400  1
  Ni  Ni13  1  0.16614200  0.66654400  0.16628800  1
  Ni  Ni14  1  0.50000000  0.00000000  0.16582800  1
  Ni  Ni15  1  0.50000000  0.00000000  0.49889800  1
  Ni  Ni16  1  0.83455700  0.99863100  0.16522400  1
  Ni  Ni17  1  0.83330200  0.66734600  0.16583500  1
  Ni  Ni18  1  0.00000000  0.50000000  0.50110200  1
  Ni  Ni19  1  0.50000000  0.50000000  0.00014100  1
  Ni  Ni20  1  0.99991400  0.83340600  0.50119500  1
  Ni  Ni21  1  0.16669800  0.33265400  0.16583500  1
  Ni  Ni22  1  0.49991400  0.66659400  0.49880500  1
  Ni  Ni23  1  0.00000000  0.00000000  0.99985900  1
  Ni  Ni24  1  0.50138400  0.66592600  0.16450800  1
  Ni  Ni25  1  0.00000000  0.50000000  0.83417200  1
  Cu  Cu26  1  0.83044200  0.83425100  0.66604100  1
  Cu  Cu27  1  0.16567600  0.16584600  0.00106100  1
  Cu  Cu28  1  0.49993100  0.16696900  0.66690000  1
  Cu  Cu29  1  0.16584900  0.83447800  0.99880300  1
  Cu  Cu30  1  0.66841200  0.66443000  0.66640300  1
  Cu  Cu31  1  0.16699900  0.49989500  0.99990600  1
  Cu  Cu32  1  0.00000000  0.00000000  0.66720000  1
  Cu  Cu33  1  0.33158800  0.33557000  0.66640300  1
  Cu  Cu34  1  0.49985000  0.83305400  0.00013700  1
  Cu  Cu35  1  0.83054100  0.16718700  0.66633300  1
  Cu  Cu36  1  0.66939700  0.00031900  0.33414400  1
  Cu  Cu37  1  0.33044200  0.66574900  0.33395900  1
  Cu  Cu38  1  0.33140700  0.00153600  0.66643700  1
  Cu  Cu39  1  0.66567600  0.33415400  0.99893900  1
  Cu  Cu40  1  0.50000000  0.50000000  0.33280000  1
  Cu  Cu41  1  0.66945900  0.66718700  0.33366700  1
  Cu  Cu42  1  0.83415100  0.16552200  0.99880300  1
  Cu  Cu43  1  0.50015000  0.16694600  0.00013700  1
  Cu  Cu44  1  0.00006900  0.33338700  0.66628200  1
  Cu  Cu45  1  0.66855000  0.33134900  0.66656000  1
  Cu  Cu46  1  0.83432400  0.83415400  0.00106100  1
  Cu  Cu47  1  0.00015000  0.33305400  0.99986300  1
  Cu  Cu48  1  0.16955800  0.16574900  0.66604100  1
  Cu  Cu49  1  0.33300100  0.99989500  0.00009400  1
  Cu  Cu50  1  0.50006900  0.83303100  0.66690000  1
  Cu  Cu51  1  0.99993100  0.66661300  0.66628200  1
  Cu  Cu52  1  0.33415100  0.33447800  0.00119700  1
  Cu  Cu53  1  0.16945900  0.83281300  0.66633300  1
  Cu  Cu54  1  0.50000000  0.50000000  0.66739700  1
  Cu  Cu55  1  0.49993100  0.83338700  0.33371800  1
  Cu  Cu56  1  0.33145000  0.66865100  0.66656000  1
  Cu  Cu57  1  0.00000000  0.00000000  0.33260300  1
  Cu  Cu58  1  0.83140700  0.49846400  0.33356300  1
  Cu  Cu59  1  0.50006900  0.16661300  0.33371800  1
  Cu  Cu60  1  0.83158800  0.16443000  0.33359700  1
  Cu  Cu61  1  0.66955800  0.33425100  0.33395900  1
  Cu  Cu62  1  0.83060300  0.50031900  0.66585600  1
  Cu  Cu63  1  0.33060300  0.99968100  0.33414400  1
  Cu  Cu64  1  0.66584900  0.66552200  0.00119700  1
  Cu  Cu65  1  0.16855000  0.16865100  0.33344000  1
  Cu  Cu66  1  0.16859300  0.50153600  0.33356300  1
  Cu  Cu67  1  0.83145000  0.83134900  0.33344000  1
  Cu  Cu68  1  0.00006900  0.66696900  0.33310000  1
  Cu  Cu69  1  0.66859300  0.99846400  0.66643700  1
  Cu  Cu70  1  0.83300100  0.50010500  0.99990600  1
  Cu  Cu71  1  0.33054100  0.33281300  0.33366700  1
  Cu  Cu72  1  0.16841200  0.83557000  0.33359700  1
  Cu  Cu73  1  0.66699900  0.00010500  0.00009400  1
  Cu  Cu74  1  0.33432400  0.66584600  0.99893900  1
  Cu  Cu75  1  0.16939700  0.49968100  0.66585600  1
  Cu  Cu76  1  0.99993100  0.33303100  0.33310000  1
  Cu  Cu77  1  0.99985000  0.66694600  0.99986300  1
  C  C78  1  0.09299200  0.40740600  0.42162100  1
  C  C79  1  0.57389600  0.25929200  0.75571100  1
  C  C80  1  0.24494500  0.92176200  0.42289100  1
  C  C81  1  0.07412900  0.75922600  0.08837700  1
  C  C82  1  0.24141200  0.59230700  0.75622100  1
  C  C83  1  0.59299200  0.09259400  0.57837900  1
  C  C84  1  0.57421700  0.59247400  0.75588100  1
  C  C85  1  0.09119200  0.07650600  0.75480800  1
  C  C86  1  0.57402200  0.92593400  0.75542900  1
  C  C87  1  0.90700800  0.59259400  0.42162100  1
  C  C88  1  0.59255400  0.24104100  0.08871700  1
  C  C89  1  0.59288900  0.90736600  0.42208700  1
  C  C90  1  0.24093900  0.07434200  0.91137000  1
  C  C91  1  0.74093900  0.42565800  0.08863000  1
  C  C92  1  0.59322700  0.24081800  0.42186000  1
  C  C93  1  0.42574000  0.92562900  0.91161900  1
  C  C94  1  0.24178000  0.92563600  0.75685000  1
  C  C95  1  0.40867100  0.90950600  0.24573900  1
  C  C96  1  0.07426000  0.42562900  0.08838100  1
  C  C97  1  0.42610400  0.74070800  0.75571100  1
  C  C98  1  0.75868500  0.59237000  0.91128900  1
  C  C99  1  0.75822000  0.07436400  0.75685000  1
  C  C100  1  0.07389600  0.24070800  0.24428900  1
  C  C101  1  0.90681100  0.25891800  0.42173000  1
  C  C102  1  0.74475800  0.24467900  0.57723300  1
  C  C103  1  0.59240700  0.90757700  0.08846900  1
  C  C104  1  0.90717300  0.07397600  0.57850100  1
  C  C105  1  0.25868500  0.90763000  0.08871100  1
  C  C106  1  0.59132900  0.09049400  0.24573900  1
  C  C107  1  0.07469700  0.09410800  0.08984300  1
  C  C108  1  0.24189100  0.25871100  0.75634600  1
  C  C109  1  0.59318900  0.75891800  0.57827000  1
  C  C110  1  0.74178000  0.57436400  0.24315000  1
  C  C111  1  0.90759300  0.40757700  0.91153100  1
  C  C112  1  0.59119200  0.42349400  0.24519200  1
  C  C113  1  0.25822000  0.42563600  0.24315000  1
  C  C114  1  0.25858800  0.09230700  0.24377900  1
  C  C115  1  0.40880800  0.57650600  0.24519200  1
  C  C116  1  0.92530300  0.90589200  0.08984300  1
  C  C117  1  0.92610400  0.75929200  0.24428900  1
  C  C118  1  0.92597800  0.42593400  0.24457100  1
  C  C119  1  0.25906100  0.57434200  0.08863000  1
  C  C120  1  0.92587100  0.24077400  0.08837700  1
  C  C121  1  0.40711100  0.09263400  0.42208700  1
  C  C122  1  0.74189100  0.24128900  0.24365400  1
  C  C123  1  0.40891200  0.24245200  0.24590200  1
  C  C124  1  0.74494500  0.57823800  0.57710900  1
  C  C125  1  0.40717300  0.42602400  0.42149900  1
  C  C126  1  0.74141200  0.90769300  0.24377900  1
  C  C127  1  0.40744600  0.75895900  0.08871700  1
  C  C128  1  0.42578300  0.40752600  0.75588100  1
  C  C129  1  0.40759300  0.09242300  0.08846900  1
  C  C130  1  0.57469700  0.40589200  0.91015700  1
  C  C131  1  0.07402200  0.57406600  0.24457100  1
  C  C132  1  0.59108800  0.75754800  0.24590200  1
  C  C133  1  0.90711100  0.40736600  0.57791300  1
  C  C134  1  0.09421400  0.92526600  0.90984200  1
  C  C135  1  0.90867100  0.59049400  0.75426100  1
  C  C136  1  0.74589300  0.91308100  0.57706900  1
  C  C137  1  0.40700800  0.90740600  0.57837900  1
  C  C138  1  0.09311200  0.07411200  0.42144000  1
  C  C139  1  0.25505500  0.42176200  0.57710900  1
  C  C140  1  0.75410700  0.41308100  0.42293100  1
  C  C141  1  0.42597800  0.07406600  0.75542900  1
  C  C142  1  0.75858800  0.40769300  0.75622100  1
  C  C143  1  0.90688800  0.92588800  0.42144000  1
  C  C144  1  0.09318900  0.74108200  0.42173000  1
  C  C145  1  0.75810900  0.74128900  0.75634600  1
  C  C146  1  0.24475800  0.25532100  0.42276700  1
  C  C147  1  0.90578600  0.07473400  0.90984200  1
  C  C148  1  0.90744600  0.74104100  0.91128300  1
  C  C149  1  0.42587100  0.25922600  0.91162300  1
  C  C150  1  0.92574000  0.57437100  0.08838100  1
  C  C151  1  0.75906100  0.92565800  0.91137000  1
  C  C152  1  0.25905600  0.24089800  0.08809000  1
  C  C153  1  0.90891200  0.25754800  0.75409800  1
  C  C154  1  0.09322700  0.25918200  0.57814000  1
  C  C155  1  0.57426000  0.07437100  0.91161900  1
  C  C156  1  0.25524200  0.75532100  0.57723300  1
  C  C157  1  0.75524200  0.74467900  0.42276700  1
  C  C158  1  0.90880800  0.92349400  0.75480800  1
  C  C159  1  0.40677300  0.75918200  0.42186000  1
  C  C160  1  0.25810900  0.75871100  0.24365400  1
  C  C161  1  0.09132900  0.40950600  0.75426100  1
  C  C162  1  0.74094400  0.75910200  0.08809000  1
  C  C163  1  0.24131500  0.40763000  0.91128900  1
  C  C164  1  0.25410700  0.08691900  0.57706900  1
  C  C165  1  0.92578300  0.09247400  0.24411900  1
  C  C166  1  0.90677300  0.74081800  0.57814000  1
  C  C167  1  0.59282700  0.57397600  0.42149900  1
  C  C168  1  0.40578600  0.42526600  0.09015800  1
  C  C169  1  0.75905600  0.25910200  0.91191000  1
  C  C170  1  0.59421400  0.57473400  0.09015800  1
  C  C171  1  0.59311200  0.42588800  0.57856000  1
  C  C172  1  0.24094400  0.74089800  0.91191000  1
  C  C173  1  0.75505500  0.07823800  0.42289100  1
  C  C174  1  0.09240700  0.59242300  0.91153100  1
  C  C175  1  0.07421700  0.90752600  0.24411900  1
  C  C176  1  0.09108800  0.74245200  0.75409800  1
  C  C177  1  0.40688800  0.57411200  0.57856000  1
  C  C178  1  0.57412900  0.74077400  0.91162300  1
  C  C179  1  0.09282700  0.92602400  0.57850100  1
  C  C180  1  0.09255400  0.25895900  0.91128300  1
  C  C181  1  0.74131500  0.09237000  0.08871100  1
  C  C182  1  0.09288900  0.59263400  0.57791300  1
  C  C183  1  0.24589300  0.58691900  0.42293100  1
  C  C184  1  0.40681100  0.24108200  0.57827000  1
  C  C185  1  0.42530300  0.59410800  0.91015700  1
