# generated using pymatgen
data_Cu4(Ni2C3)3
_symmetry_space_group_name_H-M   'P 1'
_cell_length_a   7.96385400
_cell_length_b   8.55829900
_cell_length_c   12.44731300
_cell_angle_alpha   90.00000000
_cell_angle_beta   90.00000000
_cell_angle_gamma   90.00000000
_symmetry_Int_Tables_number   1
_chemical_formula_structural   Cu4(Ni2C3)3
_chemical_formula_sum   'Cu16 Ni24 C36'
_cell_volume   848.37205639
_cell_formula_units_Z   4
loop_
 _symmetry_equiv_pos_site_id
 _symmetry_equiv_pos_as_xyz
  1  'x, y, z'
loop_
 _atom_site_type_symbol
 _atom_site_label
 _atom_site_symmetry_multiplicity
 _atom_site_fract_x
 _atom_site_fract_y
 _atom_site_fract_z
 _atom_site_occupancy
  C  C0  1  0.00000000  0.50000000  0.50000000  1
  C  C1  1  0.50000000  0.50000000  0.00000000  1
  C  C2  1  0.50000000  0.00000000  0.50000000  1
  C  C3  1  0.00000000  0.00000000  0.00000000  1
  Ni  Ni4  1  0.10112000  0.12208800  0.76844300  1
  Ni  Ni5  1  0.19562600  0.79583100  0.55658700  1
  Ni  Ni6  1  0.89888000  0.87791200  0.23155700  1
  Ni  Ni7  1  0.11744800  0.02388400  0.38720400  1
  Ni  Ni8  1  0.10112000  0.37791200  0.26844300  1
  Ni  Ni9  1  0.89888000  0.62208800  0.73155700  1
  Ni  Ni10  1  0.60112000  0.37791200  0.23155700  1
  Ni  Ni11  1  0.11744800  0.47611600  0.88720400  1
  Ni  Ni12  1  0.69562600  0.79583100  0.94341300  1
  Ni  Ni13  1  0.38255200  0.52388400  0.38720400  1
  Ni  Ni14  1  0.30437400  0.20416900  0.05658700  1
  Ni  Ni15  1  0.80437400  0.29583100  0.94341300  1
  Ni  Ni16  1  0.39888000  0.87791200  0.26844300  1
  Ni  Ni17  1  0.61744800  0.02388400  0.11279600  1
  Ni  Ni18  1  0.88255200  0.52388400  0.11279600  1
  Ni  Ni19  1  0.88255200  0.97611600  0.61279600  1
  Ni  Ni20  1  0.19562600  0.70416900  0.05658700  1
  Ni  Ni21  1  0.30437400  0.29583100  0.55658700  1
  Ni  Ni22  1  0.39888000  0.62208800  0.76844300  1
  Ni  Ni23  1  0.60112000  0.12208800  0.73155700  1
  Ni  Ni24  1  0.69562600  0.70416900  0.44341300  1
  Ni  Ni25  1  0.80437400  0.20416900  0.44341300  1
  Ni  Ni26  1  0.38255200  0.97611600  0.88720400  1
  Ni  Ni27  1  0.61744800  0.47611600  0.61279600  1
  Cu  Cu28  1  0.00385600  0.54674100  0.75720100  1
  Cu  Cu29  1  0.76793300  0.73722400  0.00709200  1
  Cu  Cu30  1  0.50385600  0.95325900  0.24279900  1
  Cu  Cu31  1  0.99614400  0.45325900  0.24279900  1
  Cu  Cu32  1  0.99614400  0.04674100  0.74279900  1
  Cu  Cu33  1  0.26793300  0.73722400  0.49290800  1
  Cu  Cu34  1  0.73206700  0.23722400  0.00709200  1
  Cu  Cu35  1  0.23206700  0.23722400  0.49290800  1
  Cu  Cu36  1  0.73206700  0.26277600  0.50709200  1
  Cu  Cu37  1  0.23206700  0.26277600  0.99290800  1
  Cu  Cu38  1  0.49614400  0.45325900  0.25720100  1
  Cu  Cu39  1  0.00385600  0.95325900  0.25720100  1
  Cu  Cu40  1  0.50385600  0.54674100  0.74279900  1
  Cu  Cu41  1  0.49614400  0.04674100  0.75720100  1
  Cu  Cu42  1  0.76793300  0.76277600  0.50709200  1
  Cu  Cu43  1  0.26793300  0.76277600  0.99290800  1
  C  C44  1  0.40642700  0.97698400  0.69287900  1
  C  C45  1  0.40016900  0.79974500  0.45618200  1
  C  C46  1  0.40642700  0.52301600  0.19287900  1
  C  C47  1  0.02023900  0.54357500  0.86319400  1
  C  C48  1  0.59357300  0.02301600  0.30712100  1
  C  C49  1  0.52023900  0.95642500  0.13680600  1
  C  C50  1  0.47976100  0.45642500  0.36319400  1
  C  C51  1  0.09983100  0.29974500  0.45618200  1
  C  C52  1  0.02023900  0.95642500  0.36319400  1
  C  C53  1  0.28327500  0.39393000  0.95646200  1
  C  C54  1  0.28327500  0.10607000  0.45646200  1
  C  C55  1  0.47976100  0.04357500  0.86319400  1
  C  C56  1  0.52023900  0.54357500  0.63680600  1
  C  C57  1  0.90642700  0.52301600  0.30712100  1
  C  C58  1  0.97976100  0.04357500  0.63680600  1
  C  C59  1  0.97976100  0.45642500  0.13680600  1
  C  C60  1  0.59983100  0.20025500  0.54381800  1
  C  C61  1  0.90642700  0.97698400  0.80712100  1
  C  C62  1  0.59357300  0.47698400  0.80712100  1
  C  C63  1  0.09983100  0.20025500  0.95618200  1
  C  C64  1  0.90016900  0.70025500  0.54381800  1
  C  C65  1  0.90016900  0.79974500  0.04381800  1
  C  C66  1  0.78327500  0.39393000  0.54353800  1
  C  C67  1  0.71672500  0.60607000  0.04353800  1
  C  C68  1  0.40016900  0.70025500  0.95618200  1
  C  C69  1  0.59983100  0.29974500  0.04381800  1
  C  C70  1  0.09357300  0.02301600  0.19287900  1
  C  C71  1  0.21672500  0.89393000  0.95646200  1
  C  C72  1  0.71672500  0.89393000  0.54353800  1
  C  C73  1  0.09357300  0.47698400  0.69287900  1
  C  C74  1  0.78327500  0.10607000  0.04353800  1
  C  C75  1  0.21672500  0.60607000  0.45646200  1
