# generated using pymatgen
data_CuNi2C
_symmetry_space_group_name_H-M   'P 1'
_cell_length_a   5.93272900
_cell_length_b   6.12230804
_cell_length_c   20.97149433
_cell_angle_alpha   82.08305461
_cell_angle_beta   82.36754106
_cell_angle_gamma   62.10751250
_symmetry_Int_Tables_number   1
_chemical_formula_structural   CuNi2C
_chemical_formula_sum   'Cu8 Ni16 C8'
_cell_volume   664.78010237
_cell_formula_units_Z   8
loop_
 _symmetry_equiv_pos_site_id
 _symmetry_equiv_pos_as_xyz
  1  'x, y, z'
loop_
 _atom_site_type_symbol
 _atom_site_label
 _atom_site_symmetry_multiplicity
 _atom_site_fract_x
 _atom_site_fract_y
 _atom_site_fract_z
 _atom_site_occupancy
  Ni  Ni0  1  0.62689400  0.62280500  0.12491200  1
  Ni  Ni1  1  0.12174900  0.62545800  0.12643500  1
  Ni  Ni2  1  0.50000000  0.50000000  0.00000000  1
  Ni  Ni3  1  0.62283200  0.12939900  0.12342100  1
  Ni  Ni4  1  0.87482300  0.87534800  0.37487000  1
  Ni  Ni5  1  0.37494600  0.87526100  0.37474100  1
  Ni  Ni6  1  0.74930100  0.74991200  0.25017000  1
  Ni  Ni7  1  0.87457700  0.37480600  0.37511000  1
  Ni  Ni8  1  0.12517700  0.12465200  0.62513000  1
  Ni  Ni9  1  0.00000000  0.00000000  0.50000000  1
  Ni  Ni10  1  0.62505400  0.12473900  0.62525900  1
  Ni  Ni11  1  0.12542300  0.62519400  0.62489000  1
  Ni  Ni12  1  0.37310600  0.37719500  0.87508800  1
  Ni  Ni13  1  0.87825100  0.37454200  0.87356500  1
  Ni  Ni14  1  0.25069900  0.25008800  0.74983000  1
  Ni  Ni15  1  0.37716800  0.87060100  0.87657900  1
  Cu  Cu16  1  0.00000000  0.50000000  0.00000000  1
  Cu  Cu17  1  0.00000000  0.00000000  0.00000000  1
  Cu  Cu18  1  0.75020000  0.24954900  0.25126900  1
  Cu  Cu19  1  0.24996500  0.24911300  0.25025600  1
  Cu  Cu20  1  0.00000000  0.50000000  0.50000000  1
  Cu  Cu21  1  0.50000000  0.50000000  0.50000000  1
  Cu  Cu22  1  0.24980000  0.75045100  0.74873100  1
  Cu  Cu23  1  0.75003500  0.75088700  0.74974400  1
  C  C24  1  0.15541400  0.16457000  0.03256700  1
  C  C25  1  0.09075200  0.09125500  0.21616900  1
  C  C26  1  0.40465300  0.41244800  0.28272300  1
  C  C27  1  0.34455800  0.33643200  0.46751900  1
  C  C28  1  0.65544200  0.66356800  0.53248100  1
  C  C29  1  0.90924800  0.90874500  0.78383100  1
  C  C30  1  0.59534700  0.58755200  0.71727700  1
  C  C31  1  0.84458600  0.83543000  0.96743300  1
