# generated using pymatgen
data_Cu24Ni3C32
_symmetry_space_group_name_H-M   'P 1'
_cell_length_a   9.20270100
_cell_length_b   9.23639684
_cell_length_c   13.71032898
_cell_angle_alpha   105.92492071
_cell_angle_beta   103.30851306
_cell_angle_gamma   90.82730803
_symmetry_Int_Tables_number   1
_chemical_formula_structural   Cu24Ni3C32
_chemical_formula_sum   'Cu24 Ni3 C32'
_cell_volume   1086.79917832
_cell_formula_units_Z   1
loop_
 _symmetry_equiv_pos_site_id
 _symmetry_equiv_pos_as_xyz
  1  'x, y, z'
loop_
 _atom_site_type_symbol
 _atom_site_label
 _atom_site_symmetry_multiplicity
 _atom_site_fract_x
 _atom_site_fract_y
 _atom_site_fract_z
 _atom_site_occupancy
  Ni  Ni0  1  0.99207600  0.99897600  0.02073400  1
  Ni  Ni1  1  0.65158700  0.58467700  0.34788700  1
  Ni  Ni2  1  0.39675100  0.41117100  0.67323200  1
  Cu  Cu3  1  0.25768600  0.95617800  0.93810600  1
  Cu  Cu4  1  0.01525100  0.60041300  0.98552600  1
  Cu  Cu5  1  0.43522600  0.32897100  0.98941400  1
  Cu  Cu6  1  0.35441000  0.26094400  0.26058600  1
  Cu  Cu7  1  0.79050100  0.04514400  0.31208300  1
  Cu  Cu8  1  0.40872700  0.79452200  0.22276300  1
  Cu  Cu9  1  0.07795100  0.63638300  0.22018700  1
  Cu  Cu10  1  0.90003800  0.37539900  0.17209800  1
  Cu  Cu11  1  0.10795800  0.13536300  0.34693400  1
  Cu  Cu12  1  0.05443200  0.01950100  0.48787300  1
  Cu  Cu13  1  0.46352500  0.88230500  0.53429700  1
  Cu  Cu14  1  0.20947300  0.61983600  0.45268800  1
  Cu  Cu15  1  0.85295500  0.45019100  0.54949600  1
  Cu  Cu16  1  0.48670200  0.18887200  0.45531700  1
  Cu  Cu17  1  0.81602700  0.90623000  0.54573100  1
  Cu  Cu18  1  0.86651400  0.95454700  0.72890000  1
  Cu  Cu19  1  0.13060100  0.62723200  0.83669600  1
  Cu  Cu20  1  0.95961000  0.36918200  0.76968900  1
  Cu  Cu21  1  0.63317800  0.16447500  0.87083600  1
  Cu  Cu22  1  0.21415400  0.94746500  0.67124500  1
  Cu  Cu23  1  0.64245700  0.68428500  0.73704200  1
  Cu  Cu24  1  0.59611400  0.65913900  0.01549600  1
  Cu  Cu25  1  0.98892000  0.36752300  0.01197300  1
  Cu  Cu26  1  0.52704700  0.99106900  0.99911300  1
  C  C27  1  0.84408300  0.56928500  0.08645800  1
  C  C28  1  0.35944100  0.15398800  0.08242900  1
  C  C29  1  0.60266600  0.89866700  0.15398700  1
  C  C30  1  0.15427800  0.38885300  0.16988500  1
  C  C31  1  0.67263800  0.23366900  0.05467400  1
  C  C32  1  0.17927500  0.76302000  0.11275200  1
  C  C33  1  0.48441800  0.55824500  0.12505700  1
  C  C34  1  0.91797600  0.14251800  0.20811800  1
  C  C35  1  0.61165000  0.25977600  0.33405700  1
  C  C36  1  0.99698300  0.88688000  0.31185700  1
  C  C37  1  0.32915000  0.71968900  0.35781000  1
  C  C38  1  0.94705200  0.23046600  0.45432000  1
  C  C39  1  0.31793400  0.03686400  0.29281100  1
  C  C40  1  0.97438100  0.52763300  0.33737700  1
  C  C41  1  0.28691100  0.36540300  0.42212700  1
  C  C42  1  0.62164700  0.95973200  0.42183500  1
  C  C43  1  0.31008500  0.07870800  0.55249400  1
  C  C44  1  0.76199700  0.70275800  0.60546900  1
  C  C45  1  0.08231800  0.47211400  0.66824400  1
  C  C46  1  0.62684300  0.02730000  0.68697000  1
  C  C47  1  0.04174100  0.78903700  0.52695100  1
  C  C48  1  0.69431000  0.33489400  0.61209000  1
  C  C49  1  0.00134500  0.10950800  0.65748000  1
  C  C50  1  0.37853100  0.73448500  0.62932100  1
  C  C51  1  0.08533600  0.84236900  0.78044500  1
  C  C52  1  0.55949300  0.41392800  0.88048500  1
  C  C53  1  0.88440000  0.19356600  0.85771600  1
  C  C54  1  0.37323600  0.73297500  0.92096000  1
  C  C55  1  0.86513100  0.59413700  0.82750400  1
  C  C56  1  0.37689100  0.08277500  0.84564300  1
  C  C57  1  0.69371700  0.85774900  0.90761600  1
  C  C58  1  0.17587200  0.42061600  0.91751500  1
