# generated using pymatgen
data_Cu8Ni2C5
_symmetry_space_group_name_H-M   'P 1'
_cell_length_a   6.23989200
_cell_length_b   5.71817700
_cell_length_c   8.63869476
_cell_angle_alpha   89.64292605
_cell_angle_beta   90.00000000
_cell_angle_gamma   90.00000000
_symmetry_Int_Tables_number   1
_chemical_formula_structural   Cu8Ni2C5
_chemical_formula_sum   'Cu16 Ni4 C10'
_cell_volume   308.22961393
_cell_formula_units_Z   2
loop_
 _symmetry_equiv_pos_site_id
 _symmetry_equiv_pos_as_xyz
  1  'x, y, z'
loop_
 _atom_site_type_symbol
 _atom_site_label
 _atom_site_symmetry_multiplicity
 _atom_site_fract_x
 _atom_site_fract_y
 _atom_site_fract_z
 _atom_site_occupancy
  C  C0  1  0.50000000  0.50000000  0.00000000  1
  C  C1  1  0.00000000  0.50000000  0.50000000  1
  C  C2  1  0.81774800  0.30160700  0.88876000  1
  C  C3  1  0.31774800  0.69839300  0.61124000  1
  C  C4  1  0.18225200  0.69839300  0.11124000  1
  C  C5  1  0.68225200  0.30160700  0.38876000  1
  C  C6  1  0.72063400  0.09833700  0.99166300  1
  C  C7  1  0.22063400  0.90166300  0.50833700  1
  C  C8  1  0.27936600  0.90166300  0.00833700  1
  C  C9  1  0.77936600  0.09833700  0.49166300  1
  Ni  Ni10  1  0.84100800  0.74986800  0.80118600  1
  Ni  Ni11  1  0.34100800  0.25013200  0.69881400  1
  Ni  Ni12  1  0.15899200  0.25013200  0.19881400  1
  Ni  Ni13  1  0.65899200  0.74986800  0.30118600  1
  Cu  Cu14  1  0.92016300  0.92866200  0.74386600  1
  Cu  Cu15  1  0.42016300  0.07133800  0.75613400  1
  Cu  Cu16  1  0.07983700  0.07133800  0.25613400  1
  Cu  Cu17  1  0.57983700  0.92866200  0.24386600  1
  Cu  Cu18  1  0.86899700  0.54746900  0.74095500  1
  Cu  Cu19  1  0.36899700  0.45253100  0.75904500  1
  Cu  Cu20  1  0.13100300  0.45253100  0.25904500  1
  Cu  Cu21  1  0.63100300  0.54746900  0.24095500  1
  Cu  Cu22  1  0.72672700  0.76343300  0.92539300  1
  Cu  Cu23  1  0.22672700  0.23656700  0.57460700  1
  Cu  Cu24  1  0.27327300  0.23656700  0.07460700  1
  Cu  Cu25  1  0.77327300  0.76343300  0.42539300  1
  Cu  Cu26  1  0.75068300  0.26795600  0.98960800  1
  Cu  Cu27  1  0.25068300  0.73204400  0.51039200  1
  Cu  Cu28  1  0.24931700  0.73204400  0.01039200  1
  Cu  Cu29  1  0.74931700  0.26795600  0.48960800  1
