# generated using pymatgen
data_CuNi
_symmetry_space_group_name_H-M   'P 1'
_cell_length_a   4.60248885
_cell_length_b   4.60248885
_cell_length_c   5.54027200
_cell_angle_alpha   90.00000000
_cell_angle_beta   90.00000000
_cell_angle_gamma   105.50537454
_symmetry_Int_Tables_number   1
_chemical_formula_structural   CuNi
_chemical_formula_sum   'Cu2 Ni2'
_cell_volume   113.08781002
_cell_formula_units_Z   2
loop_
 _symmetry_equiv_pos_site_id
 _symmetry_equiv_pos_as_xyz
  1  'x, y, z'
loop_
 _atom_site_type_symbol
 _atom_site_label
 _atom_site_symmetry_multiplicity
 _atom_site_fract_x
 _atom_site_fract_y
 _atom_site_fract_z
 _atom_site_occupancy
  Ni  Ni0  1  0.94093500  0.94093500  0.31098500  1
  Ni  Ni1  1  0.05906500  0.05906500  0.81098500  1
  Cu  Cu2  1  0.76708000  0.76708000  0.51001500  1
  Cu  Cu3  1  0.23292000  0.23292000  0.01001500  1
