# generated using pymatgen
data_Cu24Ni11C155
_symmetry_space_group_name_H-M   'P 1'
_cell_length_a   9.48454047
_cell_length_b   9.46199232
_cell_length_c   33.25314855
_cell_angle_alpha   89.88352346
_cell_angle_beta   89.89966741
_cell_angle_gamma   90.15907604
_symmetry_Int_Tables_number   1
_chemical_formula_structural   Cu24Ni11C155
_chemical_formula_sum   'Cu24 Ni11 C155'
_cell_volume   2984.20336877
_cell_formula_units_Z   1
loop_
 _symmetry_equiv_pos_site_id
 _symmetry_equiv_pos_as_xyz
  1  'x, y, z'
loop_
 _atom_site_type_symbol
 _atom_site_label
 _atom_site_symmetry_multiplicity
 _atom_site_fract_x
 _atom_site_fract_y
 _atom_site_fract_z
 _atom_site_occupancy
  C  C0  1  0.00122033  0.21832002  0.15655476  1
  C  C1  1  0.00458176  0.22574127  0.49057242  1
  C  C2  1  0.00477048  0.22579947  0.82388291  1
  C  C3  1  0.22570941  0.99565461  0.40741121  1
  C  C4  1  0.22594031  0.99539634  0.74057871  1
  C  C5  1  0.27145466  0.51511750  0.24032842  1
  C  C6  1  0.27402479  0.51614312  0.57364564  1
  C  C7  1  0.27397837  0.51654073  0.90705423  1
  C  C8  1  0.48570831  0.27434270  0.32348504  1
  C  C9  1  0.48373472  0.27415082  0.65692108  1
  C  C10  1  0.48048358  0.27293350  0.98987533  1
  C  C11  1  0.51809335  0.72621811  0.15644428  1
  C  C12  1  0.51642536  0.72610045  0.49027276  1
  C  C13  1  0.51611352  0.72594052  0.82368112  1
  C  C14  1  0.72705317  0.48567270  0.07340472  1
  C  C15  1  0.72598433  0.48369392  0.40681327  1
  C  C16  1  0.72600582  0.48370620  0.74031393  1
  C  C17  1  0.77407702  0.00462153  0.57386316  1
  C  C18  1  0.77396457  0.00405505  0.90698633  1
  C  C19  1  0.99250714  0.77797099  0.32236170  1
  C  C20  1  0.99526571  0.77420006  0.65722569  1
  C  C21  1  0.99933932  0.77961691  0.99162626  1
  C  C22  1  0.10469063  0.38628236  0.00839881  1
  C  C23  1  0.10259271  0.38525734  0.34122061  1
  C  C24  1  0.10400938  0.38593544  0.67469706  1
  C  C25  1  0.37439928  0.13564509  0.17365147  1
  C  C26  1  0.38265408  0.88988003  0.25971620  1
  C  C27  1  0.38603286  0.89610324  0.59139523  1
  C  C28  1  0.38550726  0.89622413  0.92510653  1
  C  C29  1  0.61886802  0.10795322  0.08907546  1
  C  C30  1  0.61437568  0.10359728  0.42434475  1
  C  C31  1  0.61395549  0.10394993  0.75806793  1
  C  C32  1  0.89569886  0.61410945  0.50801336  1
  C  C33  1  0.89620564  0.61849182  0.17502531  1
  C  C34  1  0.89601473  0.61417898  0.84133832  1
  Ni  Ni35  1  0.14304511  0.63597769  0.09105566  1
  Ni  Ni36  1  0.14245962  0.62927118  0.42508827  1
  Ni  Ni37  1  0.14319582  0.62915743  0.75831664  1
  Ni  Ni38  1  0.37073254  0.14312266  0.50815894  1
  Ni  Ni39  1  0.37053929  0.14280695  0.84177194  1
  Ni  Ni40  1  0.62748276  0.85336550  0.00786394  1
  Ni  Ni41  1  0.63425733  0.86071789  0.34054586  1
  Ni  Ni42  1  0.62942461  0.85702532  0.67494663  1
  Ni  Ni43  1  0.85472201  0.36604165  0.25794617  1
  Ni  Ni44  1  0.85688396  0.37072722  0.59162154  1
  Ni  Ni45  1  0.85725814  0.37128052  0.92505906  1
  Cu  Cu46  1  0.16890186  0.17747428  0.25743736  1
  Cu  Cu47  1  0.16703984  0.17874751  0.59073992  1
  Cu  Cu48  1  0.16672629  0.17894860  0.92417681  1
  Cu  Cu49  1  0.18261757  0.83257068  0.17400599  1
  Cu  Cu50  1  0.17896810  0.83292366  0.50741723  1
  Cu  Cu51  1  0.17909464  0.83299060  0.84082342  1
  Cu  Cu52  1  0.32787264  0.32529732  0.08858225  1
  Cu  Cu53  1  0.32820072  0.32681920  0.42170275  1
  Cu  Cu54  1  0.32819792  0.32657939  0.75523897  1
  Cu  Cu55  1  0.32617001  0.67178848  0.00548724  1
  Cu  Cu56  1  0.32786254  0.67176577  0.33905252  1
  Cu  Cu57  1  0.32665625  0.67195859  0.67195103  1
  Cu  Cu58  1  0.67469410  0.32517287  0.17195860  1
  Cu  Cu59  1  0.67398204  0.67454416  0.25510739  1
  Cu  Cu60  1  0.67333696  0.32770131  0.50523295  1
  Cu  Cu61  1  0.67176277  0.67337538  0.58861358  1
  Cu  Cu62  1  0.67347093  0.32787005  0.83868338  1
  Cu  Cu63  1  0.67200545  0.67331100  0.92189525  1
  Cu  Cu64  1  0.82196397  0.16617087  0.00702450  1
  Cu  Cu65  1  0.82075764  0.16725798  0.34086257  1
  Cu  Cu66  1  0.82117160  0.16698951  0.67411853  1
  Cu  Cu67  1  0.83212983  0.81996288  0.09085419  1
  Cu  Cu68  1  0.83287361  0.82104320  0.42400208  1
  Cu  Cu69  1  0.83300663  0.82132601  0.75738745  1
  C  C70  1  0.00256555  0.53679178  0.13447087  1
  C  C71  1  0.00313653  0.53299554  0.46757669  1
  C  C72  1  0.00325843  0.53326830  0.80088612  1
  C  C73  1  0.01093709  0.18922927  0.24959073  1
  C  C74  1  0.00581384  0.18415407  0.91788893  1
  C  C75  1  0.00631621  0.18418712  0.58439027  1
  C  C76  1  0.02484595  0.79249446  0.18047133  1
  C  C77  1  0.02197485  0.78706870  0.51430276  1
  C  C78  1  0.02203421  0.78716725  0.84768742  1
  C  C79  1  0.03504944  0.49957052  0.04886057  1
  C  C80  1  0.03472981  0.49920427  0.38174031  1
  C  C81  1  0.03461005  0.49939633  0.71523083  1
  C  C82  1  0.20038657  0.99587376  0.16873755  1
  C  C83  1  0.18463111  0.99407330  0.50097097  1
  C  C84  1  0.18456713  0.99413544  0.83431943  1
  C  C85  1  0.21298432  0.02157734  0.59767835  1
  C  C86  1  0.21263658  0.02028295  0.26523937  1
  C  C87  1  0.21292647  0.02173200  0.93085958  1
  C  C88  1  0.21682015  0.26363230  0.62791730  1
  C  C89  1  0.22125975  0.26571149  0.29356507  1
  C  C90  1  0.21631566  0.26381039  0.96127298  1
  C  C91  1  0.24510472  0.75826111  0.13670573  1
  C  C92  1  0.24198549  0.75909410  0.46953190  1
  C  C93  1  0.24200278  0.75900297  0.80297159  1
  C  C94  1  0.24358169  0.73618444  0.04098040  1
  C  C95  1  0.24304950  0.73744805  0.37419381  1
  C  C96  1  0.24337399  0.73689682  0.70774778  1
  C  C97  1  0.24992897  0.23143637  0.21843580  1
  C  C98  1  0.24113904  0.24198688  0.55283701  1
  C  C99  1  0.24058279  0.24230080  0.88622005  1
  C  C100  1  0.24606379  0.27935274  0.05084842  1
  C  C101  1  0.24881417  0.28021870  0.38281345  1
  C  C102  1  0.24864366  0.27958229  0.71644366  1
  C  C103  1  0.27352878  0.24317554  0.12707188  1
  C  C104  1  0.26307068  0.24334617  0.45759874  1
  C  C105  1  0.26337952  0.24302844  0.79114249  1
  C  C106  1  0.26545954  0.78339805  0.21158075  1
  C  C107  1  0.26354586  0.78302877  0.54459228  1
  C  C108  1  0.26372515  0.78344164  0.87802518  1
  C  C109  1  0.28068921  0.75339103  0.29961016  1
  C  C110  1  0.27965974  0.75135983  0.63308320  1
  C  C111  1  0.28078606  0.75043325  0.96627555  1
  C  C112  1  0.28320815  0.51561380  0.33153609  1
  C  C113  1  0.28254748  0.51397522  0.66547392  1
  C  C114  1  0.28262501  0.51305193  0.99872694  1
  C  C115  1  0.32099129  0.48471393  0.09729178  1
  C  C116  1  0.32321748  0.48735284  0.42890569  1
  C  C117  1  0.32350443  0.48699910  0.76245322  1
  C  C118  1  0.44584725  0.01405030  0.21490109  1
  C  C119  1  0.46678523  0.00361817  0.55080843  1
  C  C120  1  0.46665266  0.00353513  0.88445510  1
  C  C121  1  0.48619275  0.28248643  0.08161922  1
  C  C122  1  0.48569557  0.28267270  0.41525609  1
  C  C123  1  0.48585148  0.28254541  0.74874228  1
  C  C124  1  0.48666497  0.67488235  0.01251642  1
  C  C125  1  0.48663967  0.67670314  0.67917574  1
  C  C126  1  0.48734554  0.68014345  0.34545352  1
  C  C127  1  0.49546474  0.04914276  0.13469958  1
  C  C128  1  0.50004109  0.03446136  0.46493970  1
  C  C129  1  0.50035773  0.03423960  0.79865585  1
  C  C130  1  0.49653456  0.96834569  0.29751863  1
  C  C131  1  0.49949520  0.96559813  0.63188140  1
  C  C132  1  0.49996201  0.96605482  0.96556823  1
  C  C133  1  0.51074423  0.30351337  0.17858950  1
  C  C134  1  0.51323402  0.32325164  0.51255104  1
  C  C135  1  0.51333804  0.32307341  0.84590821  1
  C  C136  1  0.51537474  0.72330472  0.24830717  1
  C  C137  1  0.51421993  0.71751947  0.58214083  1
  C  C138  1  0.51460546  0.71775771  0.91556601  1
  C  C139  1  0.53612974  0.99376250  0.05232447  1
  C  C140  1  0.53411539  0.99620016  0.38361340  1
  C  C141  1  0.53346711  0.99641322  0.71760851  1
  C  C142  1  0.67646953  0.51293328  0.59590234  1
  C  C143  1  0.67385744  0.51374302  0.26221659  1
  C  C144  1  0.67659035  0.51279258  0.92922752  1
  C  C145  1  0.70865806  0.48444491  0.16547874  1
  C  C146  1  0.71760678  0.48582417  0.49877315  1
  C  C147  1  0.71763411  0.48592509  0.83216135  1
  C  C148  1  0.71991633  0.24836297  0.46638069  1
  C  C149  1  0.71980167  0.24728705  0.13296304  1
  C  C150  1  0.72036391  0.24855984  0.79981926  1
  C  C151  1  0.73554365  0.21501740  0.04505896  1
  C  C152  1  0.73708668  0.21727443  0.37835391  1
  C  C153  1  0.73651009  0.21701666  0.71129201  1
  C  C154  1  0.73662583  0.75680226  0.62440928  1
  C  C155  1  0.73656172  0.75355611  0.29166140  1
  C  C156  1  0.73750447  0.75652973  0.95767568  1
  C  C157  1  0.75125061  0.71748045  0.21588712  1
  C  C158  1  0.75145352  0.72046718  0.54973115  1
  C  C159  1  0.75152655  0.72034847  0.88300102  1
  C  C160  1  0.75688545  0.75849789  0.05303945  1
  C  C161  1  0.75852025  0.75813157  0.38627821  1
  C  C162  1  0.75903103  0.75807045  0.71959043  1
  C  C163  1  0.75335692  0.26270195  0.20820533  1
  C  C164  1  0.75654029  0.26296577  0.54107916  1
  C  C165  1  0.75655635  0.26312028  0.87456164  1
  C  C166  1  0.75754415  0.24399494  0.30388590  1
  C  C167  1  0.75810013  0.24095207  0.63628161  1
  C  C168  1  0.75622223  0.24177724  0.97004011  1
  C  C169  1  0.78085853  0.73576658  0.12818033  1
  C  C170  1  0.78330043  0.73618956  0.46135469  1
  C  C171  1  0.78311859  0.73632739  0.79465724  1
  C  C172  1  0.78225746  0.97738566  0.09825334  1
  C  C173  1  0.78690809  0.97811199  0.43102712  1
  C  C174  1  0.78698866  0.97839653  0.76428369  1
  C  C175  1  0.81319357  0.00559739  0.00127626  1
  C  C176  1  0.81642642  0.00628529  0.33560714  1
  C  C177  1  0.81545371  0.00593295  0.66772486  1
  C  C178  1  0.96312537  0.50121977  0.21504879  1
  C  C179  1  0.96542451  0.50060462  0.54857069  1
  C  C180  1  0.96569279  0.50062580  0.88187638  1
  C  C181  1  0.97581477  0.21394806  0.01448206  1
  C  C182  1  0.97872482  0.21266797  0.34753113  1
  C  C183  1  0.97812114  0.21263981  0.68100144  1
  C  C184  1  0.99379451  0.81565358  0.41768810  1
  C  C185  1  0.99125845  0.81511631  0.08473195  1
  C  C186  1  0.99375380  0.81584971  0.75097621  1
  C  C187  1  0.99692135  0.46502730  0.30047995  1
  C  C188  1  0.99676290  0.46666218  0.63423908  1
  C  C189  1  0.99670852  0.46607860  0.96782759  1
