# generated using pymatgen
data_CuNiC4
_symmetry_space_group_name_H-M   'P 1'
_cell_length_a   4.73654100
_cell_length_b   9.91903600
_cell_length_c   11.85051800
_cell_angle_alpha   90.00000000
_cell_angle_beta   90.00000000
_cell_angle_gamma   90.00000000
_symmetry_Int_Tables_number   1
_chemical_formula_structural   CuNiC4
_chemical_formula_sum   'Cu8 Ni8 C32'
_cell_volume   556.76009686
_cell_formula_units_Z   8
loop_
 _symmetry_equiv_pos_site_id
 _symmetry_equiv_pos_as_xyz
  1  'x, y, z'
loop_
 _atom_site_type_symbol
 _atom_site_label
 _atom_site_symmetry_multiplicity
 _atom_site_fract_x
 _atom_site_fract_y
 _atom_site_fract_z
 _atom_site_occupancy
  C  C0  1  0.74913200  0.15108800  0.75000000  1
  C  C1  1  0.25086800  0.84891200  0.25000000  1
  C  C2  1  0.75086800  0.65108800  0.75000000  1
  C  C3  1  0.24913200  0.34891200  0.25000000  1
  Ni  Ni4  1  0.20706500  0.66310200  0.50027700  1
  Ni  Ni5  1  0.70706500  0.83689800  0.00027700  1
  Ni  Ni6  1  0.79293500  0.33689800  0.00027700  1
  Ni  Ni7  1  0.70706500  0.83689800  0.49972300  1
  Ni  Ni8  1  0.29293500  0.16310200  0.99972300  1
  Ni  Ni9  1  0.20706500  0.66310200  0.99972300  1
  Ni  Ni10  1  0.79293500  0.33689800  0.49972300  1
  Ni  Ni11  1  0.29293500  0.16310200  0.50027700  1
  Cu  Cu12  1  0.70438500  0.58911300  0.12162100  1
  Cu  Cu13  1  0.29561500  0.41088700  0.87837900  1
  Cu  Cu14  1  0.20438500  0.91088700  0.62162100  1
  Cu  Cu15  1  0.79561500  0.08911300  0.37837900  1
  Cu  Cu16  1  0.29561500  0.41088700  0.62162100  1
  Cu  Cu17  1  0.20438500  0.91088700  0.87837900  1
  Cu  Cu18  1  0.79561500  0.08911300  0.12162100  1
  Cu  Cu19  1  0.70438500  0.58911300  0.37837900  1
  C  C20  1  0.63429800  0.18928800  0.46849800  1
  C  C21  1  0.28475700  0.06955500  0.61260000  1
  C  C22  1  0.36570200  0.81071200  0.96849800  1
  C  C23  1  0.86570200  0.68928800  0.46849800  1
  C  C24  1  0.63429800  0.18928800  0.03150200  1
  C  C25  1  0.21524300  0.56955500  0.61260000  1
  C  C26  1  0.13567100  0.11101000  0.11231500  1
  C  C27  1  0.71524300  0.93044500  0.38740000  1
  C  C28  1  0.69949700  0.14324100  0.25000000  1
  C  C29  1  0.28475700  0.06955500  0.88740000  1
  C  C30  1  0.78475700  0.43044500  0.11260000  1
  C  C31  1  0.36432900  0.61101000  0.38768500  1
  C  C32  1  0.30050300  0.85675900  0.75000000  1
  C  C33  1  0.13429800  0.31071200  0.96849800  1
  C  C34  1  0.63567100  0.38899000  0.61231500  1
  C  C35  1  0.78475700  0.43044500  0.38740000  1
  C  C36  1  0.13567100  0.11101000  0.38768500  1
  C  C37  1  0.21524300  0.56955500  0.88740000  1
  C  C38  1  0.80050300  0.64324100  0.25000000  1
  C  C39  1  0.71524300  0.93044500  0.11260000  1
  C  C40  1  0.36432900  0.61101000  0.11231500  1
  C  C41  1  0.86570200  0.68928800  0.03150200  1
  C  C42  1  0.19949700  0.35675900  0.75000000  1
  C  C43  1  0.86432900  0.88899000  0.61231500  1
  C  C44  1  0.63567100  0.38899000  0.88768500  1
  C  C45  1  0.36570200  0.81071200  0.53150200  1
  C  C46  1  0.86432900  0.88899000  0.88768500  1
  C  C47  1  0.13429800  0.31071200  0.53150200  1
