# generated using pymatgen
data_CuNiC4
_symmetry_space_group_name_H-M   'P 1'
_cell_length_a   5.53090768
_cell_length_b   5.53090768
_cell_length_c   9.90187694
_cell_angle_alpha   82.75936104
_cell_angle_beta   82.75936104
_cell_angle_gamma   94.69799836
_symmetry_Int_Tables_number   1
_chemical_formula_structural   CuNiC4
_chemical_formula_sum   'Cu4 Ni4 C16'
_cell_volume   296.62060719
_cell_formula_units_Z   4
loop_
 _symmetry_equiv_pos_site_id
 _symmetry_equiv_pos_as_xyz
  1  'x, y, z'
loop_
 _atom_site_type_symbol
 _atom_site_label
 _atom_site_symmetry_multiplicity
 _atom_site_fract_x
 _atom_site_fract_y
 _atom_site_fract_z
 _atom_site_occupancy
  C  C0  1  0.00000000  0.00000000  0.00000000  1
  C  C1  1  0.00000000  0.00000000  0.50000000  1
  Ni  Ni2  1  0.22325400  0.45117200  0.19039100  1
  Ni  Ni3  1  0.54882800  0.77674600  0.30960900  1
  Ni  Ni4  1  0.77674600  0.54882800  0.80960900  1
  Ni  Ni5  1  0.45117200  0.22325400  0.69039100  1
  Cu  Cu6  1  0.92083900  0.50623400  0.34814800  1
  Cu  Cu7  1  0.49376600  0.07916100  0.15185200  1
  Cu  Cu8  1  0.07916100  0.49376600  0.65185200  1
  Cu  Cu9  1  0.50623400  0.92083900  0.84814800  1
  C  C10  1  0.27006700  0.22472800  0.12321300  1
  C  C11  1  0.77527200  0.72993300  0.37678700  1
  C  C12  1  0.72993300  0.77527200  0.87678700  1
  C  C13  1  0.22472800  0.27006700  0.62321300  1
  C  C14  1  0.02613400  0.36759700  0.32510100  1
  C  C15  1  0.63240300  0.97386600  0.17489900  1
  C  C16  1  0.97386600  0.63240300  0.67489900  1
  C  C17  1  0.36759700  0.02613400  0.82510100  1
  C  C18  1  0.14896200  0.66811200  0.10489400  1
  C  C19  1  0.33188800  0.85103800  0.39510600  1
  C  C20  1  0.85103800  0.33188800  0.89510600  1
  C  C21  1  0.66811200  0.14896200  0.60489400  1
  C  C22  1  0.47617100  0.52382900  0.25000000  1
  C  C23  1  0.52382900  0.47617100  0.75000000  1
