# generated using pymatgen
data_Cu3Ni3C
_symmetry_space_group_name_H-M   'P 1'
_cell_length_a   10.48763200
_cell_length_b   15.72458700
_cell_length_c   17.96373100
_cell_angle_alpha   90.00000000
_cell_angle_beta   90.00000000
_cell_angle_gamma   90.00000000
_symmetry_Int_Tables_number   1
_chemical_formula_structural   Cu3Ni3C
_chemical_formula_sum   'Cu72 Ni72 C24'
_cell_volume   2962.46501822
_cell_formula_units_Z   24
loop_
 _symmetry_equiv_pos_site_id
 _symmetry_equiv_pos_as_xyz
  1  'x, y, z'
loop_
 _atom_site_type_symbol
 _atom_site_label
 _atom_site_symmetry_multiplicity
 _atom_site_fract_x
 _atom_site_fract_y
 _atom_site_fract_z
 _atom_site_occupancy
  C  C0  1  0.23726100  0.31693600  0.28287800  1
  C  C1  1  0.17977800  0.81811000  0.27227300  1
  C  C2  1  0.76895400  0.96919700  0.12210500  1
  C  C3  1  0.17977800  0.68189000  0.77227300  1
  C  C4  1  0.63394200  0.38157000  0.07501900  1
  C  C5  1  0.73726100  0.81693600  0.21712200  1
  C  C6  1  0.63394200  0.11843000  0.57501900  1
  C  C7  1  0.67977800  0.31811000  0.22772700  1
  C  C8  1  0.13394200  0.61843000  0.92498100  1
  C  C9  1  0.26895400  0.46919700  0.37789500  1
  C  C10  1  0.67977800  0.18189000  0.72772700  1
  C  C11  1  0.26895400  0.03080300  0.87789500  1
  C  C12  1  0.23726100  0.18306400  0.78287800  1
  C  C13  1  0.76895400  0.53080300  0.62210500  1
  C  C14  1  0.13394200  0.88157000  0.42498100  1
  C  C15  1  0.73726100  0.68306400  0.71712200  1
  C  C16  1  0.97800200  0.59809300  0.68656000  1
  C  C17  1  0.97800200  0.90190700  0.18656000  1
  C  C18  1  0.43357800  0.36226000  0.16929500  1
  C  C19  1  0.43357800  0.13774000  0.66929500  1
  C  C20  1  0.47800200  0.09809300  0.81344000  1
  C  C21  1  0.93357800  0.63774000  0.83070500  1
  C  C22  1  0.47800200  0.40190700  0.31344000  1
  C  C23  1  0.93357800  0.86226000  0.33070500  1
  Ni  Ni24  1  0.13554400  0.10507400  0.72177000  1
  Ni  Ni25  1  0.72642600  0.77464300  0.78802600  1
  Ni  Ni26  1  0.09252800  0.00602600  0.89556900  1
  Ni  Ni27  1  0.75905400  0.07065000  0.74561800  1
  Ni  Ni28  1  0.30594300  0.88111900  0.46142800  1
  Ni  Ni29  1  0.13249900  0.50035600  0.88863600  1
  Ni  Ni30  1  0.83276500  0.26942700  0.18805100  1
  Ni  Ni31  1  0.25905400  0.57065000  0.75438200  1
  Ni  Ni32  1  0.07155800  0.71854800  0.28990800  1
  Ni  Ni33  1  0.27420700  0.38360900  0.45761700  1
  Ni  Ni34  1  0.63249900  0.00035600  0.61136400  1
  Ni  Ni35  1  0.05517900  0.57912000  0.01428300  1
  Ni  Ni36  1  0.28642700  0.96586200  0.78555900  1
  Ni  Ni37  1  0.13554400  0.39492600  0.22177000  1
  Ni  Ni38  1  0.33698000  0.56059600  0.43584100  1
  Ni  Ni39  1  0.19549900  0.71378500  0.66966100  1
  Ni  Ni40  1  0.57155800  0.21854800  0.21009200  1
  Ni  Ni41  1  0.80594300  0.11888100  0.53857200  1
  Ni  Ni42  1  0.85681200  0.74625800  0.65359800  1
  Ni  Ni43  1  0.33698000  0.93940400  0.93584100  1
  Ni  Ni44  1  0.30594300  0.61888100  0.96142800  1
  Ni  Ni45  1  0.57155800  0.28145200  0.71009200  1
  Ni  Ni46  1  0.69549900  0.21378500  0.83033900  1
  Ni  Ni47  1  0.63554400  0.89492600  0.27823000  1
  Ni  Ni48  1  0.10480400  0.73855200  0.94784800  1
  Ni  Ni49  1  0.25905400  0.92935000  0.25438200  1
  Ni  Ni50  1  0.07605100  0.53481100  0.62140300  1
  Ni  Ni51  1  0.60480400  0.26144800  0.05215200  1
  Ni  Ni52  1  0.09362000  0.21306000  0.84356400  1
  Ni  Ni53  1  0.09362000  0.28694000  0.34356400  1
  Ni  Ni54  1  0.33276500  0.73057300  0.81194900  1
  Ni  Ni55  1  0.57605100  0.03481100  0.87859700  1
  Ni  Ni56  1  0.28642700  0.53413800  0.28555900  1
  Ni  Ni57  1  0.07605100  0.96518900  0.12140300  1
  Ni  Ni58  1  0.07155800  0.78145200  0.78990800  1
  Ni  Ni59  1  0.33276500  0.76942700  0.31194900  1
  Ni  Ni60  1  0.32126500  0.38361600  0.09223800  1
  Ni  Ni61  1  0.32126500  0.11638400  0.59223800  1
  Ni  Ni62  1  0.83698000  0.43940400  0.56415900  1
  Ni  Ni63  1  0.59362000  0.71306000  0.65643600  1
  Ni  Ni64  1  0.77420700  0.61639100  0.54238300  1
  Ni  Ni65  1  0.63249900  0.49964400  0.11136400  1
  Ni  Ni66  1  0.59362000  0.78694000  0.15643600  1
  Ni  Ni67  1  0.55517900  0.42088000  0.98571700  1
  Ni  Ni68  1  0.63554400  0.60507400  0.77823000  1
  Ni  Ni69  1  0.83276500  0.23057300  0.68805100  1
  Ni  Ni70  1  0.72642600  0.72535700  0.28802600  1
  Ni  Ni71  1  0.10480400  0.76144800  0.44784800  1
  Ni  Ni72  1  0.78642700  0.03413800  0.21444100  1
  Ni  Ni73  1  0.55517900  0.07912000  0.48571700  1
  Ni  Ni74  1  0.13249900  0.99964400  0.38863600  1
  Ni  Ni75  1  0.80594300  0.38111900  0.03857200  1
  Ni  Ni76  1  0.09252800  0.49397400  0.39556900  1
  Ni  Ni77  1  0.59252800  0.99397400  0.10443100  1
  Ni  Ni78  1  0.22642600  0.27464300  0.71197400  1
  Ni  Ni79  1  0.05517900  0.92088000  0.51428300  1
  Ni  Ni80  1  0.75905400  0.42935000  0.24561800  1
  Ni  Ni81  1  0.78642700  0.46586200  0.71444100  1
  Ni  Ni82  1  0.35681200  0.24625800  0.84640200  1
  Ni  Ni83  1  0.35681200  0.25374200  0.34640200  1
  Ni  Ni84  1  0.60480400  0.23855200  0.55215200  1
  Ni  Ni85  1  0.22642600  0.22535700  0.21197400  1
  Ni  Ni86  1  0.83698000  0.06059600  0.06415900  1
  Ni  Ni87  1  0.19549900  0.78621500  0.16966100  1
  Ni  Ni88  1  0.82126500  0.88361600  0.40776200  1
  Ni  Ni89  1  0.77420700  0.88360900  0.04238300  1
  Ni  Ni90  1  0.59252800  0.50602600  0.60443100  1
  Ni  Ni91  1  0.27420700  0.11639100  0.95761700  1
  Ni  Ni92  1  0.82126500  0.61638400  0.90776200  1
  Ni  Ni93  1  0.69549900  0.28621500  0.33033900  1
  Ni  Ni94  1  0.57605100  0.46518900  0.37859700  1
  Ni  Ni95  1  0.85681200  0.75374200  0.15359800  1
  Cu  Cu96  1  0.12628000  0.42902800  0.87291200  1
  Cu  Cu97  1  0.21322700  0.33098100  0.67096100  1
  Cu  Cu98  1  0.48485900  0.49361900  0.59379000  1
  Cu  Cu99  1  0.91058000  0.12194800  0.51773900  1
  Cu  Cu100  1  0.71113200  0.23681900  0.89119000  1
  Cu  Cu101  1  0.56769200  0.93804900  0.31259400  1
  Cu  Cu102  1  0.75446700  0.60322700  0.95829500  1
  Cu  Cu103  1  0.63720000  0.50572700  0.41948300  1
  Cu  Cu104  1  0.63720000  0.99427300  0.91948300  1
  Cu  Cu105  1  0.79434800  0.42457400  0.76795700  1
  Cu  Cu106  1  0.25446700  0.39677300  0.04170500  1
  Cu  Cu107  1  0.98485900  0.99361900  0.90621000  1
  Cu  Cu108  1  0.29434800  0.92457400  0.73204300  1
  Cu  Cu109  1  0.06769200  0.43804900  0.18740600  1
  Cu  Cu110  1  0.06769200  0.06195100  0.68740600  1
  Cu  Cu111  1  0.41533300  0.29013000  0.88573900  1
  Cu  Cu112  1  0.91058000  0.37805200  0.01773900  1
  Cu  Cu113  1  0.37628400  0.88213200  0.96962800  1
  Cu  Cu114  1  0.42574500  0.73879200  0.33513000  1
  Cu  Cu115  1  0.71322700  0.66901900  0.32903900  1
  Cu  Cu116  1  0.21322700  0.16901900  0.17096100  1
  Cu  Cu117  1  0.81085100  0.00753700  0.75991300  1
  Cu  Cu118  1  0.56769200  0.56195100  0.81259400  1
  Cu  Cu119  1  0.87628400  0.11786800  0.03037200  1
  Cu  Cu120  1  0.42574500  0.76120800  0.83513000  1
  Cu  Cu121  1  0.12628000  0.07097200  0.37291200  1
  Cu  Cu122  1  0.51555000  0.34506100  0.70517900  1
  Cu  Cu123  1  0.41058000  0.87805200  0.48226100  1
  Cu  Cu124  1  0.27459400  0.16791200  0.00369300  1
  Cu  Cu125  1  0.25446700  0.10322700  0.54170500  1
  Cu  Cu126  1  0.81085100  0.49246300  0.25991300  1
  Cu  Cu127  1  0.01555000  0.84506100  0.79482100  1
  Cu  Cu128  1  0.37628400  0.61786800  0.46962800  1
  Cu  Cu129  1  0.08492300  0.69097000  0.46275000  1
  Cu  Cu130  1  0.98485900  0.50638100  0.40621000  1
  Cu  Cu131  1  0.41533300  0.20987000  0.38573900  1
  Cu  Cu132  1  0.71113200  0.26318100  0.39119000  1
  Cu  Cu133  1  0.50757400  0.76749600  0.11935400  1
  Cu  Cu134  1  0.21113200  0.76318100  0.10881000  1
  Cu  Cu135  1  0.91533300  0.70987000  0.11426100  1
  Cu  Cu136  1  0.92574500  0.23879200  0.16487000  1
  Cu  Cu137  1  0.58492300  0.30903000  0.53725000  1
  Cu  Cu138  1  0.50757400  0.73250400  0.61935400  1
  Cu  Cu139  1  0.00757400  0.26749600  0.38064600  1
  Cu  Cu140  1  0.48485900  0.00638100  0.09379000  1
  Cu  Cu141  1  0.77459400  0.66791200  0.49630700  1
  Cu  Cu142  1  0.13720000  0.00572700  0.08051700  1
  Cu  Cu143  1  0.91533300  0.79013000  0.61426100  1
  Cu  Cu144  1  0.71322700  0.83098100  0.82903900  1
  Cu  Cu145  1  0.77459400  0.83208800  0.99630700  1
  Cu  Cu146  1  0.50638300  0.05259600  0.43266300  1
  Cu  Cu147  1  0.51555000  0.15493900  0.20517900  1
  Cu  Cu148  1  0.50638300  0.44740400  0.93266300  1
  Cu  Cu149  1  0.01555000  0.65493900  0.29482100  1
  Cu  Cu150  1  0.00757400  0.23250400  0.88064600  1
  Cu  Cu151  1  0.92574500  0.26120800  0.66487000  1
  Cu  Cu152  1  0.29434800  0.57542600  0.23204300  1
  Cu  Cu153  1  0.62628000  0.57097200  0.12708800  1
  Cu  Cu154  1  0.31085100  0.50753700  0.74008700  1
  Cu  Cu155  1  0.87628400  0.38213200  0.53037200  1
  Cu  Cu156  1  0.31085100  0.99246300  0.24008700  1
  Cu  Cu157  1  0.21113200  0.73681900  0.60881000  1
  Cu  Cu158  1  0.00638300  0.94740400  0.56733700  1
  Cu  Cu159  1  0.75446700  0.89677300  0.45829500  1
  Cu  Cu160  1  0.79434800  0.07542600  0.26795700  1
  Cu  Cu161  1  0.62628000  0.92902800  0.62708800  1
  Cu  Cu162  1  0.08492300  0.80903000  0.96275000  1
  Cu  Cu163  1  0.13720000  0.49427300  0.58051700  1
  Cu  Cu164  1  0.00638300  0.55259600  0.06733700  1
  Cu  Cu165  1  0.27459400  0.33208800  0.50369300  1
  Cu  Cu166  1  0.41058000  0.62194800  0.98226100  1
  Cu  Cu167  1  0.58492300  0.19097000  0.03725000  1
