# generated using pymatgen
data_Cu2Ni12C17
_symmetry_space_group_name_H-M   'P 1'
_cell_length_a   12.41534000
_cell_length_b   6.87223500
_cell_length_c   10.33045479
_cell_angle_alpha   67.33804419
_cell_angle_beta   90.00000000
_cell_angle_gamma   90.00000000
_symmetry_Int_Tables_number   1
_chemical_formula_structural   Cu2Ni12C17
_chemical_formula_sum   'Cu4 Ni24 C34'
_cell_volume   813.35638866
_cell_formula_units_Z   2
loop_
 _symmetry_equiv_pos_site_id
 _symmetry_equiv_pos_as_xyz
  1  'x, y, z'
loop_
 _atom_site_type_symbol
 _atom_site_label
 _atom_site_symmetry_multiplicity
 _atom_site_fract_x
 _atom_site_fract_y
 _atom_site_fract_z
 _atom_site_occupancy
  C  C0  1  0.72310900  0.34821900  0.83285400  1
  C  C1  1  0.22310900  0.65178100  0.66714600  1
  C  C2  1  0.27689100  0.65178100  0.16714600  1
  C  C3  1  0.77689100  0.34821900  0.33285400  1
  C  C4  1  0.50000000  0.00000000  0.50000000  1
  C  C5  1  0.00000000  0.00000000  0.00000000  1
  Ni  Ni6  1  0.09950300  0.05433000  0.74789100  1
  Ni  Ni7  1  0.17282400  0.14870400  0.01485800  1
  Ni  Ni8  1  0.59950300  0.94567000  0.75210900  1
  Ni  Ni9  1  0.85011400  0.99012900  0.69986800  1
  Ni  Ni10  1  0.95784400  0.55789400  0.84866400  1
  Ni  Ni11  1  0.35011400  0.00987100  0.80013200  1
  Ni  Ni12  1  0.02416700  0.59967800  0.22898300  1
  Ni  Ni13  1  0.54215600  0.55789400  0.34866400  1
  Ni  Ni14  1  0.47583300  0.59967800  0.72898300  1
  Ni  Ni15  1  0.04215600  0.44210600  0.15133600  1
  Ni  Ni16  1  0.75570600  0.02927200  0.58984700  1
  Ni  Ni17  1  0.74429400  0.02927200  0.08984700  1
  Ni  Ni18  1  0.67282400  0.85129600  0.48514200  1
  Ni  Ni19  1  0.52416700  0.40032200  0.27101700  1
  Ni  Ni20  1  0.40049700  0.05433000  0.24789100  1
  Ni  Ni21  1  0.97583300  0.40032200  0.77101700  1
  Ni  Ni22  1  0.14988600  0.00987100  0.30013200  1
  Ni  Ni23  1  0.64988600  0.99012900  0.19986800  1
  Ni  Ni24  1  0.24429400  0.97072800  0.41015300  1
  Ni  Ni25  1  0.45784400  0.44210600  0.65133600  1
  Ni  Ni26  1  0.32717600  0.14870400  0.51485800  1
  Ni  Ni27  1  0.90049700  0.94567000  0.25210900  1
  Ni  Ni28  1  0.82717600  0.85129600  0.98514200  1
  Ni  Ni29  1  0.25570600  0.97072800  0.91015300  1
  Cu  Cu30  1  0.11414000  0.30700000  0.52305600  1
  Cu  Cu31  1  0.38586000  0.30700000  0.02305600  1
  Cu  Cu32  1  0.88586000  0.69300000  0.47694400  1
  Cu  Cu33  1  0.61414000  0.69300000  0.97694400  1
  C  C34  1  0.92298700  0.48969600  0.79108700  1
  C  C35  1  0.17860100  0.90633200  0.38680900  1
  C  C36  1  0.07701300  0.51030400  0.20891300  1
  C  C37  1  0.47823500  0.76765000  0.39429000  1
  C  C38  1  0.41013200  0.85444000  0.28644000  1
  C  C39  1  0.89904100  0.76122800  0.31108200  1
  C  C40  1  0.10095900  0.23877200  0.68891800  1
  C  C41  1  0.60095900  0.76122800  0.81108200  1
  C  C42  1  0.67860100  0.09366800  0.11319100  1
  C  C43  1  0.85022900  0.98671300  0.98686900  1
  C  C44  1  0.82139900  0.09366800  0.61319100  1
  C  C45  1  0.35022900  0.01328700  0.51313100  1
  C  C46  1  0.58986800  0.14556000  0.71356000  1
  C  C47  1  0.42298700  0.51030400  0.70891300  1
  C  C48  1  0.32139900  0.90633200  0.88680900  1
  C  C49  1  0.97823500  0.23235000  0.10571000  1
  C  C50  1  0.27222700  0.38308600  0.98314300  1
  C  C51  1  0.02176500  0.76765000  0.89429000  1
  C  C52  1  0.77222700  0.61691400  0.51685700  1
  C  C53  1  0.39904100  0.23877200  0.18891800  1
  C  C54  1  0.22777300  0.38308600  0.48314300  1
  C  C55  1  0.57701300  0.48969600  0.29108700  1
  C  C56  1  0.14977100  0.01328700  0.01313100  1
  C  C57  1  0.72777300  0.61691400  0.01685700  1
  C  C58  1  0.08986800  0.85444000  0.78644000  1
  C  C59  1  0.64977100  0.98671300  0.48686900  1
  C  C60  1  0.52176500  0.23235000  0.60571000  1
  C  C61  1  0.91013200  0.14556000  0.21356000  1
