# generated using pymatgen
data_Cu2Ni13C18
_symmetry_space_group_name_H-M   'P 1'
_cell_length_a   9.36362255
_cell_length_b   9.36362255
_cell_length_c   16.02619711
_cell_angle_alpha   67.32964296
_cell_angle_beta   67.32964296
_cell_angle_gamma   60.26810443
_symmetry_Int_Tables_number   1
_chemical_formula_structural   Cu2Ni13C18
_chemical_formula_sum   'Cu4 Ni26 C36'
_cell_volume   1092.28899572
_cell_formula_units_Z   2
loop_
 _symmetry_equiv_pos_site_id
 _symmetry_equiv_pos_as_xyz
  1  'x, y, z'
loop_
 _atom_site_type_symbol
 _atom_site_label
 _atom_site_symmetry_multiplicity
 _atom_site_fract_x
 _atom_site_fract_y
 _atom_site_fract_z
 _atom_site_occupancy
  C  C0  1  0.97338000  0.65888300  0.35067800  1
  C  C1  1  0.58413000  0.83253100  0.03261000  1
  C  C2  1  0.44495500  0.24348700  0.87715300  1
  C  C3  1  0.37130000  0.10371000  0.05882800  1
  C  C4  1  0.65679500  0.01784600  0.06291800  1
  C  C5  1  0.65888300  0.97338000  0.85067800  1
  C  C6  1  0.10371000  0.37130000  0.55882800  1
  C  C7  1  0.83253100  0.58413000  0.53261000  1
  C  C8  1  0.73199200  0.15450500  0.88195500  1
  C  C9  1  0.01784600  0.65679500  0.56291800  1
  C  C10  1  0.15450500  0.73199200  0.38195500  1
  C  C11  1  0.24348700  0.44495500  0.37715300  1
  Ni  Ni12  1  0.95508300  0.04824400  0.85321100  1
  Ni  Ni13  1  0.25751900  0.26953500  0.35468400  1
  Ni  Ni14  1  0.75319200  0.45893900  0.52253100  1
  Ni  Ni15  1  0.18094200  0.63536600  0.60237000  1
  Ni  Ni16  1  0.27758600  0.29068900  0.09726600  1
  Ni  Ni17  1  0.09816700  0.18260000  0.56505000  1
  Ni  Ni18  1  0.76984400  0.64246800  0.03671800  1
  Ni  Ni19  1  0.91130600  0.55213700  0.31008200  1
  Ni  Ni20  1  0.55213700  0.91130600  0.81008200  1
  Ni  Ni21  1  0.80556600  0.85891700  0.32884600  1
  Ni  Ni22  1  0.72257200  0.33658500  0.89641300  1
  Ni  Ni23  1  0.05674300  0.57349000  0.45992200  1
  Ni  Ni24  1  0.29068900  0.27758600  0.59726600  1
  Ni  Ni25  1  0.18260000  0.09816700  0.06505000  1
  Ni  Ni26  1  0.85891700  0.80556600  0.82884600  1
  Ni  Ni27  1  0.45836200  0.35770300  0.38300600  1
  Ni  Ni28  1  0.45893900  0.75319200  0.02253100  1
  Ni  Ni29  1  0.26953500  0.25751900  0.85468400  1
  Ni  Ni30  1  0.63536600  0.18094200  0.10237000  1
  Ni  Ni31  1  0.86847100  0.87953500  0.06759500  1
  Ni  Ni32  1  0.35770300  0.45836200  0.88300600  1
  Ni  Ni33  1  0.57349000  0.05674300  0.95992200  1
  Ni  Ni34  1  0.87953500  0.86847100  0.56759500  1
  Ni  Ni35  1  0.33658500  0.72257200  0.39641300  1
  Ni  Ni36  1  0.04824400  0.95508300  0.35321100  1
  Ni  Ni37  1  0.64246800  0.76984400  0.53671800  1
  Cu  Cu38  1  0.65746800  0.21022000  0.75782500  1
  Cu  Cu39  1  0.21022000  0.65746800  0.25782500  1
  Cu  Cu40  1  0.90029700  0.49145000  0.66333800  1
  Cu  Cu41  1  0.49145000  0.90029700  0.16333800  1
  C  C42  1  0.37303700  0.70125800  0.01650500  1
  C  C43  1  0.10129500  0.98146400  0.83125400  1
  C  C44  1  0.87012400  0.48830400  0.27971200  1
  C  C45  1  0.99164400  0.69608200  0.81404800  1
  C  C46  1  0.48830400  0.87012400  0.77971200  1
  C  C47  1  0.89176000  0.51786800  0.03895100  1
  C  C48  1  0.05649400  0.09425800  0.07050000  1
  C  C49  1  0.41671900  0.21257000  0.62354100  1
  C  C50  1  0.09425800  0.05649400  0.57050000  1
  C  C51  1  0.45934600  0.71386500  0.40721700  1
  C  C52  1  0.21257000  0.41671900  0.12354100  1
  C  C53  1  0.62339600  0.28705500  0.12918300  1
  C  C54  1  0.69608200  0.99164400  0.31404800  1
  C  C55  1  0.70125800  0.37303700  0.51650500  1
  C  C56  1  0.78683500  0.00384400  0.57069600  1
  C  C57  1  0.71386500  0.45934600  0.90721700  1
  C  C58  1  0.26943500  0.15124900  0.34043400  1
  C  C59  1  0.59898400  0.29954700  0.38496200  1
  C  C60  1  0.15124900  0.26943500  0.84043400  1
  C  C61  1  0.51786800  0.89176000  0.53895100  1
  C  C62  1  0.29954700  0.59898400  0.88496200  1
  C  C63  1  0.28705500  0.62339600  0.62918300  1
  C  C64  1  0.00384400  0.78683500  0.07069600  1
  C  C65  1  0.98146400  0.10129500  0.33125400  1
