# generated using pymatgen
data_CuNi2C7
_symmetry_space_group_name_H-M   'P 1'
_cell_length_a   6.02599600
_cell_length_b   6.02599600
_cell_length_c   8.67309800
_cell_angle_alpha   90.00000000
_cell_angle_beta   90.00000000
_cell_angle_gamma   90.00000000
_symmetry_Int_Tables_number   1
_chemical_formula_structural   CuNi2C7
_chemical_formula_sum   'Cu2 Ni4 C14'
_cell_volume   314.94297948
_cell_formula_units_Z   2
loop_
 _symmetry_equiv_pos_site_id
 _symmetry_equiv_pos_as_xyz
  1  'x, y, z'
loop_
 _atom_site_type_symbol
 _atom_site_label
 _atom_site_symmetry_multiplicity
 _atom_site_fract_x
 _atom_site_fract_y
 _atom_site_fract_z
 _atom_site_occupancy
  Ni  Ni0  1  0.50000000  0.00000000  0.75832000  1
  Ni  Ni1  1  0.00000000  0.50000000  0.25832000  1
  Ni  Ni2  1  0.50000000  0.00000000  0.25832000  1
  Ni  Ni3  1  0.00000000  0.50000000  0.75832000  1
  Cu  Cu4  1  0.50000000  0.50000000  0.50543000  1
  Cu  Cu5  1  0.00000000  0.00000000  0.00543000  1
  C  C6  1  0.50000000  0.50000000  0.02257700  1
  C  C7  1  0.00000000  0.00000000  0.52257700  1
  C  C8  1  0.50000000  0.50000000  0.22761600  1
  C  C9  1  0.71239000  0.28761000  0.98077900  1
  C  C10  1  0.21239000  0.21239000  0.48077900  1
  C  C11  1  0.00000000  0.00000000  0.72761600  1
  C  C12  1  0.78761000  0.78761000  0.48077900  1
  C  C13  1  0.28761000  0.71239000  0.98077900  1
  C  C14  1  0.23616800  0.76383200  0.50322500  1
  C  C15  1  0.50000000  0.50000000  0.76563200  1
  C  C16  1  0.26383200  0.26383200  0.00322500  1
  C  C17  1  0.00000000  0.00000000  0.26563200  1
  C  C18  1  0.73616800  0.73616800  0.00322500  1
  C  C19  1  0.76383200  0.23616800  0.50322500  1
