# generated using pymatgen
data_Cu2Ni8C7
_symmetry_space_group_name_H-M   'P 1'
_cell_length_a   7.30469872
_cell_length_b   7.30469872
_cell_length_c   7.30469872
_cell_angle_alpha   60.00000000
_cell_angle_beta   60.00000000
_cell_angle_gamma   60.00000000
_symmetry_Int_Tables_number   1
_chemical_formula_structural   Cu2Ni8C7
_chemical_formula_sum   'Cu2 Ni8 C7'
_cell_volume   275.60806831
_cell_formula_units_Z   1
loop_
 _symmetry_equiv_pos_site_id
 _symmetry_equiv_pos_as_xyz
  1  'x, y, z'
loop_
 _atom_site_type_symbol
 _atom_site_label
 _atom_site_symmetry_multiplicity
 _atom_site_fract_x
 _atom_site_fract_y
 _atom_site_fract_z
 _atom_site_occupancy
  C  C0  1  0.00000000  0.00000000  0.00000000  1
  Ni  Ni1  1  0.80772500  0.80772500  0.57682500  1
  Ni  Ni2  1  0.80772500  0.57682500  0.80772500  1
  Ni  Ni3  1  0.57682500  0.80772500  0.80772500  1
  Ni  Ni4  1  0.80772500  0.80772500  0.80772500  1
  Ni  Ni5  1  0.19227500  0.19227500  0.42317500  1
  Ni  Ni6  1  0.19227500  0.42317500  0.19227500  1
  Ni  Ni7  1  0.42317500  0.19227500  0.19227500  1
  Ni  Ni8  1  0.19227500  0.19227500  0.19227500  1
  Cu  Cu9  1  0.75000000  0.75000000  0.75000000  1
  Cu  Cu10  1  0.25000000  0.25000000  0.25000000  1
  C  C11  1  0.76110000  0.76110000  0.23890000  1
  C  C12  1  0.23890000  0.76110000  0.23890000  1
  C  C13  1  0.76110000  0.23890000  0.23890000  1
  C  C14  1  0.23890000  0.23890000  0.76110000  1
  C  C15  1  0.76110000  0.23890000  0.76110000  1
  C  C16  1  0.23890000  0.76110000  0.76110000  1
