# generated using pymatgen
data_Cu(NiC3)2
_symmetry_space_group_name_H-M   'P 1'
_cell_length_a   14.30958000
_cell_length_b   14.30958000
_cell_length_c   9.65480350
_cell_angle_alpha   84.16868360
_cell_angle_beta   84.16868360
_cell_angle_gamma   103.93806917
_symmetry_Int_Tables_number   1
_chemical_formula_structural   Cu(NiC3)2
_chemical_formula_sum   'Cu6 Ni12 C36'
_cell_volume   1892.47782530
_cell_formula_units_Z   6
loop_
 _symmetry_equiv_pos_site_id
 _symmetry_equiv_pos_as_xyz
  1  'x, y, z'
loop_
 _atom_site_type_symbol
 _atom_site_label
 _atom_site_symmetry_multiplicity
 _atom_site_fract_x
 _atom_site_fract_y
 _atom_site_fract_z
 _atom_site_occupancy
  Ni  Ni0  1  0.06366400  0.30899700  0.49822000  1
  Ni  Ni1  1  0.09350500  0.75539100  0.38061000  1
  Ni  Ni2  1  0.34395600  0.66611400  0.47438200  1
  Ni  Ni3  1  0.90649500  0.24460900  0.61939000  1
  Ni  Ni4  1  0.69100300  0.93633600  0.00178000  1
  Ni  Ni5  1  0.93633600  0.69100300  0.50178000  1
  Ni  Ni6  1  0.75539100  0.09350500  0.88061000  1
  Ni  Ni7  1  0.65604400  0.33388600  0.52561800  1
  Ni  Ni8  1  0.66611400  0.34395600  0.97438200  1
  Ni  Ni9  1  0.30899700  0.06366400  0.99822000  1
  Ni  Ni10  1  0.24460900  0.90649500  0.11939000  1
  Ni  Ni11  1  0.33388600  0.65604400  0.02561800  1
  Cu  Cu12  1  0.60026800  0.75126100  0.63988600  1
  Cu  Cu13  1  0.95156900  0.04843100  0.25000000  1
  Cu  Cu14  1  0.24873900  0.39973200  0.86011400  1
  Cu  Cu15  1  0.75126100  0.60026800  0.13988600  1
  Cu  Cu16  1  0.39973200  0.24873900  0.36011400  1
  Cu  Cu17  1  0.04843100  0.95156900  0.75000000  1
  C  C18  1  0.69344700  0.30655300  0.75000000  1
  C  C19  1  0.30655300  0.69344700  0.25000000  1
  C  C20  1  0.05663600  0.31100400  0.23732500  1
  C  C21  1  0.94336400  0.68899600  0.76267500  1
  C  C22  1  0.18732000  0.15533100  0.07377600  1
  C  C23  1  0.31100400  0.05663600  0.73732500  1
  C  C24  1  0.26129900  0.47892300  0.50148300  1
  C  C25  1  0.16077400  0.58178400  0.98098900  1
  C  C26  1  0.63789400  0.51058400  0.89692600  1
  C  C27  1  0.15533100  0.18732000  0.57377600  1
  C  C28  1  0.36210600  0.48941600  0.10307400  1
  C  C29  1  0.00668200  0.41125300  0.68325100  1
  C  C30  1  0.31256500  0.82943500  0.91023900  1
  C  C31  1  0.41821600  0.83922600  0.51901100  1
  C  C32  1  0.82943500  0.31256500  0.41023900  1
  C  C33  1  0.94321800  0.16425600  0.88446800  1
  C  C34  1  0.83574400  0.05678200  0.61553200  1
  C  C35  1  0.47892300  0.26129900  0.00148300  1
  C  C36  1  0.84466900  0.81268000  0.42622400  1
  C  C37  1  0.16425600  0.94321800  0.38446800  1
  C  C38  1  0.58874700  0.99331800  0.81674900  1
  C  C39  1  0.61297200  0.38702800  0.25000000  1
  C  C40  1  0.58178400  0.16077400  0.48098900  1
  C  C41  1  0.17056500  0.68743500  0.58976100  1
  C  C42  1  0.38702800  0.61297200  0.75000000  1
  C  C43  1  0.41125300  0.00668200  0.18325100  1
  C  C44  1  0.51058400  0.63789400  0.39692600  1
  C  C45  1  0.81268000  0.84466900  0.92622400  1
  C  C46  1  0.99331800  0.58874700  0.31674900  1
  C  C47  1  0.48941600  0.36210600  0.60307400  1
  C  C48  1  0.52107700  0.73870100  0.99851700  1
  C  C49  1  0.73870100  0.52107700  0.49851700  1
  C  C50  1  0.83922600  0.41821600  0.01901100  1
  C  C51  1  0.05678200  0.83574400  0.11553200  1
  C  C52  1  0.68743500  0.17056500  0.08976100  1
  C  C53  1  0.68899600  0.94336400  0.26267500  1
