# generated using pymatgen
data_Cu2NiC7
_symmetry_space_group_name_H-M   'P 1'
_cell_length_a   29.02606718
_cell_length_b   29.02606709
_cell_length_c   29.02606780
_cell_angle_alpha   13.11321869
_cell_angle_beta   13.11321937
_cell_angle_gamma   13.11321864
_symmetry_Int_Tables_number   1
_chemical_formula_structural   Cu2NiC7
_chemical_formula_sum   'Cu8 Ni4 C28'
_cell_volume   1094.87336607
_cell_formula_units_Z   4
loop_
 _symmetry_equiv_pos_site_id
 _symmetry_equiv_pos_as_xyz
  1  'x, y, z'
loop_
 _atom_site_type_symbol
 _atom_site_label
 _atom_site_symmetry_multiplicity
 _atom_site_fract_x
 _atom_site_fract_y
 _atom_site_fract_z
 _atom_site_occupancy
  C  C0  1  0.86058043  0.86058043  0.86058043  1
  C  C1  1  0.04366781  0.04366781  0.04366781  1
  C  C2  1  0.13941957  0.13941957  0.13941957  1
  C  C3  1  0.95633219  0.95633219  0.95633219  1
  Ni  Ni4  1  0.54497205  0.54497205  0.54497205  1
  Ni  Ni5  1  0.29209994  0.29209994  0.29209994  1
  Ni  Ni6  1  0.45502795  0.45502795  0.45502795  1
  Ni  Ni7  1  0.70790006  0.70790006  0.70790006  1
  Cu  Cu8  1  0.38792640  0.38792640  0.38792640  1
  Cu  Cu9  1  0.77729442  0.77729442  0.77729442  1
  Cu  Cu10  1  0.63848660  0.63848660  0.63848660  1
  Cu  Cu11  1  0.61207360  0.61207360  0.61207360  1
  Cu  Cu12  1  0.22270558  0.22270558  0.22270558  1
  Cu  Cu13  1  0.19617189  0.19617189  0.19617189  1
  Cu  Cu14  1  0.36151340  0.36151340  0.36151340  1
  Cu  Cu15  1  0.80382811  0.80382811  0.80382811  1
  C  C16  1  0.69716960  0.31233542  0.05504967  1
  C  C17  1  0.36061883  0.73378233  0.09095311  1
  C  C18  1  0.57087306  0.93561921  0.18166439  1
  C  C19  1  0.49907902  0.80089255  0.13774806  1
  C  C20  1  0.42912694  0.06438079  0.81833561  1
  C  C21  1  0.13774806  0.49907902  0.80089255  1
  C  C22  1  0.30283040  0.68766458  0.94495033  1
  C  C23  1  0.18166439  0.57087306  0.93561921  1
  C  C24  1  0.86225194  0.50092098  0.19910745  1
  C  C25  1  0.09095311  0.36061883  0.73378233  1
  C  C26  1  0.73378233  0.09095311  0.36061883  1
  C  C27  1  0.06438079  0.81833561  0.42912694  1
  C  C28  1  0.26621767  0.90904689  0.63938117  1
  C  C29  1  0.31233542  0.05504967  0.69716960  1
  C  C30  1  0.05504967  0.69716960  0.31233542  1
  C  C31  1  0.80089255  0.13774806  0.49907902  1
  C  C32  1  0.50092098  0.19910745  0.86225194  1
  C  C33  1  0.94495033  0.30283040  0.68766458  1
  C  C34  1  0.81833561  0.42912694  0.06438079  1
  C  C35  1  0.90904689  0.63938117  0.26621767  1
  C  C36  1  0.19910745  0.86225194  0.50092098  1
  C  C37  1  0.68766458  0.94495033  0.30283040  1
  C  C38  1  0.63938117  0.26621767  0.90904689  1
  C  C39  1  0.93561921  0.18166439  0.57087306  1
