# generated using pymatgen
data_Cu4Ni3C16
_symmetry_space_group_name_H-M   'P 1'
_cell_length_a   8.19780300
_cell_length_b   8.19780300
_cell_length_c   8.19780300
_cell_angle_alpha   90.00000000
_cell_angle_beta   90.00000000
_cell_angle_gamma   90.00000000
_symmetry_Int_Tables_number   1
_chemical_formula_structural   Cu4Ni3C16
_chemical_formula_sum   'Cu8 Ni6 C32'
_cell_volume   550.92493989
_cell_formula_units_Z   2
loop_
 _symmetry_equiv_pos_site_id
 _symmetry_equiv_pos_as_xyz
  1  'x, y, z'
loop_
 _atom_site_type_symbol
 _atom_site_label
 _atom_site_symmetry_multiplicity
 _atom_site_fract_x
 _atom_site_fract_y
 _atom_site_fract_z
 _atom_site_occupancy
  Ni  Ni0  1  0.50000000  0.75000000  0.00000000  1
  Ni  Ni1  1  0.50000000  0.25000000  0.00000000  1
  Ni  Ni2  1  0.00000000  0.50000000  0.25000000  1
  Ni  Ni3  1  0.00000000  0.50000000  0.75000000  1
  Ni  Ni4  1  0.25000000  0.00000000  0.50000000  1
  Ni  Ni5  1  0.75000000  0.00000000  0.50000000  1
  Cu  Cu6  1  0.66581900  0.66581900  0.66581900  1
  Cu  Cu7  1  0.83418100  0.16581900  0.83418100  1
  Cu  Cu8  1  0.16581900  0.83418100  0.83418100  1
  Cu  Cu9  1  0.83418100  0.83418100  0.16581900  1
  Cu  Cu10  1  0.66581900  0.33418100  0.33418100  1
  Cu  Cu11  1  0.33418100  0.33418100  0.66581900  1
  Cu  Cu12  1  0.33418100  0.66581900  0.33418100  1
  Cu  Cu13  1  0.16581900  0.16581900  0.16581900  1
  C  C14  1  0.50000000  0.00000000  0.25000000  1
  C  C15  1  0.50000000  0.00000000  0.75000000  1
  C  C16  1  0.00000000  0.25000000  0.50000000  1
  C  C17  1  0.25000000  0.50000000  0.00000000  1
  C  C18  1  0.00000000  0.75000000  0.50000000  1
  C  C19  1  0.75000000  0.50000000  0.00000000  1
  C  C20  1  0.00000000  0.00000000  0.00000000  1
  C  C21  1  0.50000000  0.50000000  0.50000000  1
  C  C22  1  0.36221400  0.63809800  0.09298500  1
  C  C23  1  0.13809800  0.86221400  0.59298500  1
  C  C24  1  0.13809800  0.13778600  0.40701500  1
  C  C25  1  0.36190200  0.90701500  0.36221400  1
  C  C26  1  0.36190200  0.09298500  0.63778600  1
  C  C27  1  0.09298500  0.36221400  0.63809800  1
  C  C28  1  0.90701500  0.36221400  0.36190200  1
  C  C29  1  0.63778600  0.36190200  0.09298500  1
  C  C30  1  0.40701500  0.86190200  0.86221400  1
  C  C31  1  0.40701500  0.13809800  0.13778600  1
  C  C32  1  0.13778600  0.40701500  0.13809800  1
  C  C33  1  0.86221400  0.59298500  0.13809800  1
  C  C34  1  0.63809800  0.90701500  0.63778600  1
  C  C35  1  0.86221400  0.40701500  0.86190200  1
  C  C36  1  0.59298500  0.86190200  0.13778600  1
  C  C37  1  0.59298500  0.13809800  0.86221400  1
  C  C38  1  0.90701500  0.63778600  0.63809800  1
  C  C39  1  0.13778600  0.59298500  0.86190200  1
  C  C40  1  0.86190200  0.13778600  0.59298500  1
  C  C41  1  0.86190200  0.86221400  0.40701500  1
  C  C42  1  0.36221400  0.36190200  0.90701500  1
  C  C43  1  0.63778600  0.63809800  0.90701500  1
  C  C44  1  0.09298500  0.63778600  0.36190200  1
  C  C45  1  0.63809800  0.09298500  0.36221400  1
