# generated using pymatgen
data_Cu3Ni2C15
_symmetry_space_group_name_H-M   'P 1'
_cell_length_a   7.56292600
_cell_length_b   7.56292600
_cell_length_c   7.56292600
_cell_angle_alpha   90.00000000
_cell_angle_beta   90.00000000
_cell_angle_gamma   90.00000000
_symmetry_Int_Tables_number   1
_chemical_formula_structural   Cu3Ni2C15
_chemical_formula_sum   'Cu6 Ni4 C30'
_cell_volume   432.58310450
_cell_formula_units_Z   2
loop_
 _symmetry_equiv_pos_site_id
 _symmetry_equiv_pos_as_xyz
  1  'x, y, z'
loop_
 _atom_site_type_symbol
 _atom_site_label
 _atom_site_symmetry_multiplicity
 _atom_site_fract_x
 _atom_site_fract_y
 _atom_site_fract_z
 _atom_site_occupancy
  C  C0  1  0.00000000  0.00000000  0.00000000  1
  C  C1  1  0.50000000  0.50000000  0.50000000  1
  Ni  Ni2  1  0.25000000  0.75000000  0.25000000  1
  Ni  Ni3  1  0.75000000  0.75000000  0.75000000  1
  Ni  Ni4  1  0.25000000  0.25000000  0.75000000  1
  Ni  Ni5  1  0.75000000  0.25000000  0.25000000  1
  C  C6  1  0.75000000  0.75000000  0.25000000  1
  C  C7  1  0.25000000  0.75000000  0.75000000  1
  C  C8  1  0.75000000  0.25000000  0.75000000  1
  C  C9  1  0.25000000  0.25000000  0.25000000  1
  Cu  Cu10  1  0.50000000  0.00000000  0.00000000  1
  Cu  Cu11  1  0.00000000  0.00000000  0.50000000  1
  Cu  Cu12  1  0.50000000  0.50000000  0.00000000  1
  Cu  Cu13  1  0.00000000  0.50000000  0.50000000  1
  Cu  Cu14  1  0.00000000  0.50000000  0.00000000  1
  Cu  Cu15  1  0.50000000  0.00000000  0.50000000  1
  C  C16  1  0.69609400  0.99912000  0.17501500  1
  C  C17  1  0.32498500  0.80390600  0.50088000  1
  C  C18  1  0.67501500  0.80390600  0.49912000  1
  C  C19  1  0.99912000  0.82498500  0.30390600  1
  C  C20  1  0.69609400  0.00088000  0.82498500  1
  C  C21  1  0.49912000  0.67501500  0.80390600  1
  C  C22  1  0.00088000  0.82498500  0.69609400  1
  C  C23  1  0.80390600  0.49912000  0.67501500  1
  C  C24  1  0.50088000  0.67501500  0.19609400  1
  C  C25  1  0.82498500  0.69609400  0.00088000  1
  C  C26  1  0.19609400  0.50088000  0.67501500  1
  C  C27  1  0.17501500  0.69609400  0.99912000  1
  C  C28  1  0.82498500  0.30390600  0.99912000  1
  C  C29  1  0.80390600  0.50088000  0.32498500  1
  C  C30  1  0.17501500  0.30390600  0.00088000  1
  C  C31  1  0.50088000  0.32498500  0.80390600  1
  C  C32  1  0.19609400  0.49912000  0.32498500  1
  C  C33  1  0.00088000  0.17501500  0.30390600  1
  C  C34  1  0.49912000  0.32498500  0.19609400  1
  C  C35  1  0.30390600  0.00088000  0.17501500  1
  C  C36  1  0.99912000  0.17501500  0.69609400  1
  C  C37  1  0.32498500  0.19609400  0.49912000  1
  C  C38  1  0.67501500  0.19609400  0.50088000  1
  C  C39  1  0.30390600  0.99912000  0.82498500  1
