# generated using pymatgen
data_Cu2Ni4C13
_symmetry_space_group_name_H-M   'P 1'
_cell_length_a   9.53843138
_cell_length_b   9.68130099
_cell_length_c   11.34695894
_cell_angle_alpha   108.57332504
_cell_angle_beta   83.67585178
_cell_angle_gamma   105.40042622
_symmetry_Int_Tables_number   1
_chemical_formula_structural   Cu2Ni4C13
_chemical_formula_sum   'Cu8 Ni16 C52'
_cell_volume   957.21499762
_cell_formula_units_Z   4
loop_
 _symmetry_equiv_pos_site_id
 _symmetry_equiv_pos_as_xyz
  1  'x, y, z'
loop_
 _atom_site_type_symbol
 _atom_site_label
 _atom_site_symmetry_multiplicity
 _atom_site_fract_x
 _atom_site_fract_y
 _atom_site_fract_z
 _atom_site_occupancy
  C  C0  1  0.67446000  0.74290900  0.42893600  1
  C  C1  1  0.92419700  0.49293500  0.67878300  1
  C  C2  1  0.17423100  0.24284400  0.92880500  1
  C  C3  1  0.42439100  0.99308200  0.17893900  1
  C  C4  1  0.07557900  0.50698200  0.32121700  1
  C  C5  1  0.32569800  0.25689900  0.57116900  1
  C  C6  1  0.57578000  0.00723500  0.82120200  1
  C  C7  1  0.82571900  0.75713700  0.07095500  1
  C  C8  1  0.37502000  0.62525600  0.87514700  1
  C  C9  1  0.62493000  0.37516300  0.12502700  1
  C  C10  1  0.87491600  0.12464500  0.37474700  1
  C  C11  1  0.12511900  0.87491500  0.62502000  1
  Ni  Ni12  1  0.68027400  0.08130000  0.55246300  1
  Ni  Ni13  1  0.93009300  0.83175000  0.80270600  1
  Ni  Ni14  1  0.18036100  0.58083100  0.05242000  1
  Ni  Ni15  1  0.43027200  0.33110100  0.30252800  1
  Ni  Ni16  1  0.06983200  0.16868500  0.19736200  1
  Ni  Ni17  1  0.31993600  0.91822900  0.44733800  1
  Ni  Ni18  1  0.56965100  0.66920700  0.69765000  1
  Ni  Ni19  1  0.81958900  0.41887600  0.94754700  1
  Ni  Ni20  1  0.61024100  0.11664400  0.44963300  1
  Ni  Ni21  1  0.86010200  0.86659700  0.69963300  1
  Ni  Ni22  1  0.11022800  0.61656700  0.94982700  1
  Ni  Ni23  1  0.36006000  0.36671700  0.19992500  1
  Ni  Ni24  1  0.13996400  0.13340100  0.30016300  1
  Ni  Ni25  1  0.39003600  0.88337400  0.55033700  1
  Ni  Ni26  1  0.63968200  0.63327800  0.80021500  1
  Ni  Ni27  1  0.88964600  0.38344900  0.05034000  1
  Cu  Cu28  1  0.05253200  0.85985500  0.33076900  1
  Cu  Cu29  1  0.30267400  0.60991900  0.58085200  1
  Cu  Cu30  1  0.55235900  0.36003300  0.83080600  1
  Cu  Cu31  1  0.80238000  0.11014700  0.08080000  1
  Cu  Cu32  1  0.69755300  0.38990700  0.41910300  1
  Cu  Cu33  1  0.94744800  0.13990800  0.66910800  1
  Cu  Cu34  1  0.19765400  0.89000900  0.91921400  1
  Cu  Cu35  1  0.44743300  0.64023700  0.16934900  1
  C  C36  1  0.77893100  0.05366700  0.19181600  1
  C  C37  1  0.02901100  0.80360200  0.44187300  1
  C  C38  1  0.27924800  0.55360400  0.69190700  1
  C  C39  1  0.52906300  0.30377800  0.94195600  1
  C  C40  1  0.97091600  0.19615700  0.55802000  1
  C  C41  1  0.22112500  0.94630200  0.80809700  1
  C  C42  1  0.47078400  0.69654700  0.05821600  1
  C  C43  1  0.72091500  0.44635600  0.30809700  1
  C  C44  1  0.31878300  0.48728100  0.46761300  1
  C  C45  1  0.56848100  0.23729600  0.71755400  1
  C  C46  1  0.81850200  0.98755000  0.96746400  1
  C  C47  1  0.06893200  0.73717600  0.21760700  1
  C  C48  1  0.43114100  0.76290600  0.28257100  1
  C  C49  1  0.68161500  0.51251700  0.53242100  1
  C  C50  1  0.93127100  0.26259900  0.78230700  1
  C  C51  1  0.18128500  0.01268100  0.03243800  1
  C  C52  1  0.18209200  0.99154600  0.34819700  1
  C  C53  1  0.43244700  0.74146900  0.59822100  1
  C  C54  1  0.68211000  0.49165600  0.84811200  1
  C  C55  1  0.93210100  0.24173700  0.09822000  1
  C  C56  1  0.56772600  0.25841900  0.40175300  1
  C  C57  1  0.81771200  0.00835700  0.65175200  1
  C  C58  1  0.06804800  0.75831200  0.90181800  1
  C  C59  1  0.31777700  0.50852200  0.15193600  1
  C  C60  1  0.91795500  0.90939700  0.31948700  1
  C  C61  1  0.16820500  0.65985200  0.56985500  1
  C  C62  1  0.41778000  0.40980600  0.81981000  1
  C  C63  1  0.66784400  0.16001500  0.06984100  1
  C  C64  1  0.83198700  0.33982600  0.42993300  1
  C  C65  1  0.08188300  0.09009500  0.68025100  1
  C  C66  1  0.33228800  0.84040400  0.93037800  1
  C  C67  1  0.58206700  0.59055200  0.18041700  1
  C  C68  1  0.66647500  0.04986300  0.46262900  1
  C  C69  1  0.91650600  0.80008200  0.71284300  1
  C  C70  1  0.16650300  0.54969700  0.96262200  1
  C  C71  1  0.41643500  0.29995000  0.21271500  1
  C  C72  1  0.08349800  0.19999600  0.28719400  1
  C  C73  1  0.33355300  0.94985900  0.53721100  1
  C  C74  1  0.58353400  0.70027100  0.78745300  1
  C  C75  1  0.83343100  0.45027100  0.03736100  1
