# generated using pymatgen
data_Cu2NiC27
_symmetry_space_group_name_H-M   'P 1'
_cell_length_a   5.68833558
_cell_length_b   5.68833558
_cell_length_c   13.96448000
_cell_angle_alpha   90.00000000
_cell_angle_beta   90.00000000
_cell_angle_gamma   119.99999515
_symmetry_Int_Tables_number   1
_chemical_formula_structural   Cu2NiC27
_chemical_formula_sum   'Cu2 Ni1 C27'
_cell_volume   391.31440973
_cell_formula_units_Z   1
loop_
 _symmetry_equiv_pos_site_id
 _symmetry_equiv_pos_as_xyz
  1  'x, y, z'
loop_
 _atom_site_type_symbol
 _atom_site_label
 _atom_site_symmetry_multiplicity
 _atom_site_fract_x
 _atom_site_fract_y
 _atom_site_fract_z
 _atom_site_occupancy
  Ni  Ni0  1  0.00000000  0.00000000  0.50000000  1
  C  C1  1  0.66666700  0.33333300  0.83709400  1
  C  C2  1  0.00000000  0.00000000  0.00000000  1
  C  C3  1  0.33333300  0.66666700  0.16290600  1
  Cu  Cu4  1  0.66666700  0.33333300  0.33616100  1
  Cu  Cu5  1  0.33333300  0.66666700  0.66383900  1
  C  C6  1  0.00000000  0.00000000  0.75254500  1
  C  C7  1  0.33333300  0.66666700  0.91952900  1
  C  C8  1  0.66666700  0.33333300  0.08047100  1
  C  C9  1  0.00000000  0.00000000  0.24745500  1
  C  C10  1  0.33333300  0.66666700  0.41582700  1
  C  C11  1  0.66666700  0.33333300  0.58417300  1
  C  C12  1  0.83369000  0.66738000  0.91843700  1
  C  C13  1  0.33262000  0.16631000  0.91843700  1
  C  C14  1  0.83369000  0.16631000  0.91843700  1
  C  C15  1  0.16631000  0.33262000  0.08156300  1
  C  C16  1  0.66738000  0.83369000  0.08156300  1
  C  C17  1  0.16631000  0.83369000  0.08156300  1
  C  C18  1  0.49711900  0.99423900  0.24500400  1
  C  C19  1  0.00576100  0.50288100  0.24500400  1
  C  C20  1  0.49711900  0.50288100  0.24500400  1
  C  C21  1  0.83129400  0.66258800  0.41237100  1
  C  C22  1  0.33741200  0.16870600  0.41237100  1
  C  C23  1  0.83129400  0.16870600  0.41237100  1
  C  C24  1  0.16870600  0.33741200  0.58762900  1
  C  C25  1  0.66258800  0.83129400  0.58762900  1
  C  C26  1  0.16870600  0.83129400  0.58762900  1
  C  C27  1  0.50288100  0.00576100  0.75499600  1
  C  C28  1  0.99423900  0.49711900  0.75499600  1
  C  C29  1  0.50288100  0.49711900  0.75499600  1
