# generated using pymatgen
data_Cu3Ni13
_symmetry_space_group_name_H-M   'P 1'
_cell_length_a   13.06092985
_cell_length_b   13.06092985
_cell_length_c   18.77056600
_cell_angle_alpha   90.00000000
_cell_angle_beta   90.00000000
_cell_angle_gamma   119.99999922
_symmetry_Int_Tables_number   1
_chemical_formula_structural   Cu3Ni13
_chemical_formula_sum   'Cu36 Ni156'
_cell_volume   2773.04040118
_cell_formula_units_Z   12
loop_
 _symmetry_equiv_pos_site_id
 _symmetry_equiv_pos_as_xyz
  1  'x, y, z'
loop_
 _atom_site_type_symbol
 _atom_site_label
 _atom_site_symmetry_multiplicity
 _atom_site_fract_x
 _atom_site_fract_y
 _atom_site_fract_z
 _atom_site_occupancy
  Ni  Ni0  1  0.89796800  0.64262900  0.82572200  1
  Ni  Ni1  1  0.67217200  0.84744200  0.21268800  1
  Ni  Ni2  1  0.47643500  0.45171400  0.25000000  1
  Ni  Ni3  1  0.69992400  0.45514300  0.95944800  1
  Ni  Ni4  1  0.63792500  0.63044600  0.75000000  1
  Ni  Ni5  1  0.17527000  0.32782800  0.21268800  1
  Ni  Ni6  1  0.58032300  0.36931900  0.95940900  1
  Ni  Ni7  1  0.24478100  0.69992400  0.45944800  1
  Ni  Ni8  1  0.51781500  0.97613400  0.68343500  1
  Ni  Ni9  1  0.48677300  0.94799100  0.37608200  1
  Ni  Ni10  1  0.95209800  0.28630800  0.81663400  1
  Ni  Ni11  1  0.97527900  0.52356500  0.25000000  1
  Ni  Ni12  1  0.63044600  0.99252000  0.25000000  1
  Ni  Ni13  1  0.53878200  0.48677300  0.87608200  1
  Ni  Ni14  1  0.02386600  0.54168100  0.68343500  1
  Ni  Ni15  1  0.66579000  0.95209800  0.31663400  1
  Ni  Ni16  1  0.61365100  0.64210200  0.28729100  1
  Ni  Ni17  1  0.88681400  0.50081100  0.91843300  1
  Ni  Ni18  1  0.94799100  0.46121800  0.87608200  1
  Ni  Ni19  1  0.26397700  0.87212900  0.40241800  1
  Ni  Ni20  1  0.38600400  0.88681400  0.08156700  1
  Ni  Ni21  1  0.51322700  0.05200900  0.62391800  1
  Ni  Ni22  1  0.02472100  0.47643500  0.75000000  1
  Ni  Ni23  1  0.08648700  0.66188100  0.12384000  1
  Ni  Ni24  1  0.05200900  0.53878200  0.12391800  1
  Ni  Ni25  1  0.61365100  0.64210200  0.21270900  1
  Ni  Ni26  1  0.48677300  0.94799100  0.12391800  1
  Ni  Ni27  1  0.32782800  0.15255800  0.78731200  1
  Ni  Ni28  1  0.74466100  0.10203200  0.82572200  1
  Ni  Ni29  1  0.71369200  0.66579000  0.81663400  1
  Ni  Ni30  1  0.64210200  0.02845100  0.78729100  1
  Ni  Ni31  1  0.17527000  0.32782800  0.28731200  1
  Ni  Ni32  1  0.46121800  0.51322700  0.12391800  1
  Ni  Ni33  1  0.46121800  0.51322700  0.37608200  1
  Ni  Ni34  1  0.75521900  0.30007600  0.54055200  1
  Ni  Ni35  1  0.35737100  0.25533900  0.67427800  1
  Ni  Ni36  1  0.84744200  0.17527000  0.78731200  1
  Ni  Ni37  1  0.38634900  0.35789800  0.71270900  1
  Ni  Ni38  1  0.12787100  0.39184800  0.09758200  1
  Ni  Ni39  1  0.25533900  0.89796800  0.32572200  1
  Ni  Ni40  1  0.26397700  0.87212900  0.09758200  1
  Ni  Ni41  1  0.73602300  0.12787100  0.90241800  1
  Ni  Ni42  1  0.66188100  0.57539400  0.87616000  1
  Ni  Ni43  1  0.12787100  0.39184800  0.40241800  1
  Ni  Ni44  1  0.73602300  0.12787100  0.59758200  1
  Ni  Ni45  1  0.64262900  0.74466100  0.17427800  1
  Ni  Ni46  1  0.08648700  0.66188100  0.37616000  1
  Ni  Ni47  1  0.45514300  0.75521900  0.45944800  1
  Ni  Ni48  1  0.84744200  0.17527000  0.71268800  1
  Ni  Ni49  1  0.35737100  0.25533900  0.82572200  1
  Ni  Ni50  1  0.75521900  0.30007600  0.95944800  1
  Ni  Ni51  1  0.21100300  0.58032300  0.04059100  1
  Ni  Ni52  1  0.36931900  0.78899700  0.04059100  1
  Ni  Ni53  1  0.21100300  0.58032300  0.45940900  1
  Ni  Ni54  1  0.64210200  0.02845100  0.71270900  1
  Ni  Ni55  1  0.74466100  0.10203200  0.67427800  1
  Ni  Ni56  1  0.32782800  0.15255800  0.71268800  1
  Ni  Ni57  1  0.04790200  0.71369200  0.18336600  1
  Ni  Ni58  1  0.99252000  0.36207500  0.75000000  1
  Ni  Ni59  1  0.00748000  0.63792500  0.25000000  1
  Ni  Ni60  1  0.50081100  0.61399600  0.08156700  1
  Ni  Ni61  1  0.55904700  0.81845500  0.08137000  1
  Ni  Ni62  1  0.02845100  0.38634900  0.21270900  1
  Ni  Ni63  1  0.94799100  0.46121800  0.62391800  1
  Ni  Ni64  1  0.15255800  0.82473000  0.28731200  1
  Ni  Ni65  1  0.88681400  0.50081100  0.58156700  1
  Ni  Ni66  1  0.02386600  0.54168100  0.81656500  1
  Ni  Ni67  1  0.53878200  0.48677300  0.62391800  1
  Ni  Ni68  1  0.15255800  0.82473000  0.21268800  1
  Ni  Ni69  1  0.30007600  0.54485700  0.04055200  1
  Ni  Ni70  1  0.91351300  0.33811900  0.62384000  1
  Ni  Ni71  1  0.49918900  0.38600400  0.91843300  1
  Ni  Ni72  1  0.95209800  0.28630800  0.68336600  1
  Ni  Ni73  1  0.38634900  0.35789800  0.78729100  1
  Ni  Ni74  1  0.02845100  0.38634900  0.28729100  1
  Ni  Ni75  1  0.51781500  0.97613400  0.81656500  1
  Ni  Ni76  1  0.28630800  0.33421000  0.31663400  1
  Ni  Ni77  1  0.58032300  0.36931900  0.54059100  1
  Ni  Ni78  1  0.97154900  0.61365100  0.71270900  1
  Ni  Ni79  1  0.04790200  0.71369200  0.31663400  1
  Ni  Ni80  1  0.30007600  0.54485700  0.45944800  1
  Ni  Ni81  1  0.69992400  0.45514300  0.54055200  1
  Ni  Ni82  1  0.28630800  0.33421000  0.18336600  1
  Ni  Ni83  1  0.51322700  0.05200900  0.87608200  1
  Ni  Ni84  1  0.89796800  0.64262900  0.67427800  1
  Ni  Ni85  1  0.52356500  0.54828600  0.75000000  1
  Ni  Ni86  1  0.97613400  0.45831900  0.18343500  1
  Ni  Ni87  1  0.66188100  0.57539400  0.62384000  1
  Ni  Ni88  1  0.39184800  0.26397700  0.59758200  1
  Ni  Ni89  1  0.35789800  0.97154900  0.21270900  1
  Ni  Ni90  1  0.57539400  0.91351300  0.37616000  1
  Ni  Ni91  1  0.36955400  0.00748000  0.75000000  1
  Ni  Ni92  1  0.91351300  0.33811900  0.87616000  1
  Ni  Ni93  1  0.54168100  0.51781500  0.18343500  1
  Ni  Ni94  1  0.45831900  0.48218500  0.81656500  1
  Ni  Ni95  1  0.11318600  0.49918900  0.08156700  1
  Ni  Ni96  1  0.25533900  0.89796800  0.17427800  1
  Ni  Ni97  1  0.67217200  0.84744200  0.28731200  1
  Ni  Ni98  1  0.78899700  0.41967700  0.95940900  1
  Ni  Ni99  1  0.10203200  0.35737100  0.32572200  1
  Ni  Ni100  1  0.44095300  0.18154500  0.58137000  1
  Ni  Ni101  1  0.57539400  0.91351300  0.12384000  1
  Ni  Ni102  1  0.81845500  0.25940800  0.58137000  1
  Ni  Ni103  1  0.48218500  0.02386600  0.31656500  1
  Ni  Ni104  1  0.54485700  0.24478100  0.95944800  1
  Ni  Ni105  1  0.54828600  0.02472100  0.25000000  1
  Ni  Ni106  1  0.64262900  0.74466100  0.32572200  1
  Ni  Ni107  1  0.18154500  0.74059200  0.08137000  1
  Ni  Ni108  1  0.60815200  0.73602300  0.40241800  1
  Ni  Ni109  1  0.54168100  0.51781500  0.31656500  1
  Ni  Ni110  1  0.74059200  0.55904700  0.58137000  1
  Ni  Ni111  1  0.25940800  0.44095300  0.08137000  1
  Ni  Ni112  1  0.82473000  0.67217200  0.71268800  1
  Ni  Ni113  1  0.44095300  0.18154500  0.91863000  1
  Ni  Ni114  1  0.61399600  0.11318600  0.91843300  1
  Ni  Ni115  1  0.42460600  0.08648700  0.62384000  1
  Ni  Ni116  1  0.33421000  0.04790200  0.81663400  1
  Ni  Ni117  1  0.87212900  0.60815200  0.59758200  1
  Ni  Ni118  1  0.87212900  0.60815200  0.90241800  1
  Ni  Ni119  1  0.18154500  0.74059200  0.41863000  1
  Ni  Ni120  1  0.42460600  0.08648700  0.87616000  1
  Ni  Ni121  1  0.97613400  0.45831900  0.31656500  1
  Ni  Ni122  1  0.61399600  0.11318600  0.58156700  1
  Ni  Ni123  1  0.10203200  0.35737100  0.17427800  1
  Ni  Ni124  1  0.97154900  0.61365100  0.78729100  1
  Ni  Ni125  1  0.82473000  0.67217200  0.78731200  1
  Ni  Ni126  1  0.74059200  0.55904700  0.91863000  1
  Ni  Ni127  1  0.71369200  0.66579000  0.68336600  1
  Ni  Ni128  1  0.50081100  0.61399600  0.41843300  1
  Ni  Ni129  1  0.49918900  0.38600400  0.58156700  1
  Ni  Ni130  1  0.41967700  0.63068100  0.45940900  1
  Ni  Ni131  1  0.54485700  0.24478100  0.54055200  1
  Ni  Ni132  1  0.60815200  0.73602300  0.09758200  1
  Ni  Ni133  1  0.41967700  0.63068100  0.04059100  1
  Ni  Ni134  1  0.81845500  0.25940800  0.91863000  1
  Ni  Ni135  1  0.35789800  0.97154900  0.28729100  1
  Ni  Ni136  1  0.55904700  0.81845500  0.41863000  1
  Ni  Ni137  1  0.36207500  0.36955400  0.25000000  1
  Ni  Ni138  1  0.25940800  0.44095300  0.41863000  1
  Ni  Ni139  1  0.78899700  0.41967700  0.54059100  1
  Ni  Ni140  1  0.33421000  0.04790200  0.68336600  1
  Ni  Ni141  1  0.33811900  0.42460600  0.37616000  1
  Ni  Ni142  1  0.11318600  0.49918900  0.41843300  1
  Ni  Ni143  1  0.63068100  0.21100300  0.95940900  1
  Ni  Ni144  1  0.45831900  0.48218500  0.68343500  1
  Ni  Ni145  1  0.38600400  0.88681400  0.41843300  1
  Ni  Ni146  1  0.45171400  0.97527900  0.75000000  1
  Ni  Ni147  1  0.45514300  0.75521900  0.04055200  1
  Ni  Ni148  1  0.24478100  0.69992400  0.04055200  1
  Ni  Ni149  1  0.36931900  0.78899700  0.45940900  1
  Ni  Ni150  1  0.33811900  0.42460600  0.12384000  1
  Ni  Ni151  1  0.39184800  0.26397700  0.90241800  1
  Ni  Ni152  1  0.66579000  0.95209800  0.18336600  1
  Ni  Ni153  1  0.48218500  0.02386600  0.18343500  1
  Ni  Ni154  1  0.05200900  0.53878200  0.37608200  1
  Ni  Ni155  1  0.63068100  0.21100300  0.54059100  1
  Cu  Cu156  1  0.73393700  0.76739700  0.04034200  1
  Cu  Cu157  1  0.03346000  0.26606300  0.04034200  1
  Cu  Cu158  1  0.23260300  0.96654000  0.45965800  1
  Cu  Cu159  1  0.74497900  0.81092600  0.65070500  1
  Cu  Cu160  1  0.76739700  0.03346000  0.54034200  1
  Cu  Cu161  1  0.93405200  0.74497900  0.15070500  1
  Cu  Cu162  1  0.35953300  0.53342700  0.84953800  1
  Cu  Cu163  1  0.35953300  0.53342700  0.65046200  1
  Cu  Cu164  1  0.25502100  0.18907400  0.15070500  1
  Cu  Cu165  1  0.64046700  0.46657300  0.34953800  1
  Cu  Cu166  1  0.76739700  0.03346000  0.95965800  1
  Cu  Cu167  1  0.64046700  0.46657300  0.15046200  1
  Cu  Cu168  1  0.82610600  0.35953300  0.34953800  1
  Cu  Cu169  1  0.06594800  0.25502100  0.65070500  1
  Cu  Cu170  1  0.53342700  0.17389400  0.34953800  1
  Cu  Cu171  1  0.46657300  0.82610600  0.84953800  1
  Cu  Cu172  1  0.81092600  0.06594800  0.34929500  1
  Cu  Cu173  1  0.53342700  0.17389400  0.15046200  1
  Cu  Cu174  1  0.96654000  0.73393700  0.95965800  1
  Cu  Cu175  1  0.82610600  0.35953300  0.15046200  1
  Cu  Cu176  1  0.17389400  0.64046700  0.65046200  1
  Cu  Cu177  1  0.26606300  0.23260300  0.95965800  1
  Cu  Cu178  1  0.93405200  0.74497900  0.34929500  1
  Cu  Cu179  1  0.18907400  0.93405200  0.84929500  1
  Cu  Cu180  1  0.18907400  0.93405200  0.65070500  1
  Cu  Cu181  1  0.81092600  0.06594800  0.15070500  1
  Cu  Cu182  1  0.25502100  0.18907400  0.34929500  1
  Cu  Cu183  1  0.26606300  0.23260300  0.54034200  1
  Cu  Cu184  1  0.17389400  0.64046700  0.84953800  1
  Cu  Cu185  1  0.03346000  0.26606300  0.45965800  1
  Cu  Cu186  1  0.23260300  0.96654000  0.04034200  1
  Cu  Cu187  1  0.96654000  0.73393700  0.54034200  1
  Cu  Cu188  1  0.74497900  0.81092600  0.84929500  1
  Cu  Cu189  1  0.46657300  0.82610600  0.65046200  1
  Cu  Cu190  1  0.73393700  0.76739700  0.45965800  1
  Cu  Cu191  1  0.06594800  0.25502100  0.84929500  1
