# generated using pymatgen
data_Cu3NiC7
_symmetry_space_group_name_H-M   'P 1'
_cell_length_a   6.83199823
_cell_length_b   6.83199823
_cell_length_c   6.83199919
_cell_angle_alpha   90.78646090
_cell_angle_beta   90.78646090
_cell_angle_gamma   90.78646404
_symmetry_Int_Tables_number   1
_chemical_formula_structural   Cu3NiC7
_chemical_formula_sum   'Cu6 Ni2 C14'
_cell_volume   318.80080234
_cell_formula_units_Z   2
loop_
 _symmetry_equiv_pos_site_id
 _symmetry_equiv_pos_as_xyz
  1  'x, y, z'
loop_
 _atom_site_type_symbol
 _atom_site_label
 _atom_site_symmetry_multiplicity
 _atom_site_fract_x
 _atom_site_fract_y
 _atom_site_fract_z
 _atom_site_occupancy
  Ni  Ni0  1  0.75000000  0.75000000  0.75000000  1
  Ni  Ni1  1  0.25000000  0.25000000  0.25000000  1
  Cu  Cu2  1  0.25000000  0.89213400  0.60786600  1
  Cu  Cu3  1  0.60786600  0.25000000  0.89213400  1
  Cu  Cu4  1  0.89213400  0.60786600  0.25000000  1
  Cu  Cu5  1  0.75000000  0.10786600  0.39213400  1
  Cu  Cu6  1  0.39213400  0.75000000  0.10786600  1
  Cu  Cu7  1  0.10786600  0.39213400  0.75000000  1
  C  C8  1  0.50000000  0.50000000  0.50000000  1
  C  C9  1  0.00000000  0.00000000  0.00000000  1
  C  C10  1  0.94432800  0.27935100  0.07678000  1
  C  C11  1  0.07678000  0.94432800  0.27935100  1
  C  C12  1  0.27935100  0.07678000  0.94432800  1
  C  C13  1  0.55567200  0.42322000  0.22064900  1
  C  C14  1  0.22064900  0.55567200  0.42322000  1
  C  C15  1  0.42322000  0.22064900  0.55567200  1
  C  C16  1  0.05567200  0.72064900  0.92322000  1
  C  C17  1  0.92322000  0.05567200  0.72064900  1
  C  C18  1  0.72064900  0.92322000  0.05567200  1
  C  C19  1  0.44432800  0.57678000  0.77935100  1
  C  C20  1  0.57678000  0.77935100  0.44432800  1
  C  C21  1  0.77935100  0.44432800  0.57678000  1
