# generated using pymatgen
data_CuNiC5
_symmetry_space_group_name_H-M   'P 1'
_cell_length_a   10.58799779
_cell_length_b   10.58799779
_cell_length_c   11.38497300
_cell_angle_alpha   90.00000000
_cell_angle_beta   90.00000000
_cell_angle_gamma   119.99999868
_symmetry_Int_Tables_number   1
_chemical_formula_structural   CuNiC5
_chemical_formula_sum   'Cu12 Ni12 C60'
_cell_volume   1105.32584868
_cell_formula_units_Z   12
loop_
 _symmetry_equiv_pos_site_id
 _symmetry_equiv_pos_as_xyz
  1  'x, y, z'
loop_
 _atom_site_type_symbol
 _atom_site_label
 _atom_site_symmetry_multiplicity
 _atom_site_fract_x
 _atom_site_fract_y
 _atom_site_fract_z
 _atom_site_occupancy
  C  C0  1  0.50000000  0.00000000  0.00000000  1
  C  C1  1  0.50000000  0.50000000  0.66666700  1
  C  C2  1  0.00000000  0.50000000  0.33333300  1
  C  C3  1  0.00000000  0.00000000  0.50000000  1
  C  C4  1  0.00000000  0.00000000  0.16666700  1
  C  C5  1  0.00000000  0.00000000  0.83333300  1
  C  C6  1  0.50000000  0.00000000  0.32805500  1
  C  C7  1  0.50000000  0.50000000  0.99472200  1
  C  C8  1  0.00000000  0.50000000  0.66138900  1
  C  C9  1  0.50000000  0.00000000  0.67194500  1
  C  C10  1  0.50000000  0.50000000  0.33861100  1
  C  C11  1  0.00000000  0.50000000  0.00527800  1
  Ni  Ni12  1  0.25096300  0.25096300  0.16666700  1
  Ni  Ni13  1  0.00000000  0.74903700  0.83333300  1
  Ni  Ni14  1  0.00000000  0.25096300  0.83333300  1
  Ni  Ni15  1  0.25096300  0.00000000  0.50000000  1
  Ni  Ni16  1  0.74903700  0.74903700  0.16666700  1
  Ni  Ni17  1  0.74903700  0.00000000  0.50000000  1
  Ni  Ni18  1  0.25119300  0.50238600  0.50000000  1
  Ni  Ni19  1  0.74880700  0.25119300  0.16666700  1
  Ni  Ni20  1  0.50238600  0.25119300  0.83333300  1
  Ni  Ni21  1  0.49761400  0.74880700  0.83333300  1
  Ni  Ni22  1  0.25119300  0.74880700  0.16666700  1
  Ni  Ni23  1  0.74880700  0.49761400  0.50000000  1
  Cu  Cu24  1  0.24743600  0.00000000  0.00000000  1
  Cu  Cu25  1  0.24743600  0.24743600  0.66666700  1
  Cu  Cu26  1  0.00000000  0.75256400  0.33333300  1
  Cu  Cu27  1  0.00000000  0.24743600  0.33333300  1
  Cu  Cu28  1  0.75256400  0.75256400  0.66666700  1
  Cu  Cu29  1  0.75256400  0.00000000  0.00000000  1
  Cu  Cu30  1  0.24826500  0.49653100  0.00000000  1
  Cu  Cu31  1  0.75173500  0.24826500  0.66666700  1
  Cu  Cu32  1  0.49653100  0.24826500  0.33333300  1
  Cu  Cu33  1  0.50346900  0.75173500  0.33333300  1
  Cu  Cu34  1  0.24826500  0.75173500  0.66666700  1
  Cu  Cu35  1  0.75173500  0.50346900  0.00000000  1
  C  C36  1  0.89422800  0.29377700  0.26268600  1
  C  C37  1  0.59183400  0.39179900  0.41573700  1
  C  C38  1  0.60820100  0.20003500  0.74907000  1
  C  C39  1  0.79996500  0.40816600  0.08240400  1
  C  C40  1  0.20003500  0.59183400  0.08240400  1
  C  C41  1  0.40816600  0.79996500  0.25093000  1
  C  C42  1  0.40816600  0.60820100  0.41573700  1
  C  C43  1  0.39179900  0.79996500  0.74907000  1
  C  C44  1  0.60820100  0.40816600  0.91759600  1
  C  C45  1  0.79996500  0.39179900  0.58426300  1
  C  C46  1  0.20003500  0.60820100  0.58426300  1
  C  C47  1  0.39179900  0.59183400  0.91759600  1
  C  C48  1  0.59183400  0.20003500  0.25093000  1
  C  C49  1  0.39954800  0.29377700  0.73731400  1
  C  C50  1  0.70622300  0.10577200  0.07064800  1
  C  C51  1  0.89422800  0.60045200  0.40398100  1
  C  C52  1  0.10577200  0.39954800  0.40398100  1
  C  C53  1  0.60045200  0.89422800  0.92935200  1
  C  C54  1  0.60045200  0.70622300  0.73731400  1
  C  C55  1  0.39956800  0.30295700  0.26027600  1
  C  C56  1  0.70622300  0.60045200  0.59601900  1
  C  C57  1  0.10577200  0.70622300  0.26268600  1
  C  C58  1  0.29377700  0.39954800  0.59601900  1
  C  C59  1  0.39954800  0.10577200  0.92935200  1
  C  C60  1  0.19784900  0.08701900  0.09076000  1
  C  C61  1  0.11083000  0.19784900  0.75742700  1
  C  C62  1  0.08701900  0.88917000  0.42409400  1
  C  C63  1  0.91298100  0.11083000  0.42409400  1
  C  C64  1  0.88917000  0.80215100  0.75742700  1
  C  C65  1  0.11083000  0.91298100  0.90924000  1
  C  C66  1  0.80215100  0.88917000  0.57590600  1
  C  C67  1  0.80215100  0.91298100  0.09076000  1
  C  C68  1  0.08701900  0.19784900  0.24257300  1
  C  C69  1  0.91298100  0.80215100  0.24257300  1
  C  C70  1  0.88917000  0.08701900  0.90924000  1
  C  C71  1  0.19784900  0.11083000  0.57590600  1
  C  C72  1  0.39956800  0.09661100  0.40639100  1
  C  C73  1  0.30295700  0.39956800  0.07305700  1
  C  C74  1  0.09661100  0.69704300  0.73972400  1
  C  C75  1  0.90338900  0.30295700  0.73972400  1
  C  C76  1  0.69704300  0.60043200  0.07305700  1
  C  C77  1  0.30295700  0.90338900  0.59360900  1
  C  C78  1  0.60043200  0.69704300  0.26027600  1
  C  C79  1  0.60043200  0.90338900  0.40639100  1
  C  C80  1  0.09661100  0.39956800  0.92694300  1
  C  C81  1  0.90338900  0.60043200  0.92694300  1
  C  C82  1  0.69704300  0.09661100  0.59360900  1
  C  C83  1  0.29377700  0.89422800  0.07064800  1
