# generated using pymatgen
data_Cu2NiC4
_symmetry_space_group_name_H-M   'P 1'
_cell_length_a   6.36086867
_cell_length_b   6.36086867
_cell_length_c   6.36086867
_cell_angle_alpha   120.34036955
_cell_angle_beta   119.20077942
_cell_angle_gamma   90.40065174
_symmetry_Int_Tables_number   1
_chemical_formula_structural   Cu2NiC4
_chemical_formula_sum   'Cu4 Ni2 C8'
_cell_volume   182.58831577
_cell_formula_units_Z   2
loop_
 _symmetry_equiv_pos_site_id
 _symmetry_equiv_pos_as_xyz
  1  'x, y, z'
loop_
 _atom_site_type_symbol
 _atom_site_label
 _atom_site_symmetry_multiplicity
 _atom_site_fract_x
 _atom_site_fract_y
 _atom_site_fract_z
 _atom_site_occupancy
  Ni  Ni0  1  0.50000000  0.50000000  0.50000000  1
  Ni  Ni1  1  0.50000000  0.00000000  0.00000000  1
  Cu  Cu2  1  0.88065300  0.13065300  0.75000000  1
  Cu  Cu3  1  0.11934700  0.86934700  0.25000000  1
  Cu  Cu4  1  0.00000000  0.50000000  0.50000000  1
  Cu  Cu5  1  0.50000000  0.50000000  0.00000000  1
  C  C6  1  0.26721400  0.74289000  0.52432400  1
  C  C7  1  0.71856600  0.74289000  0.97567600  1
  C  C8  1  0.26272300  0.27655400  0.51383000  1
  C  C9  1  0.73727700  0.25110700  0.01383000  1
  C  C10  1  0.26272300  0.74889300  0.98617000  1
  C  C11  1  0.73727700  0.72344600  0.48617000  1
  C  C12  1  0.28143400  0.25711000  0.02432400  1
  C  C13  1  0.73278600  0.25711000  0.47567600  1
