# generated using pymatgen
data_Cu5NiC40
_symmetry_space_group_name_H-M   'P 1'
_cell_length_a   7.14595300
_cell_length_b   12.39156131
_cell_length_c   14.44894999
_cell_angle_alpha   98.33917910
_cell_angle_beta   104.15997043
_cell_angle_gamma   89.89127189
_symmetry_Int_Tables_number   1
_chemical_formula_structural   Cu5NiC40
_chemical_formula_sum   'Cu10 Ni2 C80'
_cell_volume   1226.70441419
_cell_formula_units_Z   2
loop_
 _symmetry_equiv_pos_site_id
 _symmetry_equiv_pos_as_xyz
  1  'x, y, z'
loop_
 _atom_site_type_symbol
 _atom_site_label
 _atom_site_symmetry_multiplicity
 _atom_site_fract_x
 _atom_site_fract_y
 _atom_site_fract_z
 _atom_site_occupancy
  Ni  Ni0  1  0.99836400  0.99976700  0.99740100  1
  Ni  Ni1  1  0.50146500  0.50007000  0.00269900  1
  Cu  Cu2  1  0.71104400  0.39515800  0.41415200  1
  Cu  Cu3  1  0.94443400  0.15745800  0.41517000  1
  Cu  Cu4  1  0.02432200  0.33957200  0.58642100  1
  Cu  Cu5  1  0.56680900  0.34440800  0.59215300  1
  Cu  Cu6  1  0.80332300  0.10776400  0.59165400  1
  Cu  Cu7  1  0.44324200  0.66047200  0.40786700  1
  Cu  Cu8  1  0.20515900  0.88931400  0.41437300  1
  Cu  Cu9  1  0.96463700  0.66045100  0.40794100  1
  Cu  Cu10  1  0.53014300  0.84676300  0.58489900  1
  Cu  Cu11  1  0.05497200  0.84709000  0.58482100  1
  C  C12  1  0.83631300  0.28001600  0.18825400  1
  C  C13  1  0.35108700  0.28099200  0.18493500  1
  C  C14  1  0.59510000  0.03472800  0.18505300  1
  C  C15  1  0.47178900  0.15653500  0.41404300  1
  C  C16  1  0.14787500  0.22009700  0.81072200  1
  C  C17  1  0.90632500  0.46337600  0.81208200  1
  C  C18  1  0.66504700  0.22038100  0.81244800  1
  C  C19  1  0.33794200  0.77846400  0.18924700  1
  C  C20  1  0.09367400  0.53717500  0.18726500  1
  C  C21  1  0.85137100  0.77830200  0.18917700  1
  C  C22  1  0.29359600  0.60835900  0.58712000  1
  C  C23  1  0.65299700  0.72377500  0.81537400  1
  C  C24  1  0.40555700  0.96435300  0.81052600  1
  C  C25  1  0.16232100  0.72379800  0.81539000  1
  C  C26  1  0.12478500  0.04184900  0.25079700  1
  C  C27  1  0.30983400  0.10330700  0.62026900  1
  C  C28  1  0.48633200  0.16234300  0.97263600  1
  C  C29  1  0.62536100  0.54128000  0.25068000  1
  C  C30  1  0.81152000  0.60202400  0.62298400  1
  C  C31  1  0.98633400  0.66166700  0.97280200  1
  C  C32  1  0.01340500  0.33785400  0.02729500  1
  C  C33  1  0.18883500  0.39529700  0.37942700  1
  C  C34  1  0.37418200  0.45818600  0.74899700  1
  C  C35  1  0.51356800  0.83775700  0.02726800  1
  C  C36  1  0.68674400  0.89638400  0.37727200  1
  C  C37  1  0.87466800  0.95769600  0.74953100  1
  C  C38  1  0.18149400  0.06031500  0.36285600  1
  C  C39  1  0.37331200  0.12467500  0.73612000  1
  C  C40  1  0.64080000  0.09665200  0.93098700  1
  C  C41  1  0.46547100  0.27219500  0.93124500  1
  C  C42  1  0.29065600  0.09693300  0.93100900  1
  C  C43  1  0.54289900  0.18114800  0.08554400  1
  C  C44  1  0.60616900  0.41599100  0.21175900  1
  C  C45  1  0.92897800  0.09520200  0.21264900  1
  C  C46  1  0.28930300  0.09692000  0.21714200  1
  C  C47  1  0.68076300  0.56026600  0.36160100  1
  C  C48  1  0.02389000  0.34054500  0.40918700  1
  C  C49  1  0.38334800  0.33752700  0.40859700  1
  C  C50  1  0.69785700  0.02254800  0.40781800  1
  C  C51  1  0.79569500  0.47768400  0.59100800  1
  C  C52  1  0.11544300  0.15890100  0.59112500  1
  C  C53  1  0.47033800  0.15670400  0.58361500  1
  C  C54  1  0.86922100  0.62347600  0.73843600  1
  C  C55  1  0.21658000  0.40592000  0.78754300  1
  C  C56  1  0.57062200  0.40578900  0.78712000  1
  C  C57  1  0.89430900  0.08282600  0.78854700  1
  C  C58  1  0.96550200  0.77169000  0.93134200  1
  C  C59  1  0.14101400  0.59659300  0.93061200  1
  C  C60  1  0.95760600  0.31894100  0.91473300  1
  C  C61  1  0.79000000  0.59679900  0.93079700  1
  C  C62  1  0.20933700  0.40322200  0.06886500  1
  C  C63  1  0.04246100  0.68078700  0.08522600  1
  C  C64  1  0.03494900  0.22826700  0.06934100  1
  C  C65  1  0.85917600  0.40327200  0.06937900  1
  C  C66  1  0.10597800  0.91764900  0.21200400  1
  C  C67  1  0.42795000  0.59410800  0.21179200  1
  C  C68  1  0.78400700  0.59410400  0.21181000  1
  C  C69  1  0.13282100  0.38075900  0.26399700  1
  C  C70  1  0.52304800  0.84228400  0.40853200  1
  C  C71  1  0.88346900  0.84417600  0.40886100  1
  C  C72  1  0.21145900  0.51977200  0.41711200  1
  C  C73  1  0.29613300  0.97834600  0.59132700  1
  C  C74  1  0.61489300  0.65663000  0.59142600  1
  C  C75  1  0.97633500  0.65646100  0.59111300  1
  C  C76  1  0.31827500  0.43966600  0.63682500  1
  C  C77  1  0.71587200  0.90508300  0.78860700  1
  C  C78  1  0.07263500  0.90511900  0.78840700  1
  C  C79  1  0.39109300  0.58486600  0.78239200  1
  C  C80  1  0.45724200  0.81932800  0.91444400  1
  C  C81  1  0.70962000  0.90294000  0.06852300  1
  C  C82  1  0.35893500  0.90347800  0.06892800  1
  C  C83  1  0.53440100  0.72798000  0.06877000  1
  C  C84  1  0.63074600  0.87721200  0.26143700  1
  C  C85  1  0.81926700  0.93967600  0.63864800  1
  C  C86  1  0.63401800  0.21122400  0.28521400  1
  C  C87  1  0.74354400  0.24811500  0.49846400  1
  C  C88  1  0.85869100  0.28683000  0.71900900  1
  C  C89  1  0.14026300  0.71304800  0.28117100  1
  C  C90  1  0.25035300  0.74599300  0.50137600  1
  C  C91  1  0.35728300  0.77908400  0.71446000  1
