# generated using pymatgen
data_Cu4Ni3C8
_symmetry_space_group_name_H-M   'P 1'
_cell_length_a   6.52432500
_cell_length_b   6.93628600
_cell_length_c   39.49308845
_cell_angle_alpha   89.35770887
_cell_angle_beta   90.00000000
_cell_angle_gamma   90.00000000
_symmetry_Int_Tables_number   1
_chemical_formula_structural   Cu4Ni3C8
_chemical_formula_sum   'Cu16 Ni12 C32'
_cell_volume   1787.13099789
_cell_formula_units_Z   4
loop_
 _symmetry_equiv_pos_site_id
 _symmetry_equiv_pos_as_xyz
  1  'x, y, z'
loop_
 _atom_site_type_symbol
 _atom_site_label
 _atom_site_symmetry_multiplicity
 _atom_site_fract_x
 _atom_site_fract_y
 _atom_site_fract_z
 _atom_site_occupancy
  C  C0  1  0.81047100  0.52281500  0.67122800  1
  C  C1  1  0.23315600  0.65367500  0.73623200  1
  C  C2  1  0.64181800  0.26001000  0.88927100  1
  C  C3  1  0.11222200  0.96669000  0.68322300  1
  C  C4  1  0.31047100  0.47718500  0.82877200  1
  C  C5  1  0.92362600  0.95153900  0.12876800  1
  C  C6  1  0.25506800  0.36718800  0.60849200  1
  C  C7  1  0.85818200  0.26001000  0.38927100  1
  C  C8  1  0.07637400  0.04846100  0.87123200  1
  C  C9  1  0.35818200  0.73999000  0.11072900  1
  C  C10  1  0.74493200  0.63281200  0.39150800  1
  C  C11  1  0.38777800  0.96669000  0.18322300  1
  C  C12  1  0.61222200  0.03331000  0.81677700  1
  C  C13  1  0.42362600  0.04846100  0.37123200  1
  C  C14  1  0.69244200  0.03914400  0.99232600  1
  C  C15  1  0.80755800  0.03914400  0.49232600  1
  C  C16  1  0.23289500  0.13985700  0.25757400  1
  C  C17  1  0.76710500  0.86014300  0.74242600  1
  C  C18  1  0.30755800  0.96085600  0.00767400  1
  C  C19  1  0.73315600  0.34632500  0.76376800  1
  C  C20  1  0.57637400  0.95153900  0.62876800  1
  C  C21  1  0.14181800  0.73999000  0.61072900  1
  C  C22  1  0.68952900  0.52281500  0.17122800  1
  C  C23  1  0.76684400  0.34632500  0.26376800  1
  C  C24  1  0.26710500  0.13985700  0.75757400  1
  C  C25  1  0.73289500  0.86014300  0.24242600  1
  C  C26  1  0.88777800  0.03331000  0.31677700  1
  C  C27  1  0.19244200  0.96085600  0.50767400  1
  C  C28  1  0.75506800  0.63281200  0.89150800  1
  C  C29  1  0.26684400  0.65367500  0.23623200  1
  C  C30  1  0.24493200  0.36718800  0.10849200  1
  C  C31  1  0.18952900  0.47718500  0.32877200  1
  Ni  Ni32  1  0.24204800  0.64120200  0.38870400  1
  Ni  Ni33  1  0.48724200  0.19398600  0.46507000  1
  Ni  Ni34  1  0.59560600  0.61571100  0.31095400  1
  Ni  Ni35  1  0.01275800  0.19398600  0.96507000  1
  Ni  Ni36  1  0.25795200  0.64120200  0.88870400  1
  Ni  Ni37  1  0.51275800  0.80601400  0.53493000  1
  Ni  Ni38  1  0.75795200  0.35879800  0.61129600  1
  Ni  Ni39  1  0.09560600  0.38428900  0.18904600  1
  Ni  Ni40  1  0.40439400  0.38428900  0.68904600  1
  Ni  Ni41  1  0.98724200  0.80601400  0.03493000  1
  Ni  Ni42  1  0.74204800  0.35879800  0.11129600  1
  Ni  Ni43  1  0.90439400  0.61571100  0.81095400  1
  Cu  Cu44  1  0.05886900  0.86311000  0.25836900  1
  Cu  Cu45  1  0.78516100  0.94563900  0.88336000  1
  Cu  Cu46  1  0.84550900  0.82923700  0.64330000  1
  Cu  Cu47  1  0.15449100  0.17076300  0.35670000  1
  Cu  Cu48  1  0.09544900  0.42178900  0.27685100  1
  Cu  Cu49  1  0.94113100  0.13689000  0.74163100  1
  Cu  Cu50  1  0.28516100  0.05436100  0.61664000  1
  Cu  Cu51  1  0.65449100  0.82923700  0.14330000  1
  Cu  Cu52  1  0.34550900  0.17076300  0.85670000  1
  Cu  Cu53  1  0.90455100  0.57821100  0.72314900  1
  Cu  Cu54  1  0.21483900  0.05436100  0.11664000  1
  Cu  Cu55  1  0.59544900  0.57821100  0.22314900  1
  Cu  Cu56  1  0.55886900  0.13689000  0.24163100  1
  Cu  Cu57  1  0.44113100  0.86311000  0.75836900  1
  Cu  Cu58  1  0.40455100  0.42178900  0.77685100  1
  Cu  Cu59  1  0.71483900  0.94563900  0.38336000  1
