# generated using pymatgen
data_CuNi2C17
_symmetry_space_group_name_H-M   'P 1'
_cell_length_a   11.05778200
_cell_length_b   11.08865198
_cell_length_c   11.08873937
_cell_angle_alpha   109.57482625
_cell_angle_beta   109.43904556
_cell_angle_gamma   109.25977068
_symmetry_Int_Tables_number   1
_chemical_formula_structural   CuNi2C17
_chemical_formula_sum   'Cu4 Ni8 C68'
_cell_volume   1048.46223680
_cell_formula_units_Z   4
loop_
 _symmetry_equiv_pos_site_id
 _symmetry_equiv_pos_as_xyz
  1  'x, y, z'
loop_
 _atom_site_type_symbol
 _atom_site_label
 _atom_site_symmetry_multiplicity
 _atom_site_fract_x
 _atom_site_fract_y
 _atom_site_fract_z
 _atom_site_occupancy
  Ni  Ni0  1  0.62502400  0.24541000  0.37300000  1
  Ni  Ni1  1  0.25085800  0.62618300  0.87725900  1
  Ni  Ni2  1  0.87305100  0.12288600  0.24887100  1
  Ni  Ni3  1  0.62494700  0.37037100  0.75338100  1
  Ni  Ni4  1  0.74750100  0.87518700  0.62361200  1
  Ni  Ni5  1  0.87551500  0.74789400  0.12452500  1
  Ni  Ni6  1  0.13041500  0.87915700  0.74755200  1
  Ni  Ni7  1  0.37580200  0.75280000  0.62722300  1
  Cu  Cu8  1  0.25000400  0.12372900  0.37487300  1
  Cu  Cu9  1  0.12129300  0.25288100  0.87528600  1
  Cu  Cu10  1  0.36718700  0.62799600  0.24634900  1
  Cu  Cu11  1  0.75582700  0.37735400  0.12525800  1
  C  C12  1  0.62484700  0.75038400  0.87524200  1
  C  C13  1  0.87533300  0.25306200  0.62696100  1
  C  C14  1  0.24832100  0.37411500  0.62644400  1
  C  C15  1  0.25018700  0.86936400  0.12507300  1
  C  C16  1  0.62584500  0.87605000  0.24924000  1
  C  C17  1  0.37468000  0.12651700  0.75141300  1
  C  C18  1  0.74927200  0.62623900  0.37475800  1
  C  C19  1  0.12395900  0.74632400  0.37064100  1
  C  C20  1  0.75139700  0.12716400  0.87440700  1
  C  C21  1  0.00018000  0.49660300  0.00386300  1
  C  C22  1  0.37690700  0.25192900  0.12698400  1
  C  C23  1  0.12202800  0.37298300  0.24542100  1
  C  C24  1  0.87703700  0.62525500  0.75498200  1
  C  C25  1  0.00272800  0.49889800  0.49622300  1
  C  C26  1  0.49539500  0.49907700  0.49662600  1
  C  C27  1  0.49970700  0.49887500  0.99901800  1
  C  C28  1  0.00193600  0.00528300  0.00335600  1
  C  C29  1  0.00002300  0.99841500  0.49928600  1
  C  C30  1  0.50010500  0.00062300  0.50196700  1
  C  C31  1  0.49906200  0.00035500  0.99966700  1
  C  C32  1  0.29483600  0.87950800  0.97728800  1
  C  C33  1  0.03298200  0.62569100  0.70611700  1
  C  C34  1  0.67543200  0.46836500  0.59190700  1
  C  C35  1  0.41223500  0.28988900  0.31979000  1
  C  C36  1  0.47615400  0.79683600  0.87914200  1
  C  C37  1  0.20613800  0.52372300  0.62038300  1
  C  C38  1  0.88056200  0.29864300  0.47743100  1
  C  C39  1  0.39671900  0.02485900  0.32261700  1
  C  C40  1  0.67879900  0.20355200  0.58319800  1
  C  C41  1  0.02004600  0.39814900  0.82517200  1
  C  C42  1  0.62136000  0.02527500  0.20468900  1
  C  C43  1  0.61889500  0.59589500  0.91609100  1
  C  C44  1  0.08864400  0.18202200  0.21197400  1
  C  C45  1  0.28938700  0.41149900  0.82101700  1
  C  C46  1  0.39567600  0.37111200  0.57398300  1
  C  C47  1  0.87796500  0.58077100  0.91136500  1
  C  C48  1  0.10263300  0.17678700  0.47366400  1
  C  C49  1  0.82134200  0.90364000  0.02329400  1
  C  C50  1  0.20746600  0.67616100  0.08706100  1
  C  C51  1  0.92475400  0.10349700  0.62839800  1
  C  C52  1  0.82033800  0.91680900  0.29589100  1
  C  C53  1  0.57576100  0.87215700  0.39731500  1
  C  C54  1  0.52984300  0.31946900  0.90760100  1
  C  C55  1  0.10308700  0.92455300  0.12588600  1
  C  C56  1  0.91067600  0.09117800  0.88038100  1
  C  C57  1  0.47466000  0.67691300  0.10339600  1
  C  C58  1  0.41076600  0.12199900  0.59325000  1
  C  C59  1  0.18021400  0.08933100  0.71019400  1
  C  C60  1  0.08901500  0.90666300  0.37747900  1
  C  C61  1  0.80144300  0.32400800  0.92836600  1
  C  C62  1  0.17949200  0.10576900  0.97540000  1
  C  C63  1  0.90174900  0.81988700  0.52368600  1
  C  C64  1  0.12606500  0.41768900  0.09560600  1
  C  C65  1  0.59063100  0.61895100  0.41037700  1
  C  C66  1  0.70368600  0.57373700  0.17685200  1
  C  C67  1  0.37102900  0.40272600  0.08054300  1
  C  C68  1  0.92067300  0.82685300  0.79498300  1
  C  C69  1  0.37796200  0.97713500  0.79510300  1
  C  C70  1  0.97323000  0.59014700  0.17952500  1
  C  C71  1  0.59779700  0.97636100  0.68060600  1
  C  C72  1  0.32099100  0.79030000  0.41167600  1
  C  C73  1  0.12226200  0.70382300  0.52236400  1
  C  C74  1  0.79743500  0.47607700  0.37424200  1
  C  C75  1  0.52948700  0.21122100  0.12253100  1
  C  C76  1  0.58289500  0.70125100  0.67859800  1
  C  C77  1  0.31826100  0.52577200  0.39362000  1
  C  C78  1  0.96823500  0.37511900  0.28588000  1
  C  C79  1  0.70391800  0.12886500  0.02530400  1
