# generated using pymatgen
data_Cu6NiC3
_symmetry_space_group_name_H-M   'P 1'
_cell_length_a   15.13850100
_cell_length_b   12.07517800
_cell_length_c   13.93672750
_cell_angle_alpha   60.88460711
_cell_angle_beta   90.00000000
_cell_angle_gamma   90.00000000
_symmetry_Int_Tables_number   1
_chemical_formula_structural   Cu6NiC3
_chemical_formula_sum   'Cu48 Ni8 C24'
_cell_volume   2225.71983849
_cell_formula_units_Z   8
loop_
 _symmetry_equiv_pos_site_id
 _symmetry_equiv_pos_as_xyz
  1  'x, y, z'
loop_
 _atom_site_type_symbol
 _atom_site_label
 _atom_site_symmetry_multiplicity
 _atom_site_fract_x
 _atom_site_fract_y
 _atom_site_fract_z
 _atom_site_occupancy
  C  C0  1  0.98370800  0.75131300  0.05691300  1
  C  C1  1  0.67546900  0.01567000  0.51796300  1
  C  C2  1  0.32453100  0.98433000  0.48203700  1
  C  C3  1  0.48370800  0.24868700  0.44308700  1
  C  C4  1  0.17546900  0.98433000  0.98203700  1
  C  C5  1  0.51629200  0.75131300  0.55691300  1
  C  C6  1  0.01629200  0.24868700  0.94308700  1
  C  C7  1  0.82453100  0.01567000  0.01796300  1
  C  C8  1  0.11849700  0.78000500  0.53199000  1
  C  C9  1  0.26368700  0.42464200  0.42353600  1
  C  C10  1  0.61849700  0.21999500  0.96801000  1
  C  C11  1  0.88150300  0.21999500  0.46801000  1
  C  C12  1  0.73631300  0.57535800  0.57646400  1
  C  C13  1  0.76368700  0.57535800  0.07646400  1
  C  C14  1  0.38150300  0.78000500  0.03199000  1
  C  C15  1  0.23631300  0.42464200  0.92353600  1
  Ni  Ni16  1  0.57827500  0.16179300  0.47359500  1
  Ni  Ni17  1  0.39631100  0.10092100  0.46530000  1
  Ni  Ni18  1  0.07827500  0.83820700  0.02640500  1
  Ni  Ni19  1  0.92172500  0.16179300  0.97359500  1
  Ni  Ni20  1  0.60368900  0.89907900  0.53470000  1
  Ni  Ni21  1  0.89631100  0.89907900  0.03470000  1
  Ni  Ni22  1  0.10368900  0.10092100  0.96530000  1
  Ni  Ni23  1  0.42172500  0.83820700  0.52640500  1
  Cu  Cu24  1  0.30568600  0.10107700  0.93630100  1
  Cu  Cu25  1  0.56393800  0.18284700  0.85582300  1
  Cu  Cu26  1  0.70461000  0.40629300  0.59309300  1
  Cu  Cu27  1  0.53321800  0.45031000  0.39765900  1
  Cu  Cu28  1  0.15941400  0.99477500  0.81111700  1
  Cu  Cu29  1  0.28708000  0.32699000  0.07467500  1
  Cu  Cu30  1  0.09599800  0.59495900  0.58962800  1
  Cu  Cu31  1  0.79539000  0.40629300  0.09309300  1
  Cu  Cu32  1  0.80776900  0.11015100  0.82855800  1
  Cu  Cu33  1  0.44325200  0.19318600  0.62307000  1
  Cu  Cu34  1  0.96678200  0.45031000  0.89765900  1
  Cu  Cu35  1  0.16271900  0.45948000  0.32057200  1
  Cu  Cu36  1  0.30776900  0.88984900  0.67144200  1
  Cu  Cu37  1  0.40400200  0.59495900  0.08962800  1
  Cu  Cu38  1  0.84058600  0.00522500  0.18888300  1
  Cu  Cu39  1  0.46678200  0.54969000  0.60234100  1
  Cu  Cu40  1  0.78708000  0.67301000  0.42532500  1
  Cu  Cu41  1  0.43606200  0.81715300  0.14417700  1
  Cu  Cu42  1  0.19431400  0.10107700  0.43630100  1
  Cu  Cu43  1  0.95840500  0.13232900  0.60066600  1
  Cu  Cu44  1  0.20461000  0.59370700  0.90690700  1
  Cu  Cu45  1  0.55674800  0.80681400  0.37693000  1
  Cu  Cu46  1  0.66271900  0.54052000  0.17942800  1
  Cu  Cu47  1  0.06393800  0.81715300  0.64417700  1
  Cu  Cu48  1  0.03321800  0.54969000  0.10234100  1
  Cu  Cu49  1  0.90400200  0.40504100  0.41037200  1
  Cu  Cu50  1  0.69223100  0.11015100  0.32855800  1
  Cu  Cu51  1  0.47260400  0.29551700  0.25868000  1
  Cu  Cu52  1  0.69431400  0.89892300  0.06369900  1
  Cu  Cu53  1  0.29539000  0.59370700  0.40690700  1
  Cu  Cu54  1  0.21292000  0.32699000  0.57467500  1
  Cu  Cu55  1  0.65941400  0.00522500  0.68888300  1
  Cu  Cu56  1  0.71292000  0.67301000  0.92532500  1
  Cu  Cu57  1  0.34058600  0.99477500  0.31111700  1
  Cu  Cu58  1  0.52739600  0.70448300  0.74132000  1
  Cu  Cu59  1  0.93606200  0.18284700  0.35582300  1
  Cu  Cu60  1  0.02739600  0.29551700  0.75868000  1
  Cu  Cu61  1  0.80568600  0.89892300  0.56369900  1
  Cu  Cu62  1  0.19223100  0.88984900  0.17144200  1
  Cu  Cu63  1  0.97260400  0.70448300  0.24132000  1
  Cu  Cu64  1  0.83728100  0.54052000  0.67942800  1
  Cu  Cu65  1  0.45840500  0.86767100  0.89933400  1
  Cu  Cu66  1  0.05674800  0.19318600  0.12307000  1
  Cu  Cu67  1  0.54159500  0.13232900  0.10066600  1
  Cu  Cu68  1  0.94325200  0.80681400  0.87693000  1
  Cu  Cu69  1  0.59599800  0.40504100  0.91037200  1
  Cu  Cu70  1  0.04159500  0.86767100  0.39933400  1
  Cu  Cu71  1  0.33728100  0.45948000  0.82057200  1
  C  C72  1  0.33796500  0.36041600  0.40117700  1
  C  C73  1  0.83796500  0.63958400  0.09882300  1
  C  C74  1  0.16203500  0.36041600  0.90117700  1
  C  C75  1  0.21350600  0.81190100  0.51124600  1
  C  C76  1  0.78649400  0.18809900  0.48875400  1
  C  C77  1  0.71350600  0.18809900  0.98875400  1
  C  C78  1  0.66203500  0.63958400  0.59882300  1
  C  C79  1  0.28649400  0.81190100  0.01124600  1
