# generated using pymatgen
data_Cu7Ni5C2
_symmetry_space_group_name_H-M   'P 1'
_cell_length_a   6.68962300
_cell_length_b   12.64696200
_cell_length_c   22.12043700
_cell_angle_alpha   90.00000000
_cell_angle_beta   90.00000000
_cell_angle_gamma   90.00000000
_symmetry_Int_Tables_number   1
_chemical_formula_structural   Cu7Ni5C2
_chemical_formula_sum   'Cu56 Ni40 C16'
_cell_volume   1871.46435389
_cell_formula_units_Z   8
loop_
 _symmetry_equiv_pos_site_id
 _symmetry_equiv_pos_as_xyz
  1  'x, y, z'
loop_
 _atom_site_type_symbol
 _atom_site_label
 _atom_site_symmetry_multiplicity
 _atom_site_fract_x
 _atom_site_fract_y
 _atom_site_fract_z
 _atom_site_occupancy
  C  C0  1  0.01083500  0.74060000  0.05826100  1
  C  C1  1  0.99730400  0.99331500  0.31383000  1
  C  C2  1  0.51083500  0.75940000  0.55826100  1
  C  C3  1  0.98916500  0.25940000  0.55826100  1
  C  C4  1  0.48916500  0.24060000  0.05826100  1
  C  C5  1  0.00269600  0.00668500  0.81383000  1
  C  C6  1  0.50269600  0.49331500  0.31383000  1
  C  C7  1  0.49730400  0.50668500  0.81383000  1
  Ni  Ni8  1  0.35089600  0.54276600  0.38228600  1
  Ni  Ni9  1  0.86200000  0.39491400  0.54846300  1
  Ni  Ni10  1  0.11949100  0.12253300  0.56515400  1
  Ni  Ni11  1  0.71636400  0.44900900  0.36582800  1
  Ni  Ni12  1  0.36200000  0.10508600  0.04846300  1
  Ni  Ni13  1  0.66099500  0.70917300  0.48974800  1
  Ni  Ni14  1  0.36789400  0.37009300  0.80697800  1
  Ni  Ni15  1  0.13210600  0.87009300  0.80697800  1
  Ni  Ni16  1  0.65344500  0.44032800  0.24525400  1
  Ni  Ni17  1  0.34655500  0.55967200  0.74525400  1
  Ni  Ni18  1  0.33900500  0.29082700  0.98974800  1
  Ni  Ni19  1  0.20231300  0.30389400  0.50644700  1
  Ni  Ni20  1  0.16099500  0.79082700  0.98974800  1
  Ni  Ni21  1  0.86301500  0.68717200  0.12739200  1
  Ni  Ni22  1  0.62639500  0.64215900  0.82378500  1
  Ni  Ni23  1  0.36301500  0.81282800  0.62739200  1
  Ni  Ni24  1  0.15344500  0.05967200  0.74525400  1
  Ni  Ni25  1  0.13698500  0.31282800  0.62739200  1
  Ni  Ni26  1  0.64910400  0.45723400  0.88228600  1
  Ni  Ni27  1  0.70231300  0.19610600  0.00644700  1
  Ni  Ni28  1  0.14910400  0.04276600  0.38228600  1
  Ni  Ni29  1  0.12639500  0.85784100  0.32378500  1
  Ni  Ni30  1  0.85089600  0.95723400  0.88228600  1
  Ni  Ni31  1  0.38050900  0.62253300  0.56515400  1
  Ni  Ni32  1  0.63800000  0.89491400  0.54846300  1
  Ni  Ni33  1  0.78363600  0.94900900  0.36582800  1
  Ni  Ni34  1  0.21636400  0.05099100  0.86582800  1
  Ni  Ni35  1  0.79768700  0.69610600  0.00644700  1
  Ni  Ni36  1  0.87360500  0.14215900  0.82378500  1
  Ni  Ni37  1  0.28363600  0.55099100  0.86582800  1
  Ni  Ni38  1  0.29768700  0.80389400  0.50644700  1
  Ni  Ni39  1  0.63210600  0.62990700  0.30697800  1
  Ni  Ni40  1  0.86789400  0.12990700  0.30697800  1
  Ni  Ni41  1  0.83900500  0.20917300  0.48974800  1
  Ni  Ni42  1  0.84655500  0.94032800  0.24525400  1
  Ni  Ni43  1  0.61949100  0.37746700  0.06515400  1
  Ni  Ni44  1  0.63698500  0.18717200  0.12739200  1
  Ni  Ni45  1  0.13800000  0.60508600  0.04846300  1
  Ni  Ni46  1  0.37360500  0.35784100  0.32378500  1
  Ni  Ni47  1  0.88050900  0.87746700  0.06515400  1
  C  C48  1  0.24026400  0.29438700  0.11906600  1
  C  C49  1  0.75973600  0.70561300  0.61906600  1
  C  C50  1  0.74026400  0.20561300  0.61906600  1
  C  C51  1  0.25973600  0.79438700  0.11906600  1
  C  C52  1  0.75884700  0.95495800  0.75025300  1
  C  C53  1  0.24115300  0.04504200  0.25025300  1
  C  C54  1  0.74115300  0.45495800  0.75025300  1
  C  C55  1  0.25884700  0.54504200  0.25025300  1
  Cu  Cu56  1  0.72258200  0.66184900  0.67883500  1
  Cu  Cu57  1  0.77613200  0.65224400  0.16789900  1
  Cu  Cu58  1  0.70437000  0.72310300  0.82984800  1
  Cu  Cu59  1  0.66878200  0.66978100  0.97516900  1
  Cu  Cu60  1  0.30101000  0.57651600  0.18828100  1
  Cu  Cu61  1  0.27741800  0.33815100  0.17883500  1
  Cu  Cu62  1  0.69899000  0.42348400  0.68828100  1
  Cu  Cu63  1  0.26079100  0.57014900  0.42404800  1
  Cu  Cu64  1  0.75347800  0.67721100  0.44959000  1
  Cu  Cu65  1  0.27613200  0.84775600  0.66789900  1
  Cu  Cu66  1  0.15246600  0.57693100  0.89647400  1
  Cu  Cu67  1  0.72386800  0.15224400  0.16789900  1
  Cu  Cu68  1  0.65246600  0.92306900  0.39647400  1
  Cu  Cu69  1  0.70491300  0.71257100  0.30437600  1
  Cu  Cu70  1  0.76079100  0.92985100  0.92404800  1
  Cu  Cu71  1  0.75829200  0.90766000  0.20432500  1
  Cu  Cu72  1  0.29508700  0.28742900  0.80437600  1
  Cu  Cu73  1  0.77741800  0.16184900  0.67883500  1
  Cu  Cu74  1  0.80101000  0.92348400  0.68828100  1
  Cu  Cu75  1  0.74652200  0.17721100  0.44959000  1
  Cu  Cu76  1  0.79563000  0.22310300  0.82984800  1
  Cu  Cu77  1  0.03435500  0.28962700  0.09857300  1
  Cu  Cu78  1  0.20437000  0.77689700  0.32984800  1
  Cu  Cu79  1  0.53435500  0.21037300  0.59857300  1
  Cu  Cu80  1  0.20491300  0.78742900  0.80437600  1
  Cu  Cu81  1  0.19899000  0.07651600  0.18828100  1
  Cu  Cu82  1  0.83121800  0.16978100  0.97516900  1
  Cu  Cu83  1  0.30433100  0.54090400  0.56797800  1
  Cu  Cu84  1  0.74170800  0.40766000  0.20432500  1
  Cu  Cu85  1  0.19566900  0.04090400  0.56797800  1
  Cu  Cu86  1  0.25347800  0.82278900  0.94959000  1
  Cu  Cu87  1  0.71763600  0.97524800  0.54200400  1
  Cu  Cu88  1  0.46564500  0.78962700  0.09857300  1
  Cu  Cu89  1  0.96564500  0.71037300  0.59857300  1
  Cu  Cu90  1  0.73920900  0.42985100  0.92404800  1
  Cu  Cu91  1  0.69566900  0.45909600  0.06797800  1
  Cu  Cu92  1  0.94812100  0.45191600  0.77005600  1
  Cu  Cu93  1  0.29563000  0.27689700  0.32984800  1
  Cu  Cu94  1  0.24170800  0.09234000  0.70432500  1
  Cu  Cu95  1  0.16878200  0.83021900  0.47516900  1
  Cu  Cu96  1  0.84753400  0.42306900  0.39647400  1
  Cu  Cu97  1  0.23920900  0.07014900  0.42404800  1
  Cu  Cu98  1  0.44812100  0.04808400  0.27005600  1
  Cu  Cu99  1  0.21763600  0.52475200  0.04200400  1
  Cu  Cu100  1  0.24652200  0.32278900  0.94959000  1
  Cu  Cu101  1  0.28236400  0.02475200  0.04200400  1
  Cu  Cu102  1  0.78236400  0.47524800  0.54200400  1
  Cu  Cu103  1  0.33121800  0.33021900  0.47516900  1
  Cu  Cu104  1  0.25829200  0.59234000  0.70432500  1
  Cu  Cu105  1  0.80433100  0.95909600  0.06797800  1
  Cu  Cu106  1  0.22386800  0.34775600  0.66789900  1
  Cu  Cu107  1  0.22258200  0.83815100  0.17883500  1
  Cu  Cu108  1  0.79508700  0.21257100  0.30437600  1
  Cu  Cu109  1  0.05187900  0.54808400  0.27005600  1
  Cu  Cu110  1  0.55187900  0.95191600  0.77005600  1
  Cu  Cu111  1  0.34753400  0.07693100  0.89647400  1
