# generated using pymatgen
data_CuNi4C5
_symmetry_space_group_name_H-M   'P 1'
_cell_length_a   11.95851800
_cell_length_b   9.76946400
_cell_length_c   13.03584880
_cell_angle_alpha   70.65774958
_cell_angle_beta   90.00000000
_cell_angle_gamma   90.00000000
_symmetry_Int_Tables_number   1
_chemical_formula_structural   CuNi4C5
_chemical_formula_sum   'Cu8 Ni32 C40'
_cell_volume   1436.99593713
_cell_formula_units_Z   8
loop_
 _symmetry_equiv_pos_site_id
 _symmetry_equiv_pos_as_xyz
  1  'x, y, z'
loop_
 _atom_site_type_symbol
 _atom_site_label
 _atom_site_symmetry_multiplicity
 _atom_site_fract_x
 _atom_site_fract_y
 _atom_site_fract_z
 _atom_site_occupancy
  C  C0  1  0.12591700  0.81337200  0.71944000  1
  C  C1  1  0.87408300  0.18662800  0.28056000  1
  C  C2  1  0.37408300  0.81337200  0.21944000  1
  C  C3  1  0.37683000  0.39789500  0.32125900  1
  C  C4  1  0.62591700  0.18662800  0.78056000  1
  C  C5  1  0.87683000  0.60210500  0.17874100  1
  C  C6  1  0.62317000  0.60210500  0.67874100  1
  C  C7  1  0.12317000  0.39789500  0.82125900  1
  Ni  Ni8  1  0.71818700  0.19266800  0.66157900  1
  Ni  Ni9  1  0.46075800  0.95463100  0.24305700  1
  Ni  Ni10  1  0.97095400  0.73771600  0.08846300  1
  Ni  Ni11  1  0.52904600  0.73771600  0.58846300  1
  Ni  Ni12  1  0.96663200  0.19513700  0.39518200  1
  Ni  Ni13  1  0.78703000  0.59932300  0.06069000  1
  Ni  Ni14  1  0.28569200  0.95224200  0.12535100  1
  Ni  Ni15  1  0.21297000  0.40067700  0.93931000  1
  Ni  Ni16  1  0.53336800  0.19513700  0.89518200  1
  Ni  Ni17  1  0.28919400  0.25624400  0.29978700  1
  Ni  Ni18  1  0.21080600  0.25624400  0.79978700  1
  Ni  Ni19  1  0.46436000  0.41179700  0.19737500  1
  Ni  Ni20  1  0.03924200  0.95463100  0.74305700  1
  Ni  Ni21  1  0.96075800  0.04536900  0.25694300  1
  Ni  Ni22  1  0.03564000  0.41179700  0.69737500  1
  Ni  Ni23  1  0.21430800  0.95224200  0.62535100  1
  Ni  Ni24  1  0.46663200  0.80486300  0.10481800  1
  Ni  Ni25  1  0.02904600  0.26228400  0.91153700  1
  Ni  Ni26  1  0.71430800  0.04775800  0.87464900  1
  Ni  Ni27  1  0.21818700  0.80733200  0.83842100  1
  Ni  Ni28  1  0.71297000  0.59932300  0.56069000  1
  Ni  Ni29  1  0.78919400  0.74375600  0.20021300  1
  Ni  Ni30  1  0.96436000  0.58820300  0.30262500  1
  Ni  Ni31  1  0.53924200  0.04536900  0.75694300  1
  Ni  Ni32  1  0.53564000  0.58820300  0.80262500  1
  Ni  Ni33  1  0.28703000  0.40067700  0.43931000  1
  Ni  Ni34  1  0.03336800  0.80486300  0.60481800  1
  Ni  Ni35  1  0.78181300  0.19266800  0.16157900  1
  Ni  Ni36  1  0.78569200  0.04775800  0.37464900  1
  Ni  Ni37  1  0.28181300  0.80733200  0.33842100  1
  Ni  Ni38  1  0.71080600  0.74375600  0.70021300  1
  Ni  Ni39  1  0.47095400  0.26228400  0.41153700  1
  Cu  Cu40  1  0.49256000  0.60712100  0.34696800  1
  Cu  Cu41  1  0.75692000  0.39512700  0.30498500  1
  Cu  Cu42  1  0.00744000  0.60712100  0.84696800  1
  Cu  Cu43  1  0.99256000  0.39287900  0.15303200  1
  Cu  Cu44  1  0.24308000  0.60487300  0.69501500  1
  Cu  Cu45  1  0.74308000  0.39512700  0.80498500  1
  Cu  Cu46  1  0.25692000  0.60487300  0.19501500  1
  Cu  Cu47  1  0.50744000  0.39287900  0.65303200  1
  C  C48  1  0.73211500  0.95706800  0.43437800  1
  C  C49  1  0.22544900  0.80703100  0.41042700  1
  C  C50  1  0.73431000  0.83541700  0.21210400  1
  C  C51  1  0.23141800  0.40073200  0.51163500  1
  C  C52  1  0.76788500  0.95706800  0.93437800  1
  C  C53  1  0.98432600  0.42041100  0.62057000  1
  C  C54  1  0.27455100  0.80703100  0.91042700  1
  C  C55  1  0.76858200  0.59926800  0.48836500  1
  C  C56  1  0.02413600  0.19759200  0.46583200  1
  C  C57  1  0.77455100  0.19296900  0.58957300  1
  C  C58  1  0.48432600  0.57958900  0.87943000  1
  C  C59  1  0.97586400  0.80240800  0.53416800  1
  C  C60  1  0.46972400  0.82358600  0.53183000  1
  C  C61  1  0.73141800  0.59926800  0.98836500  1
  C  C62  1  0.53027600  0.17641400  0.46817000  1
  C  C63  1  0.23431000  0.16458300  0.28789600  1
  C  C64  1  0.26858200  0.40073200  0.01163500  1
  C  C65  1  0.96972400  0.17641400  0.96817000  1
  C  C66  1  0.51567400  0.42041100  0.12057000  1
  C  C67  1  0.23211500  0.04293200  0.06562200  1
  C  C68  1  0.26788500  0.04293200  0.56562200  1
  C  C69  1  0.98695500  0.04737400  0.75635200  1
  C  C70  1  0.01304500  0.95262600  0.24364800  1
  C  C71  1  0.47586400  0.19759200  0.96583200  1
  C  C72  1  0.01567400  0.57958900  0.37943000  1
  C  C73  1  0.48695500  0.95262600  0.74364800  1
  C  C74  1  0.26569000  0.16458300  0.78789600  1
  C  C75  1  0.51304500  0.04737400  0.25635200  1
  C  C76  1  0.72544900  0.19296900  0.08957300  1
  C  C77  1  0.03027600  0.82358600  0.03183000  1
  C  C78  1  0.52413600  0.80240800  0.03416800  1
  C  C79  1  0.76569000  0.83541700  0.71210400  1
