# generated using pymatgen
data_Cu6Ni2C13
_symmetry_space_group_name_H-M   'P 1'
_cell_length_a   8.75696500
_cell_length_b   10.81890000
_cell_length_c   10.95019700
_cell_angle_alpha   90.00000000
_cell_angle_beta   90.00000000
_cell_angle_gamma   90.00000000
_symmetry_Int_Tables_number   1
_chemical_formula_structural   Cu6Ni2C13
_chemical_formula_sum   'Cu24 Ni8 C52'
_cell_volume   1037.42964252
_cell_formula_units_Z   4
loop_
 _symmetry_equiv_pos_site_id
 _symmetry_equiv_pos_as_xyz
  1  'x, y, z'
loop_
 _atom_site_type_symbol
 _atom_site_label
 _atom_site_symmetry_multiplicity
 _atom_site_fract_x
 _atom_site_fract_y
 _atom_site_fract_z
 _atom_site_occupancy
  C  C0  1  0.79197100  0.75000000  0.75000000  1
  C  C1  1  0.70802900  0.25000000  0.75000000  1
  C  C2  1  0.20802900  0.25000000  0.25000000  1
  C  C3  1  0.29197100  0.75000000  0.25000000  1
  C  C4  1  0.25000000  0.50000000  0.05834800  1
  C  C5  1  0.58885800  0.68758900  0.46293900  1
  C  C6  1  0.25000000  0.00000000  0.44165200  1
  C  C7  1  0.75000000  0.50000000  0.00959900  1
  C  C8  1  0.08885800  0.81241100  0.96293900  1
  C  C9  1  0.85212300  0.49784700  0.77903200  1
  C  C10  1  0.54910200  0.12235200  0.38943100  1
  C  C11  1  0.04910200  0.37764800  0.88943100  1
  C  C12  1  0.64787700  0.50215300  0.77903200  1
  C  C13  1  0.08885800  0.68758900  0.53706100  1
  C  C14  1  0.85212300  0.00215300  0.72096800  1
  C  C15  1  0.45089800  0.87764800  0.61056900  1
  C  C16  1  0.91114200  0.18758900  0.03706100  1
  C  C17  1  0.45089800  0.62235200  0.88943100  1
  C  C18  1  0.64787700  0.99784700  0.72096800  1
  C  C19  1  0.14787700  0.99784700  0.27903200  1
  C  C20  1  0.41114200  0.31241100  0.53706100  1
  C  C21  1  0.35212300  0.00215300  0.27903200  1
  C  C22  1  0.95089800  0.62235200  0.11056900  1
  C  C23  1  0.35212300  0.49784700  0.22096800  1
  C  C24  1  0.25000000  0.50000000  0.99040100  1
  C  C25  1  0.91114200  0.31241100  0.46293900  1
  C  C26  1  0.75000000  0.00000000  0.55834800  1
  C  C27  1  0.75000000  0.50000000  0.94165200  1
  C  C28  1  0.25000000  0.00000000  0.50959900  1
  C  C29  1  0.58885800  0.81241100  0.03706100  1
  C  C30  1  0.75000000  0.00000000  0.49040100  1
  C  C31  1  0.95089800  0.87764800  0.38943100  1
  C  C32  1  0.54910200  0.37764800  0.11056900  1
  C  C33  1  0.04910200  0.12235200  0.61056900  1
  C  C34  1  0.41114200  0.18758900  0.96293900  1
  C  C35  1  0.14787700  0.50215300  0.22096800  1
  C  C36  1  0.75000000  0.00000000  0.17501800  1
  C  C37  1  0.75000000  0.50000000  0.32498200  1
  C  C38  1  0.25000000  0.50000000  0.67501800  1
  C  C39  1  0.75000000  0.00000000  0.78261000  1
  C  C40  1  0.48252700  0.27025500  0.97700100  1
  C  C41  1  0.48252700  0.22974500  0.52299900  1
  C  C42  1  0.51747300  0.72974500  0.02299900  1
  C  C43  1  0.25000000  0.00000000  0.82498200  1
  C  C44  1  0.51747300  0.77025500  0.47700100  1
  C  C45  1  0.01747300  0.72974500  0.97700100  1
  C  C46  1  0.98252700  0.22974500  0.47700100  1
  C  C47  1  0.01747300  0.77025500  0.52299900  1
  C  C48  1  0.25000000  0.50000000  0.28261000  1
  C  C49  1  0.75000000  0.50000000  0.71739000  1
  C  C50  1  0.98252700  0.27025500  0.02299900  1
  C  C51  1  0.25000000  0.00000000  0.21739000  1
  Ni  Ni52  1  0.18598900  0.46463500  0.78525300  1
  Ni  Ni53  1  0.31401100  0.53536500  0.78525300  1
  Ni  Ni54  1  0.81401100  0.53536500  0.21474700  1
  Ni  Ni55  1  0.31401100  0.96463500  0.71474700  1
  Ni  Ni56  1  0.18598900  0.03536500  0.71474700  1
  Ni  Ni57  1  0.68598900  0.03536500  0.28525300  1
  Ni  Ni58  1  0.68598900  0.46463500  0.21474700  1
  Ni  Ni59  1  0.81401100  0.96463500  0.28525300  1
  Cu  Cu60  1  0.97727600  0.30808000  0.90789300  1
  Cu  Cu61  1  0.24550700  0.39138000  0.34907500  1
  Cu  Cu62  1  0.74550700  0.39138000  0.65092500  1
  Cu  Cu63  1  0.44363400  0.82225800  0.39563700  1
  Cu  Cu64  1  0.47727600  0.30808000  0.09210700  1
  Cu  Cu65  1  0.05636600  0.32225800  0.10436300  1
  Cu  Cu66  1  0.25449300  0.89138000  0.15092500  1
  Cu  Cu67  1  0.75449300  0.89138000  0.84907500  1
  Cu  Cu68  1  0.97727600  0.19192000  0.59210700  1
  Cu  Cu69  1  0.52272400  0.69192000  0.90789300  1
  Cu  Cu70  1  0.02272400  0.80808000  0.40789300  1
  Cu  Cu71  1  0.47727600  0.19192000  0.40789300  1
  Cu  Cu72  1  0.52272400  0.80808000  0.59210700  1
  Cu  Cu73  1  0.94363400  0.82225800  0.60436300  1
  Cu  Cu74  1  0.05636600  0.17774200  0.39563700  1
  Cu  Cu75  1  0.74550700  0.10862000  0.84907500  1
  Cu  Cu76  1  0.55636600  0.17774200  0.60436300  1
  Cu  Cu77  1  0.55636600  0.32225800  0.89563700  1
  Cu  Cu78  1  0.25449300  0.60862000  0.34907500  1
  Cu  Cu79  1  0.02272400  0.69192000  0.09210700  1
  Cu  Cu80  1  0.24550700  0.10862000  0.15092500  1
  Cu  Cu81  1  0.44363400  0.67774200  0.10436300  1
  Cu  Cu82  1  0.75449300  0.60862000  0.65092500  1
  Cu  Cu83  1  0.94363400  0.67774200  0.89563700  1
