# generated using pymatgen
data_CuNiC3
_symmetry_space_group_name_H-M   'P 1'
_cell_length_a   9.31241600
_cell_length_b   5.29931500
_cell_length_c   9.42866239
_cell_angle_alpha   79.48871617
_cell_angle_beta   90.00000000
_cell_angle_gamma   90.00000000
_symmetry_Int_Tables_number   1
_chemical_formula_structural   CuNiC3
_chemical_formula_sum   'Cu8 Ni8 C24'
_cell_volume   457.49089087
_cell_formula_units_Z   8
loop_
 _symmetry_equiv_pos_site_id
 _symmetry_equiv_pos_as_xyz
  1  'x, y, z'
loop_
 _atom_site_type_symbol
 _atom_site_label
 _atom_site_symmetry_multiplicity
 _atom_site_fract_x
 _atom_site_fract_y
 _atom_site_fract_z
 _atom_site_occupancy
  Ni  Ni0  1  0.99518100  0.97029900  0.25519200  1
  Ni  Ni1  1  0.49518100  0.52970100  0.74480800  1
  Ni  Ni2  1  0.64599900  0.97703800  0.25015200  1
  Ni  Ni3  1  0.85400100  0.47703800  0.25015200  1
  Ni  Ni4  1  0.35400100  0.02296200  0.74984800  1
  Ni  Ni5  1  0.50481900  0.47029900  0.25519200  1
  Ni  Ni6  1  0.00481900  0.02970100  0.74480800  1
  Ni  Ni7  1  0.14599900  0.52296200  0.74984800  1
  Cu  Cu8  1  0.83709600  0.25258300  0.95373300  1
  Cu  Cu9  1  0.83314200  0.68710100  0.55569100  1
  Cu  Cu10  1  0.33709600  0.24741700  0.04626700  1
  Cu  Cu11  1  0.16685800  0.31289900  0.44430900  1
  Cu  Cu12  1  0.66685800  0.18710100  0.55569100  1
  Cu  Cu13  1  0.16290400  0.74741700  0.04626700  1
  Cu  Cu14  1  0.33314200  0.81289900  0.44430900  1
  Cu  Cu15  1  0.66290400  0.75258300  0.95373300  1
  C  C16  1  0.66352700  0.69715800  0.13201500  1
  C  C17  1  0.29608900  0.12391100  0.39776100  1
  C  C18  1  0.84027600  0.74843400  0.37734200  1
  C  C19  1  0.50646100  0.77838000  0.87575400  1
  C  C20  1  0.65972400  0.24843400  0.37734200  1
  C  C21  1  0.00646100  0.72162000  0.12424600  1
  C  C22  1  0.16352700  0.80284200  0.86798500  1
  C  C23  1  0.26129000  0.49200800  0.10323300  1
  C  C24  1  0.73871000  0.50799200  0.89676700  1
  C  C25  1  0.49353900  0.22162000  0.12424600  1
  C  C26  1  0.02189500  0.24682400  0.36212300  1
  C  C27  1  0.79608900  0.37608900  0.60223900  1
  C  C28  1  0.70391100  0.87608900  0.60223900  1
  C  C29  1  0.97810500  0.75317600  0.63787700  1
  C  C30  1  0.76129000  0.00799200  0.89676700  1
  C  C31  1  0.34027600  0.75156600  0.62265800  1
  C  C32  1  0.47810500  0.74682400  0.36212300  1
  C  C33  1  0.15972400  0.25156600  0.62265800  1
  C  C34  1  0.83647300  0.19715800  0.13201500  1
  C  C35  1  0.23871000  0.99200800  0.10323300  1
  C  C36  1  0.52189500  0.25317600  0.63787700  1
  C  C37  1  0.99353900  0.27838000  0.87575400  1
  C  C38  1  0.33647300  0.30284200  0.86798500  1
  C  C39  1  0.20391100  0.62391100  0.39776100  1
