# generated using pymatgen
data_Cu2Ni4C3
_symmetry_space_group_name_H-M   'P 1'
_cell_length_a   4.70801500
_cell_length_b   8.49746300
_cell_length_c   8.88879200
_cell_angle_alpha   90.00000000
_cell_angle_beta   90.00000000
_cell_angle_gamma   90.00000000
_symmetry_Int_Tables_number   1
_chemical_formula_structural   Cu2Ni4C3
_chemical_formula_sum   'Cu8 Ni16 C12'
_cell_volume   355.60664176
_cell_formula_units_Z   4
loop_
 _symmetry_equiv_pos_site_id
 _symmetry_equiv_pos_as_xyz
  1  'x, y, z'
loop_
 _atom_site_type_symbol
 _atom_site_label
 _atom_site_symmetry_multiplicity
 _atom_site_fract_x
 _atom_site_fract_y
 _atom_site_fract_z
 _atom_site_occupancy
  C  C0  1  0.09716000  0.91675800  0.13049400  1
  C  C1  1  0.59716000  0.08324200  0.36950600  1
  C  C2  1  0.90284000  0.41675800  0.86950600  1
  C  C3  1  0.40284000  0.58324200  0.63049400  1
  C  C4  1  0.59716000  0.41675800  0.36950600  1
  C  C5  1  0.09716000  0.58324200  0.13049400  1
  C  C6  1  0.40284000  0.91675800  0.63049400  1
  C  C7  1  0.90284000  0.08324200  0.86950600  1
  C  C8  1  0.60365500  0.75000000  0.93994800  1
  C  C9  1  0.10365500  0.25000000  0.56005200  1
  C  C10  1  0.39634500  0.25000000  0.06005200  1
  C  C11  1  0.89634500  0.75000000  0.43994800  1
  Ni  Ni12  1  0.45992700  0.25000000  0.24404200  1
  Ni  Ni13  1  0.79157600  0.59285300  0.98851700  1
  Ni  Ni14  1  0.70842400  0.90714700  0.48851700  1
  Ni  Ni15  1  0.20842400  0.09285300  0.01148300  1
  Ni  Ni16  1  0.95992700  0.75000000  0.25595800  1
  Ni  Ni17  1  0.29157600  0.40714700  0.51148300  1
  Ni  Ni18  1  0.04007300  0.25000000  0.74404200  1
  Ni  Ni19  1  0.54007300  0.75000000  0.75595800  1
  Ni  Ni20  1  0.70842400  0.59285300  0.48851700  1
  Ni  Ni21  1  0.20842400  0.40714700  0.01148300  1
  Ni  Ni22  1  0.29157600  0.09285300  0.51148300  1
  Ni  Ni23  1  0.79157600  0.90714700  0.98851700  1
  Ni  Ni24  1  0.20126300  0.75000000  0.53269700  1
  Ni  Ni25  1  0.70126300  0.25000000  0.96730300  1
  Ni  Ni26  1  0.79873700  0.25000000  0.46730300  1
  Ni  Ni27  1  0.29873700  0.75000000  0.03269700  1
  Cu  Cu28  1  0.09866700  0.94432200  0.75239500  1
  Cu  Cu29  1  0.59866700  0.05567800  0.74760500  1
  Cu  Cu30  1  0.59866700  0.44432200  0.74760500  1
  Cu  Cu31  1  0.40133300  0.55567800  0.25239500  1
  Cu  Cu32  1  0.90133300  0.05567800  0.24760500  1
  Cu  Cu33  1  0.40133300  0.94432200  0.25239500  1
  Cu  Cu34  1  0.09866700  0.55567800  0.75239500  1
  Cu  Cu35  1  0.90133300  0.44432200  0.24760500  1
