# generated using pymatgen
data_Cu4NiC20
_symmetry_space_group_name_H-M   'P 1'
_cell_length_a   3.91361700
_cell_length_b   8.74271300
_cell_length_c   17.44733045
_cell_angle_alpha   89.63272625
_cell_angle_beta   90.00000000
_cell_angle_gamma   90.00000000
_symmetry_Int_Tables_number   1
_chemical_formula_structural   Cu4NiC20
_chemical_formula_sum   'Cu8 Ni2 C40'
_cell_volume   596.95914246
_cell_formula_units_Z   2
loop_
 _symmetry_equiv_pos_site_id
 _symmetry_equiv_pos_as_xyz
  1  'x, y, z'
loop_
 _atom_site_type_symbol
 _atom_site_label
 _atom_site_symmetry_multiplicity
 _atom_site_fract_x
 _atom_site_fract_y
 _atom_site_fract_z
 _atom_site_occupancy
  C  C0  1  0.00000000  0.00000000  0.00000000  1
  C  C1  1  0.00000000  0.39686600  0.89605400  1
  C  C2  1  0.00000000  0.60313400  0.10394600  1
  C  C3  1  0.00000000  0.19581900  0.69629100  1
  C  C4  1  0.00000000  0.20125500  0.20313800  1
  C  C5  1  0.00000000  0.40146100  0.39934200  1
  C  C6  1  0.00000000  0.80418100  0.30370900  1
  C  C7  1  0.00000000  0.59853900  0.60065800  1
  C  C8  1  0.00000000  0.00000000  0.50000000  1
  C  C9  1  0.00000000  0.79874500  0.79686200  1
  Ni  Ni10  1  0.50000000  0.30088300  0.05141300  1
  Ni  Ni11  1  0.50000000  0.69911700  0.94858700  1
  Cu  Cu12  1  0.50000000  0.90149200  0.15392700  1
  Cu  Cu13  1  0.50000000  0.50150100  0.25354800  1
  Cu  Cu14  1  0.50000000  0.69956300  0.45140800  1
  Cu  Cu15  1  0.50000000  0.10145100  0.35327200  1
  Cu  Cu16  1  0.50000000  0.89854900  0.64672800  1
  Cu  Cu17  1  0.50000000  0.30043700  0.54859200  1
  Cu  Cu18  1  0.50000000  0.49849900  0.74645200  1
  Cu  Cu19  1  0.50000000  0.09850800  0.84607300  1
  C  C20  1  0.50000000  0.38553800  0.15697400  1
  C  C21  1  0.50000000  0.79973100  0.04943500  1
  C  C22  1  0.50000000  0.59782300  0.35514300  1
  C  C23  1  0.50000000  0.00701500  0.25745400  1
  C  C24  1  0.50000000  0.80483400  0.54943400  1
  C  C25  1  0.50000000  0.19516600  0.45056600  1
  C  C26  1  0.50000000  0.99298500  0.74254600  1
  C  C27  1  0.50000000  0.40217700  0.64485700  1
  C  C28  1  0.50000000  0.20026900  0.95056500  1
  C  C29  1  0.50000000  0.61446200  0.84302600  1
  C  C30  1  0.50000000  0.50000000  0.00000000  1
  C  C31  1  0.50000000  0.30252800  0.30598200  1
  C  C32  1  0.50000000  0.10104300  0.10971300  1
  C  C33  1  0.50000000  0.71487300  0.21159700  1
  C  C34  1  0.50000000  0.89970500  0.40228100  1
  C  C35  1  0.50000000  0.69747200  0.69401800  1
  C  C36  1  0.50000000  0.50000000  0.50000000  1
  C  C37  1  0.50000000  0.10029500  0.59771900  1
  C  C38  1  0.50000000  0.89895700  0.89028700  1
  C  C39  1  0.50000000  0.28512700  0.78840300  1
  C  C40  1  0.00000000  0.29498600  0.06153700  1
  C  C41  1  0.00000000  0.50050800  0.26083000  1
  C  C42  1  0.00000000  0.91306400  0.16527600  1
  C  C43  1  0.00000000  0.70096500  0.45149100  1
  C  C44  1  0.00000000  0.09923900  0.35430700  1
  C  C45  1  0.00000000  0.90076100  0.64569300  1
  C  C46  1  0.00000000  0.29903500  0.54850900  1
  C  C47  1  0.00000000  0.08693600  0.83472400  1
  C  C48  1  0.00000000  0.49949200  0.73917000  1
  C  C49  1  0.00000000  0.70501400  0.93846300  1
