# generated using pymatgen
data_Cu3(NiC2)8
_symmetry_space_group_name_H-M   'P 1'
_cell_length_a   8.98950625
_cell_length_b   8.98950625
_cell_length_c   5.89882137
_cell_angle_alpha   89.98673478
_cell_angle_beta   89.98673478
_cell_angle_gamma   98.63180286
_symmetry_Int_Tables_number   1
_chemical_formula_structural   Cu3(NiC2)8
_chemical_formula_sum   'Cu3 Ni8 C16'
_cell_volume   471.29156730
_cell_formula_units_Z   1
loop_
 _symmetry_equiv_pos_site_id
 _symmetry_equiv_pos_as_xyz
  1  'x, y, z'
loop_
 _atom_site_type_symbol
 _atom_site_label
 _atom_site_symmetry_multiplicity
 _atom_site_fract_x
 _atom_site_fract_y
 _atom_site_fract_z
 _atom_site_occupancy
  Ni  Ni0  1  0.25247500  0.25247500  0.99335600  1
  Ni  Ni1  1  0.37139100  0.12027900  0.50008100  1
  Ni  Ni2  1  0.50000000  0.00000000  0.00000000  1
  Ni  Ni3  1  0.62860900  0.87972100  0.49991900  1
  Ni  Ni4  1  0.74752500  0.74752500  0.00664400  1
  Ni  Ni5  1  0.87972100  0.62860900  0.49991900  1
  Ni  Ni6  1  0.00000000  0.50000000  0.00000000  1
  Ni  Ni7  1  0.12027900  0.37139100  0.50008100  1
  Cu  Cu8  1  0.37093000  0.62907000  0.50000000  1
  Cu  Cu9  1  0.62907000  0.37093000  0.50000000  1
  Cu  Cu10  1  0.00000000  0.00000000  0.00000000  1
  C  C11  1  0.25198600  0.00151600  0.16505800  1
  C  C12  1  0.37684700  0.87615900  0.66798500  1
  C  C13  1  0.50124100  0.75246500  0.16741000  1
  C  C14  1  0.37328600  0.37328600  0.33128800  1
  C  C15  1  0.62671400  0.62671400  0.66871200  1
  C  C16  1  0.49875900  0.24753500  0.83259000  1
  C  C17  1  0.75246500  0.50124100  0.16741000  1
  C  C18  1  0.62315300  0.12384100  0.33201500  1
  C  C19  1  0.87615900  0.37684700  0.66798500  1
  C  C20  1  0.00151600  0.25198600  0.16505800  1
  C  C21  1  0.74801400  0.99848400  0.83494200  1
  C  C22  1  0.87554900  0.87554900  0.33634200  1
  C  C23  1  0.12445100  0.12445100  0.66365800  1
  C  C24  1  0.99848400  0.74801400  0.83494200  1
  C  C25  1  0.12384100  0.62315300  0.33201500  1
  C  C26  1  0.24753500  0.49875900  0.83259000  1
