# generated using pymatgen
data_Cu6Ni11C14
_symmetry_space_group_name_H-M   'P 1'
_cell_length_a   17.32216484
_cell_length_b   17.32216484
_cell_length_c   21.60504693
_cell_angle_alpha   65.87037231
_cell_angle_beta   65.87037231
_cell_angle_gamma   14.20114560
_symmetry_Int_Tables_number   1
_chemical_formula_structural   Cu6Ni11C14
_chemical_formula_sum   'Cu12 Ni22 C28'
_cell_volume   1449.16792033
_cell_formula_units_Z   2
loop_
 _symmetry_equiv_pos_site_id
 _symmetry_equiv_pos_as_xyz
  1  'x, y, z'
loop_
 _atom_site_type_symbol
 _atom_site_label
 _atom_site_symmetry_multiplicity
 _atom_site_fract_x
 _atom_site_fract_y
 _atom_site_fract_z
 _atom_site_occupancy
  C  C0  1  0.99590800  0.99590800  0.18112100  1
  C  C1  1  0.70862800  0.70862800  0.17710500  1
  C  C2  1  0.49727700  0.49727700  0.67881900  1
  C  C3  1  0.71261700  0.71261700  0.97575900  1
  C  C4  1  0.38636800  0.38636800  0.64693400  1
  C  C5  1  0.60992600  0.60992600  0.53769100  1
  C  C6  1  0.61363200  0.61363200  0.35306600  1
  C  C7  1  0.39255400  0.39255400  0.28632400  1
  C  C8  1  0.71178000  0.71178000  0.77180400  1
  C  C9  1  0.10967000  0.10967000  0.03686400  1
  C  C10  1  0.28928100  0.28928100  0.42591800  1
  C  C11  1  0.60744600  0.60744600  0.71367600  1
  C  C12  1  0.10453500  0.10453500  0.21421200  1
  C  C13  1  0.71071900  0.71071900  0.57408200  1
  C  C14  1  0.89033000  0.89033000  0.96313600  1
  C  C15  1  0.29137200  0.29137200  0.82289500  1
  C  C16  1  0.71318300  0.71318300  0.37551200  1
  C  C17  1  0.50272300  0.50272300  0.32118100  1
  C  C18  1  0.28822000  0.28822000  0.22819600  1
  C  C19  1  0.89546500  0.89546500  0.78578800  1
  C  C20  1  0.28681700  0.28681700  0.62448800  1
  C  C21  1  0.28738300  0.28738300  0.02424100  1
  C  C22  1  0.00000000  0.00000000  0.00000000  1
  C  C23  1  0.11377300  0.11377300  0.85621000  1
  C  C24  1  0.00409200  0.00409200  0.81887900  1
  C  C25  1  0.39007400  0.39007400  0.46230900  1
  C  C26  1  0.50000000  0.50000000  0.50000000  1
  C  C27  1  0.88622700  0.88622700  0.14379000  1
  Ni  Ni28  1  0.06865600  0.06865600  0.65616400  1
  Ni  Ni29  1  0.93134400  0.93134400  0.34383600  1
  Ni  Ni30  1  0.81572800  0.81572800  0.50693600  1
  Ni  Ni31  1  0.18175800  0.18175800  0.69389300  1
  Ni  Ni32  1  0.81523200  0.81523200  0.90905100  1
  Ni  Ni33  1  0.18427200  0.18427200  0.49306400  1
  Ni  Ni34  1  0.07614000  0.07614000  0.46618600  1
  Ni  Ni35  1  0.43440700  0.43440700  0.84351100  1
  Ni  Ni36  1  0.92386000  0.92386000  0.53381400  1
  Ni  Ni37  1  0.19187400  0.19187400  0.88880700  1
  Ni  Ni38  1  0.57638800  0.57638800  0.96551000  1
  Ni  Ni39  1  0.42361200  0.42361200  0.03449000  1
  Ni  Ni40  1  0.81824200  0.81824200  0.30610700  1
  Ni  Ni41  1  0.80812600  0.80812600  0.11119300  1
  Ni  Ni42  1  0.81422500  0.81422500  0.70817800  1
  Ni  Ni43  1  0.18577500  0.18577500  0.29182200  1
  Ni  Ni44  1  0.54429400  0.54429400  0.87878900  1
  Ni  Ni45  1  0.04435400  0.04435400  0.37976900  1
  Ni  Ni46  1  0.45570600  0.45570600  0.12121100  1
  Ni  Ni47  1  0.95564600  0.95564600  0.62023100  1
  Ni  Ni48  1  0.18476800  0.18476800  0.09094900  1
  Ni  Ni49  1  0.56559300  0.56559300  0.15648900  1
  Cu  Cu50  1  0.14650400  0.14650400  0.61423300  1
  Cu  Cu51  1  0.85349600  0.85349600  0.38576700  1
  Cu  Cu52  1  0.35642700  0.35642700  0.88557800  1
  Cu  Cu53  1  0.34918300  0.34918300  0.08529800  1
  Cu  Cu54  1  0.96891400  0.96891400  0.41972200  1
  Cu  Cu55  1  0.65081700  0.65081700  0.91470200  1
  Cu  Cu56  1  0.46870600  0.46870600  0.92023300  1
  Cu  Cu57  1  0.03108600  0.03108600  0.58027800  1
  Cu  Cu58  1  0.15155000  0.15155000  0.41690400  1
  Cu  Cu59  1  0.84845000  0.84845000  0.58309600  1
  Cu  Cu60  1  0.53129400  0.53129400  0.07976700  1
  Cu  Cu61  1  0.64357300  0.64357300  0.11442200  1
