# generated using pymatgen
data_Cu4Ni4C7
_symmetry_space_group_name_H-M   'P 1'
_cell_length_a   13.22270500
_cell_length_b   4.36429500
_cell_length_c   11.20516443
_cell_angle_alpha   81.84034384
_cell_angle_beta   90.00000000
_cell_angle_gamma   90.00000000
_symmetry_Int_Tables_number   1
_chemical_formula_structural   Cu4Ni4C7
_chemical_formula_sum   'Cu8 Ni8 C14'
_cell_volume   640.07905823
_cell_formula_units_Z   2
loop_
 _symmetry_equiv_pos_site_id
 _symmetry_equiv_pos_as_xyz
  1  'x, y, z'
loop_
 _atom_site_type_symbol
 _atom_site_label
 _atom_site_symmetry_multiplicity
 _atom_site_fract_x
 _atom_site_fract_y
 _atom_site_fract_z
 _atom_site_occupancy
  C  C0  1  0.35467400  0.30929000  0.03004200  1
  C  C1  1  0.14532600  0.30929000  0.53004200  1
  C  C2  1  0.85467400  0.69071000  0.46995800  1
  C  C3  1  0.64532600  0.69071000  0.96995800  1
  C  C4  1  0.00000000  0.00000000  0.00000000  1
  C  C5  1  0.50000000  0.00000000  0.50000000  1
  Ni  Ni6  1  0.84556500  0.21193900  0.20468100  1
  Ni  Ni7  1  0.92463400  0.02900900  0.72745300  1
  Ni  Ni8  1  0.57536600  0.02900900  0.22745300  1
  Ni  Ni9  1  0.65443500  0.21193900  0.70468100  1
  Ni  Ni10  1  0.34556500  0.78806100  0.29531900  1
  Ni  Ni11  1  0.07536600  0.97099100  0.27254700  1
  Ni  Ni12  1  0.15443500  0.78806100  0.79531900  1
  Ni  Ni13  1  0.42463400  0.97099100  0.77254700  1
  C  C14  1  0.33520700  0.87443600  0.43398200  1
  C  C15  1  0.59181600  0.77443500  0.35004900  1
  C  C16  1  0.90818400  0.77443500  0.85004900  1
  C  C17  1  0.40818400  0.22556500  0.64995100  1
  C  C18  1  0.83520700  0.12556400  0.06601800  1
  C  C19  1  0.09181600  0.22556500  0.14995100  1
  C  C20  1  0.16479300  0.87443600  0.93398200  1
  C  C21  1  0.66479300  0.12556400  0.56601800  1
  Cu  Cu22  1  0.56466900  0.19920900  0.13596600  1
  Cu  Cu23  1  0.65176700  0.27390600  0.80372400  1
  Cu  Cu24  1  0.34823300  0.72609400  0.19627600  1
  Cu  Cu25  1  0.93533100  0.19920900  0.63596600  1
  Cu  Cu26  1  0.15176700  0.72609400  0.69627600  1
  Cu  Cu27  1  0.84823300  0.27390600  0.30372400  1
  Cu  Cu28  1  0.06466900  0.80079100  0.36403400  1
  Cu  Cu29  1  0.43533100  0.80079100  0.86403400  1
