# generated using pymatgen
data_Cu8Ni3C32
_symmetry_space_group_name_H-M   'P 1'
_cell_length_a   10.15831700
_cell_length_b   10.19790368
_cell_length_c   14.60248191
_cell_angle_alpha   91.14189997
_cell_angle_beta   89.93892365
_cell_angle_gamma   119.85096389
_symmetry_Int_Tables_number   1
_chemical_formula_structural   Cu8Ni3C32
_chemical_formula_sum   'Cu16 Ni6 C64'
_cell_volume   1311.69040808
_cell_formula_units_Z   2
loop_
 _symmetry_equiv_pos_site_id
 _symmetry_equiv_pos_as_xyz
  1  'x, y, z'
loop_
 _atom_site_type_symbol
 _atom_site_label
 _atom_site_symmetry_multiplicity
 _atom_site_fract_x
 _atom_site_fract_y
 _atom_site_fract_z
 _atom_site_occupancy
  C  C0  1  0.92885100  0.71708600  0.94043600  1
  C  C1  1  0.07328700  0.28660900  0.05154600  1
  C  C2  1  0.69624300  0.77774400  0.05072800  1
  C  C3  1  0.95715500  0.93030900  0.50402600  1
  C  C4  1  0.22105200  0.30358800  0.55795200  1
  C  C5  1  0.33983600  0.68527700  0.39852300  1
  Ni  Ni6  1  0.00047900  0.56799300  0.74453600  1
  Ni  Ni7  1  0.99445200  0.42888000  0.25108900  1
  Ni  Ni8  1  0.43414700  0.43228300  0.74968600  1
  Ni  Ni9  1  0.43179400  0.00532000  0.24705200  1
  Ni  Ni10  1  0.57283200  0.56842700  0.25238600  1
  Ni  Ni11  1  0.56712100  0.00047300  0.74607900  1
  Cu  Cu12  1  0.76663700  0.07612900  0.15767100  1
  Cu  Cu13  1  0.29638600  0.07306800  0.65385800  1
  Cu  Cu14  1  0.77696600  0.69749300  0.65706800  1
  Cu  Cu15  1  0.33187900  0.66075300  0.12263100  1
  Cu  Cu16  1  0.66647700  0.33442300  0.37679700  1
  Cu  Cu17  1  0.08605100  0.32022500  0.84396500  1
  Cu  Cu18  1  0.91901500  0.21983600  0.66025100  1
  Cu  Cu19  1  0.31170100  0.23054600  0.16262600  1
  Cu  Cu20  1  0.67252800  0.33770800  0.87534900  1
  Cu  Cu21  1  0.91664900  0.68267000  0.15294600  1
  Cu  Cu22  1  0.69253300  0.92070800  0.34559900  1
  Cu  Cu23  1  0.33462400  0.66185900  0.62425100  1
  Cu  Cu24  1  0.23095700  0.92481800  0.84350500  1
  Cu  Cu25  1  0.23048400  0.32172900  0.34683300  1
  Cu  Cu26  1  0.68524500  0.77291300  0.84161600  1
  Cu  Cu27  1  0.08458100  0.78089000  0.33959700  1
  C  C28  1  0.87921900  0.51731800  0.16806900  1
  C  C29  1  0.10761700  0.63930100  0.34025600  1
  C  C30  1  0.19038300  0.50655200  0.15391400  1
  C  C31  1  0.22410800  0.00796300  0.92591900  1
  C  C32  1  0.23148000  0.22246100  0.26083900  1
  C  C33  1  0.52049200  0.31879500  0.83409700  1
  C  C34  1  0.99405300  0.75114800  0.06582200  1
  C  C35  1  0.33450100  0.66350800  0.01994600  1
  C  C36  1  0.35993200  0.48974800  0.33305700  1
  C  C37  1  0.78907400  0.00480500  0.42620800  1
  C  C38  1  0.75439900  0.97693100  0.07863300  1
  C  C39  1  0.08322700  0.76374300  0.84116600  1
  C  C40  1  0.45357400  0.08226700  0.65139500  1
  C  C41  1  0.01395800  0.20858900  0.58594000  1
  C  C42  1  0.48966100  0.79039900  0.66413300  1
  C  C43  1  0.91805400  0.23075400  0.15383700  1
  C  C44  1  0.51217500  0.20153900  0.33837900  1
  C  C45  1  0.52023400  0.63985800  0.82846900  1
  C  C46  1  0.98693500  0.21371800  0.75902700  1
  C  C47  1  0.52607500  0.89335100  0.33897100  1
  C  C48  1  0.31479900  0.07970900  0.15497100  1
  C  C49  1  0.66582200  0.33528000  0.47960800  1
  C  C50  1  0.01388100  0.78196200  0.24040100  1
  C  C51  1  0.80113600  0.31296400  0.34105300  1
  C  C52  1  0.33142700  0.66002200  0.52133400  1
  C  C53  1  0.00587800  0.25307300  0.93076300  1
  C  C54  1  0.48677500  0.67284500  0.15518600  1
  C  C55  1  0.91953400  0.67696200  0.65346900  1
  C  C56  1  0.76260900  0.68397500  0.15569400  1
  C  C57  1  0.20654900  0.68739700  0.66530200  1
  C  C58  1  0.47957300  0.36099500  0.17158500  1
  C  C59  1  0.68941400  0.48937700  0.34117300  1
  C  C60  1  0.67949700  0.76116100  0.34513000  1
  C  C61  1  0.81141200  0.49458500  0.84432300  1
  C  C62  1  0.63701600  0.11461800  0.16685500  1
  C  C63  1  0.31988200  0.23842000  0.65526500  1
  C  C64  1  0.37247200  0.90358800  0.83668800  1
  C  C65  1  0.22060200  0.00246300  0.75034700  1
  C  C66  1  0.67987600  0.92167200  0.84195300  1
  C  C67  1  0.62900600  0.54192900  0.65552300  1
  C  C68  1  0.90281900  0.36369100  0.65858200  1
  C  C69  1  0.69309700  0.20584500  0.83343700  1
  C  C70  1  0.77543000  0.00082100  0.25197900  1
  C  C71  1  0.18906600  0.99360000  0.57614800  1
  C  C72  1  0.31321400  0.78943400  0.17045700  1
  C  C73  1  0.07743600  0.32180000  0.34413500  1
  C  C74  1  0.22262700  0.24414200  0.08714200  1
  C  C75  1  0.67018800  0.33859600  0.97800100  1
  C  C76  1  0.24626300  0.92324000  0.34259000  1
  C  C77  1  0.75972200  0.75897000  0.92738400  1
  C  C78  1  0.24185000  0.32484800  0.84206400  1
  C  C79  1  0.75848800  0.07620400  0.65463400  1
  C  C80  1  0.31176600  0.50283500  0.65376000  1
  C  C81  1  0.11742100  0.48328000  0.82675700  1
  C  C82  1  0.99362000  0.79556100  0.41463600  1
  C  C83  1  0.78713000  0.77595600  0.75663700  1
  C  C84  1  0.79484000  0.80242200  0.58238700  1
  C  C85  1  0.23934700  0.25235700  0.43373600  1
