# generated using pymatgen
data_Cu13Ni11C59
_symmetry_space_group_name_H-M   'P 1'
_cell_length_a   12.22004100
_cell_length_b   12.26570352
_cell_length_c   12.74578328
_cell_angle_alpha   89.90914540
_cell_angle_beta   89.49384362
_cell_angle_gamma   89.97143550
_symmetry_Int_Tables_number   1
_chemical_formula_structural   Cu13Ni11C59
_chemical_formula_sum   'Cu13 Ni11 C59'
_cell_volume   1910.35514469
_cell_formula_units_Z   1
loop_
 _symmetry_equiv_pos_site_id
 _symmetry_equiv_pos_as_xyz
  1  'x, y, z'
loop_
 _atom_site_type_symbol
 _atom_site_label
 _atom_site_symmetry_multiplicity
 _atom_site_fract_x
 _atom_site_fract_y
 _atom_site_fract_z
 _atom_site_occupancy
  C  C0  1  0.01715000  0.50569400  0.52517800  1
  C  C1  1  0.19015800  0.79091100  0.20267900  1
  C  C2  1  0.80532500  0.80317400  0.20688800  1
  C  C3  1  0.18900400  0.20785500  0.20203400  1
  C  C4  1  0.80512300  0.19498000  0.20544300  1
  C  C5  1  0.80737900  0.50225200  0.80441300  1
  C  C6  1  0.49848000  0.18375400  0.78763000  1
  C  C7  1  0.19541600  0.80957600  0.77708600  1
  C  C8  1  0.80972900  0.82608900  0.78574000  1
  C  C9  1  0.17946500  0.17991100  0.78161700  1
  C  C10  1  0.82258100  0.16893600  0.78987800  1
  Ni  Ni11  1  0.62911800  0.00003700  0.18064300  1
  Ni  Ni12  1  0.99519900  0.62617100  0.18154100  1
  Ni  Ni13  1  0.99463100  0.37523200  0.18161500  1
  Ni  Ni14  1  0.19310400  0.00021200  0.61341100  1
  Ni  Ni15  1  0.00334600  0.80785100  0.61332200  1
  Ni  Ni16  1  0.81210800  0.00089000  0.61741700  1
  Ni  Ni17  1  0.00222600  0.19473700  0.61068300  1
  Ni  Ni18  1  0.36046500  0.99641500  0.82879100  1
  Ni  Ni19  1  0.63725000  0.99741600  0.83365200  1
  Ni  Ni20  1  0.00478900  0.63904800  0.82479600  1
  Ni  Ni21  1  0.00429300  0.36278700  0.82649800  1
  Cu  Cu22  1  0.36572800  0.81471300  0.00457100  1
  Cu  Cu23  1  0.18638800  0.62959600  0.99966100  1
  Cu  Cu24  1  0.62873700  0.81166400  0.00779000  1
  Cu  Cu25  1  0.18590800  0.37215900  0.00061900  1
  Cu  Cu26  1  0.81149300  0.63371900  0.99967500  1
  Cu  Cu27  1  0.36481600  0.18614600  0.00212100  1
  Cu  Cu28  1  0.81057800  0.36957200  0.00019000  1
  Cu  Cu29  1  0.62855500  0.19051500  0.00385200  1
  Cu  Cu30  1  0.36549000  0.00000200  0.17673200  1
  Cu  Cu31  1  0.18806600  0.00100300  0.37157900  1
  Cu  Cu32  1  0.00083200  0.81708500  0.36941200  1
  Cu  Cu33  1  0.81228900  0.00130500  0.37584800  1
  Cu  Cu34  1  0.00072100  0.18595700  0.37022800  1
  C  C35  1  0.30131100  0.69855400  0.01794700  1
  C  C36  1  0.22128900  0.50053600  0.98671500  1
  C  C37  1  0.69023600  0.69207300  0.00814800  1
  C  C38  1  0.29997200  0.30098300  0.01820200  1
  C  C39  1  0.49579800  0.21661900  0.99552200  1
  C  C40  1  0.33333100  0.88771700  0.11148800  1
  C  C41  1  0.11424400  0.64998600  0.10515000  1
  C  C42  1  0.87793000  0.65782100  0.10590000  1
  C  C43  1  0.33429200  0.10989000  0.10577200  1
  C  C44  1  0.65970200  0.87608300  0.11570300  1
  C  C45  1  0.11485300  0.35176900  0.10668800  1
  C  C46  1  0.87639100  0.34449900  0.10672400  1
  C  C47  1  0.65858900  0.12081400  0.10809400  1
  C  C48  1  0.49035400  0.00233100  0.21218500  1
  C  C49  1  0.98860800  0.50053100  0.24040800  1
  C  C50  1  0.27768500  0.00424100  0.27325300  1
  C  C51  1  0.00012600  0.73459900  0.27045400  1
  C  C52  1  0.72549600  0.00475500  0.27968300  1
  C  C53  1  0.99982700  0.26454300  0.26803900  1
  C  C54  1  0.11319800  0.89175700  0.34528600  1
  C  C55  1  0.89010100  0.89274800  0.35082000  1
  C  C56  1  0.11295300  0.11083500  0.34861700  1
  C  C57  1  0.89050000  0.10987700  0.35382600  1
  C  C58  1  0.24678500  0.99828500  0.48143800  1
  C  C59  1  0.00349900  0.75561100  0.48018800  1
  C  C60  1  0.00283500  0.25119900  0.47902200  1
  C  C61  1  0.75610300  0.99896500  0.48853100  1
  C  C62  1  0.12434700  0.87782700  0.63176700  1
  C  C63  1  0.88308800  0.87914000  0.63413000  1
  C  C64  1  0.12214500  0.12211200  0.62585900  1
  C  C65  1  0.88108800  0.12436900  0.62972800  1
  C  C66  1  0.28544900  0.00432500  0.71759800  1
  C  C67  1  0.72316500  0.00201800  0.72731000  1
  C  C68  1  0.00506300  0.69825700  0.70280200  1
  C  C69  1  0.00542400  0.29641600  0.70831400  1
  C  C70  1  0.98867900  0.50057900  0.81124000  1
  C  C71  1  0.49939600  0.00570200  0.81443400  1
  C  C72  1  0.32181400  0.87993600  0.90341800  1
  C  C73  1  0.67246600  0.87971900  0.90690000  1
  C  C74  1  0.12399200  0.67625400  0.89644400  1
  C  C75  1  0.87537100  0.67583100  0.89325100  1
  C  C76  1  0.12320100  0.32459500  0.89818300  1
  C  C77  1  0.87381500  0.32673900  0.89390000  1
  C  C78  1  0.32794400  0.12654800  0.89495700  1
  C  C79  1  0.66561400  0.13017300  0.89574700  1
  C  C80  1  0.49654000  0.78897600  0.00278500  1
  C  C81  1  0.78389500  0.50144800  0.98435300  1
  C  C82  1  0.68985600  0.30975300  0.00844200  1
