# generated using pymatgen
data_Cu3NiC6
_symmetry_space_group_name_H-M   'P 1'
_cell_length_a   9.30317400
_cell_length_b   10.44350400
_cell_length_c   15.13609200
_cell_angle_alpha   90.00000000
_cell_angle_beta   90.00000000
_cell_angle_gamma   90.00000000
_symmetry_Int_Tables_number   1
_chemical_formula_structural   Cu3NiC6
_chemical_formula_sum   'Cu24 Ni8 C48'
_cell_volume   1470.58841368
_cell_formula_units_Z   8
loop_
 _symmetry_equiv_pos_site_id
 _symmetry_equiv_pos_as_xyz
  1  'x, y, z'
loop_
 _atom_site_type_symbol
 _atom_site_label
 _atom_site_symmetry_multiplicity
 _atom_site_fract_x
 _atom_site_fract_y
 _atom_site_fract_z
 _atom_site_occupancy
  C  C0  1  0.25000000  0.00000000  0.58798000  1
  C  C1  1  0.25000000  0.00000000  0.08798000  1
  C  C2  1  0.75000000  0.00000000  0.41202000  1
  C  C3  1  0.75000000  0.00000000  0.91202000  1
  C  C4  1  0.50000000  0.77516800  0.25000000  1
  C  C5  1  0.50000000  0.22483200  0.75000000  1
  C  C6  1  0.00000000  0.77516800  0.75000000  1
  C  C7  1  0.00000000  0.22483200  0.25000000  1
  C  C8  1  0.92963700  0.84133800  0.12489700  1
  C  C9  1  0.07036300  0.15866200  0.87510300  1
  C  C10  1  0.66440900  0.68595000  0.93101400  1
  C  C11  1  0.40221700  0.37826300  0.35838000  1
  C  C12  1  0.66440900  0.31405000  0.43101400  1
  C  C13  1  0.59778300  0.37826300  0.14162000  1
  C  C14  1  0.92963700  0.15866200  0.62489700  1
  C  C15  1  0.42963700  0.15866200  0.37510300  1
  C  C16  1  0.16440900  0.31405000  0.56898600  1
  C  C17  1  0.40221700  0.62173700  0.85838000  1
  C  C18  1  0.59778300  0.62173700  0.64162000  1
  C  C19  1  0.33559100  0.31405000  0.06898600  1
  C  C20  1  0.83559100  0.31405000  0.93101400  1
  C  C21  1  0.90221700  0.37826300  0.64162000  1
  C  C22  1  0.09778300  0.37826300  0.85838000  1
  C  C23  1  0.09778300  0.62173700  0.35838000  1
  C  C24  1  0.33559100  0.68595000  0.56898600  1
  C  C25  1  0.90221700  0.62173700  0.14162000  1
  C  C26  1  0.42963700  0.84133800  0.87510300  1
  C  C27  1  0.57036300  0.84133800  0.62489700  1
  C  C28  1  0.07036300  0.84133800  0.37510300  1
  C  C29  1  0.83559100  0.68595000  0.43101400  1
  C  C30  1  0.16440900  0.68595000  0.06898600  1
  C  C31  1  0.57036300  0.15866200  0.12489700  1
  C  C32  1  0.04833700  0.41751600  0.59130900  1
  C  C33  1  0.89552300  0.82151000  0.39488800  1
  C  C34  1  0.45166300  0.58248400  0.59130900  1
  C  C35  1  0.95166300  0.41751600  0.90869100  1
  C  C36  1  0.54833700  0.41751600  0.40869100  1
  C  C37  1  0.95166300  0.58248400  0.40869100  1
  C  C38  1  0.10447700  0.17849000  0.60511200  1
  C  C39  1  0.39552300  0.82151000  0.60511200  1
  C  C40  1  0.89552300  0.17849000  0.89488800  1
  C  C41  1  0.54833700  0.58248400  0.90869100  1
  C  C42  1  0.10447700  0.82151000  0.10511200  1
  C  C43  1  0.39552300  0.17849000  0.10511200  1
  C  C44  1  0.60447700  0.82151000  0.89488800  1
  C  C45  1  0.45166300  0.41751600  0.09130900  1
  C  C46  1  0.04833700  0.58248400  0.09130900  1
  C  C47  1  0.60447700  0.17849000  0.39488800  1
  Ni  Ni48  1  0.14818700  0.87165700  0.45743300  1
  Ni  Ni49  1  0.35181300  0.12834300  0.45743300  1
  Ni  Ni50  1  0.64818700  0.12834300  0.04256700  1
  Ni  Ni51  1  0.85181300  0.87165700  0.04256700  1
  Ni  Ni52  1  0.64818700  0.87165700  0.54256700  1
  Ni  Ni53  1  0.35181300  0.87165700  0.95743300  1
  Ni  Ni54  1  0.85181300  0.12834300  0.54256700  1
  Ni  Ni55  1  0.14818700  0.12834300  0.95743300  1
  Cu  Cu56  1  0.49515200  0.22541100  0.86726600  1
  Cu  Cu57  1  0.50484800  0.22541100  0.63273400  1
  Cu  Cu58  1  0.86367800  0.34448800  0.25226500  1
  Cu  Cu59  1  0.13466100  0.89620000  0.74785500  1
  Cu  Cu60  1  0.00484800  0.22541100  0.36726600  1
  Cu  Cu61  1  0.36367800  0.65551200  0.24773500  1
  Cu  Cu62  1  0.63632200  0.65551200  0.25226500  1
  Cu  Cu63  1  0.49515200  0.77458900  0.36726600  1
  Cu  Cu64  1  0.36367800  0.34448800  0.74773500  1
  Cu  Cu65  1  0.99515200  0.22541100  0.13273400  1
  Cu  Cu66  1  0.63632200  0.34448800  0.75226500  1
  Cu  Cu67  1  0.86367800  0.65551200  0.75226500  1
  Cu  Cu68  1  0.86533900  0.89620000  0.75214500  1
  Cu  Cu69  1  0.13466100  0.10380000  0.24785500  1
  Cu  Cu70  1  0.13632200  0.34448800  0.24773500  1
  Cu  Cu71  1  0.13632200  0.65551200  0.74773500  1
  Cu  Cu72  1  0.63466100  0.89620000  0.25214500  1
  Cu  Cu73  1  0.00484800  0.77458900  0.86726600  1
  Cu  Cu74  1  0.36533900  0.89620000  0.24785500  1
  Cu  Cu75  1  0.50484800  0.77458900  0.13273400  1
  Cu  Cu76  1  0.36533900  0.10380000  0.74785500  1
  Cu  Cu77  1  0.63466100  0.10380000  0.75214500  1
  Cu  Cu78  1  0.99515200  0.77458900  0.63273400  1
  Cu  Cu79  1  0.86533900  0.10380000  0.25214500  1
