# generated using pymatgen
data_Cu13Ni3C10
_symmetry_space_group_name_H-M   'P 1'
_cell_length_a   10.34080381
_cell_length_b   10.34080381
_cell_length_c   10.34080372
_cell_angle_alpha   94.97985468
_cell_angle_beta   94.97985468
_cell_angle_gamma   94.97985465
_symmetry_Int_Tables_number   1
_chemical_formula_structural   Cu13Ni3C10
_chemical_formula_sum   'Cu13 Ni3 C10'
_cell_volume   1092.46362809
_cell_formula_units_Z   1
loop_
 _symmetry_equiv_pos_site_id
 _symmetry_equiv_pos_as_xyz
  1  'x, y, z'
loop_
 _atom_site_type_symbol
 _atom_site_label
 _atom_site_symmetry_multiplicity
 _atom_site_fract_x
 _atom_site_fract_y
 _atom_site_fract_z
 _atom_site_occupancy
  C  C0  1  0.79460600  0.36707800  0.36707800  1
  C  C1  1  0.36707800  0.79460600  0.36707800  1
  C  C2  1  0.36707800  0.36707800  0.79460600  1
  C  C3  1  0.99849300  0.99849300  0.57858100  1
  C  C4  1  0.57858100  0.99849300  0.99849300  1
  C  C5  1  0.99849300  0.57858100  0.99849300  1
  C  C6  1  0.52859100  0.52859100  0.52859100  1
  C  C7  1  0.63595800  0.63595800  0.93249900  1
  C  C8  1  0.63595800  0.93249900  0.63595800  1
  C  C9  1  0.93249900  0.63595800  0.63595800  1
  Ni  Ni10  1  0.29437100  0.75416500  0.75416500  1
  Ni  Ni11  1  0.75416500  0.75416500  0.29437100  1
  Ni  Ni12  1  0.75416500  0.29437100  0.75416500  1
  Cu  Cu13  1  0.97253800  0.68309500  0.39055700  1
  Cu  Cu14  1  0.69007400  0.69007400  0.69007400  1
  Cu  Cu15  1  0.27910100  0.56823700  0.56823700  1
  Cu  Cu16  1  0.56823700  0.56823700  0.27910100  1
  Cu  Cu17  1  0.56823700  0.27910100  0.56823700  1
  Cu  Cu18  1  0.81089300  0.81089300  0.06970900  1
  Cu  Cu19  1  0.81089300  0.06970900  0.81089300  1
  Cu  Cu20  1  0.06970900  0.81089300  0.81089300  1
  Cu  Cu21  1  0.39055700  0.68309500  0.97253800  1
  Cu  Cu22  1  0.68309500  0.97253800  0.39055700  1
  Cu  Cu23  1  0.97253800  0.39055700  0.68309500  1
  Cu  Cu24  1  0.68309500  0.39055700  0.97253800  1
  Cu  Cu25  1  0.39055700  0.97253800  0.68309500  1
