# generated using pymatgen
data_Cu3NiC7
_symmetry_space_group_name_H-M   'P 1'
_cell_length_a   7.55249000
_cell_length_b   5.51162400
_cell_length_c   6.33844542
_cell_angle_alpha   85.61741920
_cell_angle_beta   90.00000000
_cell_angle_gamma   90.00000000
_symmetry_Int_Tables_number   1
_chemical_formula_structural   Cu3NiC7
_chemical_formula_sum   'Cu6 Ni2 C14'
_cell_volume   263.07572298
_cell_formula_units_Z   2
loop_
 _symmetry_equiv_pos_site_id
 _symmetry_equiv_pos_as_xyz
  1  'x, y, z'
loop_
 _atom_site_type_symbol
 _atom_site_label
 _atom_site_symmetry_multiplicity
 _atom_site_fract_x
 _atom_site_fract_y
 _atom_site_fract_z
 _atom_site_occupancy
  C  C0  1  0.75000000  0.92809800  0.91775800  1
  C  C1  1  0.25000000  0.07190200  0.08224200  1
  C  C2  1  0.75000000  0.60951100  0.66831000  1
  C  C3  1  0.25000000  0.39048900  0.33169000  1
  C  C4  1  0.51545800  0.35331500  0.85685500  1
  C  C5  1  0.01545800  0.64668500  0.14314500  1
  C  C6  1  0.48454200  0.64668500  0.14314500  1
  C  C7  1  0.98454200  0.35331500  0.85685500  1
  C  C8  1  0.75000000  0.17856300  0.61899700  1
  C  C9  1  0.25000000  0.82143700  0.38100300  1
  C  C10  1  0.53584400  0.19172500  0.22836600  1
  C  C11  1  0.03584400  0.80827500  0.77163400  1
  C  C12  1  0.46415600  0.80827500  0.77163400  1
  C  C13  1  0.96415600  0.19172500  0.22836600  1
  Ni  Ni14  1  0.75000000  0.82184700  0.31755700  1
  Ni  Ni15  1  0.25000000  0.17815300  0.68244300  1
  Cu  Cu16  1  0.75000000  0.25165800  0.75405100  1
  Cu  Cu17  1  0.25000000  0.74834200  0.24594900  1
  Cu  Cu18  1  0.55486000  0.71063200  0.84703800  1
  Cu  Cu19  1  0.05486000  0.28936800  0.15296200  1
  Cu  Cu20  1  0.44514000  0.28936800  0.15296200  1
  Cu  Cu21  1  0.94514000  0.71063200  0.84703800  1
