# generated using pymatgen
data_Cu4Ni4C
_symmetry_space_group_name_H-M   'P 1'
_cell_length_a   15.35048900
_cell_length_b   6.48400300
_cell_length_c   11.08712833
_cell_angle_alpha   89.45949444
_cell_angle_beta   90.00000000
_cell_angle_gamma   90.00000000
_symmetry_Int_Tables_number   1
_chemical_formula_structural   Cu4Ni4C
_chemical_formula_sum   'Cu32 Ni32 C8'
_cell_volume   1103.48179225
_cell_formula_units_Z   8
loop_
 _symmetry_equiv_pos_site_id
 _symmetry_equiv_pos_as_xyz
  1  'x, y, z'
loop_
 _atom_site_type_symbol
 _atom_site_label
 _atom_site_symmetry_multiplicity
 _atom_site_fract_x
 _atom_site_fract_y
 _atom_site_fract_z
 _atom_site_occupancy
  C  C0  1  0.66655800  0.24367700  0.55210700  1
  C  C1  1  0.66671800  0.75223000  0.08321900  1
  C  C2  1  0.33328200  0.24777000  0.91678100  1
  C  C3  1  0.16655800  0.75632300  0.44789300  1
  C  C4  1  0.16671800  0.24777000  0.91678100  1
  C  C5  1  0.83328200  0.75223000  0.08321900  1
  C  C6  1  0.83344200  0.24367700  0.55210700  1
  C  C7  1  0.33344200  0.75632300  0.44789300  1
  Ni  Ni8  1  0.60283600  0.62266300  0.19420900  1
  Ni  Ni9  1  0.61354200  0.99956800  0.07393300  1
  Ni  Ni10  1  0.75000000  0.02124100  0.56903900  1
  Ni  Ni11  1  0.89716400  0.62266300  0.19420900  1
  Ni  Ni12  1  0.86644700  0.67732700  0.93458500  1
  Ni  Ni13  1  0.38398900  0.50664100  0.44260900  1
  Ni  Ni14  1  0.12783700  0.83042300  0.30127800  1
  Ni  Ni15  1  0.60417300  0.11257300  0.44153000  1
  Ni  Ni16  1  0.11354200  0.00043200  0.92606700  1
  Ni  Ni17  1  0.10283600  0.37733700  0.80579100  1
  Ni  Ni18  1  0.11601100  0.50664100  0.44260900  1
  Ni  Ni19  1  0.75000000  0.52842400  0.07369600  1
  Ni  Ni20  1  0.25000000  0.97875900  0.43096100  1
  Ni  Ni21  1  0.10417300  0.88742700  0.55847000  1
  Ni  Ni22  1  0.13355300  0.32267300  0.06541500  1
  Ni  Ni23  1  0.87216300  0.16957700  0.69872200  1
  Ni  Ni24  1  0.75000000  0.87524700  0.19259600  1
  Ni  Ni25  1  0.62783700  0.16957700  0.69872200  1
  Ni  Ni26  1  0.88398900  0.49335900  0.55739100  1
  Ni  Ni27  1  0.88645800  0.99956800  0.07393300  1
  Ni  Ni28  1  0.37216300  0.83042300  0.30127800  1
  Ni  Ni29  1  0.25000000  0.12475300  0.80740400  1
  Ni  Ni30  1  0.38645800  0.00043200  0.92606700  1
  Ni  Ni31  1  0.36644700  0.32267300  0.06541500  1
  Ni  Ni32  1  0.89582700  0.11257300  0.44153000  1
  Ni  Ni33  1  0.39582700  0.88742700  0.55847000  1
  Ni  Ni34  1  0.63355300  0.67732700  0.93458500  1
  Ni  Ni35  1  0.75000000  0.36555300  0.44141100  1
  Ni  Ni36  1  0.25000000  0.47157600  0.92630400  1
  Ni  Ni37  1  0.39716400  0.37733700  0.80579100  1
  Ni  Ni38  1  0.61601100  0.49335900  0.55739100  1
  Ni  Ni39  1  0.25000000  0.63444700  0.55858900  1
  Cu  Cu40  1  0.07870300  0.35172400  0.44398700  1
  Cu  Cu41  1  0.61263900  0.62444000  0.83935000  1
  Cu  Cu42  1  0.57349700  0.15067300  0.07135000  1
  Cu  Cu43  1  0.06111800  0.97077400  0.62870800  1
  Cu  Cu44  1  0.56111800  0.02922600  0.37129200  1
  Cu  Cu45  1  0.42129700  0.35172400  0.44398700  1
  Cu  Cu46  1  0.75000000  0.84128500  0.58689900  1
  Cu  Cu47  1  0.05898600  0.45870800  0.73486000  1
  Cu  Cu48  1  0.39876000  0.88089200  0.20770900  1
  Cu  Cu49  1  0.60124000  0.11910800  0.79229100  1
  Cu  Cu50  1  0.25000000  0.53186200  0.64724400  1
  Cu  Cu51  1  0.92129700  0.64827600  0.55601300  1
  Cu  Cu52  1  0.25000000  0.65251800  0.93847800  1
  Cu  Cu53  1  0.25000000  0.15871500  0.41310100  1
  Cu  Cu54  1  0.25000000  0.02385100  0.71931200  1
  Cu  Cu55  1  0.11263900  0.37556000  0.16065000  1
  Cu  Cu56  1  0.43888200  0.97077400  0.62870800  1
  Cu  Cu57  1  0.94101400  0.54129200  0.26514000  1
  Cu  Cu58  1  0.55898600  0.54129200  0.26514000  1
  Cu  Cu59  1  0.75000000  0.46813800  0.35275600  1
  Cu  Cu60  1  0.44101400  0.45870800  0.73486000  1
  Cu  Cu61  1  0.10124000  0.88089200  0.20770900  1
  Cu  Cu62  1  0.92650300  0.15067300  0.07135000  1
  Cu  Cu63  1  0.57870300  0.64827600  0.55601300  1
  Cu  Cu64  1  0.89876000  0.11910800  0.79229100  1
  Cu  Cu65  1  0.93888200  0.02922600  0.37129200  1
  Cu  Cu66  1  0.42650300  0.84932700  0.92865000  1
  Cu  Cu67  1  0.75000000  0.97614900  0.28068800  1
  Cu  Cu68  1  0.75000000  0.34748200  0.06152200  1
  Cu  Cu69  1  0.38736100  0.37556000  0.16065000  1
  Cu  Cu70  1  0.88736100  0.62444000  0.83935000  1
  Cu  Cu71  1  0.07349700  0.84932700  0.92865000  1
