# generated using pymatgen
data_CuNi6C25
_symmetry_space_group_name_H-M   'P 1'
_cell_length_a   13.06138900
_cell_length_b   10.83719200
_cell_length_c   15.44884796
_cell_angle_alpha   48.98820597
_cell_angle_beta   90.00000000
_cell_angle_gamma   90.00000000
_symmetry_Int_Tables_number   1
_chemical_formula_structural   CuNi6C25
_chemical_formula_sum   'Cu4 Ni24 C100'
_cell_volume   1650.07758836
_cell_formula_units_Z   4
loop_
 _symmetry_equiv_pos_site_id
 _symmetry_equiv_pos_as_xyz
  1  'x, y, z'
loop_
 _atom_site_type_symbol
 _atom_site_label
 _atom_site_symmetry_multiplicity
 _atom_site_fract_x
 _atom_site_fract_y
 _atom_site_fract_z
 _atom_site_occupancy
  C  C0  1  0.86360300  0.05594200  0.72080100  1
  C  C1  1  0.37699400  0.55636700  0.75240500  1
  C  C2  1  0.87699400  0.44363300  0.74759500  1
  C  C3  1  0.62300600  0.44363300  0.24759500  1
  C  C4  1  0.13639700  0.94405800  0.27919900  1
  C  C5  1  0.12300600  0.55636700  0.25240500  1
  C  C6  1  0.63639700  0.05594200  0.22080100  1
  C  C7  1  0.36360300  0.94405800  0.77919900  1
  C  C8  1  0.21247700  0.35776400  0.80765700  1
  C  C9  1  0.52959800  0.41350800  0.91172500  1
  C  C10  1  0.75448400  0.94188500  0.63226900  1
  C  C11  1  0.11832700  0.51269700  0.99704800  1
  C  C12  1  0.14658100  0.15926400  0.04743300  1
  C  C13  1  0.55286200  0.81202400  0.81424800  1
  C  C14  1  0.45983000  0.69745300  0.53817100  1
  C  C15  1  0.25290800  0.20087600  0.09839600  1
  C  C16  1  0.93459200  0.98605700  0.30486100  1
  C  C17  1  0.71792300  0.48000700  0.84551700  1
  C  C18  1  0.04946900  0.98469300  0.82252600  1
  C  C19  1  0.09192600  0.33520300  0.48099600  1
  C  C20  1  0.74387400  0.97041700  0.89634500  1
  C  C21  1  0.13063500  0.96208200  0.44902100  1
  C  C22  1  0.38167300  0.51269700  0.49704800  1
  C  C23  1  0.04017000  0.69745300  0.03817100  1
  C  C24  1  0.53318200  0.37144500  0.62719100  1
  C  C25  1  0.90807400  0.66479700  0.51900400  1
  C  C26  1  0.53798800  0.73889600  0.61232700  1
  C  C27  1  0.06540800  0.01394300  0.69513900  1
  C  C28  1  0.85341900  0.84073600  0.95256700  1
  C  C29  1  0.23609800  0.83895100  0.47079000  1
  C  C30  1  0.84414900  0.43111900  0.05132500  1
  C  C31  1  0.24551600  0.05811500  0.36773100  1
  C  C32  1  0.56540800  0.98605700  0.80486100  1
  C  C33  1  0.59192600  0.66479700  0.01900400  1
  C  C34  1  0.25612600  0.02958300  0.10365500  1
  C  C35  1  0.67121700  0.43959200  0.75742100  1
  C  C36  1  0.24709200  0.20087600  0.59839600  1
  C  C37  1  0.94713800  0.81202400  0.31424800  1
  C  C38  1  0.43459200  0.01394300  0.19513900  1
  C  C39  1  0.46681800  0.62855500  0.37280900  1
  C  C40  1  0.88167300  0.48730300  0.00295200  1
  C  C41  1  0.73609800  0.16104900  0.02921000  1
  C  C42  1  0.97040200  0.41350800  0.41172500  1
  C  C43  1  0.75290800  0.79912400  0.40160400  1
  C  C44  1  0.74709200  0.79912400  0.90160400  1
  C  C45  1  0.86936500  0.03791800  0.55097900  1
  C  C46  1  0.61832700  0.48730300  0.50295200  1
  C  C47  1  0.65585100  0.43111900  0.55132500  1
  C  C48  1  0.71247700  0.64223600  0.69234300  1
  C  C49  1  0.95983000  0.30254700  0.96182900  1
  C  C50  1  0.36936500  0.96208200  0.94902100  1
  C  C51  1  0.05286200  0.18797600  0.68575200  1
  C  C52  1  0.54946900  0.01530700  0.67747400  1
  C  C53  1  0.25448400  0.05811500  0.86773100  1
  C  C54  1  0.53339800  0.74023300  0.08141200  1
  C  C55  1  0.96681800  0.37144500  0.12719100  1
  C  C56  1  0.54017000  0.30254700  0.46182900  1
  C  C57  1  0.44713800  0.18797600  0.18575200  1
  C  C58  1  0.96201200  0.73889600  0.11232700  1
  C  C59  1  0.82878300  0.43959200  0.25742100  1
  C  C60  1  0.07996400  0.84515800  0.04960900  1
  C  C61  1  0.42003600  0.84515800  0.54960900  1
  C  C62  1  0.45053100  0.98469300  0.32252600  1
  C  C63  1  0.28752300  0.35776400  0.30765700  1
  C  C64  1  0.03798800  0.26110400  0.88767300  1
  C  C65  1  0.47040200  0.58649200  0.08827500  1
  C  C66  1  0.15585100  0.56888100  0.94867500  1
  C  C67  1  0.03339800  0.25976700  0.41858800  1
  C  C68  1  0.78752300  0.64223600  0.19234300  1
  C  C69  1  0.64658100  0.84073600  0.45256700  1
  C  C70  1  0.34414900  0.56888100  0.44867500  1
  C  C71  1  0.74551600  0.94188500  0.13226900  1
  C  C72  1  0.21792300  0.51999300  0.65448300  1
  C  C73  1  0.24387400  0.02958300  0.60365500  1
  C  C74  1  0.35341900  0.15926400  0.54743300  1
  C  C75  1  0.46201200  0.26110400  0.38767300  1
  C  C76  1  0.75612600  0.97041700  0.39634500  1
  C  C77  1  0.46660200  0.25976700  0.91858800  1
  C  C78  1  0.03318200  0.62855500  0.87280900  1
  C  C79  1  0.57996400  0.15484200  0.45039100  1
  C  C80  1  0.17121700  0.56040800  0.74257900  1
  C  C81  1  0.32878300  0.56040800  0.24257900  1
  C  C82  1  0.76390200  0.16104900  0.52921000  1
  C  C83  1  0.95053100  0.01530700  0.17747400  1
  C  C84  1  0.78207700  0.48000700  0.34551700  1
  C  C85  1  0.02959800  0.58649200  0.58827500  1
  C  C86  1  0.26390200  0.83895100  0.97079000  1
  C  C87  1  0.40807400  0.33520300  0.98099600  1
  C  C88  1  0.96660200  0.74023300  0.58141200  1
  C  C89  1  0.92003600  0.15484200  0.95039100  1
  C  C90  1  0.28207700  0.51999300  0.15448300  1
  C  C91  1  0.63063500  0.03791800  0.05097900  1
  Ni  Ni92  1  0.22621900  0.48854900  0.73804800  1
  Ni  Ni93  1  0.80575400  0.04643700  0.59338500  1
  Ni  Ni94  1  0.19424600  0.95356300  0.40661500  1
  Ni  Ni95  1  0.52836900  0.93837300  0.76825500  1
  Ni  Ni96  1  0.30575400  0.95356300  0.90661500  1
  Ni  Ni97  1  0.79234500  0.89567200  0.88836700  1
  Ni  Ni98  1  0.97163100  0.93837300  0.26825500  1
  Ni  Ni99  1  0.27378100  0.48854900  0.23804800  1
  Ni  Ni100  1  0.29234500  0.10432800  0.61163300  1
  Ni  Ni101  1  0.72621900  0.51145100  0.76195200  1
  Ni  Ni102  1  0.69424600  0.04643700  0.09338500  1
  Ni  Ni103  1  0.70765500  0.89567200  0.38836700  1
  Ni  Ni104  1  0.95555200  0.63207300  0.58988000  1
  Ni  Ni105  1  0.45943700  0.72808900  0.59326500  1
  Ni  Ni106  1  0.47163100  0.06162700  0.23174500  1
  Ni  Ni107  1  0.45555200  0.36792700  0.91012000  1
  Ni  Ni108  1  0.54056300  0.27191100  0.40673500  1
  Ni  Ni109  1  0.77378100  0.51145100  0.26195200  1
  Ni  Ni110  1  0.02836900  0.06162700  0.73174500  1
  Ni  Ni111  1  0.95943700  0.27191100  0.90673500  1
  Ni  Ni112  1  0.04444800  0.36792700  0.41012000  1
  Ni  Ni113  1  0.04056300  0.72808900  0.09326500  1
  Ni  Ni114  1  0.20765500  0.10432800  0.11163300  1
  Ni  Ni115  1  0.54444800  0.63207300  0.08988000  1
  Cu  Cu116  1  0.46644000  0.29763000  0.70971000  1
  Cu  Cu117  1  0.53356000  0.70237000  0.29029000  1
  Cu  Cu118  1  0.96644000  0.70237000  0.79029000  1
  Cu  Cu119  1  0.03356000  0.29763000  0.20971000  1
  C  C120  1  0.35374200  0.74690600  0.74780600  1
  C  C121  1  0.85374200  0.25309400  0.75219400  1
  C  C122  1  0.81325000  0.28717300  0.64683300  1
  C  C123  1  0.31325000  0.71282700  0.85316700  1
  C  C124  1  0.68675000  0.28717300  0.14683300  1
  C  C125  1  0.14625800  0.74690600  0.24780600  1
  C  C126  1  0.18675000  0.71282700  0.35316700  1
  C  C127  1  0.64625800  0.25309400  0.25219400  1
