# generated using pymatgen
data_Cu6NiC43
_symmetry_space_group_name_H-M   'P 1'
_cell_length_a   5.88524702
_cell_length_b   5.88524716
_cell_length_c   59.15431921
_cell_angle_alpha   60.16865020
_cell_angle_beta   60.16864929
_cell_angle_gamma   60.00000263
_symmetry_Int_Tables_number   1
_chemical_formula_structural   Cu6NiC43
_chemical_formula_sum   'Cu12 Ni2 C86'
_cell_volume   1452.45692207
_cell_formula_units_Z   2
loop_
 _symmetry_equiv_pos_site_id
 _symmetry_equiv_pos_as_xyz
  1  'x, y, z'
loop_
 _atom_site_type_symbol
 _atom_site_label
 _atom_site_symmetry_multiplicity
 _atom_site_fract_x
 _atom_site_fract_y
 _atom_site_fract_z
 _atom_site_occupancy
  C  C0  1  0.25435638  0.25435638  0.02369309  1
  C  C1  1  0.25081954  0.25081954  0.12475414  1
  C  C2  1  0.24640722  0.24640722  0.22607783  1
  C  C3  1  0.75359278  0.75359278  0.07392217  1
  C  C4  1  0.23601997  0.23601997  0.32919401  1
  C  C5  1  0.74918046  0.74918046  0.17524586  1
  C  C6  1  0.23143341  0.23143341  0.43056998  1
  C  C7  1  0.74564362  0.74564362  0.27630691  1
  C  C8  1  0.72406680  0.72406680  0.38277996  1
  C  C9  1  0.24487886  0.24487886  0.52653634  1
  C  C10  1  0.24978941  0.24978941  0.62506318  1
  C  C11  1  0.74077485  0.74077485  0.47776755  1
  C  C12  1  0.74878182  0.74878182  0.57536545  1
  C  C13  1  0.25121818  0.25121818  0.72463455  1
  C  C14  1  0.25922515  0.25922515  0.82223245  1
  C  C15  1  0.75021059  0.75021059  0.67493682  1
  C  C16  1  0.27593320  0.27593320  0.91722004  1
  C  C17  1  0.75512114  0.75512114  0.77346366  1
  C  C18  1  0.76856659  0.76856659  0.86943002  1
  C  C19  1  0.76398003  0.76398003  0.97080599  1
  C  C20  1  0.98026177  0.98026177  0.40592147  1
  C  C21  1  0.99481013  0.99481013  0.50155696  1
  C  C22  1  0.99951885  0.99951885  0.60014435  1
  C  C23  1  0.00048115  0.00048115  0.69985565  1
  C  C24  1  0.00518987  0.00518987  0.79844304  1
  C  C25  1  0.01973823  0.01973823  0.89407853  1
  Ni  Ni26  1  0.00140042  0.00140042  0.09957988  1
  Ni  Ni27  1  0.99859958  0.99859958  0.20042012  1
  Cu  Cu28  1  0.00435453  0.00435453  0.99869364  1
  Cu  Cu29  1  0.50314348  0.50314348  0.04905696  1
  Cu  Cu30  1  0.99564547  0.99564547  0.30130636  1
  Cu  Cu31  1  0.50000000  0.50000000  0.15000000  1
  Cu  Cu32  1  0.49685652  0.49685652  0.25094304  1
  Cu  Cu33  1  0.49109071  0.49109071  0.35267279  1
  Cu  Cu34  1  0.49332685  0.49332685  0.45200194  1
  Cu  Cu35  1  0.49830401  0.49830401  0.55050880  1
  Cu  Cu36  1  0.50000000  0.50000000  0.65000000  1
  Cu  Cu37  1  0.50169599  0.50169599  0.74949120  1
  Cu  Cu38  1  0.50667315  0.50667315  0.84799806  1
  Cu  Cu39  1  0.50890929  0.50890929  0.94732721  1
  C  C40  1  0.25954201  0.25954201  0.07374979  1
  C  C41  1  0.24559102  0.74838106  0.02576469  1
  C  C42  1  0.25954201  0.74341805  0.07374979  1
  C  C43  1  0.74838106  0.24559102  0.02576469  1
  C  C44  1  0.74341805  0.25954201  0.07374979  1
  C  C45  1  0.74838106  0.74838106  0.02576469  1
  C  C46  1  0.25561331  0.25561331  0.17452488  1
  C  C47  1  0.25647545  0.74438669  0.12547512  1
  C  C48  1  0.25561331  0.74352455  0.17452488  1
  C  C49  1  0.74438669  0.25647545  0.12547512  1
  C  C50  1  0.74352455  0.25561331  0.17452488  1
  C  C51  1  0.74438669  0.74438669  0.12547512  1
  C  C52  1  0.25161894  0.25161894  0.27423531  1
  C  C53  1  0.25658195  0.74045799  0.22625021  1
  C  C54  1  0.74045799  0.25658195  0.22625021  1
  C  C55  1  0.25161894  0.75440898  0.27423531  1
  C  C56  1  0.75440898  0.25161894  0.27423531  1
  C  C57  1  0.74045799  0.74045799  0.22625021  1
  C  C58  1  0.26903273  0.26903273  0.37057985  1
  C  C59  1  0.25910938  0.76309296  0.32147047  1
  C  C60  1  0.76309296  0.25910938  0.32147047  1
  C  C61  1  0.26903273  0.75613610  0.37057985  1
  C  C62  1  0.75613610  0.26903273  0.37057985  1
  C  C63  1  0.76309296  0.76309296  0.32147047  1
  C  C64  1  0.25984313  0.25984313  0.47328211  1
  C  C65  1  0.26738260  0.74492653  0.42427643  1
  C  C66  1  0.74492653  0.26738260  0.42427643  1
  C  C67  1  0.25984313  0.74749267  0.47328211  1
  C  C68  1  0.74749267  0.25984313  0.47328211  1
  C  C69  1  0.74492653  0.74492653  0.42427643  1
  C  C70  1  0.25872892  0.25872892  0.57388434  1
  C  C71  1  0.26106971  0.74221828  0.52544937  1
  C  C72  1  0.25872892  0.74369879  0.57388434  1
  C  C73  1  0.74221828  0.26106971  0.52544937  1
  C  C74  1  0.74369879  0.25872892  0.57388434  1
  C  C75  1  0.74221828  0.74221828  0.52544937  1
  C  C76  1  0.25832964  0.74149836  0.62586736  1
  C  C77  1  0.25850164  0.25850164  0.67413264  1
  C  C78  1  0.74149836  0.25832964  0.62586736  1
  C  C79  1  0.25850164  0.74167036  0.67413264  1
  C  C80  1  0.74167036  0.25850164  0.67413264  1
  C  C81  1  0.74149836  0.74149836  0.62586736  1
  C  C82  1  0.25778172  0.25778172  0.77455063  1
  C  C83  1  0.25630121  0.74127108  0.72611566  1
  C  C84  1  0.74127108  0.25630121  0.72611566  1
  C  C85  1  0.25778172  0.73893029  0.77455063  1
  C  C86  1  0.73893029  0.25778172  0.77455063  1
  C  C87  1  0.74127108  0.74127108  0.72611566  1
  C  C88  1  0.25250733  0.74015687  0.82671789  1
  C  C89  1  0.25507347  0.25507347  0.87572357  1
  C  C90  1  0.25507347  0.73261740  0.87572357  1
  C  C91  1  0.74015687  0.25250733  0.82671789  1
  C  C92  1  0.74015687  0.74015687  0.82671789  1
  C  C93  1  0.73261740  0.25507347  0.87572357  1
  C  C94  1  0.24386390  0.73096727  0.92942015  1
  C  C95  1  0.23690704  0.23690704  0.97852953  1
  C  C96  1  0.73096727  0.24386390  0.92942015  1
  C  C97  1  0.23690704  0.74089062  0.97852953  1
  C  C98  1  0.74089062  0.23690704  0.97852953  1
  C  C99  1  0.73096727  0.73096727  0.92942015  1
