# generated using pymatgen
data_CuNiC6
_symmetry_space_group_name_H-M   'P 1'
_cell_length_a   6.28385800
_cell_length_b   7.17660400
_cell_length_c   11.21761900
_cell_angle_alpha   90.00000000
_cell_angle_beta   90.00000000
_cell_angle_gamma   90.00000000
_symmetry_Int_Tables_number   1
_chemical_formula_structural   CuNiC6
_chemical_formula_sum   'Cu4 Ni4 C24'
_cell_volume   505.87827695
_cell_formula_units_Z   4
loop_
 _symmetry_equiv_pos_site_id
 _symmetry_equiv_pos_as_xyz
  1  'x, y, z'
loop_
 _atom_site_type_symbol
 _atom_site_label
 _atom_site_symmetry_multiplicity
 _atom_site_fract_x
 _atom_site_fract_y
 _atom_site_fract_z
 _atom_site_occupancy
  C  C0  1  0.38807800  0.75000000  0.50000000  1
  C  C1  1  0.38807800  0.75000000  0.00000000  1
  C  C2  1  0.61192200  0.25000000  0.50000000  1
  C  C3  1  0.61192200  0.25000000  0.00000000  1
  C  C4  1  0.88749500  0.96334500  0.75000000  1
  C  C5  1  0.88749500  0.53665500  0.25000000  1
  C  C6  1  0.11250500  0.46334500  0.75000000  1
  C  C7  1  0.11250500  0.03665500  0.25000000  1
  Ni  Ni8  1  0.11425300  0.25000000  0.00000000  1
  Ni  Ni9  1  0.88574700  0.75000000  0.00000000  1
  Ni  Ni10  1  0.88574700  0.75000000  0.50000000  1
  Ni  Ni11  1  0.11425300  0.25000000  0.50000000  1
  Cu  Cu12  1  0.59533600  0.58436600  0.75000000  1
  Cu  Cu13  1  0.59533600  0.91563400  0.25000000  1
  Cu  Cu14  1  0.40466400  0.08436600  0.75000000  1
  Cu  Cu15  1  0.40466400  0.41563400  0.25000000  1
  C  C16  1  0.27137600  0.07487600  0.46473600  1
  C  C17  1  0.27137600  0.42512400  0.53526400  1
  C  C18  1  0.72862400  0.57487600  0.03526400  1
  C  C19  1  0.72862400  0.92512400  0.96473600  1
  C  C20  1  0.72862400  0.92512400  0.53526400  1
  C  C21  1  0.72862400  0.57487600  0.46473600  1
  C  C22  1  0.27137600  0.42512400  0.96473600  1
  C  C23  1  0.27137600  0.07487600  0.03526400  1
  C  C24  1  0.04991400  0.76716200  0.38384800  1
  C  C25  1  0.04991400  0.76716200  0.11615200  1
  C  C26  1  0.95008600  0.26716200  0.11615200  1
  C  C27  1  0.95008600  0.23283800  0.88384800  1
  C  C28  1  0.95008600  0.23283800  0.61615200  1
  C  C29  1  0.95008600  0.26716200  0.38384800  1
  C  C30  1  0.04991400  0.73283800  0.88384800  1
  C  C31  1  0.04991400  0.73283800  0.61615200  1
