# generated using pymatgen
data_Cu11Ni5C4
_symmetry_space_group_name_H-M   'P 1'
_cell_length_a   9.66286200
_cell_length_b   10.88762200
_cell_length_c   12.59372700
_cell_angle_alpha   90.00000000
_cell_angle_beta   90.00000000
_cell_angle_gamma   90.00000000
_symmetry_Int_Tables_number   1
_chemical_formula_structural   Cu11Ni5C4
_chemical_formula_sum   'Cu44 Ni20 C16'
_cell_volume   1324.93046541
_cell_formula_units_Z   4
loop_
 _symmetry_equiv_pos_site_id
 _symmetry_equiv_pos_as_xyz
  1  'x, y, z'
loop_
 _atom_site_type_symbol
 _atom_site_label
 _atom_site_symmetry_multiplicity
 _atom_site_fract_x
 _atom_site_fract_y
 _atom_site_fract_z
 _atom_site_occupancy
  C  C0  1  0.40058800  0.75000000  0.01563400  1
  C  C1  1  0.90058800  0.25000000  0.48436600  1
  C  C2  1  0.59941200  0.25000000  0.98436600  1
  C  C3  1  0.09941200  0.75000000  0.51563400  1
  C  C4  1  0.06554800  0.49610700  0.20243500  1
  C  C5  1  0.56554800  0.50389300  0.29756500  1
  C  C6  1  0.93445200  0.99610700  0.79756500  1
  C  C7  1  0.43445200  0.00389300  0.70243500  1
  C  C8  1  0.56554800  0.99610700  0.29756500  1
  C  C9  1  0.43445200  0.49610700  0.70243500  1
  C  C10  1  0.06554800  0.00389300  0.20243500  1
  C  C11  1  0.93445200  0.50389300  0.79756500  1
  C  C12  1  0.81229900  0.75000000  0.08741400  1
  C  C13  1  0.31229900  0.25000000  0.41258600  1
  C  C14  1  0.18770100  0.25000000  0.91258600  1
  C  C15  1  0.68770100  0.75000000  0.58741400  1
  Ni  Ni16  1  0.69391500  0.99687900  0.03546400  1
  Ni  Ni17  1  0.23627500  0.75000000  0.74780900  1
  Ni  Ni18  1  0.73627500  0.25000000  0.75219100  1
  Ni  Ni19  1  0.76372500  0.25000000  0.25219100  1
  Ni  Ni20  1  0.26372500  0.75000000  0.24780900  1
  Ni  Ni21  1  0.41789000  0.75000000  0.46731600  1
  Ni  Ni22  1  0.91789000  0.25000000  0.03268400  1
  Ni  Ni23  1  0.58211000  0.25000000  0.53268400  1
  Ni  Ni24  1  0.08211000  0.75000000  0.96731600  1
  Ni  Ni25  1  0.65510400  0.75000000  0.82922600  1
  Ni  Ni26  1  0.15510400  0.25000000  0.67077400  1
  Ni  Ni27  1  0.34489600  0.25000000  0.17077400  1
  Ni  Ni28  1  0.84489600  0.75000000  0.32922600  1
  Ni  Ni29  1  0.19391500  0.49687900  0.46453600  1
  Ni  Ni30  1  0.69391500  0.50312100  0.03546400  1
  Ni  Ni31  1  0.80608500  0.99687900  0.53546400  1
  Ni  Ni32  1  0.30608500  0.00312100  0.96453600  1
  Ni  Ni33  1  0.19391500  0.00312100  0.46453600  1
  Ni  Ni34  1  0.30608500  0.49687900  0.96453600  1
  Ni  Ni35  1  0.80608500  0.50312100  0.53546400  1
  Cu  Cu36  1  0.37531600  0.41232200  0.91978900  1
  Cu  Cu37  1  0.07014200  0.75000000  0.06783100  1
  Cu  Cu38  1  0.57014200  0.25000000  0.43216900  1
  Cu  Cu39  1  0.92985800  0.25000000  0.93216900  1
  Cu  Cu40  1  0.42985800  0.75000000  0.56783100  1
  Cu  Cu41  1  0.31940600  0.85114700  0.22111300  1
  Cu  Cu42  1  0.81940600  0.14885300  0.27888700  1
  Cu  Cu43  1  0.68059400  0.35114700  0.77888700  1
  Cu  Cu44  1  0.18059400  0.64885300  0.72111300  1
  Cu  Cu45  1  0.68059400  0.14885300  0.77888700  1
  Cu  Cu46  1  0.18059400  0.85114700  0.72111300  1
  Cu  Cu47  1  0.31940600  0.64885300  0.22111300  1
  Cu  Cu48  1  0.81940600  0.35114700  0.27888700  1
  Cu  Cu49  1  0.15015500  0.75000000  0.29801400  1
  Cu  Cu50  1  0.65015500  0.25000000  0.20198600  1
  Cu  Cu51  1  0.84984500  0.25000000  0.70198600  1
  Cu  Cu52  1  0.81799100  0.97150300  0.01494900  1
  Cu  Cu53  1  0.31799100  0.02849700  0.48505100  1
  Cu  Cu54  1  0.18200900  0.47150300  0.98505100  1
  Cu  Cu55  1  0.68200900  0.52849700  0.51494900  1
  Cu  Cu56  1  0.18200900  0.02849700  0.98505100  1
  Cu  Cu57  1  0.68200900  0.97150300  0.51494900  1
  Cu  Cu58  1  0.81799100  0.52849700  0.01494900  1
  Cu  Cu59  1  0.31799100  0.47150300  0.48505100  1
  Cu  Cu60  1  0.62468400  0.91232200  0.08021100  1
  Cu  Cu61  1  0.12468400  0.08767800  0.41978900  1
  Cu  Cu62  1  0.34984500  0.75000000  0.79801400  1
  Cu  Cu63  1  0.87531600  0.58767800  0.58021100  1
  Cu  Cu64  1  0.37531600  0.08767800  0.91978900  1
  Cu  Cu65  1  0.87531600  0.91232200  0.58021100  1
  Cu  Cu66  1  0.62468400  0.58767800  0.08021100  1
  Cu  Cu67  1  0.12468400  0.41232200  0.41978900  1
  Cu  Cu68  1  0.83582000  0.84843500  0.27647300  1
  Cu  Cu69  1  0.33582000  0.15156500  0.22352700  1
  Cu  Cu70  1  0.16418000  0.34843500  0.72352700  1
  Cu  Cu71  1  0.66418000  0.65156500  0.77647300  1
  Cu  Cu72  1  0.16418000  0.15156500  0.72352700  1
  Cu  Cu73  1  0.66418000  0.84843500  0.77647300  1
  Cu  Cu74  1  0.83582000  0.65156500  0.27647300  1
  Cu  Cu75  1  0.33582000  0.34843500  0.22352700  1
  Cu  Cu76  1  0.52935400  0.75000000  0.41563900  1
  Cu  Cu77  1  0.47064600  0.25000000  0.58436100  1
  Cu  Cu78  1  0.02935400  0.25000000  0.08436100  1
  Cu  Cu79  1  0.97064600  0.75000000  0.91563900  1
