# generated using pymatgen
data_Cu6Ni2C5
_symmetry_space_group_name_H-M   'P 1'
_cell_length_a   7.08844100
_cell_length_b   6.43896900
_cell_length_c   8.66659734
_cell_angle_alpha   47.91983580
_cell_angle_beta   90.00000000
_cell_angle_gamma   90.00000000
_symmetry_Int_Tables_number   1
_chemical_formula_structural   Cu6Ni2C5
_chemical_formula_sum   'Cu12 Ni4 C10'
_cell_volume   293.58999677
_cell_formula_units_Z   2
loop_
 _symmetry_equiv_pos_site_id
 _symmetry_equiv_pos_as_xyz
  1  'x, y, z'
loop_
 _atom_site_type_symbol
 _atom_site_label
 _atom_site_symmetry_multiplicity
 _atom_site_fract_x
 _atom_site_fract_y
 _atom_site_fract_z
 _atom_site_occupancy
  C  C0  1  0.50000000  0.00000000  0.50000000  1
  C  C1  1  0.00000000  0.00000000  0.00000000  1
  C  C2  1  0.93197200  0.20181900  0.19548100  1
  C  C3  1  0.56802800  0.20181900  0.69548100  1
  C  C4  1  0.06802800  0.79818100  0.80451900  1
  C  C5  1  0.43197200  0.79818100  0.30451900  1
  C  C6  1  0.65243400  0.75582000  0.35611200  1
  C  C7  1  0.84756600  0.75582000  0.85611200  1
  C  C8  1  0.34756600  0.24418000  0.64388800  1
  C  C9  1  0.15243400  0.24418000  0.14388800  1
  Ni  Ni10  1  0.62017900  0.35403900  0.91930200  1
  Ni  Ni11  1  0.87982100  0.35403900  0.41930200  1
  Ni  Ni12  1  0.37982100  0.64596100  0.08069800  1
  Ni  Ni13  1  0.12017900  0.64596100  0.58069800  1
  Cu  Cu14  1  0.73346500  0.21695700  0.84789800  1
  Cu  Cu15  1  0.76653500  0.21695700  0.34789800  1
  Cu  Cu16  1  0.26653500  0.78304300  0.15210200  1
  Cu  Cu17  1  0.23346500  0.78304300  0.65210200  1
  Cu  Cu18  1  0.66159100  0.68022800  0.77567200  1
  Cu  Cu19  1  0.83840900  0.68022800  0.27567200  1
  Cu  Cu20  1  0.33840900  0.31977200  0.22432800  1
  Cu  Cu21  1  0.16159100  0.31977200  0.72432800  1
  Cu  Cu22  1  0.53121300  0.80918400  0.38012600  1
  Cu  Cu23  1  0.96878700  0.80918400  0.88012600  1
  Cu  Cu24  1  0.46878700  0.19081600  0.61987400  1
  Cu  Cu25  1  0.03121300  0.19081600  0.11987400  1
