# generated using pymatgen
data_Cu7(Ni2C3)3
_symmetry_space_group_name_H-M   'P 1'
_cell_length_a   21.47244513
_cell_length_b   21.47244513
_cell_length_c   21.47244514
_cell_angle_alpha   30.71906350
_cell_angle_beta   30.71906350
_cell_angle_gamma   30.71906243
_symmetry_Int_Tables_number   1
_chemical_formula_structural   Cu7(Ni2C3)3
_chemical_formula_sum   'Cu28 Ni24 C36'
_cell_volume   2290.81759091
_cell_formula_units_Z   4
loop_
 _symmetry_equiv_pos_site_id
 _symmetry_equiv_pos_as_xyz
  1  'x, y, z'
loop_
 _atom_site_type_symbol
 _atom_site_label
 _atom_site_symmetry_multiplicity
 _atom_site_fract_x
 _atom_site_fract_y
 _atom_site_fract_z
 _atom_site_occupancy
  C  C0  1  0.98368600  0.45992200  0.45626200  1
  C  C1  1  0.48368600  0.95626200  0.95992200  1
  C  C2  1  0.95992200  0.48368600  0.95626200  1
  C  C3  1  0.45626200  0.98368600  0.45992200  1
  C  C4  1  0.04373800  0.04007800  0.51631400  1
  C  C5  1  0.01631400  0.54007800  0.54373800  1
  C  C6  1  0.54373800  0.01631400  0.54007800  1
  C  C7  1  0.95626200  0.95992200  0.48368600  1
  C  C8  1  0.51631400  0.04373800  0.04007800  1
  C  C9  1  0.45992200  0.45626200  0.98368600  1
  C  C10  1  0.54007800  0.54373800  0.01631400  1
  C  C11  1  0.04007800  0.51631400  0.04373800  1
  C  C12  1  0.43885000  0.45933300  0.71252400  1
  C  C13  1  0.54066700  0.28747600  0.56115000  1
  C  C14  1  0.82349900  0.26171500  0.88637000  1
  C  C15  1  0.21252400  0.95933300  0.93885000  1
  C  C16  1  0.88637000  0.82349900  0.26171500  1
  C  C17  1  0.73828500  0.11363000  0.17650100  1
  C  C18  1  0.78747600  0.04066700  0.06115000  1
  C  C19  1  0.38637000  0.76171500  0.32349900  1
  C  C20  1  0.17650100  0.73828500  0.11363000  1
  C  C21  1  0.71252400  0.43885000  0.45933300  1
  C  C22  1  0.04066700  0.06115000  0.78747600  1
  C  C23  1  0.28747600  0.56115000  0.54066700  1
  C  C24  1  0.61363000  0.23828500  0.67650100  1
  C  C25  1  0.76171500  0.32349900  0.38637000  1
  C  C26  1  0.23828500  0.67650100  0.61363000  1
  C  C27  1  0.95933300  0.93885000  0.21252400  1
  C  C28  1  0.45933300  0.71252400  0.43885000  1
  C  C29  1  0.11363000  0.17650100  0.73828500  1
  C  C30  1  0.06115000  0.78747600  0.04066700  1
  C  C31  1  0.32349900  0.38637000  0.76171500  1
  C  C32  1  0.93885000  0.21252400  0.95933300  1
  C  C33  1  0.56115000  0.54066700  0.28747600  1
  C  C34  1  0.67650100  0.61363000  0.23828500  1
  C  C35  1  0.26171500  0.88637000  0.82349900  1
  Ni  Ni36  1  0.01452300  0.84475400  0.32543300  1
  Ni  Ni37  1  0.46258900  0.77594300  0.74640000  1
  Ni  Ni38  1  0.48547700  0.17456700  0.65524600  1
  Ni  Ni39  1  0.25360000  0.53741100  0.22405700  1
  Ni  Ni40  1  0.75360000  0.72405700  0.03741100  1
  Ni  Ni41  1  0.17456700  0.65524600  0.48547700  1
  Ni  Ni42  1  0.82543300  0.34475400  0.51452300  1
  Ni  Ni43  1  0.24640000  0.27594300  0.96258900  1
  Ni  Ni44  1  0.53741100  0.22405700  0.25360000  1
  Ni  Ni45  1  0.03741100  0.75360000  0.72405700  1
  Ni  Ni46  1  0.72405700  0.03741100  0.75360000  1
  Ni  Ni47  1  0.98547700  0.15524600  0.67456700  1
  Ni  Ni48  1  0.96258900  0.24640000  0.27594300  1
  Ni  Ni49  1  0.32543300  0.01452300  0.84475400  1
  Ni  Ni50  1  0.27594300  0.96258900  0.24640000  1
  Ni  Ni51  1  0.15524600  0.67456700  0.98547700  1
  Ni  Ni52  1  0.84475400  0.32543300  0.01452300  1
  Ni  Ni53  1  0.74640000  0.46258900  0.77594300  1
  Ni  Ni54  1  0.67456700  0.98547700  0.15524600  1
  Ni  Ni55  1  0.22405700  0.25360000  0.53741100  1
  Ni  Ni56  1  0.51452300  0.82543300  0.34475400  1
  Ni  Ni57  1  0.65524600  0.48547700  0.17456700  1
  Ni  Ni58  1  0.34475400  0.51452300  0.82543300  1
  Ni  Ni59  1  0.77594300  0.74640000  0.46258900  1
  Cu  Cu60  1  0.03917400  0.03917400  0.03917400  1
  Cu  Cu61  1  0.96082600  0.96082600  0.96082600  1
  Cu  Cu62  1  0.79637700  0.03339600  0.26028100  1
  Cu  Cu63  1  0.20362300  0.96660400  0.73971900  1
  Cu  Cu64  1  0.53339600  0.29637700  0.76028100  1
  Cu  Cu65  1  0.79511700  0.99176600  0.17438200  1
  Cu  Cu66  1  0.99176600  0.17438200  0.79511700  1
  Cu  Cu67  1  0.82561800  0.20488300  0.00823400  1
  Cu  Cu68  1  0.67438200  0.49176600  0.29511700  1
  Cu  Cu69  1  0.96660400  0.73971900  0.20362300  1
  Cu  Cu70  1  0.50823400  0.70488300  0.32561800  1
  Cu  Cu71  1  0.70362300  0.23971900  0.46660400  1
  Cu  Cu72  1  0.20488300  0.00823400  0.82561800  1
  Cu  Cu73  1  0.26028100  0.79637700  0.03339600  1
  Cu  Cu74  1  0.70488300  0.32561800  0.50823400  1
  Cu  Cu75  1  0.46082600  0.46082600  0.46082600  1
  Cu  Cu76  1  0.49176600  0.29511700  0.67438200  1
  Cu  Cu77  1  0.53917400  0.53917400  0.53917400  1
  Cu  Cu78  1  0.32561800  0.50823400  0.70488300  1
  Cu  Cu79  1  0.23971900  0.46660400  0.70362300  1
  Cu  Cu80  1  0.73971900  0.20362300  0.96660400  1
  Cu  Cu81  1  0.03339600  0.26028100  0.79637700  1
  Cu  Cu82  1  0.76028100  0.53339600  0.29637700  1
  Cu  Cu83  1  0.29511700  0.67438200  0.49176600  1
  Cu  Cu84  1  0.29637700  0.76028100  0.53339600  1
  Cu  Cu85  1  0.17438200  0.79511700  0.99176600  1
  Cu  Cu86  1  0.00823400  0.82561800  0.20488300  1
  Cu  Cu87  1  0.46660400  0.70362300  0.23971900  1
