# generated using pymatgen
data_Cu2NiC5
_symmetry_space_group_name_H-M   'P 1'
_cell_length_a   9.67046718
_cell_length_b   9.67046718
_cell_length_c   7.67298600
_cell_angle_alpha   90.00000000
_cell_angle_beta   90.00000000
_cell_angle_gamma   146.36923346
_symmetry_Int_Tables_number   1
_chemical_formula_structural   Cu2NiC5
_chemical_formula_sum   'Cu4 Ni2 C10'
_cell_volume   397.41352069
_cell_formula_units_Z   2
loop_
 _symmetry_equiv_pos_site_id
 _symmetry_equiv_pos_as_xyz
  1  'x, y, z'
loop_
 _atom_site_type_symbol
 _atom_site_label
 _atom_site_symmetry_multiplicity
 _atom_site_fract_x
 _atom_site_fract_y
 _atom_site_fract_z
 _atom_site_occupancy
  C  C0  1  0.66314200  0.00259200  0.25000000  1
  C  C1  1  0.00259200  0.66314200  0.75000000  1
  Ni  Ni2  1  0.88723400  0.66727100  0.25000000  1
  Ni  Ni3  1  0.66727100  0.88723400  0.75000000  1
  Cu  Cu4  1  0.76126400  0.76126400  0.00000000  1
  Cu  Cu5  1  0.76126400  0.76126400  0.50000000  1
  Cu  Cu6  1  0.37903500  0.17088900  0.25000000  1
  Cu  Cu7  1  0.17088900  0.37903500  0.75000000  1
  C  C8  1  0.23946500  0.82726100  0.25000000  1
  C  C9  1  0.82726100  0.23946500  0.75000000  1
  C  C10  1  0.63293500  0.42484200  0.00740800  1
  C  C11  1  0.42484200  0.63293500  0.99259200  1
  C  C12  1  0.00450900  0.01271600  0.75000000  1
  C  C13  1  0.01271600  0.00450900  0.25000000  1
  C  C14  1  0.42484200  0.63293500  0.50740800  1
  C  C15  1  0.63293500  0.42484200  0.49259200  1
