# generated using pymatgen
data_Cu(NiC12)3
_symmetry_space_group_name_H-M   'P 1'
_cell_length_a   5.88703616
_cell_length_b   5.88703616
_cell_length_c   37.76414200
_cell_angle_alpha   89.68380071
_cell_angle_beta   89.68380071
_cell_angle_gamma   56.62733915
_symmetry_Int_Tables_number   1
_chemical_formula_structural   Cu(NiC12)3
_chemical_formula_sum   'Cu2 Ni6 C72'
_cell_volume   1092.97041207
_cell_formula_units_Z   2
loop_
 _symmetry_equiv_pos_site_id
 _symmetry_equiv_pos_as_xyz
  1  'x, y, z'
loop_
 _atom_site_type_symbol
 _atom_site_label
 _atom_site_symmetry_multiplicity
 _atom_site_fract_x
 _atom_site_fract_y
 _atom_site_fract_z
 _atom_site_occupancy
  C  C0  1  0.66093700  0.66093700  0.96869800  1
  C  C1  1  0.01119500  0.01119500  0.09355700  1
  C  C2  1  0.33906300  0.33906300  0.03130200  1
  C  C3  1  0.98880500  0.98880500  0.90644300  1
  C  C4  1  0.89273000  0.89273000  0.21655700  1
  C  C5  1  0.08378600  0.08378600  0.34745000  1
  C  C6  1  0.38262200  0.38262200  0.13860500  1
  C  C7  1  0.22959000  0.22959000  0.46264200  1
  C  C8  1  0.49466400  0.49466400  0.29511000  1
  C  C9  1  0.35255200  0.35255200  0.58418200  1
  C  C10  1  0.64744800  0.64744800  0.41581800  1
  C  C11  1  0.50533600  0.50533600  0.70489000  1
  C  C12  1  0.77041000  0.77041000  0.53735800  1
  C  C13  1  0.61737800  0.61737800  0.86139500  1
  C  C14  1  0.91621400  0.91621400  0.65255000  1
  C  C15  1  0.10727000  0.10727000  0.78344300  1
  C  C16  1  0.19405500  0.19405500  0.26109100  1
  C  C17  1  0.15187800  0.15187800  0.18616500  1
  C  C18  1  0.00000000  0.00000000  0.00000000  1
  C  C19  1  0.38011900  0.38011900  0.37876300  1
  C  C20  1  0.80594500  0.80594500  0.73890900  1
  C  C21  1  0.50000000  0.50000000  0.50000000  1
  C  C22  1  0.84812200  0.84812200  0.81383500  1
  C  C23  1  0.61988100  0.61988100  0.62123700  1
  Ni  Ni24  1  0.61071900  0.61071900  0.19733300  1
  Ni  Ni25  1  0.79805900  0.79805900  0.31540600  1
  Ni  Ni26  1  0.93419000  0.93419000  0.44242200  1
  Ni  Ni27  1  0.06581000  0.06581000  0.55757800  1
  Ni  Ni28  1  0.20194100  0.20194100  0.68459400  1
  Ni  Ni29  1  0.38928100  0.38928100  0.80266700  1
  Cu  Cu30  1  0.32377200  0.32377200  0.93640500  1
  Cu  Cu31  1  0.67622800  0.67622800  0.06359500  1
  C  C32  1  0.65599300  0.17212500  0.96625300  1
  C  C33  1  0.82377700  0.82377700  0.03247300  1
  C  C34  1  0.17212500  0.65599300  0.96625300  1
  C  C35  1  0.82787500  0.34400700  0.03374700  1
  C  C36  1  0.99141600  0.49926900  0.09203600  1
  C  C37  1  0.17622300  0.17622300  0.96752700  1
  C  C38  1  0.77513600  0.77513600  0.16701600  1
  C  C39  1  0.34400700  0.82787500  0.03374700  1
  C  C40  1  0.49926900  0.99141600  0.09203600  1
  C  C41  1  0.78220700  0.28013300  0.16731400  1
  C  C42  1  0.96996000  0.44561300  0.22148700  1
  C  C43  1  0.50930500  0.50930500  0.09258900  1
  C  C44  1  0.92721400  0.92721400  0.28011500  1
  C  C45  1  0.28013300  0.78220700  0.16731400  1
  C  C46  1  0.44561300  0.96996000  0.22148700  1
  C  C47  1  0.92832700  0.43150000  0.29748400  1
  C  C48  1  0.13271600  0.64400100  0.34123800  1
  C  C49  1  0.47535700  0.47535700  0.23154700  1
  C  C50  1  0.09848900  0.09848900  0.40648100  1
  C  C51  1  0.43150000  0.92832700  0.29748400  1
  C  C52  1  0.64400100  0.13271600  0.34123800  1
  C  C53  1  0.09273900  0.59330500  0.41604500  1
  C  C54  1  0.29324900  0.79196300  0.46408500  1
  C  C55  1  0.61153900  0.61153900  0.35738500  1
  C  C56  1  0.20960500  0.20960500  0.52520800  1
  C  C57  1  0.59330500  0.09273900  0.41604500  1
  C  C58  1  0.79196300  0.29324900  0.46408500  1
  C  C59  1  0.20803700  0.70675100  0.53591500  1
  C  C60  1  0.40669500  0.90726100  0.58395500  1
  C  C61  1  0.79039500  0.79039500  0.47479200  1
  C  C62  1  0.38846100  0.38846100  0.64261500  1
  C  C63  1  0.70675100  0.20803700  0.53591500  1
  C  C64  1  0.90726100  0.40669500  0.58395500  1
  C  C65  1  0.35599900  0.86728400  0.65876200  1
  C  C66  1  0.56850000  0.07167300  0.70251600  1
  C  C67  1  0.90151100  0.90151100  0.59351900  1
  C  C68  1  0.52464300  0.52464300  0.76845300  1
  C  C69  1  0.86728400  0.35599900  0.65876200  1
  C  C70  1  0.07167300  0.56850000  0.70251600  1
  C  C71  1  0.55438700  0.03004000  0.77851300  1
  C  C72  1  0.71986700  0.21779300  0.83268600  1
  C  C73  1  0.07278600  0.07278600  0.71988500  1
  C  C74  1  0.49069500  0.49069500  0.90741100  1
  C  C75  1  0.03004000  0.55438700  0.77851300  1
  C  C76  1  0.21779300  0.71986700  0.83268600  1
  C  C77  1  0.50073100  0.00858400  0.90796400  1
  C  C78  1  0.22486400  0.22486400  0.83298400  1
  C  C79  1  0.00858400  0.50073100  0.90796400  1
