# generated using pymatgen
data_Cu4Ni4C
_symmetry_space_group_name_H-M   'P 1'
_cell_length_a   15.05497900
_cell_length_b   8.23148900
_cell_length_c   15.45319953
_cell_angle_alpha   69.52698002
_cell_angle_beta   90.00000000
_cell_angle_gamma   90.00000000
_symmetry_Int_Tables_number   1
_chemical_formula_structural   Cu4Ni4C
_chemical_formula_sum   'Cu48 Ni48 C12'
_cell_volume   1794.07667724
_cell_formula_units_Z   12
loop_
 _symmetry_equiv_pos_site_id
 _symmetry_equiv_pos_as_xyz
  1  'x, y, z'
loop_
 _atom_site_type_symbol
 _atom_site_label
 _atom_site_symmetry_multiplicity
 _atom_site_fract_x
 _atom_site_fract_y
 _atom_site_fract_z
 _atom_site_occupancy
  C  C0  1  0.52535100  0.78118200  0.77835300  1
  C  C1  1  0.08073600  0.64287600  0.15968100  1
  C  C2  1  0.97464900  0.78118200  0.27835300  1
  C  C3  1  0.02535100  0.21881800  0.72164700  1
  C  C4  1  0.41926400  0.64287600  0.65968100  1
  C  C5  1  0.83154100  0.23434100  0.70436300  1
  C  C6  1  0.58073600  0.35712400  0.34031900  1
  C  C7  1  0.91926400  0.35712400  0.84031900  1
  C  C8  1  0.47464900  0.21881800  0.22164700  1
  C  C9  1  0.66845900  0.23434100  0.20436300  1
  C  C10  1  0.16845900  0.76565900  0.29563700  1
  C  C11  1  0.33154100  0.76565900  0.79563700  1
  Ni  Ni12  1  0.15808800  0.53023800  0.38459100  1
  Ni  Ni13  1  0.18202200  0.85712600  0.39395400  1
  Ni  Ni14  1  0.51325300  0.01096700  0.68501900  1
  Ni  Ni15  1  0.04942300  0.11859100  0.62840700  1
  Ni  Ni16  1  0.98026300  0.59962900  0.09398400  1
  Ni  Ni17  1  0.98674700  0.01096700  0.18501900  1
  Ni  Ni18  1  0.82506700  0.00235400  0.79741800  1
  Ni  Ni19  1  0.21450000  0.71613500  0.76499500  1
  Ni  Ni20  1  0.86069300  0.74926400  0.23204700  1
  Ni  Ni21  1  0.47019800  0.45196000  0.13000100  1
  Ni  Ni22  1  0.31797800  0.85712600  0.89395400  1
  Ni  Ni23  1  0.92794500  0.58782800  0.74591700  1
  Ni  Ni24  1  0.65808800  0.46976200  0.11540900  1
  Ni  Ni25  1  0.59571000  0.12373100  0.42893600  1
  Ni  Ni26  1  0.95057700  0.88140900  0.37159300  1
  Ni  Ni27  1  0.78550000  0.28386500  0.23500500  1
  Ni  Ni28  1  0.13930700  0.25073600  0.76795300  1
  Ni  Ni29  1  0.36069300  0.25073600  0.26795300  1
  Ni  Ni30  1  0.01325300  0.98903300  0.81498100  1
  Ni  Ni31  1  0.67493300  0.00235400  0.29741800  1
  Ni  Ni32  1  0.51973700  0.59962900  0.59398400  1
  Ni  Ni33  1  0.97019800  0.54804000  0.36999900  1
  Ni  Ni34  1  0.52980200  0.54804000  0.86999900  1
  Ni  Ni35  1  0.81797800  0.14287400  0.60604600  1
  Ni  Ni36  1  0.68183900  0.43105600  0.39226100  1
  Ni  Ni37  1  0.57205500  0.58782800  0.24591700  1
  Ni  Ni38  1  0.54942300  0.88140900  0.87159300  1
  Ni  Ni39  1  0.18183900  0.56894400  0.10773900  1
  Ni  Ni40  1  0.48026300  0.40037100  0.40601600  1
  Ni  Ni41  1  0.28550000  0.71613500  0.26499500  1
  Ni  Ni42  1  0.84191200  0.46976200  0.61540900  1
  Ni  Ni43  1  0.32506700  0.99764600  0.70258200  1
  Ni  Ni44  1  0.90429000  0.12373100  0.92893600  1
  Ni  Ni45  1  0.48674700  0.98903300  0.31498100  1
  Ni  Ni46  1  0.42794500  0.41217200  0.75408300  1
  Ni  Ni47  1  0.17493300  0.99764600  0.20258200  1
  Ni  Ni48  1  0.09571000  0.87626900  0.07106400  1
  Ni  Ni49  1  0.07205500  0.41217200  0.25408300  1
  Ni  Ni50  1  0.63930700  0.74926400  0.73204700  1
  Ni  Ni51  1  0.71450000  0.28386500  0.73500500  1
  Ni  Ni52  1  0.02980200  0.45196000  0.63000100  1
  Ni  Ni53  1  0.31816100  0.56894400  0.60773900  1
  Ni  Ni54  1  0.40429000  0.87626900  0.57106400  1
  Ni  Ni55  1  0.68202200  0.14287400  0.10604600  1
  Ni  Ni56  1  0.01973700  0.40037100  0.90601600  1
  Ni  Ni57  1  0.45057700  0.11859100  0.12840700  1
  Ni  Ni58  1  0.34191200  0.53023800  0.88459100  1
  Ni  Ni59  1  0.81816100  0.43105600  0.89226100  1
  Cu  Cu60  1  0.81204100  0.86365600  0.84937200  1
  Cu  Cu61  1  0.98489700  0.15154300  0.13190100  1
  Cu  Cu62  1  0.56812100  0.73167900  0.19769500  1
  Cu  Cu63  1  0.31204100  0.13634400  0.65062800  1
  Cu  Cu64  1  0.43433200  0.05289400  0.07526500  1
  Cu  Cu65  1  0.75582300  0.47316200  0.92323300  1
  Cu  Cu66  1  0.89416800  0.99360400  0.98971900  1
  Cu  Cu67  1  0.56566800  0.94710600  0.92473500  1
  Cu  Cu68  1  0.41967400  0.42831800  0.44519700  1
  Cu  Cu69  1  0.51510300  0.15154300  0.63190100  1
  Cu  Cu70  1  0.35599200  0.68754100  0.24351300  1
  Cu  Cu71  1  0.24417700  0.52683800  0.07676700  1
  Cu  Cu72  1  0.58032600  0.57168200  0.55480300  1
  Cu  Cu73  1  0.16284400  0.39353300  0.44023100  1
  Cu  Cu74  1  0.79185100  0.72720700  0.20402500  1
  Cu  Cu75  1  0.74417700  0.47316200  0.42323300  1
  Cu  Cu76  1  0.19349100  0.91093000  0.45303600  1
  Cu  Cu77  1  0.20814900  0.27279300  0.79597500  1
  Cu  Cu78  1  0.01510300  0.84845700  0.86809900  1
  Cu  Cu79  1  0.69349100  0.08907000  0.04696400  1
  Cu  Cu80  1  0.18795900  0.13634400  0.15062800  1
  Cu  Cu81  1  0.06812100  0.26832100  0.30230500  1
  Cu  Cu82  1  0.66284400  0.60646700  0.05976900  1
  Cu  Cu83  1  0.60583200  0.99360400  0.48971900  1
  Cu  Cu84  1  0.30650900  0.91093000  0.95303600  1
  Cu  Cu85  1  0.45844500  0.58510900  0.07255700  1
  Cu  Cu86  1  0.93433200  0.94710600  0.42473500  1
  Cu  Cu87  1  0.83715600  0.60646700  0.55976900  1
  Cu  Cu88  1  0.70814900  0.72720700  0.70402500  1
  Cu  Cu89  1  0.29185100  0.27279300  0.29597500  1
  Cu  Cu90  1  0.95844500  0.41489100  0.42744300  1
  Cu  Cu91  1  0.68795900  0.86365600  0.34937200  1
  Cu  Cu92  1  0.14400800  0.68754100  0.74351300  1
  Cu  Cu93  1  0.93187900  0.73167900  0.69769500  1
  Cu  Cu94  1  0.43187900  0.26832100  0.80230500  1
  Cu  Cu95  1  0.48489700  0.84845700  0.36809900  1
  Cu  Cu96  1  0.85599200  0.31245900  0.25648700  1
  Cu  Cu97  1  0.33715600  0.39353300  0.94023100  1
  Cu  Cu98  1  0.25582300  0.52683800  0.57676700  1
  Cu  Cu99  1  0.91967400  0.57168200  0.05480300  1
  Cu  Cu100  1  0.80650900  0.08907000  0.54696400  1
  Cu  Cu101  1  0.08032600  0.42831800  0.94519700  1
  Cu  Cu102  1  0.04155500  0.58510900  0.57255700  1
  Cu  Cu103  1  0.06566800  0.05289400  0.57526500  1
  Cu  Cu104  1  0.10583200  0.00639600  0.01028100  1
  Cu  Cu105  1  0.64400800  0.31245900  0.75648700  1
  Cu  Cu106  1  0.39416800  0.00639600  0.51028100  1
  Cu  Cu107  1  0.54155500  0.41489100  0.92744300  1
