# generated using pymatgen
data_Cu3Ni3C7
_symmetry_space_group_name_H-M   'P 1'
_cell_length_a   5.77876700
_cell_length_b   6.10623925
_cell_length_c   6.57371592
_cell_angle_alpha   111.02450742
_cell_angle_beta   108.12082008
_cell_angle_gamma   102.43637294
_symmetry_Int_Tables_number   1
_chemical_formula_structural   Cu3Ni3C7
_chemical_formula_sum   'Cu3 Ni3 C7'
_cell_volume   191.29801775
_cell_formula_units_Z   1
loop_
 _symmetry_equiv_pos_site_id
 _symmetry_equiv_pos_as_xyz
  1  'x, y, z'
loop_
 _atom_site_type_symbol
 _atom_site_label
 _atom_site_symmetry_multiplicity
 _atom_site_fract_x
 _atom_site_fract_y
 _atom_site_fract_z
 _atom_site_occupancy
  C  C0  1  0.78527500  0.74082500  0.91487800  1
  C  C1  1  0.86514700  0.36252500  0.82463100  1
  C  C2  1  0.27719500  0.91289700  0.77144300  1
  C  C3  1  0.82896500  0.82287700  0.31805100  1
  C  C4  1  0.88381700  0.71972900  0.30548200  1
  C  C5  1  0.84796700  0.35990600  0.93365800  1
  C  C6  1  0.25161400  0.88451500  0.64454700  1
  Ni  Ni7  1  0.69871100  0.79001300  0.65190900  1
  Ni  Ni8  1  0.74632500  0.56193800  0.60198600  1
  Ni  Ni9  1  0.46179200  0.57373800  0.89209000  1
  Cu  Cu10  1  0.46091300  0.39900600  0.99075400  1
  Cu  Cu11  1  0.12586800  0.83502100  0.08689600  1
  Cu  Cu12  1  0.78061100  0.05120900  0.07787400  1
