# generated using pymatgen
data_CuNi3
_symmetry_space_group_name_H-M   'P 1'
_cell_length_a   7.08241200
_cell_length_b   7.08241200
_cell_length_c   7.37958300
_cell_angle_alpha   90.00000000
_cell_angle_beta   90.00000000
_cell_angle_gamma   90.00000000
_symmetry_Int_Tables_number   1
_chemical_formula_structural   CuNi3
_chemical_formula_sum   'Cu4 Ni12'
_cell_volume   370.16401391
_cell_formula_units_Z   4
loop_
 _symmetry_equiv_pos_site_id
 _symmetry_equiv_pos_as_xyz
  1  'x, y, z'
loop_
 _atom_site_type_symbol
 _atom_site_label
 _atom_site_symmetry_multiplicity
 _atom_site_fract_x
 _atom_site_fract_y
 _atom_site_fract_z
 _atom_site_occupancy
  Ni  Ni0  1  0.00000000  0.50000000  0.50000000  1
  Ni  Ni1  1  0.50000000  0.00000000  0.00000000  1
  Ni  Ni2  1  0.50000000  0.00000000  0.50000000  1
  Ni  Ni3  1  0.00000000  0.50000000  0.00000000  1
  Ni  Ni4  1  0.34531000  0.65469000  0.23827700  1
  Ni  Ni5  1  0.65469000  0.34531000  0.23827700  1
  Ni  Ni6  1  0.15469000  0.15469000  0.73827700  1
  Ni  Ni7  1  0.84531000  0.84531000  0.73827700  1
  Ni  Ni8  1  0.65469000  0.34531000  0.76172300  1
  Ni  Ni9  1  0.34531000  0.65469000  0.76172300  1
  Ni  Ni10  1  0.84531000  0.84531000  0.26172300  1
  Ni  Ni11  1  0.15469000  0.15469000  0.26172300  1
  Cu  Cu12  1  0.15507900  0.84492100  0.50000000  1
  Cu  Cu13  1  0.84492100  0.15507900  0.50000000  1
  Cu  Cu14  1  0.34492100  0.34492100  0.00000000  1
  Cu  Cu15  1  0.65507900  0.65507900  0.00000000  1
