# generated using pymatgen
data_Cu(Ni3C8)2
_symmetry_space_group_name_H-M   'P 1'
_cell_length_a   9.52856400
_cell_length_b   11.67530200
_cell_length_c   21.94439106
_cell_angle_alpha   75.68861820
_cell_angle_beta   90.00000000
_cell_angle_gamma   90.00000000
_symmetry_Int_Tables_number   1
_chemical_formula_structural   Cu(Ni3C8)2
_chemical_formula_sum   'Cu4 Ni24 C64'
_cell_volume   2365.52716796
_cell_formula_units_Z   4
loop_
 _symmetry_equiv_pos_site_id
 _symmetry_equiv_pos_as_xyz
  1  'x, y, z'
loop_
 _atom_site_type_symbol
 _atom_site_label
 _atom_site_symmetry_multiplicity
 _atom_site_fract_x
 _atom_site_fract_y
 _atom_site_fract_z
 _atom_site_occupancy
  C  C0  1  0.20724500  0.60948700  0.47939000  1
  C  C1  1  0.41073200  0.66693700  0.85206900  1
  C  C2  1  0.38290500  0.76299400  0.04932000  1
  C  C3  1  0.65170000  0.17958200  0.52820500  1
  C  C4  1  0.61709500  0.23700600  0.95068000  1
  C  C5  1  0.11709500  0.76299400  0.54932000  1
  C  C6  1  0.56696500  0.87250700  0.81873000  1
  C  C7  1  0.79275500  0.39051300  0.52061000  1
  C  C8  1  0.43303500  0.12749300  0.18127000  1
  C  C9  1  0.13219600  0.31905500  0.72987600  1
  C  C10  1  0.15170000  0.82041800  0.97179500  1
  C  C11  1  0.06696500  0.12749300  0.68127000  1
  C  C12  1  0.08926800  0.66693700  0.35206900  1
  C  C13  1  0.70724500  0.39051300  0.02061000  1
  C  C14  1  0.86780400  0.68094500  0.27012400  1
  C  C15  1  0.93303500  0.87250700  0.31873000  1
  C  C16  1  0.91073200  0.33306300  0.64793100  1
  C  C17  1  0.36780400  0.31905500  0.22987600  1
  C  C18  1  0.29275500  0.60948700  0.97939000  1
  C  C19  1  0.84830000  0.17958200  0.02820500  1
  C  C20  1  0.58926800  0.33306300  0.14793100  1
  C  C21  1  0.34830000  0.82041800  0.47179500  1
  C  C22  1  0.63219600  0.68094500  0.77012400  1
  C  C23  1  0.88290500  0.23700600  0.45068000  1
  Ni  Ni24  1  0.34930700  0.18313200  0.23013200  1
  Ni  Ni25  1  0.40449400  0.64622200  0.02495200  1
  Ni  Ni26  1  0.73258000  0.14297100  0.98388400  1
  Ni  Ni27  1  0.26742000  0.85702900  0.01611600  1
  Ni  Ni28  1  0.83629000  0.30452900  0.04503600  1
  Ni  Ni29  1  0.76742000  0.14297100  0.48388400  1
  Ni  Ni30  1  0.90449400  0.35377800  0.47504800  1
  Ni  Ni31  1  0.95127200  0.20657300  0.63747400  1
  Ni  Ni32  1  0.66371000  0.30452900  0.54503600  1
  Ni  Ni33  1  0.45127200  0.79342700  0.86252600  1
  Ni  Ni34  1  0.97924400  0.60258300  0.31722500  1
  Ni  Ni35  1  0.84930700  0.81686800  0.26986800  1
  Ni  Ni36  1  0.47924400  0.39741700  0.18277500  1
  Ni  Ni37  1  0.09550600  0.64622200  0.52495200  1
  Ni  Ni38  1  0.23258000  0.85702900  0.51611600  1
  Ni  Ni39  1  0.52075600  0.60258300  0.81722500  1
  Ni  Ni40  1  0.33629000  0.69547100  0.45496400  1
  Ni  Ni41  1  0.16371000  0.69547100  0.95496400  1
  Ni  Ni42  1  0.04872800  0.79342700  0.36252600  1
  Ni  Ni43  1  0.65069300  0.81686800  0.76986800  1
  Ni  Ni44  1  0.02075600  0.39741700  0.68277500  1
  Ni  Ni45  1  0.54872800  0.20657300  0.13747400  1
  Ni  Ni46  1  0.59550600  0.35377800  0.97504800  1
  Ni  Ni47  1  0.15069300  0.18313200  0.73013200  1
  C  C48  1  0.06794900  0.15417700  0.45413800  1
  C  C49  1  0.52221700  0.97566400  0.22899800  1
  C  C50  1  0.22361800  0.67473100  0.80739800  1
  C  C51  1  0.65457300  0.28500000  0.85723800  1
  C  C52  1  0.22051600  0.44656900  0.01834600  1
  C  C53  1  0.02221700  0.02433600  0.27100200  1
  C  C54  1  0.81880100  0.59772500  0.78517700  1
  C  C55  1  0.31880100  0.40227500  0.71482300  1
  C  C56  1  0.27948400  0.44656900  0.51834600  1
  C  C57  1  0.54030600  0.83185900  0.50920500  1
  C  C58  1  0.72051600  0.55343100  0.48165400  1
  C  C59  1  0.91038900  0.67468800  0.18064500  1
  C  C60  1  0.93205100  0.84582300  0.54586200  1
  C  C61  1  0.56794900  0.84582300  0.04586200  1
  C  C62  1  0.97778300  0.97566400  0.72899800  1
  C  C63  1  0.58961100  0.67468800  0.68064500  1
  C  C64  1  0.68119900  0.59772500  0.28517700  1
  C  C65  1  0.15457300  0.71500000  0.64276200  1
  C  C66  1  0.34542700  0.71500000  0.14276200  1
  C  C67  1  0.41038900  0.32531200  0.31935500  1
  C  C68  1  0.27638200  0.67473100  0.30739800  1
  C  C69  1  0.13942900  0.94853800  0.89180000  1
  C  C70  1  0.79425000  0.92922300  0.37387900  1
  C  C71  1  0.43205100  0.15417700  0.95413800  1
  C  C72  1  0.20575000  0.07077700  0.62612100  1
  C  C73  1  0.29425000  0.07077700  0.12612100  1
  C  C74  1  0.47778300  0.02433600  0.77100200  1
  C  C75  1  0.18119900  0.40227500  0.21482300  1
  C  C76  1  0.84542700  0.28500000  0.35723800  1
  C  C77  1  0.77638200  0.32526900  0.19260200  1
  C  C78  1  0.95969400  0.83185900  0.00920500  1
  C  C79  1  0.72361800  0.32526900  0.69260200  1
  C  C80  1  0.45969400  0.16814100  0.49079500  1
  C  C81  1  0.77948400  0.55343100  0.98165400  1
  C  C82  1  0.36057100  0.94853800  0.39180000  1
  C  C83  1  0.04030600  0.16814100  0.99079500  1
  C  C84  1  0.08961100  0.32531200  0.81935500  1
  C  C85  1  0.70575000  0.92922300  0.87387900  1
  C  C86  1  0.63942900  0.05146200  0.60820000  1
  C  C87  1  0.86057100  0.05146200  0.10820000  1
  Cu  Cu88  1  0.37564700  0.58051700  0.91968500  1
  Cu  Cu89  1  0.62435300  0.41948300  0.08031500  1
  Cu  Cu90  1  0.12435300  0.58051700  0.41968500  1
  Cu  Cu91  1  0.87564700  0.41948300  0.58031500  1
