# generated using pymatgen
data_CuNiC8
_symmetry_space_group_name_H-M   'P 1'
_cell_length_a   11.06962900
_cell_length_b   5.53450400
_cell_length_c   7.84325335
_cell_angle_alpha   89.55425999
_cell_angle_beta   90.00000000
_cell_angle_gamma   90.00000000
_symmetry_Int_Tables_number   1
_chemical_formula_structural   CuNiC8
_chemical_formula_sum   'Cu4 Ni4 C32'
_cell_volume   480.50163783
_cell_formula_units_Z   4
loop_
 _symmetry_equiv_pos_site_id
 _symmetry_equiv_pos_as_xyz
  1  'x, y, z'
loop_
 _atom_site_type_symbol
 _atom_site_label
 _atom_site_symmetry_multiplicity
 _atom_site_fract_x
 _atom_site_fract_y
 _atom_site_fract_z
 _atom_site_occupancy
  C  C0  1  0.37901200  0.75000000  0.50000000  1
  C  C1  1  0.61877900  0.25000000  0.00000000  1
  C  C2  1  0.38122100  0.75000000  0.00000000  1
  C  C3  1  0.62098800  0.25000000  0.50000000  1
  C  C4  1  0.87348300  0.75000000  0.50000000  1
  C  C5  1  0.13128500  0.25000000  0.00000000  1
  C  C6  1  0.86871500  0.75000000  0.00000000  1
  C  C7  1  0.12651700  0.25000000  0.50000000  1
  Ni  Ni8  1  0.37663400  0.25233700  0.75088000  1
  Ni  Ni9  1  0.62336600  0.74766300  0.24912000  1
  Ni  Ni10  1  0.37663400  0.24766300  0.24912000  1
  Ni  Ni11  1  0.62336600  0.75233700  0.75088000  1
  Cu  Cu12  1  0.87255800  0.24799200  0.74918300  1
  Cu  Cu13  1  0.12744200  0.75200800  0.25081700  1
  Cu  Cu14  1  0.87255800  0.25200800  0.25081700  1
  Cu  Cu15  1  0.12744200  0.74799200  0.74918300  1
  C  C16  1  0.50886100  0.01710900  0.26693400  1
  C  C17  1  0.38561300  0.25000000  0.00000000  1
  C  C18  1  0.50886100  0.48289100  0.73306600  1
  C  C19  1  0.76208600  0.53053900  0.76807400  1
  C  C20  1  0.49113900  0.51710900  0.26693400  1
  C  C21  1  0.64950600  0.75000000  0.50000000  1
  C  C22  1  0.61438700  0.75000000  0.00000000  1
  C  C23  1  0.76208600  0.96946100  0.23192600  1
  C  C24  1  0.49113900  0.98289100  0.73306600  1
  C  C25  1  0.01186600  0.02770700  0.27414000  1
  C  C26  1  0.74325200  0.00588300  0.77101000  1
  C  C27  1  0.89972200  0.25000000  0.00000000  1
  C  C28  1  0.85663700  0.25000000  0.50000000  1
  C  C29  1  0.01186600  0.47229300  0.72586000  1
  C  C30  1  0.74325200  0.49411700  0.22899000  1
  C  C31  1  0.25674800  0.50588300  0.77101000  1
  C  C32  1  0.98813400  0.52770700  0.27414000  1
  C  C33  1  0.14336300  0.75000000  0.50000000  1
  C  C34  1  0.10027800  0.75000000  0.00000000  1
  C  C35  1  0.25674800  0.99411700  0.22899000  1
  C  C36  1  0.98813400  0.97229300  0.72586000  1
  C  C37  1  0.23791400  0.03053900  0.76807400  1
  C  C38  1  0.35049400  0.25000000  0.50000000  1
  C  C39  1  0.23791400  0.46946100  0.23192600  1
