# generated using pymatgen
data_CuNi2C
_symmetry_space_group_name_H-M   'P 1'
_cell_length_a   4.00829400
_cell_length_b   15.55615900
_cell_length_c   18.08221100
_cell_angle_alpha   90.00000000
_cell_angle_beta   90.00000000
_cell_angle_gamma   90.00000000
_symmetry_Int_Tables_number   1
_chemical_formula_structural   CuNi2C
_chemical_formula_sum   'Cu12 Ni24 C12'
_cell_volume   1127.49201473
_cell_formula_units_Z   12
loop_
 _symmetry_equiv_pos_site_id
 _symmetry_equiv_pos_as_xyz
  1  'x, y, z'
loop_
 _atom_site_type_symbol
 _atom_site_label
 _atom_site_symmetry_multiplicity
 _atom_site_fract_x
 _atom_site_fract_y
 _atom_site_fract_z
 _atom_site_occupancy
  C  C0  1  0.50000000  0.27952900  0.02625600  1
  C  C1  1  0.50000000  0.72047100  0.97374400  1
  C  C2  1  0.50000000  0.33460300  0.24702300  1
  C  C3  1  0.50000000  0.22047100  0.52625600  1
  C  C4  1  0.50000000  0.66539700  0.75297700  1
  C  C5  1  0.50000000  0.77952900  0.47374400  1
  C  C6  1  0.00000000  0.34262200  0.66472900  1
  C  C7  1  0.00000000  0.65737800  0.33527100  1
  C  C8  1  0.50000000  0.16539700  0.74702300  1
  C  C9  1  0.00000000  0.15737800  0.16472900  1
  C  C10  1  0.00000000  0.84262200  0.83527100  1
  C  C11  1  0.50000000  0.83460300  0.25297700  1
  Ni  Ni12  1  0.00000000  0.37611200  0.95537700  1
  Ni  Ni13  1  0.50000000  0.32532200  0.40169500  1
  Ni  Ni14  1  0.50000000  0.42640600  0.11529900  1
  Ni  Ni15  1  0.50000000  0.17467800  0.90169500  1
  Ni  Ni16  1  0.00000000  0.12388800  0.45537700  1
  Ni  Ni17  1  0.50000000  0.14125800  0.28092000  1
  Ni  Ni18  1  0.00000000  0.46830700  0.28040100  1
  Ni  Ni19  1  0.00000000  0.62388800  0.04462300  1
  Ni  Ni20  1  0.50000000  0.06750800  0.08414100  1
  Ni  Ni21  1  0.00000000  0.87611200  0.54462300  1
  Ni  Ni22  1  0.50000000  0.67467800  0.59830500  1
  Ni  Ni23  1  0.50000000  0.43249200  0.58414100  1
  Ni  Ni24  1  0.00000000  0.03169300  0.78040100  1
  Ni  Ni25  1  0.50000000  0.64125800  0.21908000  1
  Ni  Ni26  1  0.50000000  0.82532200  0.09830500  1
  Ni  Ni27  1  0.50000000  0.85874200  0.71908000  1
  Ni  Ni28  1  0.50000000  0.93249200  0.91585900  1
  Ni  Ni29  1  0.50000000  0.07359400  0.61529900  1
  Ni  Ni30  1  0.50000000  0.35874200  0.78092000  1
  Ni  Ni31  1  0.00000000  0.96830700  0.21959900  1
  Ni  Ni32  1  0.50000000  0.92640600  0.38470100  1
  Ni  Ni33  1  0.00000000  0.53169300  0.71959900  1
  Ni  Ni34  1  0.50000000  0.57359400  0.88470100  1
  Ni  Ni35  1  0.50000000  0.56750800  0.41585900  1
  Cu  Cu36  1  0.50000000  0.74063200  0.35260400  1
  Cu  Cu37  1  0.00000000  0.77509800  0.94633500  1
  Cu  Cu38  1  0.00000000  0.21794100  0.73686900  1
  Cu  Cu39  1  0.00000000  0.72490200  0.44633500  1
  Cu  Cu40  1  0.00000000  0.28205900  0.23686900  1
  Cu  Cu41  1  0.00000000  0.27509800  0.55366500  1
  Cu  Cu42  1  0.50000000  0.25936800  0.64739600  1
  Cu  Cu43  1  0.00000000  0.78205900  0.26313100  1
  Cu  Cu44  1  0.00000000  0.71794100  0.76313100  1
  Cu  Cu45  1  0.50000000  0.75936800  0.85260400  1
  Cu  Cu46  1  0.00000000  0.22490200  0.05366500  1
  Cu  Cu47  1  0.50000000  0.24063200  0.14739600  1
