# generated using pymatgen
data_Cu(NiC)3
_symmetry_space_group_name_H-M   'P 1'
_cell_length_a   7.69787087
_cell_length_b   7.69787087
_cell_length_c   12.56107567
_cell_angle_alpha   73.08814563
_cell_angle_beta   73.08814563
_cell_angle_gamma   82.32504997
_symmetry_Int_Tables_number   1
_chemical_formula_structural   Cu(NiC)3
_chemical_formula_sum   'Cu4 Ni12 C12'
_cell_volume   680.37255218
_cell_formula_units_Z   4
loop_
 _symmetry_equiv_pos_site_id
 _symmetry_equiv_pos_as_xyz
  1  'x, y, z'
loop_
 _atom_site_type_symbol
 _atom_site_label
 _atom_site_symmetry_multiplicity
 _atom_site_fract_x
 _atom_site_fract_y
 _atom_site_fract_z
 _atom_site_occupancy
  C  C0  1  0.75177600  0.60827000  0.61287400  1
  C  C1  1  0.06282800  0.78802700  0.12262500  1
  C  C2  1  0.21197300  0.93717200  0.37737500  1
  C  C3  1  0.66024500  0.97869900  0.38269500  1
  C  C4  1  0.93717200  0.21197300  0.87737500  1
  C  C5  1  0.39173000  0.24822400  0.88712600  1
  C  C6  1  0.78802700  0.06282800  0.62262500  1
  C  C7  1  0.60827000  0.75177600  0.11287400  1
  C  C8  1  0.02130100  0.33975500  0.11730500  1
  C  C9  1  0.24822400  0.39173000  0.38712600  1
  C  C10  1  0.97869900  0.66024500  0.88269500  1
  C  C11  1  0.33975500  0.02130100  0.61730500  1
  Ni  Ni12  1  0.92591300  0.21947700  0.37324000  1
  Ni  Ni13  1  0.33477500  0.50375400  0.14026100  1
  Ni  Ni14  1  0.50375400  0.33477500  0.64026100  1
  Ni  Ni15  1  0.69274500  0.95900200  0.87187500  1
  Ni  Ni16  1  0.21947700  0.92591300  0.87324000  1
  Ni  Ni17  1  0.07408700  0.78052300  0.62676000  1
  Ni  Ni18  1  0.04099800  0.30725500  0.62812500  1
  Ni  Ni19  1  0.78052300  0.07408700  0.12676000  1
  Ni  Ni20  1  0.30725500  0.04099800  0.12812500  1
  Ni  Ni21  1  0.66522500  0.49624600  0.85973900  1
  Ni  Ni22  1  0.95900200  0.69274500  0.37187500  1
  Ni  Ni23  1  0.49624600  0.66522500  0.35973900  1
  Cu  Cu24  1  0.10968800  0.37516500  0.92400500  1
  Cu  Cu25  1  0.62483500  0.89031200  0.57599500  1
  Cu  Cu26  1  0.37516500  0.10968800  0.42400500  1
  Cu  Cu27  1  0.89031200  0.62483500  0.07599500  1
