# generated using pymatgen
data_CuNi5C6
_symmetry_space_group_name_H-M   'P 1'
_cell_length_a   6.03125400
_cell_length_b   11.62908500
_cell_length_c   11.67973100
_cell_angle_alpha   90.00000000
_cell_angle_beta   90.00000000
_cell_angle_gamma   90.00000000
_symmetry_Int_Tables_number   1
_chemical_formula_structural   CuNi5C6
_chemical_formula_sum   'Cu4 Ni20 C24'
_cell_volume   819.19256902
_cell_formula_units_Z   4
loop_
 _symmetry_equiv_pos_site_id
 _symmetry_equiv_pos_as_xyz
  1  'x, y, z'
loop_
 _atom_site_type_symbol
 _atom_site_label
 _atom_site_symmetry_multiplicity
 _atom_site_fract_x
 _atom_site_fract_y
 _atom_site_fract_z
 _atom_site_occupancy
  C  C0  1  0.94975100  0.75000000  0.87770700  1
  C  C1  1  0.44975100  0.25000000  0.62229300  1
  C  C2  1  0.05024900  0.25000000  0.12229300  1
  C  C3  1  0.55024900  0.75000000  0.37770700  1
  Ni  Ni4  1  0.42645500  0.63481100  0.28191400  1
  Ni  Ni5  1  0.31205800  0.36678300  0.53468000  1
  Ni  Ni6  1  0.18794200  0.13321700  0.03468000  1
  Ni  Ni7  1  0.69288600  0.25000000  0.52834400  1
  Ni  Ni8  1  0.68794200  0.86678300  0.46532000  1
  Ni  Ni9  1  0.42645500  0.86518900  0.28191400  1
  Ni  Ni10  1  0.92645500  0.36518900  0.21808600  1
  Ni  Ni11  1  0.92645500  0.13481100  0.21808600  1
  Ni  Ni12  1  0.19288600  0.75000000  0.97165600  1
  Ni  Ni13  1  0.07354500  0.86518900  0.78191400  1
  Ni  Ni14  1  0.57354500  0.13481100  0.71808600  1
  Ni  Ni15  1  0.80711400  0.25000000  0.02834400  1
  Ni  Ni16  1  0.18794200  0.36678300  0.03468000  1
  Ni  Ni17  1  0.07354500  0.63481100  0.78191400  1
  Ni  Ni18  1  0.81205800  0.86678300  0.96532000  1
  Ni  Ni19  1  0.68794200  0.63321700  0.46532000  1
  Ni  Ni20  1  0.30711400  0.75000000  0.47165600  1
  Ni  Ni21  1  0.81205800  0.63321700  0.96532000  1
  Ni  Ni22  1  0.31205800  0.13321700  0.53468000  1
  Ni  Ni23  1  0.57354500  0.36518900  0.71808600  1
  Cu  Cu24  1  0.87058300  0.75000000  0.25491300  1
  Cu  Cu25  1  0.12941700  0.25000000  0.74508700  1
  Cu  Cu26  1  0.62941700  0.75000000  0.75491300  1
  Cu  Cu27  1  0.37058300  0.25000000  0.24508700  1
  C  C28  1  0.14612400  0.56344500  0.72471400  1
  C  C29  1  0.73495000  0.55910600  0.01747600  1
  C  C30  1  0.26505000  0.44089400  0.98252400  1
  C  C31  1  0.34570900  0.75000000  0.03174300  1
  C  C32  1  0.85387600  0.06344500  0.27528600  1
  C  C33  1  0.65429100  0.25000000  0.96825700  1
  C  C34  1  0.23495000  0.05910600  0.48252400  1
  C  C35  1  0.76505000  0.94089400  0.51747600  1
  C  C36  1  0.14612400  0.93655500  0.72471400  1
  C  C37  1  0.26505000  0.05910600  0.98252400  1
  C  C38  1  0.23495000  0.44089400  0.48252400  1
  C  C39  1  0.76505000  0.55910600  0.51747600  1
  C  C40  1  0.35387600  0.56344500  0.22471400  1
  C  C41  1  0.64612400  0.06344500  0.77528600  1
  C  C42  1  0.85387600  0.43655500  0.27528600  1
  C  C43  1  0.84570900  0.25000000  0.46825700  1
  C  C44  1  0.15429100  0.75000000  0.53174300  1
  C  C45  1  0.64612400  0.43655500  0.77528600  1
  C  C46  1  0.73495000  0.94089400  0.01747600  1
  C  C47  1  0.35387600  0.93655500  0.22471400  1
