# generated using pymatgen
data_Cu(Ni2C13)2
_symmetry_space_group_name_H-M   'P 1'
_cell_length_a   13.64340400
_cell_length_b   6.97284400
_cell_length_c   8.88029208
_cell_angle_alpha   69.71384684
_cell_angle_beta   90.00000000
_cell_angle_gamma   90.00000000
_symmetry_Int_Tables_number   1
_chemical_formula_structural   Cu(Ni2C13)2
_chemical_formula_sum   'Cu2 Ni8 C52'
_cell_volume   792.41038952
_cell_formula_units_Z   2
loop_
 _symmetry_equiv_pos_site_id
 _symmetry_equiv_pos_as_xyz
  1  'x, y, z'
loop_
 _atom_site_type_symbol
 _atom_site_label
 _atom_site_symmetry_multiplicity
 _atom_site_fract_x
 _atom_site_fract_y
 _atom_site_fract_z
 _atom_site_occupancy
  C  C0  1  0.25000000  0.32762900  0.82942000  1
  C  C1  1  0.75000000  0.67237100  0.17058000  1
  C  C2  1  0.25000000  0.92598700  0.94062500  1
  C  C3  1  0.19350300  0.80086500  0.61546700  1
  C  C4  1  0.07762300  0.61193100  0.59719900  1
  C  C5  1  0.27757300  0.58774000  0.17666600  1
  C  C6  1  0.75000000  0.07401300  0.05937500  1
  C  C7  1  0.87495000  0.37318700  0.63022600  1
  C  C8  1  0.42305700  0.34066800  0.93659400  1
  C  C9  1  0.12505000  0.62681300  0.36977400  1
  C  C10  1  0.92237700  0.38806900  0.40280100  1
  C  C11  1  0.72242700  0.41226000  0.82333400  1
  C  C12  1  0.22242700  0.58774000  0.17666600  1
  C  C13  1  0.25000000  0.53901900  0.59123500  1
  C  C14  1  0.80649700  0.19913500  0.38453300  1
  C  C15  1  0.92305700  0.65933200  0.06340600  1
  C  C16  1  0.69350300  0.19913500  0.38453300  1
  C  C17  1  0.57762300  0.38806900  0.40280100  1
  C  C18  1  0.37495000  0.62681300  0.36977400  1
  C  C19  1  0.77757300  0.41226000  0.82333400  1
  C  C20  1  0.07694300  0.34066800  0.93659400  1
  C  C21  1  0.57694300  0.65933200  0.06340600  1
  C  C22  1  0.30649700  0.80086500  0.61546700  1
  C  C23  1  0.75000000  0.46098100  0.40876500  1
  C  C24  1  0.62505000  0.37318700  0.63022600  1
  C  C25  1  0.42237700  0.61193100  0.59719900  1
  Ni  Ni26  1  0.44409600  0.69752200  0.30876700  1
  Ni  Ni27  1  0.55590400  0.30247800  0.69123300  1
  Ni  Ni28  1  0.49107500  0.21186200  0.58897400  1
  Ni  Ni29  1  0.00892500  0.21186200  0.58897400  1
  Ni  Ni30  1  0.99107500  0.78813800  0.41102600  1
  Ni  Ni31  1  0.50892500  0.78813800  0.41102600  1
  Ni  Ni32  1  0.05590400  0.69752200  0.30876700  1
  Ni  Ni33  1  0.94409600  0.30247800  0.69123300  1
  Cu  Cu34  1  0.75000000  0.02848400  0.65065200  1
  Cu  Cu35  1  0.25000000  0.97151600  0.34934800  1
  C  C36  1  0.33480700  0.50480000  0.64013300  1
  C  C37  1  0.56908200  0.92149900  0.35016500  1
  C  C38  1  0.43091800  0.07850100  0.64983500  1
  C  C39  1  0.51106900  0.29297900  0.43379200  1
  C  C40  1  0.53601100  0.29900800  0.82601300  1
  C  C41  1  0.01106900  0.70702100  0.56620800  1
  C  C42  1  0.75000000  0.95018900  0.15497600  1
  C  C43  1  0.25000000  0.04981100  0.84502400  1
  C  C44  1  0.06908200  0.07850100  0.64983500  1
  C  C45  1  0.83480700  0.49520000  0.35986700  1
  C  C46  1  0.85424500  0.65752400  0.03065800  1
  C  C47  1  0.03601100  0.70099200  0.17398700  1
  C  C48  1  0.46398900  0.70099200  0.17398700  1
  C  C49  1  0.64575500  0.65752400  0.03065800  1
  C  C50  1  0.75000000  0.10356400  0.41153000  1
  C  C51  1  0.66519300  0.49520000  0.35986700  1
  C  C52  1  0.35424500  0.34247600  0.96934200  1
  C  C53  1  0.75000000  0.85561800  0.70576800  1
  C  C54  1  0.48893100  0.70702100  0.56620800  1
  C  C55  1  0.14575500  0.34247600  0.96934200  1
  C  C56  1  0.96398900  0.29900800  0.82601300  1
  C  C57  1  0.16519300  0.50480000  0.64013300  1
  C  C58  1  0.98893100  0.29297900  0.43379200  1
  C  C59  1  0.93091800  0.92149900  0.35016500  1
  C  C60  1  0.25000000  0.14438200  0.29423200  1
  C  C61  1  0.25000000  0.89643600  0.58847000  1
