# generated using pymatgen
data_CuNiC6
_symmetry_space_group_name_H-M   'P 1'
_cell_length_a   6.94216950
_cell_length_b   6.94216950
_cell_length_c   6.89612700
_cell_angle_alpha   90.00000000
_cell_angle_beta   90.00000000
_cell_angle_gamma   119.99999523
_symmetry_Int_Tables_number   1
_chemical_formula_structural   CuNiC6
_chemical_formula_sum   'Cu3 Ni3 C18'
_cell_volume   287.82355292
_cell_formula_units_Z   3
loop_
 _symmetry_equiv_pos_site_id
 _symmetry_equiv_pos_as_xyz
  1  'x, y, z'
loop_
 _atom_site_type_symbol
 _atom_site_label
 _atom_site_symmetry_multiplicity
 _atom_site_fract_x
 _atom_site_fract_y
 _atom_site_fract_z
 _atom_site_occupancy
  C  C0  1  0.00000000  0.60672900  0.16666700  1
  C  C1  1  0.60672900  0.00000000  0.83333300  1
  C  C2  1  0.39327100  0.39327100  0.50000000  1
  Ni  Ni3  1  0.90170900  0.90170900  0.50000000  1
  Ni  Ni4  1  0.00000000  0.09829100  0.16666700  1
  Ni  Ni5  1  0.09829100  0.00000000  0.83333300  1
  Cu  Cu6  1  0.00000000  0.59624800  0.66666700  1
  Cu  Cu7  1  0.59624800  0.00000000  0.33333300  1
  Cu  Cu8  1  0.40375200  0.40375200  0.00000000  1
  C  C9  1  0.00000000  0.04326800  0.66666700  1
  C  C10  1  0.95673200  0.95673200  0.00000000  1
  C  C11  1  0.04326800  0.00000000  0.33333300  1
  C  C12  1  0.44732900  0.58601400  0.85609400  1
  C  C13  1  0.41398600  0.86131500  0.18942700  1
  C  C14  1  0.13868500  0.55267100  0.52276000  1
  C  C15  1  0.33609300  0.18731000  0.87098800  1
  C  C16  1  0.81269000  0.14878300  0.20432200  1
  C  C17  1  0.85121700  0.66390700  0.53765500  1
  C  C18  1  0.14878300  0.81269000  0.79567800  1
  C  C19  1  0.66390700  0.85121700  0.46234500  1
  C  C20  1  0.18731000  0.33609300  0.12901200  1
  C  C21  1  0.58601400  0.44732900  0.14390600  1
  C  C22  1  0.55267100  0.13868500  0.47724000  1
  C  C23  1  0.86131500  0.41398600  0.81057300  1
