# generated using pymatgen
data_Cu4NiC2
_symmetry_space_group_name_H-M   'P 1'
_cell_length_a   7.39358491
_cell_length_b   7.39358491
_cell_length_c   7.39358491
_cell_angle_alpha   109.33797329
_cell_angle_beta   109.33797329
_cell_angle_gamma   109.73804527
_symmetry_Int_Tables_number   1
_chemical_formula_structural   Cu4NiC2
_chemical_formula_sum   'Cu8 Ni2 C4'
_cell_volume   311.12595015
_cell_formula_units_Z   2
loop_
 _symmetry_equiv_pos_site_id
 _symmetry_equiv_pos_as_xyz
  1  'x, y, z'
loop_
 _atom_site_type_symbol
 _atom_site_label
 _atom_site_symmetry_multiplicity
 _atom_site_fract_x
 _atom_site_fract_y
 _atom_site_fract_z
 _atom_site_occupancy
  C  C0  1  0.12500000  0.74564300  0.12064300  1
  C  C1  1  0.25435700  0.37500000  0.37935700  1
  C  C2  1  0.62500000  0.00435700  0.87935700  1
  C  C3  1  0.99564300  0.87500000  0.62064300  1
  Ni  Ni4  1  0.50000000  0.50000000  0.00000000  1
  Ni  Ni5  1  0.75000000  0.25000000  0.50000000  1
  Cu  Cu6  1  0.01342900  0.25853500  0.90147000  1
  Cu  Cu7  1  0.74146500  0.64293500  0.75489400  1
  Cu  Cu8  1  0.36195900  0.10706500  0.59853000  1
  Cu  Cu9  1  0.23657100  0.63804100  0.74510600  1
  Cu  Cu10  1  0.89293500  0.49146500  0.25489400  1
  Cu  Cu11  1  0.88804100  0.98657100  0.24510600  1
  Cu  Cu12  1  0.35706500  0.11195900  0.09853000  1
  Cu  Cu13  1  0.50853500  0.76342900  0.40147000  1
