# generated using pymatgen
data_Cu4Ni3C31
_symmetry_space_group_name_H-M   'P 1'
_cell_length_a   10.39771200
_cell_length_b   10.39771200
_cell_length_c   18.60185600
_cell_angle_alpha   90.00000000
_cell_angle_beta   90.00000000
_cell_angle_gamma   90.00000000
_symmetry_Int_Tables_number   1
_chemical_formula_structural   Cu4Ni3C31
_chemical_formula_sum   'Cu16 Ni12 C124'
_cell_volume   2011.09157257
_cell_formula_units_Z   4
loop_
 _symmetry_equiv_pos_site_id
 _symmetry_equiv_pos_as_xyz
  1  'x, y, z'
loop_
 _atom_site_type_symbol
 _atom_site_label
 _atom_site_symmetry_multiplicity
 _atom_site_fract_x
 _atom_site_fract_y
 _atom_site_fract_z
 _atom_site_occupancy
  Ni  Ni0  1  0.75000000  0.25000000  0.49597900  1
  Ni  Ni1  1  0.75000000  0.25000000  0.99597900  1
  Ni  Ni2  1  0.50000000  0.50000000  0.50000000  1
  Ni  Ni3  1  0.00000000  0.50000000  0.00000000  1
  Ni  Ni4  1  0.25000000  0.25000000  0.50220100  1
  Ni  Ni5  1  0.25000000  0.75000000  0.50402100  1
  Ni  Ni6  1  0.75000000  0.75000000  0.49779900  1
  Ni  Ni7  1  0.50000000  0.00000000  0.00000000  1
  Ni  Ni8  1  0.00000000  0.00000000  0.50000000  1
  Ni  Ni9  1  0.25000000  0.25000000  0.99779900  1
  Ni  Ni10  1  0.25000000  0.75000000  0.00402100  1
  Ni  Ni11  1  0.75000000  0.75000000  0.00220100  1
  Cu  Cu12  1  0.28743700  0.99714400  0.19450300  1
  Cu  Cu13  1  0.50285600  0.28743700  0.30549700  1
  Cu  Cu14  1  0.78743700  0.49714400  0.80549700  1
  Cu  Cu15  1  0.78204700  0.49732800  0.17445800  1
  Cu  Cu16  1  0.28204700  0.99732800  0.82554200  1
  Cu  Cu17  1  0.49714400  0.71256300  0.69450300  1
  Cu  Cu18  1  0.49732800  0.71795300  0.32554200  1
  Cu  Cu19  1  0.71256300  0.00285600  0.80549700  1
  Cu  Cu20  1  0.71795300  0.00267200  0.17445800  1
  Cu  Cu21  1  0.99714400  0.21256300  0.30549700  1
  Cu  Cu22  1  0.00267200  0.78204700  0.32554200  1
  Cu  Cu23  1  0.00285600  0.78743700  0.69450300  1
  Cu  Cu24  1  0.50267200  0.28204700  0.67445800  1
  Cu  Cu25  1  0.21256300  0.50285600  0.19450300  1
  Cu  Cu26  1  0.99732800  0.21795300  0.67445800  1
  Cu  Cu27  1  0.21795300  0.50267200  0.82554200  1
  C  C28  1  0.01498900  0.25591800  0.12763000  1
  C  C29  1  0.01030300  0.74719400  0.13420500  1
  C  C30  1  0.98969700  0.25280600  0.86579500  1
  C  C31  1  0.48969700  0.75280600  0.13420500  1
  C  C32  1  0.25280600  0.51030300  0.63420500  1
  C  C33  1  0.50000000  0.50000000  0.00000000  1
  C  C34  1  0.48501100  0.24408200  0.12763000  1
  C  C35  1  0.24719400  0.98969700  0.63420500  1
  C  C36  1  0.24408200  0.01498900  0.37237000  1
  C  C37  1  0.00000000  0.00000000  0.00000000  1
  C  C38  1  0.75591800  0.98501100  0.62763000  1
  C  C39  1  0.51030300  0.24719400  0.86579500  1
  C  C40  1  0.98501100  0.74408200  0.87237000  1
  C  C41  1  0.00000000  0.50000000  0.50000000  1
  C  C42  1  0.50000000  0.00000000  0.50000000  1
  C  C43  1  0.74408200  0.51498900  0.62763000  1
  C  C44  1  0.51498900  0.75591800  0.87237000  1
  C  C45  1  0.75280600  0.01030300  0.36579500  1
  C  C46  1  0.74719400  0.48969700  0.36579500  1
  C  C47  1  0.25591800  0.48501100  0.37237000  1
  C  C48  1  0.34379500  0.39617100  0.57821500  1
  C  C49  1  0.04721400  0.87371500  0.06612300  1
  C  C50  1  0.34070100  0.50425900  0.96325800  1
  C  C51  1  0.12275000  0.99717700  0.30242500  1
  C  C52  1  0.45038100  0.36858200  0.06036200  1
  C  C53  1  0.84091600  0.10526100  0.57403000  1
  C  C54  1  0.60382900  0.84379500  0.07821500  1
  C  C55  1  0.38650900  0.66686900  0.82779600  1
  C  C56  1  0.62628500  0.04721400  0.43387700  1
  C  C57  1  0.50425900  0.15929900  0.53674200  1
  C  C58  1  0.66686900  0.11349100  0.67220400  1
  C  C59  1  0.88650900  0.16686900  0.17220400  1
  C  C60  1  0.50282300  0.12275000  0.19757500  1
  C  C61  1  0.36050800  0.14309400  0.08759400  1
  C  C62  1  0.32498100  0.12784000  0.31240900  1
  C  C63  1  0.87280200  0.99042400  0.29443300  1
  C  C64  1  0.65908400  0.39473900  0.57403000  1
  C  C65  1  0.17649200  0.62418900  0.69501100  1
  C  C66  1  0.10526100  0.65908400  0.92597000  1
  C  C67  1  0.86858200  0.54961900  0.56036200  1
  C  C68  1  0.63748900  0.14783400  0.90604200  1
  C  C69  1  0.13141800  0.45038100  0.43963800  1
  C  C70  1  0.14783400  0.86251100  0.59395800  1
  C  C71  1  0.67501900  0.87216000  0.68759100  1
  C  C72  1  0.12719800  0.00957600  0.70556700  1
  C  C73  1  0.37371500  0.95278600  0.56612300  1
  C  C74  1  0.84070100  0.00425900  0.03674200  1
  C  C75  1  0.85216600  0.13748900  0.40604200  1
  C  C76  1  0.00957600  0.37280200  0.79443300  1
  C  C77  1  0.62719800  0.50957600  0.29443300  1
  C  C78  1  0.62275000  0.49717700  0.69757500  1
  C  C79  1  0.87371500  0.45278600  0.43387700  1
  C  C80  1  0.34091600  0.60526100  0.42597000  1
  C  C81  1  0.95038100  0.86858200  0.93963800  1
  C  C82  1  0.87725000  0.00282300  0.69757500  1
  C  C83  1  0.86251100  0.35216600  0.90604200  1
  C  C84  1  0.14309400  0.13949200  0.41240600  1
  C  C85  1  0.89617100  0.65620500  0.07821500  1
  C  C86  1  0.37216000  0.32498100  0.18759100  1
  C  C87  1  0.65620500  0.60382900  0.42178500  1
  C  C88  1  0.33668500  0.12044800  0.67141800  1
  C  C89  1  0.35690600  0.36050800  0.41240600  1
  C  C90  1  0.11349100  0.83313100  0.82779600  1
  C  C91  1  0.49042400  0.12719800  0.79443300  1
  C  C92  1  0.63949200  0.85690600  0.91240600  1
  C  C93  1  0.66331500  0.87955200  0.32858200  1
  C  C94  1  0.10382900  0.34379500  0.92178500  1
  C  C95  1  0.83668500  0.62044800  0.32858200  1
  C  C96  1  0.37725000  0.50282300  0.30242500  1
  C  C97  1  0.49717700  0.87725000  0.80242500  1
  C  C98  1  0.87581100  0.17649200  0.80498900  1
  C  C99  1  0.82498100  0.62784000  0.68759100  1
  C  C100  1  0.89473900  0.34091600  0.07403000  1
  C  C101  1  0.36858200  0.04961900  0.43963800  1
  C  C102  1  0.17501900  0.37216000  0.31240900  1
  C  C103  1  0.15929900  0.99574100  0.96325800  1
  C  C104  1  0.54721400  0.37371500  0.93387700  1
  C  C105  1  0.36251100  0.85216600  0.09395800  1
  C  C106  1  0.37280200  0.49042400  0.70556700  1
  C  C107  1  0.12044800  0.16331500  0.82858200  1
  C  C108  1  0.50957600  0.87280200  0.20556700  1
  C  C109  1  0.37955200  0.33668500  0.82858200  1
  C  C110  1  0.85690600  0.86050800  0.58759400  1
  C  C111  1  0.95278600  0.12628500  0.93387700  1
  C  C112  1  0.87216000  0.82498100  0.81240900  1
  C  C113  1  0.64309400  0.63949200  0.58759400  1
  C  C114  1  0.12628500  0.54721400  0.56612300  1
  C  C115  1  0.12418900  0.82350800  0.19501100  1
  C  C116  1  0.99042400  0.62719800  0.20556700  1
  C  C117  1  0.67649200  0.12418900  0.30498900  1
  C  C118  1  0.13949200  0.35690600  0.08759400  1
  C  C119  1  0.83313100  0.38650900  0.67220400  1
  C  C120  1  0.39617100  0.15620500  0.92178500  1
  C  C121  1  0.35216600  0.63748900  0.59395800  1
  C  C122  1  0.63141800  0.95038100  0.56036200  1
  C  C123  1  0.15620500  0.10382900  0.57821500  1
  C  C124  1  0.62784000  0.67501900  0.81240900  1
  C  C125  1  0.65929900  0.49574100  0.03674200  1
  C  C126  1  0.99574100  0.34070100  0.53674200  1
  C  C127  1  0.45278600  0.62628500  0.06612300  1
  C  C128  1  0.39473900  0.84091600  0.92597000  1
  C  C129  1  0.16686900  0.61349100  0.32779600  1
  C  C130  1  0.62044800  0.66331500  0.17141800  1
  C  C131  1  0.32350800  0.87581100  0.69501100  1
  C  C132  1  0.82350800  0.37581100  0.30498900  1
  C  C133  1  0.13748900  0.64783400  0.09395800  1
  C  C134  1  0.00425900  0.65929900  0.46325800  1
  C  C135  1  0.12784000  0.17501900  0.18759100  1
  C  C136  1  0.15908400  0.89473900  0.42597000  1
  C  C137  1  0.00282300  0.62275000  0.80242500  1
  C  C138  1  0.99717700  0.37725000  0.19757500  1
  C  C139  1  0.54961900  0.63141800  0.93963800  1
  C  C140  1  0.61349100  0.33313100  0.17220400  1
  C  C141  1  0.37581100  0.67649200  0.19501100  1
  C  C142  1  0.33313100  0.88650900  0.32779600  1
  C  C143  1  0.64783400  0.36251100  0.40604200  1
  C  C144  1  0.86050800  0.64309400  0.91240600  1
  C  C145  1  0.04961900  0.13141800  0.06036200  1
  C  C146  1  0.87955200  0.83668500  0.17141800  1
  C  C147  1  0.60526100  0.15908400  0.07403000  1
  C  C148  1  0.16331500  0.37955200  0.67141800  1
  C  C149  1  0.84379500  0.89617100  0.42178500  1
  C  C150  1  0.49574100  0.84070100  0.46325800  1
  C  C151  1  0.62418900  0.32350800  0.80498900  1
