# generated using pymatgen
data_CuNi7C13
_symmetry_space_group_name_H-M   'P 1'
_cell_length_a   9.43892376
_cell_length_b   9.43892376
_cell_length_c   9.43892376
_cell_angle_alpha   60.00000000
_cell_angle_beta   60.00000000
_cell_angle_gamma   60.00000000
_symmetry_Int_Tables_number   1
_chemical_formula_structural   CuNi7C13
_chemical_formula_sum   'Cu2 Ni14 C26'
_cell_volume   594.63769628
_cell_formula_units_Z   2
loop_
 _symmetry_equiv_pos_site_id
 _symmetry_equiv_pos_as_xyz
  1  'x, y, z'
loop_
 _atom_site_type_symbol
 _atom_site_label
 _atom_site_symmetry_multiplicity
 _atom_site_fract_x
 _atom_site_fract_y
 _atom_site_fract_z
 _atom_site_occupancy
  Ni  Ni0  1  0.64863800  0.00000000  0.35136200  1
  Ni  Ni1  1  0.35136200  0.64863800  0.00000000  1
  Ni  Ni2  1  0.00000000  0.00000000  0.35136200  1
  Ni  Ni3  1  0.64863800  0.00000000  0.00000000  1
  Ni  Ni4  1  0.35136200  0.00000000  0.64863800  1
  Ni  Ni5  1  0.00000000  0.35136200  0.64863800  1
  Ni  Ni6  1  0.00000000  0.35136200  0.00000000  1
  Ni  Ni7  1  0.64863800  0.35136200  0.00000000  1
  Ni  Ni8  1  0.50000000  0.50000000  0.50000000  1
  Ni  Ni9  1  0.00000000  0.64863800  0.00000000  1
  Ni  Ni10  1  0.00000000  0.00000000  0.64863800  1
  Ni  Ni11  1  0.00000000  0.64863800  0.35136200  1
  Ni  Ni12  1  0.35136200  0.00000000  0.00000000  1
  Ni  Ni13  1  0.00000000  0.00000000  0.00000000  1
  Cu  Cu14  1  0.25000000  0.25000000  0.25000000  1
  Cu  Cu15  1  0.75000000  0.75000000  0.75000000  1
  C  C16  1  0.69650900  0.30349100  0.30349100  1
  C  C17  1  0.30349100  0.69650900  0.69650900  1
  C  C18  1  0.69650900  0.69650900  0.30349100  1
  C  C19  1  0.30349100  0.69650900  0.30349100  1
  C  C20  1  0.69650900  0.30349100  0.69650900  1
  C  C21  1  0.30349100  0.30349100  0.69650900  1
  C  C22  1  0.59628100  0.90371900  0.90371900  1
  C  C23  1  0.59628100  0.90371900  0.59628100  1
  C  C24  1  0.30004300  0.89998600  0.89998600  1
  C  C25  1  0.59628100  0.59628100  0.90371900  1
  C  C26  1  0.90371900  0.59628100  0.90371900  1
  C  C27  1  0.09628100  0.09628100  0.40371900  1
  C  C28  1  0.40371900  0.09628100  0.09628100  1
  C  C29  1  0.90371900  0.59628100  0.59628100  1
  C  C30  1  0.10001400  0.69995700  0.10001400  1
  C  C31  1  0.89998600  0.30004300  0.89998600  1
  C  C32  1  0.10001400  0.10001400  0.10001400  1
  C  C33  1  0.40371900  0.40371900  0.09628100  1
  C  C34  1  0.90371900  0.90371900  0.59628100  1
  C  C35  1  0.69995700  0.10001400  0.10001400  1
  C  C36  1  0.09628100  0.40371900  0.40371900  1
  C  C37  1  0.89998600  0.89998600  0.30004300  1
  C  C38  1  0.40371900  0.09628100  0.40371900  1
  C  C39  1  0.89998600  0.89998600  0.89998600  1
  C  C40  1  0.10001400  0.10001400  0.69995700  1
  C  C41  1  0.09628100  0.40371900  0.09628100  1
