# generated using pymatgen
data_Cu50NiC76
_symmetry_space_group_name_H-M   'P 1'
_cell_length_a   8.95415000
_cell_length_b   9.03749819
_cell_length_c   29.54245726
_cell_angle_alpha   90.05228766
_cell_angle_beta   90.07596977
_cell_angle_gamma   109.32117275
_symmetry_Int_Tables_number   1
_chemical_formula_structural   Cu50NiC76
_chemical_formula_sum   'Cu50 Ni1 C76'
_cell_volume   2256.01796370
_cell_formula_units_Z   1
loop_
 _symmetry_equiv_pos_site_id
 _symmetry_equiv_pos_as_xyz
  1  'x, y, z'
loop_
 _atom_site_type_symbol
 _atom_site_label
 _atom_site_symmetry_multiplicity
 _atom_site_fract_x
 _atom_site_fract_y
 _atom_site_fract_z
 _atom_site_occupancy
  Ni  Ni0  1  0.56910400  0.50195500  0.24929000  1
  Cu  Cu1  1  0.98048600  0.68537600  0.07926300  1
  Cu  Cu2  1  0.57595500  0.74451200  0.05020600  1
  Cu  Cu3  1  0.15709800  0.47651800  0.16089000  1
  Cu  Cu4  1  0.47469700  0.18975300  0.32756600  1
  Cu  Cu5  1  0.76055300  0.25788400  0.21688900  1
  Cu  Cu6  1  0.21530800  0.39982300  0.03751100  1
  Cu  Cu7  1  0.55511700  0.42446500  0.13327400  1
  Cu  Cu8  1  0.07525400  0.24168000  0.29968500  1
  Cu  Cu9  1  0.65203100  0.97907500  0.41042600  1
  Cu  Cu10  1  0.91268600  0.05128600  0.12577000  1
  Cu  Cu11  1  0.27120100  0.10794000  0.20253500  1
  Cu  Cu12  1  0.98263300  0.68880200  0.58235000  1
  Cu  Cu13  1  0.26551000  0.76878500  0.46707800  1
  Cu  Cu14  1  0.75561600  0.28053800  0.03870500  1
  Cu  Cu15  1  0.70772800  0.88367600  0.28949200  1
  Cu  Cu16  1  0.05686300  0.91931800  0.38117800  1
  Cu  Cu17  1  0.35024300  0.02131100  0.07452900  1
  Cu  Cu18  1  0.58324100  0.74623700  0.54990600  1
  Cu  Cu19  1  0.91956900  0.72456300  0.20639500  1
  Cu  Cu20  1  0.41245800  0.55344100  0.37319300  1
  Cu  Cu21  1  0.15280900  0.47108700  0.66332400  1
  Cu  Cu22  1  0.75798000  0.59693700  0.45009700  1
  Cu  Cu23  1  0.47861100  0.17867600  0.82347500  1
  Cu  Cu24  1  0.74374300  0.25759200  0.71889300  1
  Cu  Cu25  1  0.50797700  0.84174100  0.17501000  1
  Cu  Cu26  1  0.25918000  0.77746800  0.28917400  1
  Cu  Cu27  1  0.22322500  0.40246700  0.54069800  1
  Cu  Cu28  1  0.56152900  0.43623100  0.63579400  1
  Cu  Cu29  1  0.84897700  0.51687800  0.32696600  1
  Cu  Cu30  1  0.07025000  0.24564800  0.79984900  1
  Cu  Cu31  1  0.41518600  0.21205400  0.46000200  1
  Cu  Cu32  1  0.90861700  0.05835000  0.62881400  1
  Cu  Cu33  1  0.65759400  0.98662100  0.90987200  1
  Cu  Cu34  1  0.96771100  0.00146300  0.50162300  1
  Cu  Cu35  1  0.27345900  0.10237500  0.70253300  1
  Cu  Cu36  1  0.27593000  0.76609600  0.96384600  1
  Cu  Cu37  1  0.01438000  0.34784200  0.42572700  1
  Cu  Cu38  1  0.75302300  0.28348500  0.54065300  1
  Cu  Cu39  1  0.71140500  0.88005000  0.79086900  1
  Cu  Cu40  1  0.35718400  0.01953900  0.57906300  1
  Cu  Cu41  1  0.06099500  0.91472600  0.87889800  1
  Cu  Cu42  1  0.90523200  0.72218000  0.70646300  1
  Cu  Cu43  1  0.42547800  0.55222100  0.86751700  1
  Cu  Cu44  1  0.75609000  0.60141800  0.95038300  1
  Cu  Cu45  1  0.51168800  0.82690800  0.67643800  1
  Cu  Cu46  1  0.25190600  0.76962400  0.78697900  1
  Cu  Cu47  1  0.82948900  0.51929800  0.82381600  1
  Cu  Cu48  1  0.41427300  0.21475900  0.95773800  1
  Cu  Cu49  1  0.01580600  0.36315700  0.92097200  1
  Cu  Cu50  1  0.96712000  0.00036100  0.99833800  1
  C  C51  1  0.81532600  0.81531100  0.09265300  1
  C  C52  1  0.94058800  0.57460900  0.15368000  1
  C  C53  1  0.30735300  0.67521100  0.02880600  1
  C  C54  1  0.44903400  0.57014600  0.09833000  1
  C  C55  1  0.07227800  0.42574100  0.09312900  1
  C  C56  1  0.00041700  0.26855000  0.18954600  1
  C  C57  1  0.43943600  0.07377000  0.40396600  1
  C  C58  1  0.80702600  0.17564900  0.28039600  1
  C  C59  1  0.76556800  0.51100700  0.06004700  1
  C  C60  1  0.30869100  0.31075700  0.15606200  1
  C  C61  1  0.30738200  0.31070100  0.34393800  1
  C  C62  1  0.39558600  0.99834100  0.49947500  1
  C  C63  1  0.49317800  0.27452900  0.25238900  1
  C  C64  1  0.95071000  0.06799800  0.34770100  1
  C  C65  1  0.49842500  0.25573700  0.06701400  1
  C  C66  1  0.11844000  0.11685900  0.05313500  1
  C  C67  1  0.11304100  0.10150000  0.44409700  1
  C  C68  1  0.56516600  0.92063200  0.34280500  1
  C  C69  1  0.74797800  0.98327400  0.18475500  1
  C  C70  1  0.06914200  0.94992700  0.15650800  1
  C  C71  1  0.50325000  0.76763400  0.43829200  1
  C  C72  1  0.93528400  0.57641600  0.65292600  1
  C  C73  1  0.44501400  0.06252500  0.16260700  1
  C  C74  1  0.30481800  0.67490400  0.52934700  1
  C  C75  1  0.26271900  0.00742600  0.30848000  1
  C  C76  1  0.81558600  0.81576200  0.40702700  1
  C  C77  1  0.81837400  0.82198700  0.58852500  1
  C  C78  1  0.31893600  0.31448800  0.83897100  1
  C  C79  1  0.01150500  0.78440400  0.50146200  1
  C  C80  1  0.44986500  0.56973400  0.59635300  1
  C  C81  1  0.55752600  0.93406700  0.08899500  1
  C  C82  1  0.99853500  0.75118900  0.31697600  1
  C  C83  1  0.61066700  0.62161700  0.30498200  1
  C  C84  1  0.63489800  0.64190600  0.68145800  1
  C  C85  1  0.17815400  0.79023700  0.22258100  1
  C  C86  1  0.07420800  0.42781800  0.59396600  1
  C  C87  1  0.25228700  0.48805000  0.43390000  1
  C  C88  1  0.49695700  0.87610200  0.25021100  1
  C  C89  1  0.57488800  0.45584000  0.40236200  1
  C  C90  1  0.99719800  0.25878300  0.68758200  1
  C  C91  1  0.43567200  0.06494000  0.90542300  1
  C  C92  1  0.80268800  0.17682400  0.78156300  1
  C  C93  1  0.93963900  0.55774000  0.41071000  1
  C  C94  1  0.76928400  0.51667900  0.55870400  1
  C  C95  1  0.86153400  0.49928000  0.24976600  1
  C  C96  1  0.31685800  0.32342200  0.65871500  1
  C  C97  1  0.49615900  0.21777400  0.74922100  1
  C  C98  1  0.05963800  0.43742400  0.33599000  1
  C  C99  1  0.95258300  0.06484700  0.84716300  1
  C  C100  1  0.50079800  0.25297500  0.56476900  1
  C  C101  1  0.12621400  0.12174900  0.55300900  1
  C  C102  1  0.60426900  0.60848900  0.19165900  1
  C  C103  1  0.12239900  0.09820800  0.94426900  1
  C  C104  1  0.68047800  0.30215400  0.47287800  1
  C  C105  1  0.56504400  0.92173700  0.84323700  1
  C  C106  1  0.74393100  0.98662800  0.68658400  1
  C  C107  1  0.00359600  0.36776500  0.50013500  1
  C  C108  1  0.05941800  0.94409800  0.65510500  1
  C  C109  1  0.51666100  0.77922400  0.94280700  1
  C  C110  1  0.43553700  0.05901000  0.65698900  1
  C  C111  1  0.25924300  0.99873600  0.80964500  1
  C  C112  1  0.82225500  0.82525600  0.91074100  1
  C  C113  1  0.00520300  0.78069600  0.00408500  1
  C  C114  1  0.56546000  0.93737100  0.58764400  1
  C  C115  1  0.99292800  0.74972600  0.81639800  1
  C  C116  1  0.63521800  0.63482800  0.81856000  1
  C  C117  1  0.17963400  0.79881400  0.72131400  1
  C  C118  1  0.25023100  0.50297100  0.93517100  1
  C  C119  1  0.49551800  0.85214100  0.75126200  1
  C  C120  1  0.57280700  0.45244000  0.90434700  1
  C  C121  1  0.94034900  0.56874500  0.91125100  1
  C  C122  1  0.86810800  0.49952600  0.74955200  1
  C  C123  1  0.05354600  0.42877000  0.84135200  1
  C  C124  1  0.67979900  0.30042300  0.97245300  1
  C  C125  1  0.99676900  0.36933100  0.00072700  1
  C  C126  1  0.39578300  0.00393300  0.00141700  1
