# generated using pymatgen
data_Cu2NiC7
_symmetry_space_group_name_H-M   'P 1'
_cell_length_a   6.01683200
_cell_length_b   5.63976900
_cell_length_c   9.81770555
_cell_angle_alpha   55.57477901
_cell_angle_beta   90.00000000
_cell_angle_gamma   90.00000000
_symmetry_Int_Tables_number   1
_chemical_formula_structural   Cu2NiC7
_chemical_formula_sum   'Cu4 Ni2 C14'
_cell_volume   274.80329537
_cell_formula_units_Z   2
loop_
 _symmetry_equiv_pos_site_id
 _symmetry_equiv_pos_as_xyz
  1  'x, y, z'
loop_
 _atom_site_type_symbol
 _atom_site_label
 _atom_site_symmetry_multiplicity
 _atom_site_fract_x
 _atom_site_fract_y
 _atom_site_fract_z
 _atom_site_occupancy
  Ni  Ni0  1  0.00000000  0.00000000  0.00000000  1
  Ni  Ni1  1  0.50000000  0.00000000  0.50000000  1
  Cu  Cu2  1  0.43239200  0.77148300  0.24659200  1
  Cu  Cu3  1  0.93239200  0.22851700  0.25340800  1
  Cu  Cu4  1  0.56760800  0.22851700  0.75340800  1
  Cu  Cu5  1  0.06760800  0.77148300  0.74659200  1
  C  C6  1  0.50000000  0.50000000  0.00000000  1
  C  C7  1  0.00000000  0.50000000  0.50000000  1
  C  C8  1  0.72165500  0.73331300  0.43259300  1
  C  C9  1  0.22165500  0.26668700  0.06740700  1
  C  C10  1  0.27834500  0.26668700  0.56740700  1
  C  C11  1  0.77834500  0.73331300  0.93259300  1
  C  C12  1  0.04898900  0.61441300  0.27038300  1
  C  C13  1  0.54898900  0.38558700  0.22961700  1
  C  C14  1  0.95101100  0.38558700  0.72961700  1
  C  C15  1  0.45101100  0.61441300  0.77038300  1
  C  C16  1  0.32659200  0.83976900  0.94914000  1
  C  C17  1  0.82659200  0.16023100  0.55086000  1
  C  C18  1  0.67340800  0.16023100  0.05086000  1
  C  C19  1  0.17340800  0.83976900  0.44914000  1
