# generated using pymatgen
data_CuNi5C6
_symmetry_space_group_name_H-M   'P 1'
_cell_length_a   6.16518400
_cell_length_b   11.46920200
_cell_length_c   11.84184800
_cell_angle_alpha   90.00000000
_cell_angle_beta   90.00000000
_cell_angle_gamma   90.00000000
_symmetry_Int_Tables_number   1
_chemical_formula_structural   CuNi5C6
_chemical_formula_sum   'Cu4 Ni20 C24'
_cell_volume   837.33400105
_cell_formula_units_Z   4
loop_
 _symmetry_equiv_pos_site_id
 _symmetry_equiv_pos_as_xyz
  1  'x, y, z'
loop_
 _atom_site_type_symbol
 _atom_site_label
 _atom_site_symmetry_multiplicity
 _atom_site_fract_x
 _atom_site_fract_y
 _atom_site_fract_z
 _atom_site_occupancy
  C  C0  1  0.55059900  0.75000000  0.38040700  1
  C  C1  1  0.94940100  0.75000000  0.88040700  1
  C  C2  1  0.05059900  0.25000000  0.11959300  1
  C  C3  1  0.44940100  0.25000000  0.61959300  1
  Ni  Ni4  1  0.56475700  0.13392800  0.71607300  1
  Ni  Ni5  1  0.43524300  0.63392800  0.28392700  1
  Ni  Ni6  1  0.18663300  0.36834600  0.03430600  1
  Ni  Ni7  1  0.06475700  0.86607200  0.78392700  1
  Ni  Ni8  1  0.31336800  0.36834600  0.53430600  1
  Ni  Ni9  1  0.43524300  0.86607200  0.28392700  1
  Ni  Ni10  1  0.06475700  0.63392800  0.78392700  1
  Ni  Ni11  1  0.31336800  0.13165400  0.53430600  1
  Ni  Ni12  1  0.18663300  0.13165400  0.03430600  1
  Ni  Ni13  1  0.81336800  0.86834600  0.96569400  1
  Ni  Ni14  1  0.93524300  0.36607200  0.21607300  1
  Ni  Ni15  1  0.19036400  0.75000000  0.97225000  1
  Ni  Ni16  1  0.56475700  0.36607200  0.71607300  1
  Ni  Ni17  1  0.93524300  0.13392800  0.21607300  1
  Ni  Ni18  1  0.81336800  0.63165400  0.96569400  1
  Ni  Ni19  1  0.30963600  0.75000000  0.47225000  1
  Ni  Ni20  1  0.68663200  0.63165400  0.46569400  1
  Ni  Ni21  1  0.80963600  0.25000000  0.02775000  1
  Ni  Ni22  1  0.69036400  0.25000000  0.52775000  1
  Ni  Ni23  1  0.68663200  0.86834600  0.46569400  1
  Cu  Cu24  1  0.61499600  0.75000000  0.75254100  1
  Cu  Cu25  1  0.11499600  0.25000000  0.74745900  1
  Cu  Cu26  1  0.88500400  0.75000000  0.25254100  1
  Cu  Cu27  1  0.38500400  0.25000000  0.24745900  1
  C  C28  1  0.86669000  0.43674100  0.27495800  1
  C  C29  1  0.34015800  0.75000000  0.03098000  1
  C  C30  1  0.65984200  0.25000000  0.96902000  1
  C  C31  1  0.73475100  0.94339600  0.01563300  1
  C  C32  1  0.84015800  0.25000000  0.46902000  1
  C  C33  1  0.76524900  0.94339600  0.51563300  1
  C  C34  1  0.26524900  0.44339600  0.98436700  1
  C  C35  1  0.13331000  0.93674100  0.72504200  1
  C  C36  1  0.86669000  0.06325900  0.27495800  1
  C  C37  1  0.15984200  0.75000000  0.53098000  1
  C  C38  1  0.13331000  0.56325900  0.72504200  1
  C  C39  1  0.26524900  0.05660400  0.98436700  1
  C  C40  1  0.63331000  0.06325900  0.77495800  1
  C  C41  1  0.63331000  0.43674100  0.77495800  1
  C  C42  1  0.36669000  0.56325900  0.22504200  1
  C  C43  1  0.23475100  0.05660400  0.48436700  1
  C  C44  1  0.73475100  0.55660400  0.01563300  1
  C  C45  1  0.23475100  0.44339600  0.48436700  1
  C  C46  1  0.36669000  0.93674100  0.22504200  1
  C  C47  1  0.76524900  0.55660400  0.51563300  1
