# generated using pymatgen
data_Cu4Ni2C3
_symmetry_space_group_name_H-M   'P 1'
_cell_length_a   7.46227487
_cell_length_b   7.46227487
_cell_length_c   7.46227487
_cell_angle_alpha   111.55468507
_cell_angle_beta   111.55468507
_cell_angle_gamma   105.38013470
_symmetry_Int_Tables_number   1
_chemical_formula_structural   Cu4Ni2C3
_chemical_formula_sum   'Cu4 Ni2 C3'
_cell_volume   318.67172247
_cell_formula_units_Z   1
loop_
 _symmetry_equiv_pos_site_id
 _symmetry_equiv_pos_as_xyz
  1  'x, y, z'
loop_
 _atom_site_type_symbol
 _atom_site_label
 _atom_site_symmetry_multiplicity
 _atom_site_fract_x
 _atom_site_fract_y
 _atom_site_fract_z
 _atom_site_occupancy
  C  C0  1  0.75000000  0.25000000  0.50000000  1
  C  C1  1  0.25000000  0.75000000  0.50000000  1
  C  C2  1  0.00000000  0.00000000  0.00000000  1
  Ni  Ni3  1  0.65776000  0.65776000  0.00000000  1
  Ni  Ni4  1  0.34224000  0.34224000  0.00000000  1
  Cu  Cu5  1  0.19668800  0.80331200  0.00000000  1
  Cu  Cu6  1  0.19668800  0.19668800  0.39337600  1
  Cu  Cu7  1  0.80331200  0.19668800  0.00000000  1
  Cu  Cu8  1  0.80331200  0.80331200  0.60662400  1
