# generated using pymatgen
data_Cu11NiC7
_symmetry_space_group_name_H-M   'P 1'
_cell_length_a   6.78584900
_cell_length_b   10.57860200
_cell_length_c   14.30533923
_cell_angle_alpha   78.58111600
_cell_angle_beta   90.00000000
_cell_angle_gamma   90.00000000
_symmetry_Int_Tables_number   1
_chemical_formula_structural   Cu11NiC7
_chemical_formula_sum   'Cu44 Ni4 C28'
_cell_volume   1006.57925623
_cell_formula_units_Z   4
loop_
 _symmetry_equiv_pos_site_id
 _symmetry_equiv_pos_as_xyz
  1  'x, y, z'
loop_
 _atom_site_type_symbol
 _atom_site_label
 _atom_site_symmetry_multiplicity
 _atom_site_fract_x
 _atom_site_fract_y
 _atom_site_fract_z
 _atom_site_occupancy
  C  C0  1  0.49192300  0.54644900  0.16887300  1
  C  C1  1  0.49096200  0.13290700  0.17378100  1
  C  C2  1  0.00903800  0.63290700  0.17378100  1
  C  C3  1  0.50903800  0.86709300  0.82621900  1
  C  C4  1  0.50807700  0.45355100  0.83112700  1
  C  C5  1  0.00807700  0.04644900  0.16887300  1
  C  C6  1  0.99096200  0.36709300  0.82621900  1
  C  C7  1  0.99192300  0.95355100  0.83112700  1
  C  C8  1  0.44260800  0.25988800  0.45647300  1
  C  C9  1  0.94260800  0.24011200  0.54352700  1
  C  C10  1  0.55739200  0.74011200  0.54352700  1
  C  C11  1  0.05739200  0.75988800  0.45647300  1
  C  C12  1  0.25696600  0.46829600  0.61124200  1
  C  C13  1  0.75696600  0.03170400  0.38875800  1
  C  C14  1  0.74303400  0.53170400  0.38875800  1
  C  C15  1  0.24303400  0.96829600  0.61124200  1
  C  C16  1  0.83678000  0.35873800  0.07293800  1
  C  C17  1  0.33678000  0.14126200  0.92706200  1
  C  C18  1  0.16322000  0.64126200  0.92706200  1
  C  C19  1  0.66322000  0.85873800  0.07293800  1
  C  C20  1  0.74972300  0.47338600  0.60403700  1
  C  C21  1  0.24972300  0.02661400  0.39596300  1
  C  C22  1  0.25027700  0.52661400  0.39596300  1
  C  C23  1  0.75027700  0.97338600  0.60403700  1
  C  C24  1  0.27593700  0.36615500  0.05734800  1
  C  C25  1  0.77593700  0.13384500  0.94265200  1
  C  C26  1  0.72406300  0.63384500  0.94265200  1
  C  C27  1  0.22406300  0.86615500  0.05734800  1
  Ni  Ni28  1  0.69977300  0.81167100  0.27900300  1
  Ni  Ni29  1  0.80022700  0.31167100  0.27900300  1
  Ni  Ni30  1  0.30022700  0.18832900  0.72099700  1
  Ni  Ni31  1  0.19977300  0.68832900  0.72099700  1
  Cu  Cu32  1  0.43232100  0.10656400  0.33484100  1
  Cu  Cu33  1  0.31182600  0.07153000  0.77253400  1
  Cu  Cu34  1  0.18817400  0.57153000  0.77253400  1
  Cu  Cu35  1  0.68817400  0.92847000  0.22746600  1
  Cu  Cu36  1  0.79994500  0.21384200  0.23573700  1
  Cu  Cu37  1  0.29994500  0.28615800  0.76426300  1
  Cu  Cu38  1  0.20005500  0.78615800  0.76426300  1
  Cu  Cu39  1  0.70005500  0.71384200  0.23573700  1
  Cu  Cu40  1  0.16758100  0.39777400  0.47032100  1
  Cu  Cu41  1  0.66758100  0.10222600  0.52967900  1
  Cu  Cu42  1  0.83241900  0.60222600  0.52967900  1
  Cu  Cu43  1  0.33241900  0.89777400  0.47032100  1
  Cu  Cu44  1  0.42535300  0.47999500  0.33023700  1
  Cu  Cu45  1  0.92535300  0.02000500  0.66976300  1
  Cu  Cu46  1  0.16628000  0.23478400  0.11253000  1
  Cu  Cu47  1  0.07464700  0.97999500  0.33023700  1
  Cu  Cu48  1  0.06767900  0.60656400  0.33484100  1
  Cu  Cu49  1  0.56767900  0.89343600  0.66515900  1
  Cu  Cu50  1  0.93232100  0.39343600  0.66515900  1
  Cu  Cu51  1  0.81182600  0.42847000  0.22746600  1
  Cu  Cu52  1  0.34178200  0.61730700  0.46723700  1
  Cu  Cu53  1  0.84178200  0.88269300  0.53276300  1
  Cu  Cu54  1  0.65821800  0.38269300  0.53276300  1
  Cu  Cu55  1  0.15821800  0.11730700  0.46723700  1
  Cu  Cu56  1  0.78346800  0.29399500  0.36977100  1
  Cu  Cu57  1  0.71653200  0.79399500  0.36977100  1
  Cu  Cu58  1  0.21653200  0.70600500  0.63022900  1
  Cu  Cu59  1  0.28346800  0.20600500  0.63022900  1
  Cu  Cu60  1  0.24042600  0.87159100  0.94137600  1
  Cu  Cu61  1  0.74042600  0.62840900  0.05862400  1
  Cu  Cu62  1  0.75957400  0.12840900  0.05862400  1
  Cu  Cu63  1  0.25957400  0.37159100  0.94137600  1
  Cu  Cu64  1  0.99700700  0.86049900  0.09787300  1
  Cu  Cu65  1  0.49700700  0.63950100  0.90212700  1
  Cu  Cu66  1  0.00299300  0.13950100  0.90212700  1
  Cu  Cu67  1  0.50299300  0.36049900  0.09787300  1
  Cu  Cu68  1  0.33545800  0.99527100  0.08147100  1
  Cu  Cu69  1  0.83545800  0.50472900  0.91852900  1
  Cu  Cu70  1  0.66454200  0.00472900  0.91852900  1
  Cu  Cu71  1  0.16454200  0.49527100  0.08147100  1
  Cu  Cu72  1  0.33372000  0.73478400  0.11253000  1
  Cu  Cu73  1  0.83372000  0.76521600  0.88747000  1
  Cu  Cu74  1  0.66628000  0.26521600  0.88747000  1
  Cu  Cu75  1  0.57464700  0.52000500  0.66976300  1
