# generated using pymatgen
data_Cu3NiC3
_symmetry_space_group_name_H-M   'P 1'
_cell_length_a   5.66176300
_cell_length_b   5.71009600
_cell_length_c   8.06830300
_cell_angle_alpha   90.00000000
_cell_angle_beta   90.00000000
_cell_angle_gamma   90.00000000
_symmetry_Int_Tables_number   1
_chemical_formula_structural   Cu3NiC3
_chemical_formula_sum   'Cu12 Ni4 C12'
_cell_volume   260.84186412
_cell_formula_units_Z   4
loop_
 _symmetry_equiv_pos_site_id
 _symmetry_equiv_pos_as_xyz
  1  'x, y, z'
loop_
 _atom_site_type_symbol
 _atom_site_label
 _atom_site_symmetry_multiplicity
 _atom_site_fract_x
 _atom_site_fract_y
 _atom_site_fract_z
 _atom_site_occupancy
  C  C0  1  0.25000000  0.50787100  0.11725100  1
  C  C1  1  0.75000000  0.99212900  0.61725100  1
  C  C2  1  0.25000000  0.24938100  0.74240400  1
  C  C3  1  0.75000000  0.49212900  0.88274900  1
  C  C4  1  0.50000000  0.50000000  0.50000000  1
  C  C5  1  0.25000000  0.74938100  0.75759600  1
  C  C6  1  0.75000000  0.75061900  0.25759600  1
  C  C7  1  0.50000000  0.00000000  0.00000000  1
  C  C8  1  0.00000000  0.00000000  0.00000000  1
  C  C9  1  0.25000000  0.00787100  0.38274900  1
  C  C10  1  0.75000000  0.25061900  0.24240400  1
  C  C11  1  0.00000000  0.50000000  0.50000000  1
  Ni  Ni12  1  0.25000000  0.27383200  0.50832700  1
  Ni  Ni13  1  0.25000000  0.77383200  0.99167300  1
  Ni  Ni14  1  0.75000000  0.22616800  0.00832700  1
  Ni  Ni15  1  0.75000000  0.72616800  0.49167300  1
  Cu  Cu16  1  0.48682500  0.50164800  0.74654800  1
  Cu  Cu17  1  0.25000000  0.74098500  0.51263300  1
  Cu  Cu18  1  0.75000000  0.75901500  0.01263300  1
  Cu  Cu19  1  0.48682500  0.00164800  0.75345200  1
  Cu  Cu20  1  0.51317500  0.99835200  0.24654800  1
  Cu  Cu21  1  0.98682500  0.99835200  0.24654800  1
  Cu  Cu22  1  0.25000000  0.24098500  0.98736700  1
  Cu  Cu23  1  0.75000000  0.25901500  0.48736700  1
  Cu  Cu24  1  0.98682500  0.49835200  0.25345200  1
  Cu  Cu25  1  0.51317500  0.49835200  0.25345200  1
  Cu  Cu26  1  0.01317500  0.50164800  0.74654800  1
  Cu  Cu27  1  0.01317500  0.00164800  0.75345200  1
