# generated using pymatgen
data_Cu16Ni16C5
_symmetry_space_group_name_H-M   'P 1'
_cell_length_a   12.25946900
_cell_length_b   12.34484800
_cell_length_c   17.28741100
_cell_angle_alpha   90.00000000
_cell_angle_beta   90.00000000
_cell_angle_gamma   90.00000000
_symmetry_Int_Tables_number   1
_chemical_formula_structural   Cu16Ni16C5
_chemical_formula_sum   'Cu64 Ni64 C20'
_cell_volume   2616.29893224
_cell_formula_units_Z   4
loop_
 _symmetry_equiv_pos_site_id
 _symmetry_equiv_pos_as_xyz
  1  'x, y, z'
loop_
 _atom_site_type_symbol
 _atom_site_label
 _atom_site_symmetry_multiplicity
 _atom_site_fract_x
 _atom_site_fract_y
 _atom_site_fract_z
 _atom_site_occupancy
  C  C0  1  0.23273400  0.93302400  0.01019100  1
  C  C1  1  0.93712100  0.26818900  0.17745800  1
  C  C2  1  0.73273400  0.43302400  0.98980900  1
  C  C3  1  0.43712100  0.76818900  0.82254200  1
  C  C4  1  0.93712100  0.23181100  0.67745800  1
  C  C5  1  0.76726600  0.06697600  0.98980900  1
  C  C6  1  0.56287900  0.26818900  0.67745800  1
  C  C7  1  0.26726600  0.93302400  0.51019100  1
  C  C8  1  0.26726600  0.56697600  0.01019100  1
  C  C9  1  0.06287900  0.76818900  0.32254200  1
  C  C10  1  0.43712100  0.73181100  0.32254200  1
  C  C11  1  0.56287900  0.23181100  0.17745800  1
  C  C12  1  0.73273400  0.06697600  0.48980900  1
  C  C13  1  0.76726600  0.43302400  0.48980900  1
  C  C14  1  0.23273400  0.56697600  0.51019100  1
  C  C15  1  0.06287900  0.73181100  0.82254200  1
  C  C16  1  0.75000000  0.25000000  0.58450900  1
  C  C17  1  0.75000000  0.25000000  0.08450900  1
  C  C18  1  0.25000000  0.75000000  0.91549100  1
  C  C19  1  0.25000000  0.75000000  0.41549100  1
  Ni  Ni20  1  0.27761200  0.49533900  0.42652300  1
  Ni  Ni21  1  0.28242900  0.04870200  0.56827800  1
  Ni  Ni22  1  0.83342600  0.37033400  0.93084600  1
  Ni  Ni23  1  0.64652600  0.35255900  0.73586400  1
  Ni  Ni24  1  0.44620900  0.27781100  0.73681800  1
  Ni  Ni25  1  0.40486000  0.60968500  0.01930200  1
  Ni  Ni26  1  0.77761200  0.50466100  0.07347700  1
  Ni  Ni27  1  0.93213000  0.37555800  0.68093800  1
  Ni  Ni28  1  0.14652600  0.85255900  0.26413600  1
  Ni  Ni29  1  0.72238800  0.99533900  0.07347700  1
  Ni  Ni30  1  0.56787000  0.37555800  0.18093800  1
  Ni  Ni31  1  0.66657400  0.37033400  0.43084600  1
  Ni  Ni32  1  0.22238800  0.49533900  0.92652300  1
  Ni  Ni33  1  0.56787000  0.12444200  0.68093800  1
  Ni  Ni34  1  0.64652600  0.14744100  0.23586400  1
  Ni  Ni35  1  0.78242900  0.95129800  0.93172200  1
  Ni  Ni36  1  0.05379100  0.22218900  0.73681800  1
  Ni  Ni37  1  0.33342600  0.87033400  0.06915400  1
  Ni  Ni38  1  0.33342600  0.62966600  0.56915400  1
  Ni  Ni39  1  0.85347400  0.14744100  0.73586400  1
  Ni  Ni40  1  0.06787000  0.62444200  0.31906200  1
  Ni  Ni41  1  0.59514000  0.10968500  0.48069800  1
  Ni  Ni42  1  0.40486000  0.89031500  0.51930200  1
  Ni  Ni43  1  0.99542000  0.32935800  0.09447200  1
  Ni  Ni44  1  0.99542000  0.17064200  0.59447200  1
  Ni  Ni45  1  0.00458000  0.67064300  0.90552800  1
  Ni  Ni46  1  0.43213000  0.87555800  0.31906200  1
  Ni  Ni47  1  0.93213000  0.12444200  0.18093800  1
  Ni  Ni48  1  0.50458000  0.32935800  0.59447200  1
  Ni  Ni49  1  0.14652600  0.64744100  0.76413600  1
  Ni  Ni50  1  0.00458000  0.82935700  0.40552800  1
  Ni  Ni51  1  0.16657400  0.62966600  0.06915400  1
  Ni  Ni52  1  0.22238800  0.00466100  0.42652300  1
  Ni  Ni53  1  0.16657400  0.87033400  0.56915400  1
  Ni  Ni54  1  0.05379100  0.27781100  0.23681800  1
  Ni  Ni55  1  0.28242900  0.45129800  0.06827800  1
  Ni  Ni56  1  0.94620900  0.72218900  0.76318200  1
  Ni  Ni57  1  0.43213000  0.62444200  0.81906200  1
  Ni  Ni58  1  0.85347400  0.35255900  0.23586400  1
  Ni  Ni59  1  0.50458000  0.17064200  0.09447200  1
  Ni  Ni60  1  0.21757100  0.45129800  0.56827800  1
  Ni  Ni61  1  0.71757100  0.54870200  0.93172200  1
  Ni  Ni62  1  0.90486000  0.39031500  0.48069800  1
  Ni  Ni63  1  0.78242900  0.54870200  0.43172200  1
  Ni  Ni64  1  0.35347400  0.64744100  0.26413600  1
  Ni  Ni65  1  0.55379100  0.77781100  0.76318200  1
  Ni  Ni66  1  0.27761200  0.00466100  0.92652300  1
  Ni  Ni67  1  0.49542000  0.82935700  0.90552800  1
  Ni  Ni68  1  0.71757100  0.95129800  0.43172200  1
  Ni  Ni69  1  0.90486000  0.10968500  0.98069800  1
  Ni  Ni70  1  0.94620900  0.77781100  0.26318200  1
  Ni  Ni71  1  0.72238800  0.50466100  0.57347700  1
  Ni  Ni72  1  0.09514000  0.89031500  0.01930200  1
  Ni  Ni73  1  0.09514000  0.60968500  0.51930200  1
  Ni  Ni74  1  0.06787000  0.87555800  0.81906200  1
  Ni  Ni75  1  0.55379100  0.72218900  0.26318200  1
  Ni  Ni76  1  0.44620900  0.22218900  0.23681800  1
  Ni  Ni77  1  0.77761200  0.99533900  0.57347700  1
  Ni  Ni78  1  0.66657400  0.12966600  0.93084600  1
  Ni  Ni79  1  0.83342600  0.12966600  0.43084600  1
  Ni  Ni80  1  0.21757100  0.04870200  0.06827800  1
  Ni  Ni81  1  0.49542000  0.67064300  0.40552800  1
  Ni  Ni82  1  0.35347400  0.85255900  0.76413600  1
  Ni  Ni83  1  0.59514000  0.39031500  0.98069800  1
  Cu  Cu84  1  0.86990900  0.78453700  0.22445100  1
  Cu  Cu85  1  0.13009100  0.28453700  0.27554900  1
  Cu  Cu86  1  0.63009100  0.71546300  0.22445100  1
  Cu  Cu87  1  0.30540000  0.58967500  0.22357600  1
  Cu  Cu88  1  0.19404200  0.05784400  0.37508300  1
  Cu  Cu89  1  0.05993900  0.96911800  0.81517300  1
  Cu  Cu90  1  0.94006100  0.03088200  0.18482700  1
  Cu  Cu91  1  0.19404200  0.44215600  0.87508300  1
  Cu  Cu92  1  0.20655000  0.12483000  0.10645300  1
  Cu  Cu93  1  0.55993900  0.03088200  0.68482700  1
  Cu  Cu94  1  0.39901000  0.83803800  0.11165900  1
  Cu  Cu95  1  0.10099000  0.66196200  0.11165900  1
  Cu  Cu96  1  0.36990900  0.28453700  0.77554900  1
  Cu  Cu97  1  0.89901000  0.33803800  0.88834100  1
  Cu  Cu98  1  0.46060900  0.12790300  0.04345000  1
  Cu  Cu99  1  0.20655000  0.37517000  0.60645300  1
  Cu  Cu100  1  0.53939100  0.87209700  0.95655000  1
  Cu  Cu101  1  0.46060900  0.37209700  0.54345000  1
  Cu  Cu102  1  0.69404200  0.94215600  0.12491700  1
  Cu  Cu103  1  0.80595800  0.55784400  0.12491700  1
  Cu  Cu104  1  0.49579200  0.86860400  0.52998300  1
  Cu  Cu105  1  0.79345000  0.62483000  0.39354700  1
  Cu  Cu106  1  0.89901000  0.16196200  0.38834100  1
  Cu  Cu107  1  0.29345000  0.37517000  0.10645300  1
  Cu  Cu108  1  0.79345000  0.87517000  0.89354700  1
  Cu  Cu109  1  0.69404200  0.55784400  0.62491700  1
  Cu  Cu110  1  0.94006100  0.46911800  0.68482700  1
  Cu  Cu111  1  0.50420800  0.36860400  0.97001700  1
  Cu  Cu112  1  0.00420800  0.63139600  0.52998300  1
  Cu  Cu113  1  0.49579200  0.63139600  0.02998300  1
  Cu  Cu114  1  0.80540000  0.41032500  0.27642400  1
  Cu  Cu115  1  0.05993900  0.53088200  0.31517300  1
  Cu  Cu116  1  0.55993900  0.46911800  0.18482700  1
  Cu  Cu117  1  0.00420800  0.86860400  0.02998300  1
  Cu  Cu118  1  0.80595800  0.94215600  0.62491700  1
  Cu  Cu119  1  0.30595800  0.44215600  0.37508300  1
  Cu  Cu120  1  0.44006100  0.53088200  0.81517300  1
  Cu  Cu121  1  0.10099000  0.83803800  0.61165900  1
  Cu  Cu122  1  0.70655000  0.87517000  0.39354700  1
  Cu  Cu123  1  0.44006100  0.96911800  0.31517300  1
  Cu  Cu124  1  0.29345000  0.12483000  0.60645300  1
  Cu  Cu125  1  0.60099000  0.33803800  0.38834100  1
  Cu  Cu126  1  0.13009100  0.21546300  0.77554900  1
  Cu  Cu127  1  0.63009100  0.78453700  0.72445100  1
  Cu  Cu128  1  0.86990900  0.71546300  0.72445100  1
  Cu  Cu129  1  0.03939100  0.12790300  0.54345000  1
  Cu  Cu130  1  0.19460000  0.58967500  0.72357600  1
  Cu  Cu131  1  0.69460000  0.41032500  0.77642400  1
  Cu  Cu132  1  0.03939100  0.37209700  0.04345000  1
  Cu  Cu133  1  0.80540000  0.08967500  0.77642400  1
  Cu  Cu134  1  0.70655000  0.62483000  0.89354700  1
  Cu  Cu135  1  0.99579200  0.36860400  0.47001700  1
  Cu  Cu136  1  0.60099000  0.16196200  0.88834100  1
  Cu  Cu137  1  0.96060900  0.62790300  0.95655000  1
  Cu  Cu138  1  0.96060900  0.87209700  0.45655000  1
  Cu  Cu139  1  0.19460000  0.91032500  0.22357600  1
  Cu  Cu140  1  0.99579200  0.13139600  0.97001700  1
  Cu  Cu141  1  0.39901000  0.66196200  0.61165900  1
  Cu  Cu142  1  0.30595800  0.05784400  0.87508300  1
  Cu  Cu143  1  0.36990900  0.21546300  0.27554900  1
  Cu  Cu144  1  0.30540000  0.91032500  0.72357600  1
  Cu  Cu145  1  0.69460000  0.08967500  0.27642400  1
  Cu  Cu146  1  0.50420800  0.13139600  0.47001700  1
  Cu  Cu147  1  0.53939100  0.62790300  0.45655000  1
