# generated using pymatgen
data_Cu2NiC8
_symmetry_space_group_name_H-M   'P 1'
_cell_length_a   6.00331600
_cell_length_b   7.43643800
_cell_length_c   9.33398000
_cell_angle_alpha   90.00000000
_cell_angle_beta   90.00000000
_cell_angle_gamma   90.00000000
_symmetry_Int_Tables_number   1
_chemical_formula_structural   Cu2NiC8
_chemical_formula_sum   'Cu4 Ni2 C16'
_cell_volume   416.69955012
_cell_formula_units_Z   2
loop_
 _symmetry_equiv_pos_site_id
 _symmetry_equiv_pos_as_xyz
  1  'x, y, z'
loop_
 _atom_site_type_symbol
 _atom_site_label
 _atom_site_symmetry_multiplicity
 _atom_site_fract_x
 _atom_site_fract_y
 _atom_site_fract_z
 _atom_site_occupancy
  Ni  Ni0  1  0.00000000  0.73789600  0.00069700  1
  Ni  Ni1  1  0.50000000  0.26210400  0.50069700  1
  Cu  Cu2  1  0.00000000  0.57635900  0.40032500  1
  Cu  Cu3  1  0.00000000  0.04530100  0.67743800  1
  Cu  Cu4  1  0.50000000  0.95469900  0.17743800  1
  Cu  Cu5  1  0.50000000  0.42364100  0.90032500  1
  C  C6  1  0.00000000  0.84642800  0.79552600  1
  C  C7  1  0.00000000  0.22157600  0.79677200  1
  C  C8  1  0.25585600  0.55492200  0.94868700  1
  C  C9  1  0.50000000  0.22171200  0.99372000  1
  C  C10  1  0.75585600  0.44507800  0.44868700  1
  C  C11  1  0.00000000  0.77828800  0.49372000  1
  C  C12  1  0.24414400  0.44507800  0.44868700  1
  C  C13  1  0.25487700  0.08261500  0.57429500  1
  C  C14  1  0.24512300  0.91738500  0.07429500  1
  C  C15  1  0.74512300  0.08261500  0.57429500  1
  C  C16  1  0.50000000  0.77842400  0.29677200  1
  C  C17  1  0.50000000  0.15357200  0.29552600  1
  C  C18  1  0.50000000  0.38008900  0.70995600  1
  C  C19  1  0.00000000  0.61991100  0.20995600  1
  C  C20  1  0.75487700  0.91738500  0.07429500  1
  C  C21  1  0.74414400  0.55492200  0.94868700  1
