# generated using pymatgen
data_CuNi4C
_symmetry_space_group_name_H-M   'P 1'
_cell_length_a   4.47214300
_cell_length_b   8.06966600
_cell_length_c   8.74549700
_cell_angle_alpha   90.00000000
_cell_angle_beta   90.00000000
_cell_angle_gamma   90.00000000
_symmetry_Int_Tables_number   1
_chemical_formula_structural   CuNi4C
_chemical_formula_sum   'Cu2 Ni8 C2'
_cell_volume   315.61362033
_cell_formula_units_Z   2
loop_
 _symmetry_equiv_pos_site_id
 _symmetry_equiv_pos_as_xyz
  1  'x, y, z'
loop_
 _atom_site_type_symbol
 _atom_site_label
 _atom_site_symmetry_multiplicity
 _atom_site_fract_x
 _atom_site_fract_y
 _atom_site_fract_z
 _atom_site_occupancy
  C  C0  1  0.00000000  0.60776700  0.25000000  1
  C  C1  1  0.00000000  0.39223300  0.75000000  1
  Ni  Ni2  1  0.50000000  0.94490900  0.25000000  1
  Ni  Ni3  1  0.50000000  0.05509100  0.75000000  1
  Ni  Ni4  1  0.50000000  0.70040700  0.56833700  1
  Ni  Ni5  1  0.50000000  0.29959300  0.43166300  1
  Ni  Ni6  1  0.00000000  0.00000000  0.00000000  1
  Ni  Ni7  1  0.50000000  0.70040700  0.93166300  1
  Ni  Ni8  1  0.50000000  0.29959300  0.06833700  1
  Ni  Ni9  1  0.00000000  0.00000000  0.50000000  1
  Cu  Cu10  1  0.00000000  0.81585800  0.75000000  1
  Cu  Cu11  1  0.00000000  0.18414200  0.25000000  1
