# generated using pymatgen
data_Cu10Ni3C20
_symmetry_space_group_name_H-M   'P 1'
_cell_length_a   8.73550537
_cell_length_b   8.73550537
_cell_length_c   10.02650980
_cell_angle_alpha   55.03895401
_cell_angle_beta   55.03895401
_cell_angle_gamma   69.95607879
_symmetry_Int_Tables_number   1
_chemical_formula_structural   Cu10Ni3C20
_chemical_formula_sum   'Cu10 Ni3 C20'
_cell_volume   513.76959682
_cell_formula_units_Z   1
loop_
 _symmetry_equiv_pos_site_id
 _symmetry_equiv_pos_as_xyz
  1  'x, y, z'
loop_
 _atom_site_type_symbol
 _atom_site_label
 _atom_site_symmetry_multiplicity
 _atom_site_fract_x
 _atom_site_fract_y
 _atom_site_fract_z
 _atom_site_occupancy
  Ni  Ni0  1  0.00041600  0.99958400  0.00000000  1
  Ni  Ni1  1  0.76394800  0.80909600  0.88487100  1
  Ni  Ni2  1  0.19090400  0.23605200  0.11512900  1
  Cu  Cu3  1  0.14113100  0.48901700  0.71115900  1
  Cu  Cu4  1  0.70606000  0.33065100  0.15853300  1
  Cu  Cu5  1  0.51098300  0.85886900  0.28884100  1
  Cu  Cu6  1  0.17831700  0.15553000  0.50125100  1
  Cu  Cu7  1  0.30310200  0.66330300  0.19171600  1
  Cu  Cu8  1  0.66934900  0.29394000  0.84146700  1
  Cu  Cu9  1  0.84447000  0.82168300  0.49874900  1
  Cu  Cu10  1  0.48826500  0.14030400  0.68064200  1
  Cu  Cu11  1  0.33669700  0.69689800  0.80828400  1
  Cu  Cu12  1  0.85969600  0.51173500  0.31935800  1
  C  C13  1  0.35434500  0.36947200  0.38185200  1
  C  C14  1  0.24332300  0.74696000  0.63456100  1
  C  C15  1  0.38795800  0.00110700  0.61204800  1
  C  C16  1  0.00860600  0.37378500  0.01595600  1
  C  C17  1  0.63504400  0.61334700  0.13761600  1
  C  C18  1  0.25304000  0.75667700  0.36543900  1
  C  C19  1  0.77742100  0.00923700  0.20743400  1
  C  C20  1  0.87866600  0.63244100  0.75710200  1
  C  C21  1  0.36755900  0.12133400  0.24289800  1
  C  C22  1  0.62621500  0.99139400  0.98404400  1
  C  C23  1  0.99076300  0.22257900  0.79256600  1
  C  C24  1  0.62290400  0.87816000  0.75993200  1
  C  C25  1  0.12184000  0.37709600  0.24006800  1
  C  C26  1  0.21379700  0.99353800  0.00398400  1
  C  C27  1  0.76755000  0.26490500  0.61085300  1
  C  C28  1  0.38665300  0.36495600  0.86238400  1
  C  C29  1  0.73509500  0.23245000  0.38914700  1
  C  C30  1  0.63052800  0.64565500  0.61814800  1
  C  C31  1  0.00646200  0.78620300  0.99601600  1
  C  C32  1  0.99889300  0.61204200  0.38795200  1
