# generated using pymatgen
data_Cu9NiC32
_symmetry_space_group_name_H-M   'P 1'
_cell_length_a   7.28456500
_cell_length_b   9.76521010
_cell_length_c   16.95031251
_cell_angle_alpha   89.97833460
_cell_angle_beta   89.98928470
_cell_angle_gamma   89.99160384
_symmetry_Int_Tables_number   1
_chemical_formula_structural   Cu9NiC32
_chemical_formula_sum   'Cu18 Ni2 C64'
_cell_volume   1205.76557645
_cell_formula_units_Z   2
loop_
 _symmetry_equiv_pos_site_id
 _symmetry_equiv_pos_as_xyz
  1  'x, y, z'
loop_
 _atom_site_type_symbol
 _atom_site_label
 _atom_site_symmetry_multiplicity
 _atom_site_fract_x
 _atom_site_fract_y
 _atom_site_fract_z
 _atom_site_occupancy
  Ni  Ni0  1  0.99881600  0.50017300  0.83293900  1
  Ni  Ni1  1  0.49900700  0.49970700  0.16688300  1
  Cu  Cu2  1  0.75091800  0.76145700  0.99509500  1
  Cu  Cu3  1  0.75159300  0.61604300  0.61880400  1
  Cu  Cu4  1  0.49861300  0.49973200  0.83280400  1
  Cu  Cu5  1  0.24922400  0.37525700  0.61705000  1
  Cu  Cu6  1  0.74917000  0.26106200  0.49579300  1
  Cu  Cu7  1  0.75076700  0.12771600  0.88394400  1
  Cu  Cu8  1  0.74855700  0.11153800  0.12110800  1
  Cu  Cu9  1  0.50117400  0.99825200  0.66395100  1
  Cu  Cu10  1  0.99861500  0.99778500  0.66382500  1
  Cu  Cu11  1  0.50398300  0.99747700  0.33357500  1
  Cu  Cu12  1  0.99593500  0.99705500  0.33374900  1
  Cu  Cu13  1  0.24839600  0.88912800  0.87872900  1
  Cu  Cu14  1  0.25069000  0.87253400  0.11570100  1
  Cu  Cu15  1  0.24933700  0.73684900  0.50726900  1
  Cu  Cu16  1  0.74934900  0.62811200  0.38369700  1
  Cu  Cu17  1  0.99840800  0.50013600  0.16669600  1
  Cu  Cu18  1  0.25157000  0.38971300  0.37825600  1
  Cu  Cu19  1  0.25082800  0.23850800  0.00510600  1
  C  C20  1  0.74962300  0.88652600  0.51362000  1
  C  C21  1  0.25116300  0.67052500  0.70068700  1
  C  C22  1  0.24930800  0.61539400  0.98552600  1
  C  C23  1  0.74814700  0.28586500  0.68531500  1
  C  C24  1  0.25079600  0.21369500  0.81437900  1
  C  C25  1  0.24790900  0.16982200  0.20014900  1
  C  C26  1  0.24981400  0.11478300  0.48446700  1
  C  C27  1  0.74781400  0.83054300  0.80071700  1
  C  C28  1  0.75064400  0.78562800  0.18462600  1
  C  C29  1  0.24835000  0.71448000  0.31491600  1
  C  C30  1  0.74915500  0.38471200  0.01445500  1
  C  C31  1  0.75107400  0.32983100  0.30009000  1
  C  C32  1  0.43178500  0.70175100  0.95503800  1
  C  C33  1  0.07121200  0.70674400  0.95583400  1
  C  C34  1  0.74258100  0.67826700  0.84055300  1
  C  C35  1  0.25492200  0.67569500  0.79760500  1
  C  C36  1  0.43222300  0.58066800  0.67309500  1
  C  C37  1  0.07254300  0.58249000  0.66948000  1
  C  C38  1  0.25458800  0.46709000  0.93933900  1
  C  C39  1  0.74274000  0.42129500  0.74175200  1
  C  C40  1  0.74384000  0.40028700  0.91822400  1
  C  C41  1  0.25453600  0.35766800  0.76416400  1
  C  C42  1  0.93157600  0.28468900  0.62774600  1
  C  C43  1  0.56670900  0.28222400  0.62662100  1
  C  C44  1  0.43231000  0.21686600  0.87299200  1
  C  C45  1  0.07210100  0.21030900  0.87416100  1
  C  C46  1  0.43176500  0.20019000  0.45430500  1
  C  C47  1  0.06834800  0.20095200  0.45442700  1
  C  C48  1  0.75099400  0.17568500  0.33967700  1
  C  C49  1  0.24961700  0.17329000  0.29765200  1
  C  C50  1  0.75004200  0.14038800  0.73540300  1
  C  C51  1  0.24952900  0.09670900  0.58089300  1
  C  C52  1  0.43057200  0.08153300  0.17245500  1
  C  C53  1  0.06807000  0.07827700  0.17264500  1
  C  C54  1  0.25053300  0.07803600  0.75676200  1
  C  C55  1  0.75014200  0.04124200  0.56731600  1
  C  C56  1  0.75190300  0.99977100  0.99914200  1
  C  C57  1  0.25195900  0.00014100  0.00076600  1
  C  C58  1  0.25005800  0.96705900  0.43738500  1
  C  C59  1  0.75057800  0.92455700  0.23957900  1
  C  C60  1  0.93079600  0.91841400  0.82806300  1
  C  C61  1  0.56758400  0.92176000  0.82777700  1
  C  C62  1  0.74922300  0.89953000  0.41032700  1
  C  C63  1  0.25017100  0.85958000  0.26445200  1
  C  C64  1  0.74962600  0.82813600  0.70331900  1
  C  C65  1  0.25090800  0.82516200  0.66212300  1
  C  C66  1  0.94256200  0.79589800  0.54971600  1
  C  C67  1  0.55743200  0.79499000  0.54965900  1
  C  C68  1  0.93273700  0.78175400  0.12650000  1
  C  C69  1  0.57134300  0.78822500  0.12536400  1
  C  C70  1  0.43083500  0.71731600  0.37245200  1
  C  C71  1  0.06784900  0.71991500  0.37360100  1
  C  C72  1  0.75441100  0.64327400  0.23614600  1
  C  C73  1  0.24393500  0.59959700  0.08173700  1
  C  C74  1  0.24320000  0.57836200  0.25901700  1
  C  C75  1  0.75452100  0.53281200  0.06070100  1
  C  C76  1  0.75093000  0.49923200  0.49998200  1
  C  C77  1  0.25094400  0.49762700  0.49917400  1
  C  C78  1  0.93307800  0.41877500  0.32766100  1
  C  C79  1  0.57115700  0.41700100  0.33102400  1
  C  C80  1  0.75489600  0.32487500  0.20316300  1
  C  C81  1  0.24256900  0.32181200  0.15991000  1
  C  C82  1  0.93174400  0.29844900  0.04494600  1
  C  C83  1  0.57103300  0.29358900  0.04425000  1
