# generated using pymatgen
data_CuNi2C9
_symmetry_space_group_name_H-M   'P 1'
_cell_length_a   7.51713700
_cell_length_b   7.51713700
_cell_length_c   4.86829400
_cell_angle_alpha   90.00000000
_cell_angle_beta   90.00000000
_cell_angle_gamma   90.00000000
_symmetry_Int_Tables_number   1
_chemical_formula_structural   CuNi2C9
_chemical_formula_sum   'Cu2 Ni4 C18'
_cell_volume   275.09438652
_cell_formula_units_Z   2
loop_
 _symmetry_equiv_pos_site_id
 _symmetry_equiv_pos_as_xyz
  1  'x, y, z'
loop_
 _atom_site_type_symbol
 _atom_site_label
 _atom_site_symmetry_multiplicity
 _atom_site_fract_x
 _atom_site_fract_y
 _atom_site_fract_z
 _atom_site_occupancy
  C  C0  1  0.34088100  0.15911900  0.99549000  1
  C  C1  1  0.65911900  0.84088100  0.99549000  1
  C  C2  1  0.84088100  0.34088100  0.00451000  1
  C  C3  1  0.15911900  0.65911900  0.00451000  1
  Ni  Ni4  1  0.86487400  0.63512600  0.54652000  1
  Ni  Ni5  1  0.36487400  0.86487400  0.45348000  1
  Ni  Ni6  1  0.13512600  0.36487400  0.54652000  1
  Ni  Ni7  1  0.63512600  0.13512600  0.45348000  1
  Cu  Cu8  1  0.50000000  0.50000000  0.50000000  1
  Cu  Cu9  1  0.00000000  0.00000000  0.50000000  1
  C  C10  1  0.14149800  0.35850200  0.21984300  1
  C  C11  1  0.17185800  0.91976000  0.28802800  1
  C  C12  1  0.91976000  0.82814200  0.71197200  1
  C  C13  1  0.35850200  0.85850200  0.78015700  1
  C  C14  1  0.32814200  0.41976000  0.71197200  1
  C  C15  1  0.82814200  0.08024000  0.28802800  1
  C  C16  1  0.00000000  0.50000000  0.68208900  1
  C  C17  1  0.85850200  0.64149800  0.21984300  1
  C  C18  1  0.50000000  0.00000000  0.31791100  1
  C  C19  1  0.64149800  0.14149800  0.78015700  1
  C  C20  1  0.41976000  0.67185800  0.28802800  1
  C  C21  1  0.67185800  0.58024000  0.71197200  1
  C  C22  1  0.58024000  0.32814200  0.28802800  1
  C  C23  1  0.08024000  0.17185800  0.71197200  1
