# generated using pymatgen
data_Cu(NiC3)2
_symmetry_space_group_name_H-M   'P 1'
_cell_length_a   9.96881600
_cell_length_b   9.06010300
_cell_length_c   11.87941204
_cell_angle_alpha   87.78973171
_cell_angle_beta   90.00000000
_cell_angle_gamma   90.00000000
_symmetry_Int_Tables_number   1
_chemical_formula_structural   Cu(NiC3)2
_chemical_formula_sum   'Cu4 Ni8 C24'
_cell_volume   1072.13243483
_cell_formula_units_Z   4
loop_
 _symmetry_equiv_pos_site_id
 _symmetry_equiv_pos_as_xyz
  1  'x, y, z'
loop_
 _atom_site_type_symbol
 _atom_site_label
 _atom_site_symmetry_multiplicity
 _atom_site_fract_x
 _atom_site_fract_y
 _atom_site_fract_z
 _atom_site_occupancy
  Ni  Ni0  1  0.19997900  0.54354900  0.93811500  1
  Ni  Ni1  1  0.94159900  0.87324500  0.80066700  1
  Ni  Ni2  1  0.55840100  0.37324500  0.80066700  1
  Ni  Ni3  1  0.80002100  0.45645100  0.06188500  1
  Ni  Ni4  1  0.30002100  0.04354900  0.93811500  1
  Ni  Ni5  1  0.69997900  0.95645100  0.06188500  1
  Ni  Ni6  1  0.44159900  0.62675500  0.19933300  1
  Ni  Ni7  1  0.05840100  0.12675500  0.19933300  1
  Cu  Cu8  1  0.22861100  0.60439900  0.51684000  1
  Cu  Cu9  1  0.27138900  0.10439900  0.51684000  1
  Cu  Cu10  1  0.72861100  0.89560100  0.48316000  1
  Cu  Cu11  1  0.77138900  0.39560100  0.48316000  1
  C  C12  1  0.47820800  0.79095300  0.74657200  1
  C  C13  1  0.52179200  0.20904700  0.25342800  1
  C  C14  1  0.02179200  0.29095300  0.74657200  1
  C  C15  1  0.97820800  0.70904700  0.25342800  1
  C  C16  1  0.24064500  0.35150700  0.71153300  1
  C  C17  1  0.62372700  0.99242700  0.75455700  1
  C  C18  1  0.96357900  0.14370000  0.59907700  1
  C  C19  1  0.37627300  0.00757300  0.24544300  1
  C  C20  1  0.46357900  0.35630000  0.40092300  1
  C  C21  1  0.48664200  0.30878600  0.07699600  1
  C  C22  1  0.25935500  0.85150700  0.71153300  1
  C  C23  1  0.43570000  0.83909700  0.41479500  1
  C  C24  1  0.03642100  0.85630000  0.40092300  1
  C  C25  1  0.01335800  0.80878600  0.07699600  1
  C  C26  1  0.51335800  0.69121400  0.92300400  1
  C  C27  1  0.75935500  0.64849300  0.28846700  1
  C  C28  1  0.12372700  0.50757300  0.24544300  1
  C  C29  1  0.93570000  0.66090300  0.58520500  1
  C  C30  1  0.74064500  0.14849300  0.28846700  1
  C  C31  1  0.56430000  0.16090300  0.58520500  1
  C  C32  1  0.98664200  0.19121400  0.92300400  1
  C  C33  1  0.06430000  0.33909700  0.41479500  1
  C  C34  1  0.53642100  0.64370000  0.59907700  1
  C  C35  1  0.87627300  0.49242700  0.75455700  1
