# generated using pymatgen
data_Cu8Ni2C3
_symmetry_space_group_name_H-M   'P 1'
_cell_length_a   10.64124700
_cell_length_b   5.09789400
_cell_length_c   9.68367873
_cell_angle_alpha   62.57693131
_cell_angle_beta   90.00000000
_cell_angle_gamma   90.00000000
_symmetry_Int_Tables_number   1
_chemical_formula_structural   Cu8Ni2C3
_chemical_formula_sum   'Cu16 Ni4 C6'
_cell_volume   466.28954959
_cell_formula_units_Z   2
loop_
 _symmetry_equiv_pos_site_id
 _symmetry_equiv_pos_as_xyz
  1  'x, y, z'
loop_
 _atom_site_type_symbol
 _atom_site_label
 _atom_site_symmetry_multiplicity
 _atom_site_fract_x
 _atom_site_fract_y
 _atom_site_fract_z
 _atom_site_occupancy
  C  C0  1  0.50000000  0.00000000  0.50000000  1
  C  C1  1  0.00000000  0.00000000  0.00000000  1
  C  C2  1  0.18356800  0.49115600  0.67767500  1
  C  C3  1  0.31643200  0.49115600  0.17767500  1
  C  C4  1  0.81643200  0.50884400  0.32232500  1
  C  C5  1  0.68356800  0.50884400  0.82232500  1
  Ni  Ni6  1  0.39866300  0.30801900  0.72846300  1
  Ni  Ni7  1  0.10133700  0.30801900  0.22846300  1
  Ni  Ni8  1  0.60133700  0.69198100  0.27153700  1
  Ni  Ni9  1  0.89866300  0.69198100  0.77153700  1
  Cu  Cu10  1  0.69072100  0.72259200  0.75233000  1
  Cu  Cu11  1  0.80927900  0.72259200  0.25233000  1
  Cu  Cu12  1  0.30927900  0.27740800  0.24767000  1
  Cu  Cu13  1  0.19072100  0.27740800  0.74767000  1
  Cu  Cu14  1  0.39196200  0.60030900  0.59012400  1
  Cu  Cu15  1  0.10803800  0.60030900  0.09012400  1
  Cu  Cu16  1  0.60803800  0.39969100  0.40987600  1
  Cu  Cu17  1  0.89196200  0.39969100  0.90987600  1
  Cu  Cu18  1  0.65028400  0.74070700  0.60552900  1
  Cu  Cu19  1  0.84971600  0.74070700  0.10552900  1
  Cu  Cu20  1  0.34971600  0.25929300  0.39447100  1
  Cu  Cu21  1  0.15028400  0.25929300  0.89447100  1
  Cu  Cu22  1  0.43685300  0.06765200  0.69322600  1
  Cu  Cu23  1  0.06314700  0.06765200  0.19322600  1
  Cu  Cu24  1  0.56314700  0.93234800  0.30677400  1
  Cu  Cu25  1  0.93685300  0.93234800  0.80677400  1
