# generated using pymatgen
data_Cu3NiC
_symmetry_space_group_name_H-M   'P 1'
_cell_length_a   5.60223500
_cell_length_b   6.40508500
_cell_length_c   9.26819600
_cell_angle_alpha   90.00000000
_cell_angle_beta   90.00000000
_cell_angle_gamma   90.00000000
_symmetry_Int_Tables_number   1
_chemical_formula_structural   Cu3NiC
_chemical_formula_sum   'Cu12 Ni4 C4'
_cell_volume   332.56874340
_cell_formula_units_Z   4
loop_
 _symmetry_equiv_pos_site_id
 _symmetry_equiv_pos_as_xyz
  1  'x, y, z'
loop_
 _atom_site_type_symbol
 _atom_site_label
 _atom_site_symmetry_multiplicity
 _atom_site_fract_x
 _atom_site_fract_y
 _atom_site_fract_z
 _atom_site_occupancy
  C  C0  1  0.25000000  0.13596600  0.38995400  1
  C  C1  1  0.75000000  0.36403400  0.88995400  1
  C  C2  1  0.25000000  0.63596600  0.11004600  1
  C  C3  1  0.75000000  0.86403400  0.61004600  1
  Ni  Ni4  1  0.75000000  0.88537100  0.13414700  1
  Ni  Ni5  1  0.25000000  0.61462900  0.63414700  1
  Ni  Ni6  1  0.25000000  0.11462900  0.86585300  1
  Ni  Ni7  1  0.75000000  0.38537100  0.36585300  1
  Cu  Cu8  1  0.25000000  0.77409600  0.55169600  1
  Cu  Cu9  1  0.55371400  0.46398500  0.32576200  1
  Cu  Cu10  1  0.44628600  0.53601500  0.67423800  1
  Cu  Cu11  1  0.94628600  0.46398500  0.32576200  1
  Cu  Cu12  1  0.44628600  0.03601500  0.82576200  1
  Cu  Cu13  1  0.05371400  0.03601500  0.82576200  1
  Cu  Cu14  1  0.05371400  0.53601500  0.67423800  1
  Cu  Cu15  1  0.55371400  0.96398500  0.17423800  1
  Cu  Cu16  1  0.25000000  0.27409600  0.94830400  1
  Cu  Cu17  1  0.75000000  0.22590400  0.44830400  1
  Cu  Cu18  1  0.75000000  0.72590400  0.05169600  1
  Cu  Cu19  1  0.94628600  0.96398500  0.17423800  1
