# generated using pymatgen
data_Cu4NiC5
_symmetry_space_group_name_H-M   'P 1'
_cell_length_a   12.17771100
_cell_length_b   14.26765800
_cell_length_c   14.61930200
_cell_angle_alpha   90.00000000
_cell_angle_beta   90.00000000
_cell_angle_gamma   90.00000000
_symmetry_Int_Tables_number   1
_chemical_formula_structural   Cu4NiC5
_chemical_formula_sum   'Cu64 Ni16 C80'
_cell_volume   2540.06594287
_cell_formula_units_Z   16
loop_
 _symmetry_equiv_pos_site_id
 _symmetry_equiv_pos_as_xyz
  1  'x, y, z'
loop_
 _atom_site_type_symbol
 _atom_site_label
 _atom_site_symmetry_multiplicity
 _atom_site_fract_x
 _atom_site_fract_y
 _atom_site_fract_z
 _atom_site_occupancy
  C  C0  1  0.00425600  0.34024200  0.55293400  1
  C  C1  1  0.12811100  0.89130200  0.22040300  1
  C  C2  1  0.62811100  0.10869800  0.27959700  1
  C  C3  1  0.87188900  0.60869800  0.72040300  1
  C  C4  1  0.49574400  0.34024200  0.05293400  1
  C  C5  1  0.00425600  0.84024200  0.94706600  1
  C  C6  1  0.62811100  0.60869800  0.22040300  1
  C  C7  1  0.12811100  0.39130200  0.27959700  1
  C  C8  1  0.50425600  0.15975800  0.55293400  1
  C  C9  1  0.49574400  0.84024200  0.44706600  1
  C  C10  1  0.50425600  0.65975800  0.94706600  1
  C  C11  1  0.37188900  0.89130200  0.72040300  1
  C  C12  1  0.99574400  0.65975800  0.44706600  1
  C  C13  1  0.37188900  0.39130200  0.77959700  1
  C  C14  1  0.99574400  0.15975800  0.05293400  1
  C  C15  1  0.87188900  0.10869800  0.77959700  1
  C  C16  1  0.29882500  0.63836000  0.32684200  1
  C  C17  1  0.79882500  0.36164000  0.17315800  1
  C  C18  1  0.35053200  0.05167400  0.34054400  1
  C  C19  1  0.85053200  0.44832600  0.34054400  1
  C  C20  1  0.68158300  0.62523000  0.52987100  1
  C  C21  1  0.31841700  0.37477000  0.47012900  1
  C  C22  1  0.31841700  0.87477000  0.02987100  1
  C  C23  1  0.02522400  0.33347000  0.83522400  1
  C  C24  1  0.79882500  0.86164000  0.32684200  1
  C  C25  1  0.18158300  0.87477000  0.52987100  1
  C  C26  1  0.64946800  0.44832600  0.84054400  1
  C  C27  1  0.20117500  0.13836000  0.67315800  1
  C  C28  1  0.97477600  0.16653000  0.33522400  1
  C  C29  1  0.18158300  0.37477000  0.97012900  1
  C  C30  1  0.14946800  0.55167400  0.65945600  1
  C  C31  1  0.85053200  0.94832600  0.15945600  1
  C  C32  1  0.47477600  0.83347000  0.16477600  1
  C  C33  1  0.14946800  0.05167400  0.84054400  1
  C  C34  1  0.64946800  0.94832600  0.65945600  1
  C  C35  1  0.70117500  0.86164000  0.82684200  1
  C  C36  1  0.20117500  0.63836000  0.82684200  1
  C  C37  1  0.81841700  0.62523000  0.02987100  1
  C  C38  1  0.29882500  0.13836000  0.17315800  1
  C  C39  1  0.52522400  0.66653000  0.66477600  1
  C  C40  1  0.68158300  0.12523000  0.97012900  1
  C  C41  1  0.02522400  0.83347000  0.66477600  1
  C  C42  1  0.47477600  0.33347000  0.33522400  1
  C  C43  1  0.35053200  0.55167400  0.15945600  1
  C  C44  1  0.97477600  0.66653000  0.16477600  1
  C  C45  1  0.52522400  0.16653000  0.83522400  1
  C  C46  1  0.70117500  0.36164000  0.67315800  1
  C  C47  1  0.81841700  0.12523000  0.47012900  1
  Ni  Ni48  1  0.61602700  0.89427500  0.75008000  1
  Ni  Ni49  1  0.64552700  0.63922900  0.63346900  1
  Ni  Ni50  1  0.85447300  0.13922900  0.36653100  1
  Ni  Ni51  1  0.61602700  0.39427500  0.74992000  1
  Ni  Ni52  1  0.11602700  0.10572500  0.74992000  1
  Ni  Ni53  1  0.38397300  0.60572500  0.25008000  1
  Ni  Ni54  1  0.88397300  0.89427500  0.25008000  1
  Ni  Ni55  1  0.88397300  0.39427500  0.24992000  1
  Ni  Ni56  1  0.38397300  0.10572500  0.24992000  1
  Ni  Ni57  1  0.64552700  0.13922900  0.86653100  1
  Ni  Ni58  1  0.14552700  0.86077100  0.63346900  1
  Ni  Ni59  1  0.14552700  0.36077100  0.86653100  1
  Ni  Ni60  1  0.35447300  0.86077100  0.13346900  1
  Ni  Ni61  1  0.85447300  0.63922900  0.13346900  1
  Ni  Ni62  1  0.11602700  0.60572500  0.75008000  1
  Ni  Ni63  1  0.35447300  0.36077100  0.36653100  1
  Cu  Cu64  1  0.72762300  0.02299700  0.66793900  1
  Cu  Cu65  1  0.54949000  0.96670400  0.60910400  1
  Cu  Cu66  1  0.29907800  0.88640700  0.52981200  1
  Cu  Cu67  1  0.02275500  0.32709100  0.73746900  1
  Cu  Cu68  1  0.86735100  0.18595200  0.53711400  1
  Cu  Cu69  1  0.79161100  0.42422200  0.65547400  1
  Cu  Cu70  1  0.27237700  0.97700300  0.33206100  1
  Cu  Cu71  1  0.29907800  0.38640700  0.97018800  1
  Cu  Cu72  1  0.63264900  0.68595200  0.46288600  1
  Cu  Cu73  1  0.29161100  0.57577800  0.84452600  1
  Cu  Cu74  1  0.79907800  0.61359300  0.52981200  1
  Cu  Cu75  1  0.20092200  0.88640700  0.02981200  1
  Cu  Cu76  1  0.45051000  0.53329600  0.10910400  1
  Cu  Cu77  1  0.52275500  0.67290900  0.76253100  1
  Cu  Cu78  1  0.79161100  0.92422200  0.84452600  1
  Cu  Cu79  1  0.52792600  0.26019800  0.38662600  1
  Cu  Cu80  1  0.79907800  0.11359300  0.97018800  1
  Cu  Cu81  1  0.14157100  0.67819500  0.90127900  1
  Cu  Cu82  1  0.35842900  0.17819500  0.09872100  1
  Cu  Cu83  1  0.13264900  0.81404800  0.46288600  1
  Cu  Cu84  1  0.64157100  0.32180500  0.59872100  1
  Cu  Cu85  1  0.02275500  0.82709100  0.76253100  1
  Cu  Cu86  1  0.22762300  0.97700300  0.83206100  1
  Cu  Cu87  1  0.54949000  0.46670400  0.89089600  1
  Cu  Cu88  1  0.04949000  0.03329600  0.89089600  1
  Cu  Cu89  1  0.77237700  0.02299700  0.16793900  1
  Cu  Cu90  1  0.27237700  0.47700300  0.16793900  1
  Cu  Cu91  1  0.70838900  0.92422200  0.34452600  1
  Cu  Cu92  1  0.35842900  0.67819500  0.40127900  1
  Cu  Cu93  1  0.47724500  0.82709100  0.26253100  1
  Cu  Cu94  1  0.70838900  0.42422200  0.15547400  1
  Cu  Cu95  1  0.95051000  0.96670400  0.10910400  1
  Cu  Cu96  1  0.14157100  0.17819500  0.59872100  1
  Cu  Cu97  1  0.36735100  0.81404800  0.96288600  1
  Cu  Cu98  1  0.97207400  0.76019800  0.61337400  1
  Cu  Cu99  1  0.97724500  0.67290900  0.26253100  1
  Cu  Cu100  1  0.64157100  0.82180500  0.90127900  1
  Cu  Cu101  1  0.97724500  0.17290900  0.23746900  1
  Cu  Cu102  1  0.77237700  0.52299700  0.33206100  1
  Cu  Cu103  1  0.02792600  0.23980200  0.38662600  1
  Cu  Cu104  1  0.85842900  0.32180500  0.09872100  1
  Cu  Cu105  1  0.02792600  0.73980200  0.11337400  1
  Cu  Cu106  1  0.52275500  0.17290900  0.73746900  1
  Cu  Cu107  1  0.85842900  0.82180500  0.40127900  1
  Cu  Cu108  1  0.47724500  0.32709100  0.23746900  1
  Cu  Cu109  1  0.86735100  0.68595200  0.96288600  1
  Cu  Cu110  1  0.45051000  0.03329600  0.39089600  1
  Cu  Cu111  1  0.36735100  0.31404800  0.53711400  1
  Cu  Cu112  1  0.97207400  0.26019800  0.88662600  1
  Cu  Cu113  1  0.20092200  0.38640700  0.47018800  1
  Cu  Cu114  1  0.63264900  0.18595200  0.03711400  1
  Cu  Cu115  1  0.47207400  0.23980200  0.88662600  1
  Cu  Cu116  1  0.72762300  0.52299700  0.83206100  1
  Cu  Cu117  1  0.47207400  0.73980200  0.61337400  1
  Cu  Cu118  1  0.70092200  0.11359300  0.47018800  1
  Cu  Cu119  1  0.70092200  0.61359300  0.02981200  1
  Cu  Cu120  1  0.20838900  0.57577800  0.34452600  1
  Cu  Cu121  1  0.22762300  0.47700300  0.66793900  1
  Cu  Cu122  1  0.04949000  0.53329600  0.60910400  1
  Cu  Cu123  1  0.95051000  0.46670400  0.39089600  1
  Cu  Cu124  1  0.13264900  0.31404800  0.03711400  1
  Cu  Cu125  1  0.20838900  0.07577800  0.15547400  1
  Cu  Cu126  1  0.52792600  0.76019800  0.11337400  1
  Cu  Cu127  1  0.29161100  0.07577800  0.65547400  1
  C  C128  1  0.73895400  0.27203100  0.22248700  1
  C  C129  1  0.76104600  0.27203100  0.72248700  1
  C  C130  1  0.36634500  0.47664300  0.49372900  1
  C  C131  1  0.45436100  0.07346600  0.85799400  1
  C  C132  1  0.86634500  0.52335700  0.00627100  1
  C  C133  1  0.04563900  0.57346600  0.14200600  1
  C  C134  1  0.95436100  0.42653400  0.85799400  1
  C  C135  1  0.95436100  0.92653400  0.64200600  1
  C  C136  1  0.36634500  0.97664300  0.00627100  1
  C  C137  1  0.63365500  0.52335700  0.50627100  1
  C  C138  1  0.23895400  0.22796900  0.22248700  1
  C  C139  1  0.28915600  0.13036800  0.40137200  1
  C  C140  1  0.26104600  0.22796900  0.72248700  1
  C  C141  1  0.76104600  0.77203100  0.77751300  1
  C  C142  1  0.54563900  0.92653400  0.14200600  1
  C  C143  1  0.45436100  0.57346600  0.64200600  1
  C  C144  1  0.73895400  0.77203100  0.27751300  1
  C  C145  1  0.78915600  0.36963200  0.40137200  1
  C  C146  1  0.71084400  0.86963200  0.59862800  1
  C  C147  1  0.21084400  0.63036800  0.59862800  1
  C  C148  1  0.86634500  0.02335700  0.49372900  1
  C  C149  1  0.23895400  0.72796900  0.27751300  1
  C  C150  1  0.71084400  0.36963200  0.90137200  1
  C  C151  1  0.04563900  0.07346600  0.35799400  1
  C  C152  1  0.28915600  0.63036800  0.09862800  1
  C  C153  1  0.26104600  0.72796900  0.77751300  1
  C  C154  1  0.13365500  0.47664300  0.99372900  1
  C  C155  1  0.21084400  0.13036800  0.90137200  1
  C  C156  1  0.78915600  0.86963200  0.09862800  1
  C  C157  1  0.54563900  0.42653400  0.35799400  1
  C  C158  1  0.13365500  0.97664300  0.50627100  1
  C  C159  1  0.63365500  0.02335700  0.99372900  1
