# generated using pymatgen
data_Cu9(Ni2C9)2
_symmetry_space_group_name_H-M   'P 1'
_cell_length_a   8.71322100
_cell_length_b   8.78750754
_cell_length_c   8.85214366
_cell_angle_alpha   110.54831963
_cell_angle_beta   110.64067179
_cell_angle_gamma   106.73113390
_symmetry_Int_Tables_number   1
_chemical_formula_structural   Cu9(Ni2C9)2
_chemical_formula_sum   'Cu9 Ni4 C18'
_cell_volume   524.32240299
_cell_formula_units_Z   1
loop_
 _symmetry_equiv_pos_site_id
 _symmetry_equiv_pos_as_xyz
  1  'x, y, z'
loop_
 _atom_site_type_symbol
 _atom_site_label
 _atom_site_symmetry_multiplicity
 _atom_site_fract_x
 _atom_site_fract_y
 _atom_site_fract_z
 _atom_site_occupancy
  Ni  Ni0  1  0.28596500  0.09385100  0.81019200  1
  Ni  Ni1  1  0.91826600  0.20741100  0.72041200  1
  Ni  Ni2  1  0.18938000  0.31169600  0.51491000  1
  Ni  Ni3  1  0.69895700  0.89234600  0.19263300  1
  Cu  Cu4  1  0.49143700  0.15839500  0.31227300  1
  Cu  Cu5  1  0.00525500  0.03558700  0.03421800  1
  Cu  Cu6  1  0.70055300  0.48828900  0.81165000  1
  Cu  Cu7  1  0.75805700  0.29631100  0.11387500  1
  Cu  Cu8  1  0.20045900  0.65173000  0.82768000  1
  Cu  Cu9  1  0.40247100  0.53317300  0.18782700  1
  Cu  Cu10  1  0.88539400  0.74542000  0.53121700  1
  Cu  Cu11  1  0.13913800  0.79839000  0.29568200  1
  Cu  Cu12  1  0.49719400  0.83139900  0.68037000  1
  C  C13  1  0.59729200  0.99903400  0.00636100  1
  C  C14  1  0.71536300  0.27282800  0.61685500  1
  C  C15  1  0.54051100  0.27816800  0.88763400  1
  C  C16  1  0.91655800  0.20228000  0.94391900  1
  C  C17  1  0.63051000  0.38736000  0.29406900  1
  C  C18  1  0.11608500  0.36980900  0.71074800  1
  C  C19  1  0.99972200  0.59884500  0.98755100  1
  C  C20  1  0.36136100  0.59547500  0.68689400  1
  C  C21  1  0.86512300  0.67686300  0.24767200  1
  C  C22  1  0.34917600  0.28081600  0.41007700  1
  C  C23  1  0.27568700  0.63232900  0.34108600  1
  C  C24  1  0.42885900  0.72035400  0.07832500  1
  C  C25  1  0.65314700  0.78492700  0.39924000  1
  C  C26  1  0.23843400  0.86154900  0.60839000  1
  C  C27  1  0.95575700  0.07922200  0.28143600  1
  C  C28  1  0.25064600  0.05347900  0.01017000  1
  C  C29  1  0.78955600  0.77198800  0.78886600  1
  C  C30  1  0.02368400  0.03567600  0.66276800  1
