# generated using pymatgen
data_Cu12Ni3C4
_symmetry_space_group_name_H-M   'P 1'
_cell_length_a   10.30339900
_cell_length_b   10.30339900
_cell_length_c   10.30339900
_cell_angle_alpha   90.00000000
_cell_angle_beta   90.00000000
_cell_angle_gamma   90.00000000
_symmetry_Int_Tables_number   1
_chemical_formula_structural   Cu12Ni3C4
_chemical_formula_sum   'Cu48 Ni12 C16'
_cell_volume   1093.80915676
_cell_formula_units_Z   4
loop_
 _symmetry_equiv_pos_site_id
 _symmetry_equiv_pos_as_xyz
  1  'x, y, z'
loop_
 _atom_site_type_symbol
 _atom_site_label
 _atom_site_symmetry_multiplicity
 _atom_site_fract_x
 _atom_site_fract_y
 _atom_site_fract_z
 _atom_site_occupancy
  C  C0  1  0.68517800  0.18517800  0.31482200  1
  C  C1  1  0.31482200  0.68517800  0.18517800  1
  C  C2  1  0.94791200  0.55208800  0.44791200  1
  C  C3  1  0.18517800  0.31482200  0.68517800  1
  C  C4  1  0.05208800  0.05208800  0.05208800  1
  C  C5  1  0.44791200  0.94791200  0.55208800  1
  C  C6  1  0.55208800  0.44791200  0.94791200  1
  C  C7  1  0.81482200  0.81482200  0.81482200  1
  C  C8  1  0.33320600  0.33320600  0.33320600  1
  C  C9  1  0.16679400  0.66679400  0.83320600  1
  C  C10  1  0.83320600  0.16679400  0.66679400  1
  C  C11  1  0.66679400  0.83320600  0.16679400  1
  C  C12  1  0.59303100  0.59303100  0.59303100  1
  C  C13  1  0.09303100  0.90696900  0.40696900  1
  C  C14  1  0.40696900  0.09303100  0.90696900  1
  C  C15  1  0.90696900  0.40696900  0.09303100  1
  Ni  Ni16  1  0.27821700  0.62431400  0.51556700  1
  Ni  Ni17  1  0.77821700  0.87568600  0.48443300  1
  Ni  Ni18  1  0.72178300  0.12431400  0.98443300  1
  Ni  Ni19  1  0.87568600  0.48443300  0.77821700  1
  Ni  Ni20  1  0.98443300  0.72178300  0.12431400  1
  Ni  Ni21  1  0.48443300  0.77821700  0.87568600  1
  Ni  Ni22  1  0.62431400  0.51556700  0.27821700  1
  Ni  Ni23  1  0.51556700  0.27821700  0.62431400  1
  Ni  Ni24  1  0.12431400  0.98443300  0.72178300  1
  Ni  Ni25  1  0.22178300  0.37568600  0.01556700  1
  Ni  Ni26  1  0.01556700  0.22178300  0.37568600  1
  Ni  Ni27  1  0.37568600  0.01556700  0.22178300  1
  Cu  Cu28  1  0.24445500  0.59103900  0.65170100  1
  Cu  Cu29  1  0.74445500  0.90896100  0.34829900  1
  Cu  Cu30  1  0.75554500  0.09103900  0.84829900  1
  Cu  Cu31  1  0.90896100  0.34829900  0.74445500  1
  Cu  Cu32  1  0.84829900  0.75554500  0.09103900  1
  Cu  Cu33  1  0.34829900  0.74445500  0.90896100  1
  Cu  Cu34  1  0.59103900  0.65170100  0.24445500  1
  Cu  Cu35  1  0.65170100  0.24445500  0.59103900  1
  Cu  Cu36  1  0.09103900  0.84829900  0.75554500  1
  Cu  Cu37  1  0.40896100  0.15170100  0.25554500  1
  Cu  Cu38  1  0.15170100  0.25554500  0.40896100  1
  Cu  Cu39  1  0.25554500  0.40896100  0.15170100  1
  Cu  Cu40  1  0.26293800  0.50594800  0.43431100  1
  Cu  Cu41  1  0.76293800  0.99405200  0.56568900  1
  Cu  Cu42  1  0.73706200  0.00594800  0.06568900  1
  Cu  Cu43  1  0.99405200  0.56568900  0.76293800  1
  Cu  Cu44  1  0.06568900  0.73706200  0.00594800  1
  Cu  Cu45  1  0.56568900  0.76293800  0.99405200  1
  Cu  Cu46  1  0.99210000  0.58568900  0.17415600  1
  Cu  Cu47  1  0.50594800  0.43431100  0.26293800  1
  Cu  Cu48  1  0.00594800  0.06568900  0.73706200  1
  Cu  Cu49  1  0.49405200  0.93431100  0.23706200  1
  Cu  Cu50  1  0.93431100  0.23706200  0.49405200  1
  Cu  Cu51  1  0.23706200  0.49405200  0.93431100  1
  Cu  Cu52  1  0.41431100  0.67415700  0.50790000  1
  Cu  Cu53  1  0.91431100  0.82584300  0.49210000  1
  Cu  Cu54  1  0.58568900  0.17415600  0.99210000  1
  Cu  Cu55  1  0.82584300  0.49210000  0.91431100  1
  Cu  Cu56  1  0.31147600  0.27587900  0.96269200  1
  Cu  Cu57  1  0.96269200  0.31147600  0.27587900  1
  Cu  Cu58  1  0.27587900  0.96269200  0.31147600  1
  Cu  Cu59  1  0.22412100  0.03730800  0.81147600  1
  Cu  Cu60  1  0.46269200  0.18852400  0.72412100  1
  Cu  Cu61  1  0.72412100  0.46269200  0.18852400  1
  Cu  Cu62  1  0.53730800  0.68852400  0.77587900  1
  Cu  Cu63  1  0.03730800  0.81147600  0.22412100  1
  Cu  Cu64  1  0.77587900  0.53730800  0.68852400  1
  Cu  Cu65  1  0.81147600  0.22412100  0.03730800  1
  Cu  Cu66  1  0.68852400  0.77587900  0.53730800  1
  Cu  Cu67  1  0.18852400  0.72412100  0.46269200  1
  Cu  Cu68  1  0.08568900  0.32584400  0.00790000  1
  Cu  Cu69  1  0.00790000  0.08568900  0.32584400  1
  Cu  Cu70  1  0.32584400  0.00790000  0.08568900  1
  Cu  Cu71  1  0.17415600  0.99210000  0.58568900  1
  Cu  Cu72  1  0.50790000  0.41431100  0.67415700  1
  Cu  Cu73  1  0.67415700  0.50790000  0.41431100  1
  Cu  Cu74  1  0.49210000  0.91431100  0.82584300  1
  Cu  Cu75  1  0.43431100  0.26293800  0.50594800  1
