# generated using pymatgen
data_CuNi13C17
_symmetry_space_group_name_H-M   'P 1'
_cell_length_a   9.70661400
_cell_length_b   15.57688467
_cell_length_c   15.85994455
_cell_angle_alpha   113.26233731
_cell_angle_beta   99.37368122
_cell_angle_gamma   95.54733742
_symmetry_Int_Tables_number   1
_chemical_formula_structural   CuNi13C17
_chemical_formula_sum   'Cu4 Ni52 C68'
_cell_volume   2139.08524625
_cell_formula_units_Z   4
loop_
 _symmetry_equiv_pos_site_id
 _symmetry_equiv_pos_as_xyz
  1  'x, y, z'
loop_
 _atom_site_type_symbol
 _atom_site_label
 _atom_site_symmetry_multiplicity
 _atom_site_fract_x
 _atom_site_fract_y
 _atom_site_fract_z
 _atom_site_occupancy
  C  C0  1  0.82601400  0.87981200  0.82980300  1
  C  C1  1  0.17398600  0.12018800  0.17019700  1
  C  C2  1  0.57555300  0.17732300  0.69092800  1
  C  C3  1  0.43109300  0.31594500  0.66249900  1
  C  C4  1  0.06140100  0.80302000  0.76177000  1
  C  C5  1  0.67271300  0.27126600  0.58482500  1
  C  C6  1  0.31595600  0.21325700  0.76360000  1
  C  C7  1  0.82497100  0.34514400  0.19229700  1
  C  C8  1  0.42444700  0.82267700  0.30907200  1
  C  C9  1  0.93859900  0.19698000  0.23823000  1
  C  C10  1  0.56890700  0.68405500  0.33750100  1
  C  C11  1  0.32728700  0.72873400  0.41517500  1
  C  C12  1  0.17502900  0.65485600  0.80770300  1
  C  C13  1  0.09478100  0.28541200  0.15117300  1
  C  C14  1  0.90521900  0.71458800  0.84882700  1
  C  C15  1  0.68404400  0.78674300  0.23640000  1
  Ni  Ni16  1  0.79250100  0.61286200  0.73827500  1
  Ni  Ni17  1  0.72630200  0.24101300  0.07051400  1
  Ni  Ni18  1  0.31215900  0.19422100  0.28490600  1
  Ni  Ni19  1  0.26057200  0.82761700  0.76677400  1
  Ni  Ni20  1  0.93582900  0.43717300  0.31578000  1
  Ni  Ni21  1  0.32073700  0.66467200  0.49463200  1
  Ni  Ni22  1  0.30219300  0.08023700  0.09020700  1
  Ni  Ni23  1  0.14272700  0.25238900  0.79383900  1
  Ni  Ni24  1  0.78492600  0.88392300  0.36196100  1
  Ni  Ni25  1  0.68638200  0.87289600  0.17822000  1
  Ni  Ni26  1  0.06417100  0.56282700  0.68422000  1
  Ni  Ni27  1  0.57205000  0.68159100  0.12130800  1
  Ni  Ni28  1  0.79814700  0.19800700  0.52037700  1
  Ni  Ni29  1  0.43333800  0.38641500  0.58645500  1
  Ni  Ni30  1  0.21507400  0.11607700  0.63803900  1
  Ni  Ni31  1  0.34557200  0.64596100  0.76250000  1
  Ni  Ni32  1  0.25722600  0.87010900  0.34324800  1
  Ni  Ni33  1  0.19764300  0.55877700  0.85312600  1
  Ni  Ni34  1  0.74399900  0.73605400  0.90433600  1
  Ni  Ni35  1  0.20185300  0.80199300  0.47962300  1
  Ni  Ni36  1  0.96163600  0.09378200  0.27276600  1
  Ni  Ni37  1  0.81037500  0.36628300  0.68740900  1
  Ni  Ni38  1  0.68328300  0.24820800  0.81692500  1
  Ni  Ni39  1  0.49085700  0.94293400  0.30992100  1
  Ni  Ni40  1  0.85727300  0.74761100  0.20616100  1
  Ni  Ni41  1  0.31671700  0.75179200  0.18307500  1
  Ni  Ni42  1  0.50914300  0.05706600  0.69007900  1
  Ni  Ni43  1  0.84571500  0.00282000  0.83199300  1
  Ni  Ni44  1  0.65442800  0.35403900  0.23750000  1
  Ni  Ni45  1  0.67926300  0.33532800  0.50536800  1
  Ni  Ni46  1  0.95544100  0.64468100  0.92275900  1
  Ni  Ni47  1  0.18962500  0.63371700  0.31259100  1
  Ni  Ni48  1  0.76610700  0.67758600  0.34353000  1
  Ni  Ni49  1  0.00892000  0.28217800  0.36756000  1
  Ni  Ni50  1  0.04455900  0.35531900  0.07724100  1
  Ni  Ni51  1  0.20749900  0.38713800  0.26172500  1
  Ni  Ni52  1  0.48615200  0.57204800  0.22643700  1
  Ni  Ni53  1  0.80235700  0.44122300  0.14687400  1
  Ni  Ni54  1  0.03836400  0.90621800  0.72723400  1
  Ni  Ni55  1  0.31361800  0.12710400  0.82178000  1
  Ni  Ni56  1  0.73942800  0.17238300  0.23322600  1
  Ni  Ni57  1  0.51384800  0.42795200  0.77356300  1
  Ni  Ni58  1  0.69780700  0.91976300  0.90979300  1
  Ni  Ni59  1  0.42795000  0.31840900  0.87869200  1
  Ni  Ni60  1  0.15428500  0.99718000  0.16800700  1
  Ni  Ni61  1  0.56666200  0.61358500  0.41354500  1
  Ni  Ni62  1  0.68784100  0.80577900  0.71509400  1
  Ni  Ni63  1  0.23389300  0.32241400  0.65647000  1
  Ni  Ni64  1  0.27369800  0.75898700  0.92948600  1
  Ni  Ni65  1  0.25600100  0.26394600  0.09566400  1
  Ni  Ni66  1  0.99108000  0.71782200  0.63244000  1
  Ni  Ni67  1  0.74277400  0.12989100  0.65675200  1
  Cu  Cu68  1  0.44998700  0.16498400  0.53967400  1
  Cu  Cu69  1  0.03842000  0.87549300  0.92427300  1
  Cu  Cu70  1  0.55001300  0.83501600  0.46032600  1
  Cu  Cu71  1  0.96158000  0.12450700  0.07572700  1
  C  C72  1  0.43024100  0.50208700  0.16141800  1
  C  C73  1  0.15706600  0.90495300  0.35585700  1
  C  C74  1  0.30866500  0.62501900  0.54233400  1
  C  C75  1  0.85954000  0.07949900  0.83587700  1
  C  C76  1  0.87723200  0.15505800  0.48062100  1
  C  C77  1  0.96761300  0.60214300  0.96895100  1
  C  C78  1  0.28172900  0.44497000  0.33029600  1
  C  C79  1  0.15096000  0.05979000  0.56622600  1
  C  C80  1  0.64696300  0.73912200  0.93958800  1
  C  C81  1  0.62067200  0.15160900  0.23304200  1
  C  C82  1  0.69133500  0.37498100  0.45766600  1
  C  C83  1  0.88943100  0.42407400  0.75322100  1
  C  C84  1  0.12276800  0.84494200  0.51937900  1
  C  C85  1  0.31155500  0.07467300  0.85711400  1
  C  C86  1  0.96075600  0.03494600  0.30093000  1
  C  C87  1  0.44954700  0.63987800  0.73517900  1
  C  C88  1  0.48843900  0.38037700  0.94856200  1
  C  C89  1  0.37989700  0.05390100  0.04058900  1
  C  C90  1  0.11056900  0.57592600  0.24677900  1
  C  C91  1  0.37932800  0.84839100  0.76695800  1
  C  C92  1  0.84293400  0.09504700  0.64414300  1
  C  C93  1  0.51156100  0.61962300  0.05143800  1
  C  C94  1  0.42169300  0.43242100  0.54421200  1
  C  C95  1  0.52083000  0.01874900  0.31341900  1
  C  C96  1  0.14046000  0.92050100  0.16412300  1
  C  C97  1  0.75417800  0.29374900  0.89154000  1
  C  C98  1  0.61313000  0.74877400  0.64639400  1
  C  C99  1  0.47917000  0.98125100  0.68658100  1
  C  C100  1  0.96361900  0.72497900  0.18969900  1
  C  C101  1  0.34083500  0.81803700  0.99899100  1
  C  C102  1  0.62010300  0.94609900  0.95941100  1
  C  C103  1  0.03238700  0.39785700  0.03104900  1
  C  C104  1  0.21454700  0.50087800  0.88042300  1
  C  C105  1  0.68844500  0.92532700  0.14288600  1
  C  C106  1  0.84904000  0.94021000  0.43377400  1
  C  C107  1  0.65916500  0.18196300  0.00100900  1
  C  C108  1  0.78545300  0.49912200  0.11957700  1
  C  C109  1  0.55045300  0.36012200  0.26482100  1
  C  C110  1  0.03924400  0.96505400  0.69907000  1
  C  C111  1  0.03638100  0.27502100  0.81030100  1
  C  C112  1  0.11653800  0.33522200  0.64733900  1
  C  C113  1  0.05777600  0.33062600  0.44654400  1
  C  C114  1  0.56975900  0.49791300  0.83858200  1
  C  C115  1  0.94222400  0.66937400  0.55345600  1
  C  C116  1  0.35303700  0.26087800  0.06041200  1
  C  C117  1  0.99459800  0.49383800  0.38914700  1
  C  C118  1  0.00540200  0.50616200  0.61085300  1
  C  C119  1  0.24582200  0.70625100  0.10846000  1
  C  C120  1  0.38687000  0.25122600  0.35360600  1
  C  C121  1  0.71827100  0.55503000  0.66970400  1
  C  C122  1  0.57830700  0.56757900  0.45578800  1
  C  C123  1  0.88346200  0.66477800  0.35266100  1
