# generated using pymatgen
data_CuNiC8
_symmetry_space_group_name_H-M   'P 1'
_cell_length_a   8.13174192
_cell_length_b   8.36080673
_cell_length_c   46.52635524
_cell_angle_alpha   63.81993149
_cell_angle_beta   73.85568454
_cell_angle_gamma   65.29279929
_symmetry_Int_Tables_number   1
_chemical_formula_structural   CuNiC8
_chemical_formula_sum   'Cu10 Ni10 C80'
_cell_volume   2561.78168994
_cell_formula_units_Z   10
loop_
 _symmetry_equiv_pos_site_id
 _symmetry_equiv_pos_as_xyz
  1  'x, y, z'
loop_
 _atom_site_type_symbol
 _atom_site_label
 _atom_site_symmetry_multiplicity
 _atom_site_fract_x
 _atom_site_fract_y
 _atom_site_fract_z
 _atom_site_occupancy
  Ni  Ni0  1  0.30427144  0.14300603  0.02804427  1
  Ni  Ni1  1  0.25521624  0.45640541  0.11977005  1
  Ni  Ni2  1  0.30602002  0.14546768  0.22629115  1
  Ni  Ni3  1  0.25543923  0.45571914  0.31981350  1
  Ni  Ni4  1  0.30606186  0.14553420  0.42620105  1
  Ni  Ni5  1  0.25548194  0.45579845  0.51977622  1
  Ni  Ni6  1  0.30615047  0.14555782  0.62617170  1
  Ni  Ni7  1  0.25588070  0.45554221  0.71982479  1
  Ni  Ni8  1  0.30583086  0.14618698  0.82641804  1
  Ni  Ni9  1  0.68880364  0.84679270  0.97577048  1
  Cu  Cu10  1  0.11194379  0.75294292  0.01869167  1
  Cu  Cu11  1  0.11026208  0.76331816  0.21777451  1
  Cu  Cu12  1  0.11020395  0.76347034  0.41770792  1
  Cu  Cu13  1  0.11031416  0.76320878  0.61772932  1
  Cu  Cu14  1  0.89472886  0.24237618  0.18133058  1
  Cu  Cu15  1  0.11273969  0.76091720  0.81796319  1
  Cu  Cu16  1  0.89513231  0.24233694  0.38122752  1
  Cu  Cu17  1  0.89532812  0.24193223  0.58123436  1
  Cu  Cu18  1  0.89406560  0.24277237  0.78141202  1
  Cu  Cu19  1  0.88774524  0.23943156  0.98231164  1
  C  C20  1  0.10930001  0.03543283  0.12781066  1
  C  C21  1  0.10936736  0.03631861  0.32763739  1
  C  C22  1  0.54813729  0.39370134  0.03693551  1
  C  C23  1  0.10952686  0.03623277  0.52764245  1
  C  C24  1  0.44956995  0.61818493  0.16133729  1
  C  C25  1  0.54577162  0.40184525  0.23630291  1
  C  C26  1  0.10975542  0.03633702  0.72785669  1
  C  C27  1  0.44921825  0.61807008  0.36146364  1
  C  C28  1  0.54587635  0.40146267  0.43631138  1
  C  C29  1  0.11027500  0.04011446  0.92663856  1
  C  C30  1  0.88215481  0.96441049  0.07515220  1
  C  C31  1  0.44921107  0.61794705  0.56145588  1
  C  C32  1  0.54595615  0.40174048  0.63621133  1
  C  C33  1  0.88415301  0.96097812  0.27472286  1
  C  C34  1  0.44879144  0.61825100  0.76146437  1
  C  C35  1  0.54559151  0.39357351  0.83745740  1
  C  C36  1  0.88412639  0.96075765  0.47467867  1
  C  C37  1  0.44976567  0.61566390  0.96156797  1
  C  C38  1  0.88435654  0.96197536  0.67450819  1
  C  C39  1  0.89230088  0.95706315  0.87208573  1
  C  C40  1  0.75109815  0.52483122  0.08183697  1
  C  C41  1  0.68962994  0.81633661  0.17196811  1
  C  C42  1  0.75047285  0.52882681  0.28228471  1
  C  C43  1  0.69007759  0.81514909  0.37245092  1
  C  C44  1  0.75108152  0.52834881  0.48228585  1
  C  C45  1  0.24385747  0.46149435  0.91988977  1
  C  C46  1  0.69021533  0.81510648  0.57240111  1
  C  C47  1  0.75071808  0.52895884  0.68210260  1
  C  C48  1  0.69585709  0.81787278  0.77144230  1
  C  C49  1  0.75628765  0.53677951  0.88275741  1
  C  C50  1  0.12075144  0.29562847  0.08269354  1
  C  C51  1  0.21685218  0.05834167  0.16582625  1
  C  C52  1  0.12066112  0.29533248  0.28242983  1
  C  C53  1  0.18489862  0.56363550  0.18443798  1
  C  C54  1  0.39031711  0.66712399  0.04478521  1
  C  C55  1  0.21746677  0.05836172  0.36578544  1
  C  C56  1  0.62561077  0.19086334  0.08998093  1
  C  C57  1  0.37151890  0.82685038  0.11006307  1
  C  C58  1  0.12077247  0.29528095  0.48242603  1
  C  C59  1  0.18443113  0.56349657  0.38448098  1
  C  C60  1  0.62755415  0.35031834  0.15124915  1
  C  C61  1  0.39211021  0.67066486  0.24529266  1
  C  C62  1  0.21772959  0.05845790  0.56573945  1
  C  C63  1  0.82326110  0.43052053  0.01651988  1
  C  C64  1  0.63163740  0.19779962  0.28824361  1
  C  C65  1  0.37176464  0.82675698  0.31018697  1
  C  C66  1  0.12029659  0.29488629  0.68252601  1
  C  C67  1  0.18429021  0.56368582  0.58446847  1
  C  C68  1  0.79061530  0.91782153  0.03813366  1
  C  C69  1  0.62737121  0.35009171  0.35130375  1
  C  C70  1  0.39281751  0.67082135  0.44517119  1
  C  C71  1  0.21831898  0.05867327  0.76594193  1
  C  C72  1  0.82341705  0.44597559  0.21436057  1
  C  C73  1  0.84902609  0.70652071  0.11994487  1
  C  C74  1  0.63164580  0.19761904  0.48827536  1
  C  C75  1  0.37185424  0.82667731  0.51017491  1
  C  C76  1  0.13075237  0.30324927  0.88242793  1
  C  C77  1  0.18355500  0.56369374  0.78437271  1
  C  C78  1  0.78675248  0.91867855  0.23830986  1
  C  C79  1  0.62743163  0.34982789  0.55135433  1
  C  C80  1  0.39302459  0.67085098  0.64513219  1
  C  C81  1  0.21250492  0.07889484  0.96313096  1
  C  C82  1  0.82369469  0.44512469  0.41445243  1
  C  C83  1  0.84736040  0.70727243  0.32012709  1
  C  C84  1  0.63158319  0.19782414  0.68821602  1
  C  C85  1  0.37124715  0.82743671  0.71018862  1
  C  C86  1  0.18247903  0.56400378  0.98259562  1
  C  C87  1  0.78663431  0.91844725  0.43829768  1
  C  C88  1  0.62661917  0.35146356  0.75096251  1
  C  C89  1  0.38011425  0.65312015  0.84994150  1
  C  C90  1  0.82407379  0.44477941  0.61444204  1
  C  C91  1  0.84734874  0.70715264  0.52009891  1
  C  C92  1  0.63807910  0.18759725  0.88798801  1
  C  C93  1  0.36942953  0.82203978  0.90952463  1
  C  C94  1  0.78675399  0.91895646  0.63823357  1
  C  C95  1  0.62229198  0.35040648  0.94971940  1
  C  C96  1  0.81780443  0.45033633  0.81430107  1
  C  C97  1  0.84799485  0.70754478  0.71990598  1
  C  C98  1  0.78454473  0.92887165  0.83518286  1
  C  C99  1  0.86681362  0.69773883  0.91652758  1
