# generated using pymatgen
data_Cu9Ni3C35
_symmetry_space_group_name_H-M   'P 1'
_cell_length_a   8.94996830
_cell_length_b   8.94996830
_cell_length_c   8.74446100
_cell_angle_alpha   90.00000000
_cell_angle_beta   90.00000000
_cell_angle_gamma   120.00000223
_symmetry_Int_Tables_number   1
_chemical_formula_structural   Cu9Ni3C35
_chemical_formula_sum   'Cu9 Ni3 C35'
_cell_volume   606.60594387
_cell_formula_units_Z   1
loop_
 _symmetry_equiv_pos_site_id
 _symmetry_equiv_pos_as_xyz
  1  'x, y, z'
loop_
 _atom_site_type_symbol
 _atom_site_label
 _atom_site_symmetry_multiplicity
 _atom_site_fract_x
 _atom_site_fract_y
 _atom_site_fract_z
 _atom_site_occupancy
  Ni  Ni0  1  0.66797100  0.00000000  0.00000000  1
  Ni  Ni1  1  0.00000000  0.66797100  0.00000000  1
  Ni  Ni2  1  0.33202900  0.33202900  0.00000000  1
  Cu  Cu3  1  0.34881300  0.00000000  0.76593900  1
  Cu  Cu4  1  0.65118700  0.65118700  0.23406100  1
  Cu  Cu5  1  0.00000000  0.34881300  0.23406100  1
  Cu  Cu6  1  0.00000000  0.34881300  0.76593900  1
  Cu  Cu7  1  0.65118700  0.65118700  0.76593900  1
  Cu  Cu8  1  0.34881300  0.00000000  0.23406100  1
  Cu  Cu9  1  0.71743300  0.00000000  0.50000000  1
  Cu  Cu10  1  0.00000000  0.71743300  0.50000000  1
  Cu  Cu11  1  0.28256700  0.28256700  0.50000000  1
  C  C12  1  0.66666700  0.33333300  0.67618000  1
  C  C13  1  0.33333300  0.66666700  0.32382000  1
  C  C14  1  0.33333300  0.66666700  0.67618000  1
  C  C15  1  0.66666700  0.33333300  0.32382000  1
  C  C16  1  0.33333300  0.66666700  0.00000000  1
  C  C17  1  0.66666700  0.33333300  0.00000000  1
  C  C18  1  0.00000000  0.00000000  0.79011900  1
  C  C19  1  0.00000000  0.00000000  0.20988100  1
  C  C20  1  0.48671300  0.82110100  0.68184700  1
  C  C21  1  0.17889900  0.66561200  0.68184700  1
  C  C22  1  0.82110100  0.48671300  0.31815300  1
  C  C23  1  0.66561200  0.17889900  0.31815300  1
  C  C24  1  0.33438800  0.51328700  0.68184700  1
  C  C25  1  0.51328700  0.33438800  0.68184700  1
  C  C26  1  0.33438800  0.51328700  0.31815300  1
  C  C27  1  0.17889900  0.66561200  0.31815300  1
  C  C28  1  0.48671300  0.82110100  0.31815300  1
  C  C29  1  0.00000000  0.25706000  0.50000000  1
  C  C30  1  0.25706000  0.00000000  0.50000000  1
  C  C31  1  0.74294000  0.74294000  0.50000000  1
  C  C32  1  0.15540700  0.15540700  0.21217500  1
  C  C33  1  0.00000000  0.84459300  0.78782500  1
  C  C34  1  0.84459300  0.00000000  0.78782500  1
  C  C35  1  0.84459300  0.00000000  0.21217500  1
  C  C36  1  0.00000000  0.84459300  0.21217500  1
  C  C37  1  0.15540700  0.15540700  0.78782500  1
  C  C38  1  0.50470200  0.18275100  0.00000000  1
  C  C39  1  0.67805000  0.49529800  0.00000000  1
  C  C40  1  0.81724900  0.32195000  0.00000000  1
  C  C41  1  0.32195000  0.81724900  0.00000000  1
  C  C42  1  0.49529800  0.67805000  0.00000000  1
  C  C43  1  0.18275100  0.50470200  0.00000000  1
  C  C44  1  0.51328700  0.33438800  0.31815300  1
  C  C45  1  0.82110100  0.48671300  0.68184700  1
  C  C46  1  0.66561200  0.17889900  0.68184700  1
