# generated using pymatgen
data_Cu4NiC2
_symmetry_space_group_name_H-M   'P 1'
_cell_length_a   7.79991035
_cell_length_b   7.79991035
_cell_length_c   7.79991035
_cell_angle_alpha   109.42184587
_cell_angle_beta   109.42184587
_cell_angle_gamma   109.57001536
_symmetry_Int_Tables_number   1
_chemical_formula_structural   Cu4NiC2
_chemical_formula_sum   'Cu8 Ni2 C4'
_cell_volume   365.29688917
_cell_formula_units_Z   2
loop_
 _symmetry_equiv_pos_site_id
 _symmetry_equiv_pos_as_xyz
  1  'x, y, z'
loop_
 _atom_site_type_symbol
 _atom_site_label
 _atom_site_symmetry_multiplicity
 _atom_site_fract_x
 _atom_site_fract_y
 _atom_site_fract_z
 _atom_site_occupancy
  C  C0  1  0.12500000  0.50538200  0.88038200  1
  C  C1  1  0.75538200  0.87500000  0.38038200  1
  C  C2  1  0.62500000  0.24461800  0.11961800  1
  C  C3  1  0.49461800  0.37500000  0.61961800  1
  Ni  Ni4  1  0.25000000  0.75000000  0.50000000  1
  Ni  Ni5  1  0.00000000  0.00000000  0.00000000  1
  Cu  Cu6  1  0.38773800  0.98577000  0.25301800  1
  Cu  Cu7  1  0.86528000  0.61226200  0.59803200  1
  Cu  Cu8  1  0.01423000  0.26724800  0.40196800  1
  Cu  Cu9  1  0.23577000  0.13773800  0.75301800  1
  Cu  Cu10  1  0.86226200  0.61528000  0.09803200  1
  Cu  Cu11  1  0.51724800  0.76423000  0.90196800  1
  Cu  Cu12  1  0.73275200  0.13472000  0.74698200  1
  Cu  Cu13  1  0.38472000  0.48275200  0.24698200  1
