# generated using pymatgen
data_Cu12Ni12C79
_symmetry_space_group_name_H-M   'P 1'
_cell_length_a   10.81447500
_cell_length_b   10.81447500
_cell_length_c   10.81447500
_cell_angle_alpha   90.00000000
_cell_angle_beta   90.00000000
_cell_angle_gamma   90.00000000
_symmetry_Int_Tables_number   1
_chemical_formula_structural   Cu12Ni12C79
_chemical_formula_sum   'Cu12 Ni12 C79'
_cell_volume   1264.78388366
_cell_formula_units_Z   1
loop_
 _symmetry_equiv_pos_site_id
 _symmetry_equiv_pos_as_xyz
  1  'x, y, z'
loop_
 _atom_site_type_symbol
 _atom_site_label
 _atom_site_symmetry_multiplicity
 _atom_site_fract_x
 _atom_site_fract_y
 _atom_site_fract_z
 _atom_site_occupancy
  C  C0  1  0.50000000  0.00000000  0.00000000  1
  C  C1  1  0.00000000  0.50000000  0.00000000  1
  C  C2  1  0.00000000  0.00000000  0.50000000  1
  C  C3  1  0.20996800  0.61103400  0.20996800  1
  C  C4  1  0.20996800  0.20996800  0.61103400  1
  C  C5  1  0.20996800  0.38896600  0.79003200  1
  C  C6  1  0.23134700  0.47921800  0.11444900  1
  C  C7  1  0.23134700  0.88555100  0.52078200  1
  C  C8  1  0.23134700  0.11444900  0.47921800  1
  C  C9  1  0.23134700  0.52078200  0.88555100  1
  C  C10  1  0.47921800  0.23134700  0.11444900  1
  C  C11  1  0.47921800  0.11444900  0.23134700  1
  C  C12  1  0.47921800  0.88555100  0.76865300  1
  C  C13  1  0.47921800  0.76865300  0.88555100  1
  C  C14  1  0.61103400  0.20996800  0.20996800  1
  C  C15  1  0.61103400  0.79003200  0.79003200  1
  C  C16  1  0.72436500  0.84078500  0.00794500  1
  C  C17  1  0.72436500  0.99205500  0.15921500  1
  C  C18  1  0.72436500  0.00794500  0.84078500  1
  C  C19  1  0.72436500  0.15921500  0.99205500  1
  C  C20  1  0.79003200  0.61103400  0.79003200  1
  C  C21  1  0.79003200  0.20996800  0.38896600  1
  C  C22  1  0.79003200  0.38896600  0.20996800  1
  C  C23  1  0.84078500  0.72436500  0.00794500  1
  C  C24  1  0.84078500  0.00794500  0.72436500  1
  C  C25  1  0.84078500  0.99205500  0.27563500  1
  C  C26  1  0.84078500  0.27563500  0.99205500  1
  C  C27  1  0.88555100  0.47921800  0.76865300  1
  C  C28  1  0.88555100  0.76865300  0.47921800  1
  C  C29  1  0.88555100  0.23134700  0.52078200  1
  C  C30  1  0.88555100  0.52078200  0.23134700  1
  C  C31  1  0.99205500  0.72436500  0.15921500  1
  C  C32  1  0.99205500  0.15921500  0.72436500  1
  C  C33  1  0.99205500  0.84078500  0.27563500  1
  C  C34  1  0.99205500  0.27563500  0.84078500  1
  C  C35  1  0.00794500  0.72436500  0.84078500  1
  C  C36  1  0.00794500  0.84078500  0.72436500  1
  C  C37  1  0.00794500  0.15921500  0.27563500  1
  C  C38  1  0.00794500  0.27563500  0.15921500  1
  C  C39  1  0.11444900  0.23134700  0.47921800  1
  C  C40  1  0.11444900  0.47921800  0.23134700  1
  C  C41  1  0.11444900  0.52078200  0.76865300  1
  C  C42  1  0.11444900  0.76865300  0.52078200  1
  C  C43  1  0.15921500  0.72436500  0.99205500  1
  C  C44  1  0.15921500  0.99205500  0.72436500  1
  C  C45  1  0.15921500  0.00794500  0.27563500  1
  C  C46  1  0.15921500  0.27563500  0.00794500  1
  C  C47  1  0.20996800  0.79003200  0.38896600  1
  C  C48  1  0.27563500  0.84078500  0.99205500  1
  C  C49  1  0.27563500  0.99205500  0.84078500  1
  C  C50  1  0.27563500  0.00794500  0.15921500  1
  C  C51  1  0.27563500  0.15921500  0.00794500  1
  C  C52  1  0.38896600  0.20996800  0.79003200  1
  C  C53  1  0.38896600  0.79003200  0.20996800  1
  C  C54  1  0.52078200  0.23134700  0.88555100  1
  C  C55  1  0.52078200  0.88555100  0.23134700  1
  C  C56  1  0.52078200  0.11444900  0.76865300  1
  C  C57  1  0.52078200  0.76865300  0.11444900  1
  C  C58  1  0.76865300  0.47921800  0.88555100  1
  C  C59  1  0.76865300  0.88555100  0.47921800  1
  C  C60  1  0.76865300  0.11444900  0.52078200  1
  C  C61  1  0.76865300  0.52078200  0.11444900  1
  C  C62  1  0.79003200  0.79003200  0.61103400  1
  C  C63  1  0.16118000  0.53620300  0.16118000  1
  C  C64  1  0.16118000  0.16118000  0.53620300  1
  C  C65  1  0.16118000  0.46379700  0.83882000  1
  C  C66  1  0.53620300  0.16118000  0.16118000  1
  C  C67  1  0.53620300  0.83882000  0.83882000  1
  C  C68  1  0.83882000  0.16118000  0.46379700  1
  C  C69  1  0.83882000  0.46379700  0.16118000  1
  C  C70  1  0.83882000  0.53620300  0.83882000  1
  C  C71  1  0.85209200  0.85209200  0.14790800  1
  C  C72  1  0.85209200  0.14790800  0.85209200  1
  C  C73  1  0.14790800  0.85209200  0.85209200  1
  C  C74  1  0.14790800  0.14790800  0.14790800  1
  C  C75  1  0.16118000  0.83882000  0.46379700  1
  C  C76  1  0.46379700  0.16118000  0.83882000  1
  C  C77  1  0.46379700  0.83882000  0.16118000  1
  C  C78  1  0.83882000  0.83882000  0.53620300  1
  Ni  Ni79  1  0.80114000  0.80114000  0.04745800  1
  Ni  Ni80  1  0.80114000  0.95254200  0.19886000  1
  Ni  Ni81  1  0.80114000  0.04745800  0.80114000  1
  Ni  Ni82  1  0.80114000  0.19886000  0.95254200  1
  Ni  Ni83  1  0.95254200  0.80114000  0.19886000  1
  Ni  Ni84  1  0.95254200  0.19886000  0.80114000  1
  Ni  Ni85  1  0.04745800  0.80114000  0.80114000  1
  Ni  Ni86  1  0.04745800  0.19886000  0.19886000  1
  Ni  Ni87  1  0.19886000  0.80114000  0.95254200  1
  Ni  Ni88  1  0.19886000  0.95254200  0.80114000  1
  Ni  Ni89  1  0.19886000  0.04745800  0.19886000  1
  Ni  Ni90  1  0.19886000  0.19886000  0.04745800  1
  Cu  Cu91  1  0.07514800  0.58787200  0.07514800  1
  Cu  Cu92  1  0.07514800  0.07514800  0.58787200  1
  Cu  Cu93  1  0.07514800  0.41212800  0.92485200  1
  Cu  Cu94  1  0.58787200  0.07514800  0.07514800  1
  Cu  Cu95  1  0.58787200  0.92485200  0.92485200  1
  Cu  Cu96  1  0.92485200  0.07514800  0.41212800  1
  Cu  Cu97  1  0.92485200  0.41212800  0.07514800  1
  Cu  Cu98  1  0.92485200  0.58787200  0.92485200  1
  Cu  Cu99  1  0.07514800  0.92485200  0.41212800  1
  Cu  Cu100  1  0.41212800  0.07514800  0.92485200  1
  Cu  Cu101  1  0.41212800  0.92485200  0.07514800  1
  Cu  Cu102  1  0.92485200  0.92485200  0.58787200  1
