# generated using pymatgen
data_Cu2NiC9
_symmetry_space_group_name_H-M   'P 1'
_cell_length_a   4.83869800
_cell_length_b   6.76113400
_cell_length_c   12.92215800
_cell_angle_alpha   90.00000000
_cell_angle_beta   90.00000000
_cell_angle_gamma   90.00000000
_symmetry_Int_Tables_number   1
_chemical_formula_structural   Cu2NiC9
_chemical_formula_sum   'Cu8 Ni4 C36'
_cell_volume   422.74950464
_cell_formula_units_Z   4
loop_
 _symmetry_equiv_pos_site_id
 _symmetry_equiv_pos_as_xyz
  1  'x, y, z'
loop_
 _atom_site_type_symbol
 _atom_site_label
 _atom_site_symmetry_multiplicity
 _atom_site_fract_x
 _atom_site_fract_y
 _atom_site_fract_z
 _atom_site_occupancy
  C  C0  1  0.81492000  0.35756100  0.74831600  1
  C  C1  1  0.68508000  0.85756100  0.75168400  1
  C  C2  1  0.31492000  0.64243900  0.75168400  1
  C  C3  1  0.18508000  0.14243900  0.74831600  1
  C  C4  1  0.18508000  0.64243900  0.25168400  1
  C  C5  1  0.31492000  0.14243900  0.24831600  1
  C  C6  1  0.68508000  0.35756100  0.24831600  1
  C  C7  1  0.81492000  0.85756100  0.25168400  1
  C  C8  1  0.68312200  0.44877600  0.86665300  1
  C  C9  1  0.81687800  0.94877600  0.63334700  1
  C  C10  1  0.18312200  0.55122400  0.63334700  1
  C  C11  1  0.31687800  0.05122400  0.86665300  1
  C  C12  1  0.31687800  0.55122400  0.13334700  1
  C  C13  1  0.18312200  0.05122400  0.36665300  1
  C  C14  1  0.81687800  0.44877600  0.36665300  1
  C  C15  1  0.68312200  0.94877600  0.13334700  1
  C  C16  1  0.76335700  0.31023100  0.54889600  1
  C  C17  1  0.73664300  0.81023100  0.95110400  1
  C  C18  1  0.26335700  0.68976900  0.95110400  1
  C  C19  1  0.23664300  0.18976900  0.54889600  1
  C  C20  1  0.23664300  0.68976900  0.45110400  1
  C  C21  1  0.26335700  0.18976900  0.04889600  1
  C  C22  1  0.73664300  0.31023100  0.04889600  1
  C  C23  1  0.76335700  0.81023100  0.45110400  1
  Ni  Ni24  1  0.00000000  0.25000000  0.88082500  1
  Ni  Ni25  1  0.50000000  0.75000000  0.61917500  1
  Ni  Ni26  1  0.00000000  0.75000000  0.11917500  1
  Ni  Ni27  1  0.50000000  0.25000000  0.38082500  1
  Cu  Cu28  1  0.82104600  0.36292900  0.82751400  1
  Cu  Cu29  1  0.67895400  0.86292900  0.67248600  1
  Cu  Cu30  1  0.32104600  0.63707100  0.67248600  1
  Cu  Cu31  1  0.17895400  0.13707100  0.82751400  1
  Cu  Cu32  1  0.17895400  0.63707100  0.17248600  1
  Cu  Cu33  1  0.32104600  0.13707100  0.32751400  1
  Cu  Cu34  1  0.67895400  0.36292900  0.32751400  1
  Cu  Cu35  1  0.82104600  0.86292900  0.17248600  1
  C  C36  1  0.91965600  0.34223000  0.59913100  1
  C  C37  1  0.58034400  0.84223000  0.90086900  1
  C  C38  1  0.41965600  0.65777000  0.90086900  1
  C  C39  1  0.08034400  0.15777000  0.59913100  1
  C  C40  1  0.08034400  0.65777000  0.40086900  1
  C  C41  1  0.41965600  0.15777000  0.09913100  1
  C  C42  1  0.58034400  0.34223000  0.09913100  1
  C  C43  1  0.91965600  0.84223000  0.40086900  1
  C  C44  1  0.00000000  0.25000000  0.98018800  1
  C  C45  1  0.50000000  0.75000000  0.51981200  1
  C  C46  1  0.00000000  0.75000000  0.01981200  1
  C  C47  1  0.50000000  0.25000000  0.48018800  1
