# generated using pymatgen
data_Cu3NiC7
_symmetry_space_group_name_H-M   'P 1'
_cell_length_a   6.83117998
_cell_length_b   6.83117998
_cell_length_c   6.83117998
_cell_angle_alpha   90.81839776
_cell_angle_beta   90.81839776
_cell_angle_gamma   90.81839546
_symmetry_Int_Tables_number   1
_chemical_formula_structural   Cu3NiC7
_chemical_formula_sum   'Cu6 Ni2 C14'
_cell_volume   318.67865478
_cell_formula_units_Z   2
loop_
 _symmetry_equiv_pos_site_id
 _symmetry_equiv_pos_as_xyz
  1  'x, y, z'
loop_
 _atom_site_type_symbol
 _atom_site_label
 _atom_site_symmetry_multiplicity
 _atom_site_fract_x
 _atom_site_fract_y
 _atom_site_fract_z
 _atom_site_occupancy
  Ni  Ni0  1  0.25000000  0.25000000  0.25000000  1
  Ni  Ni1  1  0.75000000  0.75000000  0.75000000  1
  Cu  Cu2  1  0.75000000  0.39202100  0.10797900  1
  Cu  Cu3  1  0.10797900  0.75000000  0.39202100  1
  Cu  Cu4  1  0.39202100  0.10797900  0.75000000  1
  Cu  Cu5  1  0.25000000  0.60797900  0.89202100  1
  Cu  Cu6  1  0.89202100  0.25000000  0.60797900  1
  Cu  Cu7  1  0.60797900  0.89202100  0.25000000  1
  C  C8  1  0.00000000  0.00000000  0.00000000  1
  C  C9  1  0.50000000  0.50000000  0.50000000  1
  C  C10  1  0.44462400  0.77833200  0.57547000  1
  C  C11  1  0.57547000  0.44462400  0.77833200  1
  C  C12  1  0.77833200  0.57547000  0.44462400  1
  C  C13  1  0.05537600  0.92453000  0.72166800  1
  C  C14  1  0.72166800  0.05537600  0.92453000  1
  C  C15  1  0.92453000  0.72166800  0.05537600  1
  C  C16  1  0.55537600  0.22166800  0.42453000  1
  C  C17  1  0.42453000  0.55537600  0.22166800  1
  C  C18  1  0.22166800  0.42453000  0.55537600  1
  C  C19  1  0.94462400  0.07547000  0.27833200  1
  C  C20  1  0.07547000  0.27833200  0.94462400  1
  C  C21  1  0.27833200  0.94462400  0.07547000  1
