# generated using pymatgen
data_Cu9Ni4C3
_symmetry_space_group_name_H-M   'P 1'
_cell_length_a   8.79013600
_cell_length_b   8.79013600
_cell_length_c   12.89031500
_cell_angle_alpha   90.00000000
_cell_angle_beta   90.00000000
_cell_angle_gamma   90.00000000
_symmetry_Int_Tables_number   1
_chemical_formula_structural   Cu9Ni4C3
_chemical_formula_sum   'Cu36 Ni16 C12'
_cell_volume   995.98940663
_cell_formula_units_Z   4
loop_
 _symmetry_equiv_pos_site_id
 _symmetry_equiv_pos_as_xyz
  1  'x, y, z'
loop_
 _atom_site_type_symbol
 _atom_site_label
 _atom_site_symmetry_multiplicity
 _atom_site_fract_x
 _atom_site_fract_y
 _atom_site_fract_z
 _atom_site_occupancy
  C  C0  1  0.00000000  0.50000000  0.96028800  1
  C  C1  1  0.00000000  0.50000000  0.46028800  1
  C  C2  1  0.50000000  0.00000000  0.53971200  1
  C  C3  1  0.50000000  0.00000000  0.03971200  1
  C  C4  1  0.08969300  0.49825800  0.72758600  1
  C  C5  1  0.91030700  0.50174200  0.72758600  1
  C  C6  1  0.99825800  0.41030700  0.22758600  1
  C  C7  1  0.00174200  0.58969300  0.22758600  1
  C  C8  1  0.41030700  0.00174200  0.77241400  1
  C  C9  1  0.58969300  0.99825800  0.77241400  1
  C  C10  1  0.50174200  0.08969300  0.27241400  1
  C  C11  1  0.49825800  0.91030700  0.27241400  1
  Ni  Ni12  1  0.28808300  0.27512800  0.94620700  1
  Ni  Ni13  1  0.71191700  0.72487200  0.94620700  1
  Ni  Ni14  1  0.77512800  0.21191700  0.44620700  1
  Ni  Ni15  1  0.22487200  0.78808300  0.44620700  1
  Ni  Ni16  1  0.21191700  0.22487200  0.55379300  1
  Ni  Ni17  1  0.78808300  0.77512800  0.55379300  1
  Ni  Ni18  1  0.72487200  0.28808300  0.05379300  1
  Ni  Ni19  1  0.27512800  0.71191700  0.05379300  1
  Ni  Ni20  1  0.20459200  0.22467900  0.05529800  1
  Ni  Ni21  1  0.79540800  0.77532100  0.05529800  1
  Ni  Ni22  1  0.72467900  0.29540800  0.55529800  1
  Ni  Ni23  1  0.27532100  0.70459200  0.55529800  1
  Ni  Ni24  1  0.29540800  0.27532100  0.44470200  1
  Ni  Ni25  1  0.70459200  0.72467900  0.44470200  1
  Ni  Ni26  1  0.77532100  0.20459200  0.94470200  1
  Ni  Ni27  1  0.22467900  0.79540800  0.94470200  1
  Cu  Cu28  1  0.22027100  0.37688100  0.89670100  1
  Cu  Cu29  1  0.77972900  0.62311900  0.89670100  1
  Cu  Cu30  1  0.87688100  0.27972900  0.39670100  1
  Cu  Cu31  1  0.12311900  0.72027100  0.39670100  1
  Cu  Cu32  1  0.27972900  0.12311900  0.60329900  1
  Cu  Cu33  1  0.72027100  0.87688100  0.60329900  1
  Cu  Cu34  1  0.62311900  0.22027100  0.10329900  1
  Cu  Cu35  1  0.37688100  0.77972900  0.10329900  1
  Cu  Cu36  1  0.40931000  0.20571100  0.92748800  1
  Cu  Cu37  1  0.59069000  0.79428900  0.92748800  1
  Cu  Cu38  1  0.70571100  0.09069000  0.42748800  1
  Cu  Cu39  1  0.29428900  0.90931000  0.42748800  1
  Cu  Cu40  1  0.09069000  0.29428900  0.57251200  1
  Cu  Cu41  1  0.90931000  0.70571100  0.57251200  1
  Cu  Cu42  1  0.79428900  0.40931000  0.07251200  1
  Cu  Cu43  1  0.20571100  0.59069000  0.07251200  1
  Cu  Cu44  1  0.26989700  0.11799000  0.10153000  1
  Cu  Cu45  1  0.73010300  0.88201000  0.10153000  1
  Cu  Cu46  1  0.61799000  0.23010300  0.60153000  1
  Cu  Cu47  1  0.38201000  0.76989700  0.60153000  1
  Cu  Cu48  1  0.23010300  0.38201000  0.39847000  1
  Cu  Cu49  1  0.76989700  0.61799000  0.39847000  1
  Cu  Cu50  1  0.88201000  0.26989700  0.89847000  1
  Cu  Cu51  1  0.11799000  0.73010300  0.89847000  1
  Cu  Cu52  1  0.08755300  0.29911100  0.07746300  1
  Cu  Cu53  1  0.91244700  0.70088900  0.07746300  1
  Cu  Cu54  1  0.79911100  0.41244700  0.57746300  1
  Cu  Cu55  1  0.20088900  0.58755300  0.57746300  1
  Cu  Cu56  1  0.41244700  0.20088900  0.42253700  1
  Cu  Cu57  1  0.58755300  0.79911100  0.42253700  1
  Cu  Cu58  1  0.70088900  0.08755300  0.92253700  1
  Cu  Cu59  1  0.29911100  0.91244700  0.92253700  1
  Cu  Cu60  1  0.00000000  0.50000000  0.77220800  1
  Cu  Cu61  1  0.00000000  0.50000000  0.27220800  1
  Cu  Cu62  1  0.50000000  0.00000000  0.72779200  1
  Cu  Cu63  1  0.50000000  0.00000000  0.22779200  1
