# generated using pymatgen
data_Cu7NiC24
_symmetry_space_group_name_H-M   'P 1'
_cell_length_a   7.91249100
_cell_length_b   7.91249100
_cell_length_c   8.74746200
_cell_angle_alpha   90.00000000
_cell_angle_beta   90.00000000
_cell_angle_gamma   90.00000000
_symmetry_Int_Tables_number   1
_chemical_formula_structural   Cu7NiC24
_chemical_formula_sum   'Cu7 Ni1 C24'
_cell_volume   547.65684810
_cell_formula_units_Z   1
loop_
 _symmetry_equiv_pos_site_id
 _symmetry_equiv_pos_as_xyz
  1  'x, y, z'
loop_
 _atom_site_type_symbol
 _atom_site_label
 _atom_site_symmetry_multiplicity
 _atom_site_fract_x
 _atom_site_fract_y
 _atom_site_fract_z
 _atom_site_occupancy
  Ni  Ni0  1  0.00000000  0.00000000  0.97039900  1
  Cu  Cu1  1  0.24771700  0.75228300  0.66870900  1
  Cu  Cu2  1  0.50000000  0.00000000  0.00058900  1
  Cu  Cu3  1  0.50000000  0.50000000  0.00358100  1
  Cu  Cu4  1  0.75228300  0.75228300  0.66870900  1
  Cu  Cu5  1  0.75228300  0.24771700  0.66870900  1
  Cu  Cu6  1  0.00000000  0.50000000  0.00058900  1
  Cu  Cu7  1  0.24771700  0.24771700  0.66870900  1
  C  C8  1  0.74833100  0.50000000  0.33347500  1
  C  C9  1  0.50000000  0.25166900  0.33347500  1
  C  C10  1  0.00000000  0.75172500  0.32966800  1
  C  C11  1  0.50000000  0.74833100  0.33347500  1
  C  C12  1  0.24827500  0.00000000  0.32966800  1
  C  C13  1  0.75172500  0.00000000  0.32966800  1
  C  C14  1  0.25166900  0.50000000  0.33347500  1
  C  C15  1  0.00000000  0.24827500  0.32966800  1
  C  C16  1  0.74840200  0.74840200  0.17728900  1
  C  C17  1  0.00000000  0.00000000  0.48964400  1
  C  C18  1  0.25159800  0.25159800  0.17728900  1
  C  C19  1  0.00000000  0.50000000  0.49108000  1
  C  C20  1  0.50000000  0.50000000  0.49605400  1
  C  C21  1  0.50000000  0.00000000  0.49108000  1
  C  C22  1  0.74840200  0.25159800  0.17728900  1
  C  C23  1  0.25159800  0.74840200  0.17728900  1
  C  C24  1  0.50000000  0.74879600  0.83364500  1
  C  C25  1  0.74747900  0.00000000  0.83199500  1
  C  C26  1  0.25252100  0.00000000  0.83199500  1
  C  C27  1  0.00000000  0.74747900  0.83199500  1
  C  C28  1  0.50000000  0.25120400  0.83364500  1
  C  C29  1  0.25120400  0.50000000  0.83364500  1
  C  C30  1  0.00000000  0.25252100  0.83199500  1
  C  C31  1  0.74879600  0.50000000  0.83364500  1
