# generated using pymatgen
data_Cu3Ni3C2
_symmetry_space_group_name_H-M   'P 1'
_cell_length_a   7.72976600
_cell_length_b   7.34243400
_cell_length_c   12.86335274
_cell_angle_alpha   55.65847983
_cell_angle_beta   90.00000000
_cell_angle_gamma   90.00000000
_symmetry_Int_Tables_number   1
_chemical_formula_structural   Cu3Ni3C2
_chemical_formula_sum   'Cu12 Ni12 C8'
_cell_volume   602.80583838
_cell_formula_units_Z   4
loop_
 _symmetry_equiv_pos_site_id
 _symmetry_equiv_pos_as_xyz
  1  'x, y, z'
loop_
 _atom_site_type_symbol
 _atom_site_label
 _atom_site_symmetry_multiplicity
 _atom_site_fract_x
 _atom_site_fract_y
 _atom_site_fract_z
 _atom_site_occupancy
  C  C0  1  0.56570800  0.72902300  0.25072500  1
  C  C1  1  0.06570800  0.27097700  0.24927500  1
  C  C2  1  0.43429200  0.27097700  0.74927500  1
  C  C3  1  0.93429200  0.72902300  0.75072500  1
  C  C4  1  0.00000000  0.50000000  0.50000000  1
  C  C5  1  0.50000000  0.50000000  0.00000000  1
  C  C6  1  0.00000000  0.00000000  0.00000000  1
  C  C7  1  0.50000000  0.00000000  0.50000000  1
  Ni  Ni8  1  0.13420700  0.23896800  0.96880400  1
  Ni  Ni9  1  0.36579300  0.23896800  0.46880400  1
  Ni  Ni10  1  0.86579300  0.76103200  0.03119600  1
  Ni  Ni11  1  0.63420700  0.76103200  0.53119600  1
  Ni  Ni12  1  0.29876100  0.82989700  0.53835800  1
  Ni  Ni13  1  0.79876100  0.17010300  0.96164200  1
  Ni  Ni14  1  0.70123900  0.17010300  0.46164200  1
  Ni  Ni15  1  0.20123900  0.82989700  0.03835800  1
  Ni  Ni16  1  0.01947400  0.10086300  0.83025800  1
  Ni  Ni17  1  0.51947400  0.89913700  0.66974200  1
  Ni  Ni18  1  0.98052600  0.89913700  0.16974200  1
  Ni  Ni19  1  0.48052600  0.10086300  0.33025800  1
  Cu  Cu20  1  0.03402400  0.16551800  0.72371500  1
  Cu  Cu21  1  0.53402400  0.83448200  0.77628500  1
  Cu  Cu22  1  0.96597600  0.83448200  0.27628500  1
  Cu  Cu23  1  0.46597600  0.16551800  0.22371500  1
  Cu  Cu24  1  0.17383100  0.72140000  0.56302900  1
  Cu  Cu25  1  0.32616900  0.72140000  0.06302900  1
  Cu  Cu26  1  0.82616900  0.27860000  0.43697100  1
  Cu  Cu27  1  0.67383100  0.27860000  0.93697100  1
  Cu  Cu28  1  0.21805000  0.38993800  0.94769400  1
  Cu  Cu29  1  0.71805000  0.61006200  0.55230600  1
  Cu  Cu30  1  0.78195000  0.61006200  0.05230600  1
  Cu  Cu31  1  0.28195000  0.38993800  0.44769400  1
