# generated using pymatgen
data_Cu2Ni3C4
_symmetry_space_group_name_H-M   'P 1'
_cell_length_a   6.34057200
_cell_length_b   12.58200500
_cell_length_c   12.65443500
_cell_angle_alpha   90.00000000
_cell_angle_beta   90.00000000
_cell_angle_gamma   90.00000000
_symmetry_Int_Tables_number   1
_chemical_formula_structural   Cu2Ni3C4
_chemical_formula_sum   'Cu8 Ni12 C16'
_cell_volume   1009.53423535
_cell_formula_units_Z   4
loop_
 _symmetry_equiv_pos_site_id
 _symmetry_equiv_pos_as_xyz
  1  'x, y, z'
loop_
 _atom_site_type_symbol
 _atom_site_label
 _atom_site_symmetry_multiplicity
 _atom_site_fract_x
 _atom_site_fract_y
 _atom_site_fract_z
 _atom_site_occupancy
  C  C0  1  0.98266800  0.75000000  0.25237800  1
  C  C1  1  0.01733200  0.75000000  0.75237800  1
  C  C2  1  0.01733200  0.25000000  0.74762200  1
  C  C3  1  0.98266800  0.25000000  0.24762200  1
  Ni  Ni4  1  0.54234100  0.00000000  0.25000000  1
  Ni  Ni5  1  0.44993100  0.25000000  0.97972500  1
  Ni  Ni6  1  0.45765900  0.50000000  0.75000000  1
  Ni  Ni7  1  0.44993100  0.75000000  0.52027500  1
  Ni  Ni8  1  0.00000000  0.50000000  0.00000000  1
  Ni  Ni9  1  0.45765900  0.00000000  0.75000000  1
  Ni  Ni10  1  0.54234100  0.50000000  0.25000000  1
  Ni  Ni11  1  0.00000000  0.50000000  0.50000000  1
  Ni  Ni12  1  0.55006900  0.75000000  0.02027500  1
  Ni  Ni13  1  0.00000000  0.00000000  0.50000000  1
  Ni  Ni14  1  0.00000000  0.00000000  0.00000000  1
  Ni  Ni15  1  0.55006900  0.25000000  0.47972500  1
  Cu  Cu16  1  0.37890400  0.05058400  0.94422100  1
  Cu  Cu17  1  0.62109600  0.44941600  0.44422100  1
  Cu  Cu18  1  0.37890400  0.94941600  0.55577900  1
  Cu  Cu19  1  0.37890400  0.55058400  0.55577900  1
  Cu  Cu20  1  0.62109600  0.55058400  0.05577900  1
  Cu  Cu21  1  0.37890400  0.44941600  0.94422100  1
  Cu  Cu22  1  0.62109600  0.94941600  0.05577900  1
  Cu  Cu23  1  0.62109600  0.05058400  0.44422100  1
  C  C24  1  0.89616300  0.25000000  0.99687000  1
  C  C25  1  0.54711400  0.25000000  0.70445800  1
  C  C26  1  0.09751200  0.50000000  0.25000000  1
  C  C27  1  0.90248800  0.00000000  0.75000000  1
  C  C28  1  0.90248800  0.50000000  0.75000000  1
  C  C29  1  0.09751200  0.00000000  0.25000000  1
  C  C30  1  0.54711400  0.75000000  0.79554200  1
  C  C31  1  0.10383700  0.25000000  0.49687000  1
  C  C32  1  0.45288600  0.75000000  0.29554200  1
  C  C33  1  0.10383700  0.75000000  0.00313000  1
  C  C34  1  0.89616300  0.75000000  0.50313000  1
  C  C35  1  0.45288600  0.25000000  0.20445800  1
