# generated using pymatgen
data_Cu6Ni6C17
_symmetry_space_group_name_H-M   'P 1'
_cell_length_a   9.95489838
_cell_length_b   9.95489838
_cell_length_c   6.15264800
_cell_angle_alpha   90.00000000
_cell_angle_beta   90.00000000
_cell_angle_gamma   120.00000253
_symmetry_Int_Tables_number   1
_chemical_formula_structural   Cu6Ni6C17
_chemical_formula_sum   'Cu6 Ni6 C17'
_cell_volume   528.03942832
_cell_formula_units_Z   1
loop_
 _symmetry_equiv_pos_site_id
 _symmetry_equiv_pos_as_xyz
  1  'x, y, z'
loop_
 _atom_site_type_symbol
 _atom_site_label
 _atom_site_symmetry_multiplicity
 _atom_site_fract_x
 _atom_site_fract_y
 _atom_site_fract_z
 _atom_site_occupancy
  C  C0  1  0.00000000  0.00000000  0.00000000  1
  C  C1  1  0.33333300  0.66666700  0.14107500  1
  C  C2  1  0.66666700  0.33333300  0.85892500  1
  C  C3  1  0.08603300  0.39037600  0.65032400  1
  C  C4  1  0.30434400  0.91396700  0.65032400  1
  C  C5  1  0.60962400  0.69565600  0.65032400  1
  C  C6  1  0.91396700  0.60962400  0.34967600  1
  C  C7  1  0.69565600  0.08603300  0.34967600  1
  C  C8  1  0.39037600  0.30434400  0.34967600  1
  Ni  Ni9  1  0.06300400  0.28536300  0.73507400  1
  Ni  Ni10  1  0.22235900  0.93699600  0.73507400  1
  Ni  Ni11  1  0.71463700  0.77764100  0.73507400  1
  Ni  Ni12  1  0.93699600  0.71463700  0.26492600  1
  Ni  Ni13  1  0.77764100  0.06300400  0.26492600  1
  Ni  Ni14  1  0.28536300  0.22235900  0.26492600  1
  Cu  Cu15  1  0.03933900  0.17425600  0.82721200  1
  Cu  Cu16  1  0.13491700  0.96066100  0.82721200  1
  Cu  Cu17  1  0.82574400  0.86508300  0.82721200  1
  Cu  Cu18  1  0.96066100  0.82574400  0.17278800  1
  Cu  Cu19  1  0.86508300  0.03933900  0.17278800  1
  Cu  Cu20  1  0.17425600  0.13491700  0.17278800  1
  C  C21  1  0.33333300  0.66666700  0.78135700  1
  C  C22  1  0.66666700  0.33333300  0.21864300  1
  C  C23  1  0.52006700  0.62726700  0.25732600  1
  C  C24  1  0.10720000  0.47993300  0.25732600  1
  C  C25  1  0.37273300  0.89280000  0.25732600  1
  C  C26  1  0.47993300  0.37273300  0.74267400  1
  C  C27  1  0.89280000  0.52006700  0.74267400  1
  C  C28  1  0.62726700  0.10720000  0.74267400  1
