# generated using pymatgen
data_Cu2Ni2C9
_symmetry_space_group_name_H-M   'P 1'
_cell_length_a   9.90729200
_cell_length_b   8.70714100
_cell_length_c   9.28517965
_cell_angle_alpha   88.50807194
_cell_angle_beta   90.00000000
_cell_angle_gamma   90.00000000
_symmetry_Int_Tables_number   1
_chemical_formula_structural   Cu2Ni2C9
_chemical_formula_sum   'Cu8 Ni8 C36'
_cell_volume   800.70695692
_cell_formula_units_Z   4
loop_
 _symmetry_equiv_pos_site_id
 _symmetry_equiv_pos_as_xyz
  1  'x, y, z'
loop_
 _atom_site_type_symbol
 _atom_site_label
 _atom_site_symmetry_multiplicity
 _atom_site_fract_x
 _atom_site_fract_y
 _atom_site_fract_z
 _atom_site_occupancy
  C  C0  1  0.91685700  0.25327900  0.60468200  1
  C  C1  1  0.41685700  0.74672100  0.89531800  1
  C  C2  1  0.08314300  0.74672100  0.39531800  1
  C  C3  1  0.58314300  0.25327900  0.10468200  1
  Ni  Ni4  1  0.68145800  0.58405500  0.44067800  1
  Ni  Ni5  1  0.31854200  0.41594500  0.55932200  1
  Ni  Ni6  1  0.57511200  0.07391700  0.70828200  1
  Ni  Ni7  1  0.18145800  0.41594500  0.05932200  1
  Ni  Ni8  1  0.42488800  0.92608300  0.29171800  1
  Ni  Ni9  1  0.92488800  0.07391700  0.20828200  1
  Ni  Ni10  1  0.07511200  0.92608300  0.79171800  1
  Ni  Ni11  1  0.81854200  0.58405500  0.94067800  1
  Cu  Cu12  1  0.58883600  0.44161700  0.74156700  1
  Cu  Cu13  1  0.08883600  0.55838300  0.75843300  1
  Cu  Cu14  1  0.91116400  0.44161700  0.24156700  1
  Cu  Cu15  1  0.41116400  0.55838300  0.25843300  1
  Cu  Cu16  1  0.70368400  0.95215400  0.42626600  1
  Cu  Cu17  1  0.20368400  0.04784600  0.07373400  1
  Cu  Cu18  1  0.29631600  0.04784600  0.57373400  1
  Cu  Cu19  1  0.79631600  0.95215400  0.92626600  1
  C  C20  1  0.41983300  0.72556300  0.19536200  1
  C  C21  1  0.91983300  0.27443700  0.30463800  1
  C  C22  1  0.58016700  0.27443700  0.80463800  1
  C  C23  1  0.08016700  0.72556300  0.69536200  1
  C  C24  1  0.65478600  0.79646800  0.48907400  1
  C  C25  1  0.15478600  0.20353200  0.01092600  1
  C  C26  1  0.34521400  0.20353200  0.51092600  1
  C  C27  1  0.84521400  0.79646800  0.98907400  1
  C  C28  1  0.69099600  0.44611800  0.61552500  1
  C  C29  1  0.19099600  0.55388200  0.88447500  1
  C  C30  1  0.30900400  0.55388200  0.38447500  1
  C  C31  1  0.80900400  0.44611800  0.11552500  1
  C  C32  1  0.69713600  0.07571200  0.54481900  1
  C  C33  1  0.19713600  0.92428800  0.95518100  1
  C  C34  1  0.30286400  0.92428800  0.45518100  1
  C  C35  1  0.80286400  0.07571200  0.04481900  1
  C  C36  1  0.86719700  0.54461500  0.36869900  1
  C  C37  1  0.36719700  0.45538500  0.13130100  1
  C  C38  1  0.13280300  0.45538500  0.63130100  1
  C  C39  1  0.63280300  0.54461500  0.86869900  1
  C  C40  1  0.89014600  0.00691200  0.79927200  1
  C  C41  1  0.39014600  0.99308800  0.70072800  1
  C  C42  1  0.10985400  0.99308800  0.20072800  1
  C  C43  1  0.60985400  0.00691200  0.29927200  1
  C  C44  1  0.94915200  0.49441800  0.80646500  1
  C  C45  1  0.44915200  0.50558200  0.69353500  1
  C  C46  1  0.05084800  0.50558200  0.19353500  1
  C  C47  1  0.55084800  0.49441800  0.30646500  1
  C  C48  1  0.64693400  0.94413200  0.87360400  1
  C  C49  1  0.14693400  0.05586800  0.62639600  1
  C  C50  1  0.35306600  0.05586800  0.12639600  1
  C  C51  1  0.85306600  0.94413200  0.37360400  1
