# generated using pymatgen
data_Cu2Ni3
_symmetry_space_group_name_H-M   'P 1'
_cell_length_a   11.91786100
_cell_length_b   11.91786100
_cell_length_c   23.87169300
_cell_angle_alpha   90.00000000
_cell_angle_beta   90.00000000
_cell_angle_gamma   90.00000000
_symmetry_Int_Tables_number   1
_chemical_formula_structural   Cu2Ni3
_chemical_formula_sum   'Cu64 Ni96'
_cell_volume   3390.62572211
_cell_formula_units_Z   32
loop_
 _symmetry_equiv_pos_site_id
 _symmetry_equiv_pos_as_xyz
  1  'x, y, z'
loop_
 _atom_site_type_symbol
 _atom_site_label
 _atom_site_symmetry_multiplicity
 _atom_site_fract_x
 _atom_site_fract_y
 _atom_site_fract_z
 _atom_site_occupancy
  Ni  Ni0  1  0.13730900  0.89133200  0.07087800  1
  Ni  Ni1  1  0.63839400  0.86164100  0.55461700  1
  Ni  Ni2  1  0.39534000  0.62645800  0.93747500  1
  Ni  Ni3  1  0.36164100  0.36160600  0.94538300  1
  Ni  Ni4  1  0.85965400  0.14010800  0.19564000  1
  Ni  Ni5  1  0.88654600  0.63260200  0.32016200  1
  Ni  Ni6  1  0.14034600  0.64010800  0.19564000  1
  Ni  Ni7  1  0.36269100  0.89133200  0.92912200  1
  Ni  Ni8  1  0.87354200  0.39534000  0.43747500  1
  Ni  Ni9  1  0.12645800  0.60466000  0.56252500  1
  Ni  Ni10  1  0.37354200  0.60466000  0.43747500  1
  Ni  Ni11  1  0.63730900  0.10866800  0.07087800  1
  Ni  Ni12  1  0.13839400  0.13835900  0.55461700  1
  Ni  Ni13  1  0.63730900  0.39133200  0.92912200  1
  Ni  Ni14  1  0.10466000  0.87354200  0.93747500  1
  Ni  Ni15  1  0.87008800  0.89631800  0.31203600  1
  Ni  Ni16  1  0.10466000  0.62645800  0.06252500  1
  Ni  Ni17  1  0.89534000  0.37354200  0.93747500  1
  Ni  Ni18  1  0.62645800  0.39534000  0.56252500  1
  Ni  Ni19  1  0.60866800  0.36269100  0.42912200  1
  Ni  Ni20  1  0.35989200  0.64034600  0.30436000  1
  Ni  Ni21  1  0.86739800  0.88654600  0.82016200  1
  Ni  Ni22  1  0.12991200  0.39631800  0.31203600  1
  Ni  Ni23  1  0.35965400  0.64010800  0.80436000  1
  Ni  Ni24  1  0.63839400  0.63835900  0.44538300  1
  Ni  Ni25  1  0.13839400  0.36164100  0.44538300  1
  Ni  Ni26  1  0.39631800  0.37008800  0.81203600  1
  Ni  Ni27  1  0.88654600  0.86739800  0.67983800  1
  Ni  Ni28  1  0.89534000  0.12645800  0.06252500  1
  Ni  Ni29  1  0.11345400  0.36739800  0.67983800  1
  Ni  Ni30  1  0.86269100  0.39133200  0.07087800  1
  Ni  Ni31  1  0.63835900  0.86160600  0.94538300  1
  Ni  Ni32  1  0.35965400  0.85989200  0.19564000  1
  Ni  Ni33  1  0.64010800  0.35965400  0.69564000  1
  Ni  Ni34  1  0.36269100  0.60866800  0.07087800  1
  Ni  Ni35  1  0.35989200  0.85965400  0.69564000  1
  Ni  Ni36  1  0.10866800  0.86269100  0.57087800  1
  Ni  Ni37  1  0.14034600  0.85989200  0.80436000  1
  Ni  Ni38  1  0.87008800  0.60368200  0.68796400  1
  Ni  Ni39  1  0.13835900  0.13839400  0.94538300  1
  Ni  Ni40  1  0.89631800  0.62991200  0.81203600  1
  Ni  Ni41  1  0.13260200  0.11345400  0.17983800  1
  Ni  Ni42  1  0.60368200  0.87008800  0.81203600  1
  Ni  Ni43  1  0.14010800  0.85965400  0.30436000  1
  Ni  Ni44  1  0.39534000  0.87354200  0.06252500  1
  Ni  Ni45  1  0.89133200  0.13730900  0.42912200  1
  Ni  Ni46  1  0.85989200  0.35965400  0.30436000  1
  Ni  Ni47  1  0.86160600  0.86164100  0.44538300  1
  Ni  Ni48  1  0.85965400  0.35989200  0.80436000  1
  Ni  Ni49  1  0.62991200  0.60368200  0.31203600  1
  Ni  Ni50  1  0.86160600  0.63835900  0.55461700  1
  Ni  Ni51  1  0.13835900  0.36160600  0.05461700  1
  Ni  Ni52  1  0.62645800  0.10466000  0.43747500  1
  Ni  Ni53  1  0.89631800  0.87008800  0.18796400  1
  Ni  Ni54  1  0.10866800  0.63730900  0.42912200  1
  Ni  Ni55  1  0.36160600  0.36164100  0.55461700  1
  Ni  Ni56  1  0.61345400  0.63260200  0.67983800  1
  Ni  Ni57  1  0.86739800  0.61345400  0.17983800  1
  Ni  Ni58  1  0.60466000  0.12645800  0.93747500  1
  Ni  Ni59  1  0.36739800  0.11345400  0.82016200  1
  Ni  Ni60  1  0.86269100  0.10866800  0.92912200  1
  Ni  Ni61  1  0.60466000  0.37354200  0.06252500  1
  Ni  Ni62  1  0.13730900  0.60866800  0.92912200  1
  Ni  Ni63  1  0.89133200  0.36269100  0.57087800  1
  Ni  Ni64  1  0.11345400  0.13260200  0.32016200  1
  Ni  Ni65  1  0.13260200  0.38654600  0.82016200  1
  Ni  Ni66  1  0.86164100  0.86160600  0.05461700  1
  Ni  Ni67  1  0.64034600  0.35989200  0.19564000  1
  Ni  Ni68  1  0.63835900  0.63839400  0.05461700  1
  Ni  Ni69  1  0.14010800  0.64034600  0.69564000  1
  Ni  Ni70  1  0.37008800  0.39631800  0.68796400  1
  Ni  Ni71  1  0.37008800  0.10368200  0.31203600  1
  Ni  Ni72  1  0.37354200  0.89534000  0.56252500  1
  Ni  Ni73  1  0.38654600  0.13260200  0.67983800  1
  Ni  Ni74  1  0.60368200  0.62991200  0.18796400  1
  Ni  Ni75  1  0.36164100  0.13839400  0.05461700  1
  Ni  Ni76  1  0.12645800  0.89534000  0.43747500  1
  Ni  Ni77  1  0.87354200  0.10466000  0.56252500  1
  Ni  Ni78  1  0.62991200  0.89631800  0.68796400  1
  Ni  Ni79  1  0.60866800  0.13730900  0.57087800  1
  Ni  Ni80  1  0.64034600  0.14010800  0.80436000  1
  Ni  Ni81  1  0.85989200  0.14034600  0.69564000  1
  Ni  Ni82  1  0.39133200  0.63730900  0.57087800  1
  Ni  Ni83  1  0.39631800  0.12991200  0.18796400  1
  Ni  Ni84  1  0.38654600  0.36739800  0.32016200  1
  Ni  Ni85  1  0.64010800  0.14034600  0.30436000  1
  Ni  Ni86  1  0.61345400  0.86739800  0.32016200  1
  Ni  Ni87  1  0.86164100  0.63839400  0.94538300  1
  Ni  Ni88  1  0.36160600  0.13835900  0.44538300  1
  Ni  Ni89  1  0.36739800  0.38654600  0.17983800  1
  Ni  Ni90  1  0.10368200  0.12991200  0.81203600  1
  Ni  Ni91  1  0.10368200  0.37008800  0.18796400  1
  Ni  Ni92  1  0.63260200  0.61345400  0.82016200  1
  Ni  Ni93  1  0.12991200  0.10368200  0.68796400  1
  Ni  Ni94  1  0.39133200  0.86269100  0.42912200  1
  Ni  Ni95  1  0.63260200  0.88654600  0.17983800  1
  Cu  Cu96  1  0.75526700  0.99868100  0.75247100  1
  Cu  Cu97  1  0.25000000  0.75000000  0.62458600  1
  Cu  Cu98  1  0.50059000  0.75000000  0.00000000  1
  Cu  Cu99  1  0.00118500  0.00453600  0.62543700  1
  Cu  Cu100  1  0.49546400  0.00118500  0.12543700  1
  Cu  Cu101  1  0.99736800  0.25000000  0.50000000  1
  Cu  Cu102  1  0.99868100  0.74473300  0.25247100  1
  Cu  Cu103  1  0.49868100  0.25526700  0.25247100  1
  Cu  Cu104  1  0.25000000  0.25000000  0.62520900  1
  Cu  Cu105  1  0.75000000  0.99941000  0.50000000  1
  Cu  Cu106  1  0.24473300  0.00131900  0.24752900  1
  Cu  Cu107  1  0.49736800  0.75000000  0.50000000  1
  Cu  Cu108  1  0.00059000  0.25000000  0.00000000  1
  Cu  Cu109  1  0.99546400  0.50118500  0.87456300  1
  Cu  Cu110  1  0.25000000  0.99736800  0.00000000  1
  Cu  Cu111  1  0.75000000  0.25000000  0.62458600  1
  Cu  Cu112  1  0.25000000  0.49941000  0.50000000  1
  Cu  Cu113  1  0.49881500  0.00453600  0.37456300  1
  Cu  Cu114  1  0.74473300  0.50131900  0.75247100  1
  Cu  Cu115  1  0.99868100  0.75526700  0.74752900  1
  Cu  Cu116  1  0.99546400  0.99881500  0.12543700  1
  Cu  Cu117  1  0.25526700  0.00131900  0.75247100  1
  Cu  Cu118  1  0.00263200  0.75000000  0.50000000  1
  Cu  Cu119  1  0.49881500  0.49546400  0.62543700  1
  Cu  Cu120  1  0.75000000  0.75000000  0.62520900  1
  Cu  Cu121  1  0.25000000  0.50263200  0.00000000  1
  Cu  Cu122  1  0.99941000  0.75000000  0.00000000  1
  Cu  Cu123  1  0.25000000  0.25000000  0.87479100  1
  Cu  Cu124  1  0.25000000  0.00059000  0.50000000  1
  Cu  Cu125  1  0.75000000  0.75000000  0.37479100  1
  Cu  Cu126  1  0.24473300  0.49868100  0.75247100  1
  Cu  Cu127  1  0.75000000  0.49736800  0.00000000  1
  Cu  Cu128  1  0.75000000  0.50059000  0.50000000  1
  Cu  Cu129  1  0.00118500  0.49546400  0.37456300  1
  Cu  Cu130  1  0.00453600  0.00118500  0.87456300  1
  Cu  Cu131  1  0.75000000  0.75000000  0.87479100  1
  Cu  Cu132  1  0.00131900  0.24473300  0.25247100  1
  Cu  Cu133  1  0.99881500  0.99546400  0.37456300  1
  Cu  Cu134  1  0.50131900  0.75526700  0.25247100  1
  Cu  Cu135  1  0.75000000  0.25000000  0.37541400  1
  Cu  Cu136  1  0.25000000  0.75000000  0.37541400  1
  Cu  Cu137  1  0.49546400  0.49881500  0.87456300  1
  Cu  Cu138  1  0.50453600  0.50118500  0.12543700  1
  Cu  Cu139  1  0.99881500  0.50453600  0.62543700  1
  Cu  Cu140  1  0.50453600  0.99881500  0.87456300  1
  Cu  Cu141  1  0.25526700  0.49868100  0.24752900  1
  Cu  Cu142  1  0.25000000  0.75000000  0.87541400  1
  Cu  Cu143  1  0.74473300  0.99868100  0.24752900  1
  Cu  Cu144  1  0.50131900  0.74473300  0.74752900  1
  Cu  Cu145  1  0.75000000  0.25000000  0.12458600  1
  Cu  Cu146  1  0.75000000  0.25000000  0.87541400  1
  Cu  Cu147  1  0.50118500  0.99546400  0.62543700  1
  Cu  Cu148  1  0.49868100  0.24473300  0.74752900  1
  Cu  Cu149  1  0.00453600  0.49881500  0.12543700  1
  Cu  Cu150  1  0.75000000  0.00263200  0.00000000  1
  Cu  Cu151  1  0.75000000  0.75000000  0.12520900  1
  Cu  Cu152  1  0.25000000  0.25000000  0.12520900  1
  Cu  Cu153  1  0.00131900  0.25526700  0.74752900  1
  Cu  Cu154  1  0.50118500  0.50453600  0.37456300  1
  Cu  Cu155  1  0.49941000  0.25000000  0.00000000  1
  Cu  Cu156  1  0.75526700  0.50131900  0.24752900  1
  Cu  Cu157  1  0.25000000  0.75000000  0.12458600  1
  Cu  Cu158  1  0.25000000  0.25000000  0.37479100  1
  Cu  Cu159  1  0.50263200  0.25000000  0.50000000  1
