# generated using pymatgen
data_Cu16NiC20
_symmetry_space_group_name_H-M   'P 1'
_cell_length_a   12.25946900
_cell_length_b   12.34484800
_cell_length_c   17.28741100
_cell_angle_alpha   90.00000000
_cell_angle_beta   90.00000000
_cell_angle_gamma   90.00000000
_symmetry_Int_Tables_number   1
_chemical_formula_structural   Cu16NiC20
_chemical_formula_sum   'Cu64 Ni4 C80'
_cell_volume   2616.29893224
_cell_formula_units_Z   4
loop_
 _symmetry_equiv_pos_site_id
 _symmetry_equiv_pos_as_xyz
  1  'x, y, z'
loop_
 _atom_site_type_symbol
 _atom_site_label
 _atom_site_symmetry_multiplicity
 _atom_site_fract_x
 _atom_site_fract_y
 _atom_site_fract_z
 _atom_site_occupancy
  C  C0  1  0.23273400  0.93302400  0.01019100  1
  C  C1  1  0.93712100  0.26818900  0.17745800  1
  C  C2  1  0.73273400  0.43302400  0.98980900  1
  C  C3  1  0.43712100  0.76818900  0.82254200  1
  C  C4  1  0.93712100  0.23181100  0.67745800  1
  C  C5  1  0.76726600  0.06697600  0.98980900  1
  C  C6  1  0.56287900  0.26818900  0.67745800  1
  C  C7  1  0.26726600  0.93302400  0.51019100  1
  C  C8  1  0.26726600  0.56697600  0.01019100  1
  C  C9  1  0.06287900  0.76818900  0.32254200  1
  C  C10  1  0.43712100  0.73181100  0.32254200  1
  C  C11  1  0.56287900  0.23181100  0.17745800  1
  C  C12  1  0.73273400  0.06697600  0.48980900  1
  C  C13  1  0.76726600  0.43302400  0.48980900  1
  C  C14  1  0.23273400  0.56697600  0.51019100  1
  C  C15  1  0.06287900  0.73181100  0.82254200  1
  Ni  Ni16  1  0.75000000  0.25000000  0.58450900  1
  Ni  Ni17  1  0.75000000  0.25000000  0.08450900  1
  Ni  Ni18  1  0.25000000  0.75000000  0.91549100  1
  Ni  Ni19  1  0.25000000  0.75000000  0.41549100  1
  Cu  Cu20  1  0.27761200  0.49533900  0.42652300  1
  Cu  Cu21  1  0.28242900  0.04870200  0.56827800  1
  Cu  Cu22  1  0.83342600  0.37033400  0.93084600  1
  Cu  Cu23  1  0.64652600  0.35255900  0.73586400  1
  Cu  Cu24  1  0.44620900  0.27781100  0.73681800  1
  Cu  Cu25  1  0.40486000  0.60968500  0.01930200  1
  Cu  Cu26  1  0.77761200  0.50466100  0.07347700  1
  Cu  Cu27  1  0.93213000  0.37555800  0.68093800  1
  Cu  Cu28  1  0.14652600  0.85255900  0.26413600  1
  Cu  Cu29  1  0.72238800  0.99533900  0.07347700  1
  Cu  Cu30  1  0.56787000  0.37555800  0.18093800  1
  Cu  Cu31  1  0.66657400  0.37033400  0.43084600  1
  Cu  Cu32  1  0.22238800  0.49533900  0.92652300  1
  Cu  Cu33  1  0.56787000  0.12444200  0.68093800  1
  Cu  Cu34  1  0.64652600  0.14744100  0.23586400  1
  Cu  Cu35  1  0.78242900  0.95129800  0.93172200  1
  Cu  Cu36  1  0.05379100  0.22218900  0.73681800  1
  Cu  Cu37  1  0.33342600  0.87033400  0.06915400  1
  Cu  Cu38  1  0.33342600  0.62966600  0.56915400  1
  Cu  Cu39  1  0.85347400  0.14744100  0.73586400  1
  Cu  Cu40  1  0.06787000  0.62444200  0.31906200  1
  Cu  Cu41  1  0.59514000  0.10968500  0.48069800  1
  Cu  Cu42  1  0.40486000  0.89031500  0.51930200  1
  Cu  Cu43  1  0.99542000  0.32935800  0.09447200  1
  Cu  Cu44  1  0.99542000  0.17064200  0.59447200  1
  Cu  Cu45  1  0.00458000  0.67064300  0.90552800  1
  Cu  Cu46  1  0.43213000  0.87555800  0.31906200  1
  Cu  Cu47  1  0.93213000  0.12444200  0.18093800  1
  Cu  Cu48  1  0.50458000  0.32935800  0.59447200  1
  Cu  Cu49  1  0.14652600  0.64744100  0.76413600  1
  Cu  Cu50  1  0.00458000  0.82935700  0.40552800  1
  Cu  Cu51  1  0.16657400  0.62966600  0.06915400  1
  Cu  Cu52  1  0.22238800  0.00466100  0.42652300  1
  Cu  Cu53  1  0.16657400  0.87033400  0.56915400  1
  Cu  Cu54  1  0.05379100  0.27781100  0.23681800  1
  Cu  Cu55  1  0.28242900  0.45129800  0.06827800  1
  Cu  Cu56  1  0.94620900  0.72218900  0.76318200  1
  Cu  Cu57  1  0.43213000  0.62444200  0.81906200  1
  Cu  Cu58  1  0.85347400  0.35255900  0.23586400  1
  Cu  Cu59  1  0.50458000  0.17064200  0.09447200  1
  Cu  Cu60  1  0.21757100  0.45129800  0.56827800  1
  Cu  Cu61  1  0.71757100  0.54870200  0.93172200  1
  Cu  Cu62  1  0.90486000  0.39031500  0.48069800  1
  Cu  Cu63  1  0.78242900  0.54870200  0.43172200  1
  Cu  Cu64  1  0.35347400  0.64744100  0.26413600  1
  Cu  Cu65  1  0.55379100  0.77781100  0.76318200  1
  Cu  Cu66  1  0.27761200  0.00466100  0.92652300  1
  Cu  Cu67  1  0.49542000  0.82935700  0.90552800  1
  Cu  Cu68  1  0.71757100  0.95129800  0.43172200  1
  Cu  Cu69  1  0.90486000  0.10968500  0.98069800  1
  Cu  Cu70  1  0.94620900  0.77781100  0.26318200  1
  Cu  Cu71  1  0.72238800  0.50466100  0.57347700  1
  Cu  Cu72  1  0.09514000  0.89031500  0.01930200  1
  Cu  Cu73  1  0.09514000  0.60968500  0.51930200  1
  Cu  Cu74  1  0.06787000  0.87555800  0.81906200  1
  Cu  Cu75  1  0.55379100  0.72218900  0.26318200  1
  Cu  Cu76  1  0.44620900  0.22218900  0.23681800  1
  Cu  Cu77  1  0.77761200  0.99533900  0.57347700  1
  Cu  Cu78  1  0.66657400  0.12966600  0.93084600  1
  Cu  Cu79  1  0.83342600  0.12966600  0.43084600  1
  Cu  Cu80  1  0.21757100  0.04870200  0.06827800  1
  Cu  Cu81  1  0.49542000  0.67064300  0.40552800  1
  Cu  Cu82  1  0.35347400  0.85255900  0.76413600  1
  Cu  Cu83  1  0.59514000  0.39031500  0.98069800  1
  C  C84  1  0.86990900  0.78453700  0.22445100  1
  C  C85  1  0.13009100  0.28453700  0.27554900  1
  C  C86  1  0.63009100  0.71546300  0.22445100  1
  C  C87  1  0.30540000  0.58967500  0.22357600  1
  C  C88  1  0.19404200  0.05784400  0.37508300  1
  C  C89  1  0.05993900  0.96911800  0.81517300  1
  C  C90  1  0.94006100  0.03088200  0.18482700  1
  C  C91  1  0.19404200  0.44215600  0.87508300  1
  C  C92  1  0.20655000  0.12483000  0.10645300  1
  C  C93  1  0.55993900  0.03088200  0.68482700  1
  C  C94  1  0.39901000  0.83803800  0.11165900  1
  C  C95  1  0.10099000  0.66196200  0.11165900  1
  C  C96  1  0.36990900  0.28453700  0.77554900  1
  C  C97  1  0.89901000  0.33803800  0.88834100  1
  C  C98  1  0.46060900  0.12790300  0.04345000  1
  C  C99  1  0.20655000  0.37517000  0.60645300  1
  C  C100  1  0.53939100  0.87209700  0.95655000  1
  C  C101  1  0.46060900  0.37209700  0.54345000  1
  C  C102  1  0.69404200  0.94215600  0.12491700  1
  C  C103  1  0.80595800  0.55784400  0.12491700  1
  C  C104  1  0.49579200  0.86860400  0.52998300  1
  C  C105  1  0.79345000  0.62483000  0.39354700  1
  C  C106  1  0.89901000  0.16196200  0.38834100  1
  C  C107  1  0.29345000  0.37517000  0.10645300  1
  C  C108  1  0.79345000  0.87517000  0.89354700  1
  C  C109  1  0.69404200  0.55784400  0.62491700  1
  C  C110  1  0.94006100  0.46911800  0.68482700  1
  C  C111  1  0.50420800  0.36860400  0.97001700  1
  C  C112  1  0.00420800  0.63139600  0.52998300  1
  C  C113  1  0.49579200  0.63139600  0.02998300  1
  C  C114  1  0.80540000  0.41032500  0.27642400  1
  C  C115  1  0.05993900  0.53088200  0.31517300  1
  C  C116  1  0.55993900  0.46911800  0.18482700  1
  C  C117  1  0.00420800  0.86860400  0.02998300  1
  C  C118  1  0.80595800  0.94215600  0.62491700  1
  C  C119  1  0.30595800  0.44215600  0.37508300  1
  C  C120  1  0.44006100  0.53088200  0.81517300  1
  C  C121  1  0.10099000  0.83803800  0.61165900  1
  C  C122  1  0.70655000  0.87517000  0.39354700  1
  C  C123  1  0.44006100  0.96911800  0.31517300  1
  C  C124  1  0.29345000  0.12483000  0.60645300  1
  C  C125  1  0.60099000  0.33803800  0.38834100  1
  C  C126  1  0.13009100  0.21546300  0.77554900  1
  C  C127  1  0.63009100  0.78453700  0.72445100  1
  C  C128  1  0.86990900  0.71546300  0.72445100  1
  C  C129  1  0.03939100  0.12790300  0.54345000  1
  C  C130  1  0.19460000  0.58967500  0.72357600  1
  C  C131  1  0.69460000  0.41032500  0.77642400  1
  C  C132  1  0.03939100  0.37209700  0.04345000  1
  C  C133  1  0.80540000  0.08967500  0.77642400  1
  C  C134  1  0.70655000  0.62483000  0.89354700  1
  C  C135  1  0.99579200  0.36860400  0.47001700  1
  C  C136  1  0.60099000  0.16196200  0.88834100  1
  C  C137  1  0.96060900  0.62790300  0.95655000  1
  C  C138  1  0.96060900  0.87209700  0.45655000  1
  C  C139  1  0.19460000  0.91032500  0.22357600  1
  C  C140  1  0.99579200  0.13139600  0.97001700  1
  C  C141  1  0.39901000  0.66196200  0.61165900  1
  C  C142  1  0.30595800  0.05784400  0.87508300  1
  C  C143  1  0.36990900  0.21546300  0.27554900  1
  C  C144  1  0.30540000  0.91032500  0.72357600  1
  C  C145  1  0.69460000  0.08967500  0.27642400  1
  C  C146  1  0.50420800  0.13139600  0.47001700  1
  C  C147  1  0.53939100  0.62790300  0.45655000  1
