# generated using pymatgen
data_CuNiC6
_symmetry_space_group_name_H-M   'P 1'
_cell_length_a   8.65153900
_cell_length_b   6.59708800
_cell_length_c   14.88120209
_cell_angle_alpha   67.94975069
_cell_angle_beta   90.00000000
_cell_angle_gamma   90.00000000
_symmetry_Int_Tables_number   1
_chemical_formula_structural   CuNiC6
_chemical_formula_sum   'Cu8 Ni8 C48'
_cell_volume   787.21877080
_cell_formula_units_Z   8
loop_
 _symmetry_equiv_pos_site_id
 _symmetry_equiv_pos_as_xyz
  1  'x, y, z'
loop_
 _atom_site_type_symbol
 _atom_site_label
 _atom_site_symmetry_multiplicity
 _atom_site_fract_x
 _atom_site_fract_y
 _atom_site_fract_z
 _atom_site_occupancy
  C  C0  1  0.65507800  0.03674500  0.69580800  1
  C  C1  1  0.84492200  0.03674500  0.19580800  1
  C  C2  1  0.15507800  0.96325500  0.80419200  1
  C  C3  1  0.34492200  0.96325500  0.30419200  1
  C  C4  1  0.73864500  0.33457800  0.41114600  1
  C  C5  1  0.23864500  0.66542200  0.08885400  1
  C  C6  1  0.76135500  0.33457800  0.91114600  1
  C  C7  1  0.26135500  0.66542200  0.58885400  1
  Ni  Ni8  1  0.54469100  0.03482600  0.07332400  1
  Ni  Ni9  1  0.04469100  0.96517400  0.42667600  1
  Ni  Ni10  1  0.46889400  0.73325000  0.92189500  1
  Ni  Ni11  1  0.45530900  0.96517400  0.92667600  1
  Ni  Ni12  1  0.96889400  0.26675000  0.57810500  1
  Ni  Ni13  1  0.95530900  0.03482600  0.57332400  1
  Ni  Ni14  1  0.53110600  0.26675000  0.07810500  1
  Ni  Ni15  1  0.03110600  0.73325000  0.42189500  1
  Cu  Cu16  1  0.97076900  0.63157900  0.73211900  1
  Cu  Cu17  1  0.02923100  0.36842100  0.26788100  1
  Cu  Cu18  1  0.96618200  0.41209900  0.71978500  1
  Cu  Cu19  1  0.03381800  0.58790100  0.28021500  1
  Cu  Cu20  1  0.46618200  0.58790100  0.78021500  1
  Cu  Cu21  1  0.52923100  0.63157900  0.23211900  1
  Cu  Cu22  1  0.53381800  0.41209900  0.21978500  1
  Cu  Cu23  1  0.47076900  0.36842100  0.76788100  1
  C  C24  1  0.16292600  0.25656300  0.97771400  1
  C  C25  1  0.66292600  0.74343700  0.52228600  1
  C  C26  1  0.33707400  0.25656300  0.47771400  1
  C  C27  1  0.83707400  0.74343700  0.02228600  1
  C  C28  1  0.77067100  0.95534300  0.95567600  1
  C  C29  1  0.44344500  0.77879100  0.17315400  1
  C  C30  1  0.76706300  0.56347300  0.99827500  1
  C  C31  1  0.73293700  0.56347300  0.49827500  1
  C  C32  1  0.89272100  0.64938700  0.80055900  1
  C  C33  1  0.05655500  0.77879100  0.67315400  1
  C  C34  1  0.44426800  0.39193900  0.15543800  1
  C  C35  1  0.90631500  0.17985200  0.54954300  1
  C  C36  1  0.94344500  0.22120900  0.32684600  1
  C  C37  1  0.10727900  0.35061300  0.19944100  1
  C  C38  1  0.69529000  0.70977600  0.62399400  1
  C  C39  1  0.12330000  0.73247100  0.22511100  1
  C  C40  1  0.39272100  0.35061300  0.69944100  1
  C  C41  1  0.99128200  0.25251500  0.99388100  1
  C  C42  1  0.59368500  0.17985200  0.04954300  1
  C  C43  1  0.37670000  0.73247100  0.72511100  1
  C  C44  1  0.62330000  0.26752900  0.27488900  1
  C  C45  1  0.80471000  0.70977600  0.12399400  1
  C  C46  1  0.09368500  0.82014800  0.45045700  1
  C  C47  1  0.30471000  0.29022400  0.37600600  1
  C  C48  1  0.94426800  0.60806100  0.34456200  1
  C  C49  1  0.60727900  0.64938700  0.30055900  1
  C  C50  1  0.26706300  0.43652700  0.50172500  1
  C  C51  1  0.72932900  0.95534300  0.45567600  1
  C  C52  1  0.05573200  0.39193900  0.65543800  1
  C  C53  1  0.55573200  0.60806100  0.84456200  1
  C  C54  1  0.23293700  0.43652700  0.00172500  1
  C  C55  1  0.27067100  0.04465700  0.54432400  1
  C  C56  1  0.87670000  0.26752900  0.77488900  1
  C  C57  1  0.50871800  0.25251500  0.49388100  1
  C  C58  1  0.00871800  0.74748500  0.00611900  1
  C  C59  1  0.22932900  0.04465700  0.04432400  1
  C  C60  1  0.19529000  0.29022400  0.87600600  1
  C  C61  1  0.40631500  0.82014800  0.95045700  1
  C  C62  1  0.55655500  0.22120900  0.82684600  1
  C  C63  1  0.49128200  0.74748500  0.50611900  1
