# generated using pymatgen
data_Cu11Ni4C5
_symmetry_space_group_name_H-M   'P 1'
_cell_length_a   23.85082400
_cell_length_b   8.16189800
_cell_length_c   22.07708525
_cell_angle_alpha   79.55940384
_cell_angle_beta   90.00000000
_cell_angle_gamma   90.00000000
_symmetry_Int_Tables_number   1
_chemical_formula_structural   Cu11Ni4C5
_chemical_formula_sum   'Cu88 Ni32 C40'
_cell_volume   4226.54619301
_cell_formula_units_Z   8
loop_
 _symmetry_equiv_pos_site_id
 _symmetry_equiv_pos_as_xyz
  1  'x, y, z'
loop_
 _atom_site_type_symbol
 _atom_site_label
 _atom_site_symmetry_multiplicity
 _atom_site_fract_x
 _atom_site_fract_y
 _atom_site_fract_z
 _atom_site_occupancy
  Ni  Ni0  1  0.73143900  0.65643900  0.43835000  1
  Ni  Ni1  1  0.23143900  0.84356100  0.06165000  1
  Ni  Ni2  1  0.62035600  0.62063300  0.01513800  1
  Ni  Ni3  1  0.06226900  0.36210000  0.96911400  1
  Ni  Ni4  1  0.71623100  0.56605100  0.61336400  1
  Ni  Ni5  1  0.04382100  0.48296900  0.79042800  1
  Ni  Ni6  1  0.60464100  0.94440000  0.37596100  1
  Ni  Ni7  1  0.10464100  0.55560000  0.12403900  1
  Ni  Ni8  1  0.12035600  0.87936700  0.48486200  1
  Ni  Ni9  1  0.87964400  0.12063300  0.51513800  1
  Ni  Ni10  1  0.46532100  0.48113400  0.28172300  1
  Ni  Ni11  1  0.93773100  0.63790000  0.03088600  1
  Ni  Ni12  1  0.96532100  0.01886600  0.21827700  1
  Ni  Ni13  1  0.53467900  0.51886600  0.71827700  1
  Ni  Ni14  1  0.56226900  0.13790000  0.53088600  1
  Ni  Ni15  1  0.43773100  0.86210000  0.46911400  1
  Ni  Ni16  1  0.45617900  0.98296900  0.29042800  1
  Ni  Ni17  1  0.30952700  0.93764500  0.36953800  1
  Ni  Ni18  1  0.95617900  0.51703100  0.20957200  1
  Ni  Ni19  1  0.80952700  0.56235500  0.13046200  1
  Ni  Ni20  1  0.19047300  0.43764500  0.86953800  1
  Ni  Ni21  1  0.69047300  0.06235500  0.63046200  1
  Ni  Ni22  1  0.76856100  0.15643900  0.93835000  1
  Ni  Ni23  1  0.54382100  0.01703100  0.70957200  1
  Ni  Ni24  1  0.26856100  0.34356100  0.56165000  1
  Ni  Ni25  1  0.39535900  0.05560000  0.62403900  1
  Ni  Ni26  1  0.03467900  0.98113400  0.78172300  1
  Ni  Ni27  1  0.28376900  0.43394900  0.38663600  1
  Ni  Ni28  1  0.78376900  0.06605100  0.11336400  1
  Ni  Ni29  1  0.37964400  0.37936700  0.98486200  1
  Ni  Ni30  1  0.89535900  0.44440000  0.87596100  1
  Ni  Ni31  1  0.21623100  0.93394900  0.88663600  1
  C  C32  1  0.83978200  0.28177900  0.69182700  1
  C  C33  1  0.06959500  0.89721000  0.95301000  1
  C  C34  1  0.67751900  0.73018700  0.79130800  1
  C  C35  1  0.93040500  0.10279000  0.04699000  1
  C  C36  1  0.83864600  0.77410800  0.69353000  1
  C  C37  1  0.66135400  0.27410800  0.19353000  1
  C  C38  1  0.56959500  0.60279000  0.54699000  1
  C  C39  1  0.50023100  0.17953900  0.87718100  1
  C  C40  1  0.09493500  0.07214400  0.13107300  1
  C  C41  1  0.23302000  0.35665900  0.04037900  1
  C  C42  1  0.16135400  0.22589200  0.30647000  1
  C  C43  1  0.26698000  0.85665900  0.54037900  1
  C  C44  1  0.32248100  0.26981300  0.20869200  1
  C  C45  1  0.99984000  0.18694700  0.38870200  1
  C  C46  1  0.49976900  0.82046100  0.12281900  1
  C  C47  1  0.16021800  0.71822100  0.30817300  1
  C  C48  1  0.99976900  0.67953900  0.37718100  1
  C  C49  1  0.43040500  0.39721000  0.45301000  1
  C  C50  1  0.76698000  0.64334100  0.95962100  1
  C  C51  1  0.00023100  0.32046100  0.62281900  1
  C  C52  1  0.33978200  0.21822100  0.80817300  1
  C  C53  1  0.67496500  0.22672800  0.79505800  1
  C  C54  1  0.33864600  0.72589200  0.80647000  1
  C  C55  1  0.50016000  0.68694700  0.88870200  1
  C  C56  1  0.36502400  0.88180100  0.98597500  1
  C  C57  1  0.59493500  0.42785600  0.36892700  1
  C  C58  1  0.82248100  0.23018700  0.29130800  1
  C  C59  1  0.17751900  0.76981300  0.70869200  1
  C  C60  1  0.86502400  0.61819900  0.51402500  1
  C  C61  1  0.63497600  0.11819900  0.01402500  1
  C  C62  1  0.66021800  0.78177900  0.19182700  1
  C  C63  1  0.17496500  0.27327200  0.70494200  1
  C  C64  1  0.82503500  0.72672800  0.29505800  1
  C  C65  1  0.32503500  0.77327200  0.20494200  1
  C  C66  1  0.90506500  0.92785600  0.86892700  1
  C  C67  1  0.00016000  0.81305300  0.61129800  1
  C  C68  1  0.49984000  0.31305300  0.11129800  1
  C  C69  1  0.73302000  0.14334100  0.45962100  1
  C  C70  1  0.40506500  0.57214400  0.63107300  1
  C  C71  1  0.13497600  0.38180100  0.48597500  1
  Cu  Cu72  1  0.91464300  0.55550800  0.63194000  1
  Cu  Cu73  1  0.44432100  0.14147900  0.01407300  1
  Cu  Cu74  1  0.63391700  0.37040600  0.48893800  1
  Cu  Cu75  1  0.91184100  0.97250100  0.31440600  1
  Cu  Cu76  1  0.90831400  0.06484800  0.62615000  1
  Cu  Cu77  1  0.25118100  0.48342800  0.27826400  1
  Cu  Cu78  1  0.97325100  0.75732300  0.75473700  1
  Cu  Cu79  1  0.28022400  0.68936400  0.91912900  1
  Cu  Cu80  1  0.58815900  0.47250100  0.81440600  1
  Cu  Cu81  1  0.32856400  0.28645900  0.65618700  1
  Cu  Cu82  1  0.37500200  0.73447200  0.33272800  1
  Cu  Cu83  1  0.47286200  0.26760100  0.74838300  1
  Cu  Cu84  1  0.43940700  0.60180600  0.01127800  1
  Cu  Cu85  1  0.40831400  0.43515200  0.87385000  1
  Cu  Cu86  1  0.24947100  0.98797800  0.27679000  1
  Cu  Cu87  1  0.52713800  0.73239900  0.25161700  1
  Cu  Cu88  1  0.75118100  0.01657200  0.22173600  1
  Cu  Cu89  1  0.79320900  0.44702000  0.40217900  1
  Cu  Cu90  1  0.37525500  0.18509300  0.32691800  1
  Cu  Cu91  1  0.75052900  0.01202200  0.72321000  1
  Cu  Cu92  1  0.47325100  0.74267700  0.74526300  1
  Cu  Cu93  1  0.78022400  0.81063600  0.58087100  1
  Cu  Cu94  1  0.97286200  0.23239900  0.75161700  1
  Cu  Cu95  1  0.98716400  0.17164200  0.93500700  1
  Cu  Cu96  1  0.05567900  0.64147900  0.51407300  1
  Cu  Cu97  1  0.17143600  0.78645900  0.15618700  1
  Cu  Cu98  1  0.32727400  0.81388600  0.65434600  1
  Cu  Cu99  1  0.87525500  0.31490700  0.17308200  1
  Cu  Cu100  1  0.71977600  0.31063600  0.08087100  1
  Cu  Cu101  1  0.48094500  0.85169100  0.57137200  1
  Cu  Cu102  1  0.09168600  0.93515200  0.37385000  1
  Cu  Cu103  1  0.67143600  0.71354100  0.34381300  1
  Cu  Cu104  1  0.82856400  0.21354100  0.84381300  1
  Cu  Cu105  1  0.29538300  0.60599200  0.09432600  1
  Cu  Cu106  1  0.67272600  0.18611400  0.34565400  1
  Cu  Cu107  1  0.58430000  0.96977300  0.81342700  1
  Cu  Cu108  1  0.08535700  0.44449200  0.36806000  1
  Cu  Cu109  1  0.41184100  0.52749900  0.18559400  1
  Cu  Cu110  1  0.98094500  0.64830900  0.92862800  1
  Cu  Cu111  1  0.12499800  0.23447200  0.83272800  1
  Cu  Cu112  1  0.74947100  0.51202200  0.22321000  1
  Cu  Cu113  1  0.20679100  0.55298000  0.59782100  1
  Cu  Cu114  1  0.08430000  0.53022700  0.68657300  1
  Cu  Cu115  1  0.27660200  0.15633100  0.91678300  1
  Cu  Cu116  1  0.86608300  0.87040600  0.98893800  1
  Cu  Cu117  1  0.41464300  0.94449200  0.86806000  1
  Cu  Cu118  1  0.93940700  0.89819400  0.48872200  1
  Cu  Cu119  1  0.22339800  0.65633100  0.41678300  1
  Cu  Cu120  1  0.72339800  0.84366900  0.08321700  1
  Cu  Cu121  1  0.24881900  0.98342800  0.77826400  1
  Cu  Cu122  1  0.13391700  0.12959400  0.01106200  1
  Cu  Cu123  1  0.29320900  0.05298000  0.09782100  1
  Cu  Cu124  1  0.91570000  0.46977300  0.31342700  1
  Cu  Cu125  1  0.86057700  0.38940700  0.98216300  1
  Cu  Cu126  1  0.01283600  0.82835800  0.06499300  1
  Cu  Cu127  1  0.02674900  0.24267700  0.24526300  1
  Cu  Cu128  1  0.21977600  0.18936400  0.41912900  1
  Cu  Cu129  1  0.41570000  0.03022700  0.18657300  1
  Cu  Cu130  1  0.51905500  0.14830900  0.42862800  1
  Cu  Cu131  1  0.36608300  0.62959400  0.51106200  1
  Cu  Cu132  1  0.48716400  0.32835800  0.56499300  1
  Cu  Cu133  1  0.36057700  0.11059300  0.51783700  1
  Cu  Cu134  1  0.62499800  0.26552800  0.66727200  1
  Cu  Cu135  1  0.51283600  0.67164200  0.43500700  1
  Cu  Cu136  1  0.25052900  0.48797800  0.77679000  1
  Cu  Cu137  1  0.77660200  0.34366900  0.58321700  1
  Cu  Cu138  1  0.87500200  0.76552800  0.16727200  1
  Cu  Cu139  1  0.55567900  0.85852100  0.98592700  1
  Cu  Cu140  1  0.82727400  0.68611400  0.84565400  1
  Cu  Cu141  1  0.56059300  0.39819400  0.98872200  1
  Cu  Cu142  1  0.01905500  0.35169100  0.07137200  1
  Cu  Cu143  1  0.17272600  0.31388600  0.15434600  1
  Cu  Cu144  1  0.63942300  0.88940700  0.48216300  1
  Cu  Cu145  1  0.70679100  0.94702000  0.90217900  1
  Cu  Cu146  1  0.20461700  0.10599200  0.59432600  1
  Cu  Cu147  1  0.52674900  0.25732300  0.25473700  1
  Cu  Cu148  1  0.62474500  0.81490700  0.67308200  1
  Cu  Cu149  1  0.94432100  0.35852100  0.48592700  1
  Cu  Cu150  1  0.02713800  0.76760100  0.24838300  1
  Cu  Cu151  1  0.70461700  0.39400800  0.90567400  1
  Cu  Cu152  1  0.79538300  0.89400800  0.40567400  1
  Cu  Cu153  1  0.58535700  0.05550800  0.13194000  1
  Cu  Cu154  1  0.08815900  0.02749900  0.68559400  1
  Cu  Cu155  1  0.12474500  0.68509300  0.82691800  1
  Cu  Cu156  1  0.06059300  0.10180600  0.51127800  1
  Cu  Cu157  1  0.74881900  0.51657200  0.72173600  1
  Cu  Cu158  1  0.59168600  0.56484800  0.12615000  1
  Cu  Cu159  1  0.13942300  0.61059300  0.01783700  1
