# generated using pymatgen
data_CuNi6C53
_symmetry_space_group_name_H-M   'P 1'
_cell_length_a   5.46032000
_cell_length_b   5.51566015
_cell_length_c   23.16753638
_cell_angle_alpha   89.98738359
_cell_angle_beta   89.93095580
_cell_angle_gamma   89.98677628
_symmetry_Int_Tables_number   1
_chemical_formula_structural   CuNi6C53
_chemical_formula_sum   'Cu1 Ni6 C53'
_cell_volume   697.74239278
_cell_formula_units_Z   1
loop_
 _symmetry_equiv_pos_site_id
 _symmetry_equiv_pos_as_xyz
  1  'x, y, z'
loop_
 _atom_site_type_symbol
 _atom_site_label
 _atom_site_symmetry_multiplicity
 _atom_site_fract_x
 _atom_site_fract_y
 _atom_site_fract_z
 _atom_site_occupancy
  Ni  Ni0  1  0.98955100  0.95901100  0.25589400  1
  Ni  Ni1  1  0.51003800  0.45835700  0.58399300  1
  Ni  Ni2  1  0.50872100  0.45795900  0.25479300  1
  Ni  Ni3  1  0.48992800  0.54075700  0.74429800  1
  Ni  Ni4  1  0.00969000  0.04168300  0.74507600  1
  Ni  Ni5  1  0.00967200  0.04148400  0.41610900  1
  C  C6  1  0.98671700  0.96232000  0.91060800  1
  C  C7  1  0.99138000  0.95883000  0.58294100  1
  C  C8  1  0.50733300  0.45962900  0.91085700  1
  C  C9  1  0.49102200  0.54132100  0.41688300  1
  C  C10  1  0.49249100  0.54086000  0.08901200  1
  C  C11  1  0.01350600  0.03827200  0.08962500  1
  Cu  Cu12  1  0.99988900  0.50006100  0.99998000  1
  C  C13  1  0.00224700  0.50107400  0.82775100  1
  C  C14  1  0.99921000  0.49842400  0.50022900  1
  C  C15  1  0.99754800  0.49877500  0.17232400  1
  C  C16  1  0.49674800  0.99986000  0.82765500  1
  C  C17  1  0.49921000  0.00215900  0.49974400  1
  C  C18  1  0.50454100  0.99920700  0.17228700  1
  C  C19  1  0.50074700  0.00037700  0.99986500  1
  C  C20  1  0.50020100  0.99998000  0.66585800  1
  C  C21  1  0.49931200  0.00159400  0.33414700  1
  C  C22  1  0.00193100  0.49896300  0.66571800  1
  C  C23  1  0.99810900  0.49945100  0.33422100  1
  C  C24  1  0.91434200  0.47613500  0.74825700  1
  C  C25  1  0.92117700  0.48267600  0.08784300  1
  C  C26  1  0.92128300  0.48138300  0.41694700  1
  C  C27  1  0.77848900  0.22065900  0.84659500  1
  C  C28  1  0.78641600  0.21390200  0.65137500  1
  C  C29  1  0.78318400  0.21585700  0.51400000  1
  C  C30  1  0.77562200  0.20551300  0.98314000  1
  C  C31  1  0.79417300  0.20443200  0.18211900  1
  C  C32  1  0.78326800  0.21670000  0.32085800  1
  C  C33  1  0.70258800  0.72197700  0.98371100  1
  C  C34  1  0.72010000  0.72053900  0.84680700  1
  C  C35  1  0.71519800  0.71597800  0.51433000  1
  C  C36  1  0.71953700  0.71847500  0.64972500  1
  C  C37  1  0.70974700  0.71250100  0.32200100  1
  C  C38  1  0.70773900  0.70545300  0.18143100  1
  C  C39  1  0.58447900  0.97396500  0.74676400  1
  C  C40  1  0.58129200  0.98181700  0.41759800  1
  C  C41  1  0.58395300  0.98305500  0.08601700  1
  C  C42  1  0.41633600  0.01733200  0.91405200  1
  C  C43  1  0.42075000  0.01935400  0.58233400  1
  C  C44  1  0.41415000  0.02370300  0.25321500  1
  C  C45  1  0.29169900  0.29395100  0.81848500  1
  C  C46  1  0.28489700  0.28319100  0.67919300  1
  C  C47  1  0.28347700  0.28349800  0.48578200  1
  C  C48  1  0.28526100  0.28632100  0.34860700  1
  C  C49  1  0.29719400  0.27823200  0.01641100  1
  C  C50  1  0.28159000  0.28023900  0.15347200  1
  C  C51  1  0.21117800  0.78785900  0.67790100  1
  C  C52  1  0.20717800  0.79381200  0.81811400  1
  C  C53  1  0.22412600  0.79492000  0.01692500  1
  C  C54  1  0.22198800  0.77959500  0.15332600  1
  C  C55  1  0.21572200  0.78427500  0.48561800  1
  C  C56  1  0.21862200  0.78129500  0.35017600  1
  C  C57  1  0.07879300  0.51692900  0.91227700  1
  C  C58  1  0.08038000  0.51747900  0.58294100  1
  C  C59  1  0.08433200  0.52659000  0.25178100  1
