# generated using pymatgen
data_Cu3Ni2C
_symmetry_space_group_name_H-M   'P 1'
_cell_length_a   6.67474500
_cell_length_b   7.70894500
_cell_length_c   8.71726300
_cell_angle_alpha   90.00000000
_cell_angle_beta   90.00000000
_cell_angle_gamma   90.00000000
_symmetry_Int_Tables_number   1
_chemical_formula_structural   Cu3Ni2C
_chemical_formula_sum   'Cu12 Ni8 C4'
_cell_volume   448.54887806
_cell_formula_units_Z   4
loop_
 _symmetry_equiv_pos_site_id
 _symmetry_equiv_pos_as_xyz
  1  'x, y, z'
loop_
 _atom_site_type_symbol
 _atom_site_label
 _atom_site_symmetry_multiplicity
 _atom_site_fract_x
 _atom_site_fract_y
 _atom_site_fract_z
 _atom_site_occupancy
  C  C0  1  0.75000000  0.00000000  0.18650300  1
  C  C1  1  0.25000000  0.00000000  0.81349700  1
  C  C2  1  0.25000000  0.50000000  0.81349700  1
  C  C3  1  0.75000000  0.50000000  0.18650300  1
  Ni  Ni4  1  0.85322000  0.25000000  0.57217900  1
  Ni  Ni5  1  0.26594500  0.75000000  0.17947600  1
  Ni  Ni6  1  0.73405500  0.25000000  0.82052400  1
  Ni  Ni7  1  0.23405500  0.25000000  0.17947600  1
  Ni  Ni8  1  0.35322000  0.25000000  0.42782100  1
  Ni  Ni9  1  0.76594500  0.75000000  0.82052400  1
  Ni  Ni10  1  0.14678000  0.75000000  0.42782100  1
  Ni  Ni11  1  0.64678000  0.75000000  0.57217900  1
  Cu  Cu12  1  0.85103600  0.25000000  0.43699600  1
  Cu  Cu13  1  0.87855500  0.25000000  0.72102900  1
  Cu  Cu14  1  0.12144500  0.75000000  0.27897100  1
  Cu  Cu15  1  0.14896400  0.75000000  0.56300400  1
  Cu  Cu16  1  0.37855500  0.25000000  0.27897100  1
  Cu  Cu17  1  0.61369300  0.25000000  0.92094500  1
  Cu  Cu18  1  0.64896400  0.75000000  0.43699600  1
  Cu  Cu19  1  0.88630700  0.75000000  0.92094500  1
  Cu  Cu20  1  0.62144500  0.75000000  0.72102900  1
  Cu  Cu21  1  0.35103600  0.25000000  0.56300400  1
  Cu  Cu22  1  0.38630700  0.75000000  0.07905500  1
  Cu  Cu23  1  0.11369300  0.25000000  0.07905500  1
