# generated using pymatgen
data_Cu2NiC9
_symmetry_space_group_name_H-M   'P 1'
_cell_length_a   7.72148800
_cell_length_b   7.72148800
_cell_length_c   10.84854700
_cell_angle_alpha   90.00000000
_cell_angle_beta   90.00000000
_cell_angle_gamma   90.00000000
_symmetry_Int_Tables_number   1
_chemical_formula_structural   Cu2NiC9
_chemical_formula_sum   'Cu8 Ni4 C36'
_cell_volume   646.80530987
_cell_formula_units_Z   4
loop_
 _symmetry_equiv_pos_site_id
 _symmetry_equiv_pos_as_xyz
  1  'x, y, z'
loop_
 _atom_site_type_symbol
 _atom_site_label
 _atom_site_symmetry_multiplicity
 _atom_site_fract_x
 _atom_site_fract_y
 _atom_site_fract_z
 _atom_site_occupancy
  C  C0  1  0.67482700  0.17482700  0.78942400  1
  C  C1  1  0.32517300  0.82517300  0.78942400  1
  C  C2  1  0.17482700  0.32517300  0.21057600  1
  C  C3  1  0.82517300  0.67482700  0.21057600  1
  C  C4  1  0.50000000  0.50000000  0.00000000  1
  C  C5  1  0.00000000  0.00000000  0.00000000  1
  C  C6  1  0.50000000  0.50000000  0.50000000  1
  C  C7  1  0.00000000  0.00000000  0.50000000  1
  Ni  Ni8  1  0.64751700  0.14751700  0.20733400  1
  Ni  Ni9  1  0.35248300  0.85248300  0.20733400  1
  Ni  Ni10  1  0.14751700  0.35248300  0.79266600  1
  Ni  Ni11  1  0.85248300  0.64751700  0.79266600  1
  Cu  Cu12  1  0.63192200  0.86807800  0.96781200  1
  Cu  Cu13  1  0.36807800  0.13192200  0.96781200  1
  Cu  Cu14  1  0.13192200  0.63192200  0.03218800  1
  Cu  Cu15  1  0.86807800  0.36807800  0.03218800  1
  Cu  Cu16  1  0.29079500  0.20920500  0.62441800  1
  Cu  Cu17  1  0.70920500  0.79079500  0.62441800  1
  Cu  Cu18  1  0.79079500  0.29079500  0.37558200  1
  Cu  Cu19  1  0.20920500  0.70920500  0.37558200  1
  C  C20  1  0.15282900  0.65282900  0.90190200  1
  C  C21  1  0.84717100  0.34717100  0.90190200  1
  C  C22  1  0.80104700  0.93421600  0.90681500  1
  C  C23  1  0.19895300  0.06578400  0.90681500  1
  C  C24  1  0.43421600  0.30104700  0.90681500  1
  C  C25  1  0.56578400  0.69895300  0.90681500  1
  C  C26  1  0.50000000  0.00000000  0.92093700  1
  C  C27  1  0.00000000  0.50000000  0.07906300  1
  C  C28  1  0.93421600  0.19895300  0.09318500  1
  C  C29  1  0.69895300  0.43421600  0.09318500  1
  C  C30  1  0.30104700  0.56578400  0.09318500  1
  C  C31  1  0.06578400  0.80104700  0.09318500  1
  C  C32  1  0.65282900  0.84717100  0.09809800  1
  C  C33  1  0.34717100  0.15282900  0.09809800  1
  C  C34  1  0.87762900  0.37762900  0.44669200  1
  C  C35  1  0.12237100  0.62237100  0.44669200  1
  C  C36  1  0.90765100  0.95388200  0.34212500  1
  C  C37  1  0.09234900  0.04611800  0.34212500  1
  C  C38  1  0.45388200  0.40765100  0.34212500  1
  C  C39  1  0.54611800  0.59234900  0.34212500  1
  C  C40  1  0.50000000  0.00000000  0.33566000  1
  C  C41  1  0.00000000  0.50000000  0.66434000  1
  C  C42  1  0.95388200  0.09234900  0.65787500  1
  C  C43  1  0.59234900  0.45388200  0.65787500  1
  C  C44  1  0.40765100  0.54611800  0.65787500  1
  C  C45  1  0.04611800  0.90765100  0.65787500  1
  C  C46  1  0.37762900  0.12237100  0.55330800  1
  C  C47  1  0.62237100  0.87762900  0.55330800  1
