# generated using pymatgen
data_Cu12NiC3
_symmetry_space_group_name_H-M   'P 1'
_cell_length_a   9.92532490
_cell_length_b   9.92532490
_cell_length_c   9.92532490
_cell_angle_alpha   109.47122063
_cell_angle_beta   109.47122063
_cell_angle_gamma   109.47122063
_symmetry_Int_Tables_number   1
_chemical_formula_structural   Cu12NiC3
_chemical_formula_sum   'Cu48 Ni4 C12'
_cell_volume   752.68334238
_cell_formula_units_Z   4
loop_
 _symmetry_equiv_pos_site_id
 _symmetry_equiv_pos_as_xyz
  1  'x, y, z'
loop_
 _atom_site_type_symbol
 _atom_site_label
 _atom_site_symmetry_multiplicity
 _atom_site_fract_x
 _atom_site_fract_y
 _atom_site_fract_z
 _atom_site_occupancy
  Ni  Ni0  1  0.00000000  0.50000000  0.50000000  1
  Ni  Ni1  1  0.00000000  0.00000000  0.00000000  1
  Ni  Ni2  1  0.50000000  0.50000000  0.00000000  1
  Ni  Ni3  1  0.50000000  0.00000000  0.50000000  1
  Cu  Cu4  1  0.25410900  0.25410900  0.49121800  1
  Cu  Cu5  1  0.00000000  0.49235500  0.23341400  1
  Cu  Cu6  1  0.49900300  0.75599600  0.00000000  1
  Cu  Cu7  1  0.49235500  0.00000000  0.23341400  1
  Cu  Cu8  1  0.76947100  0.76947100  0.00000000  1
  Cu  Cu9  1  0.50099700  0.50099700  0.25699300  1
  Cu  Cu10  1  0.24400400  0.24400400  0.74300700  1
  Cu  Cu11  1  0.49900300  0.00000000  0.75599600  1
  Cu  Cu12  1  0.76289100  0.50878200  0.76289100  1
  Cu  Cu13  1  0.74105800  0.50764500  0.50764500  1
  Cu  Cu14  1  0.74300700  0.24400400  0.24400400  1
  Cu  Cu15  1  0.50000000  0.25000000  0.75000000  1
  Cu  Cu16  1  0.25000000  0.75000000  0.50000000  1
  Cu  Cu17  1  0.49235500  0.23341400  0.00000000  1
  Cu  Cu18  1  0.50000000  0.75000000  0.25000000  1
  Cu  Cu19  1  0.76658600  0.76658600  0.25894200  1
  Cu  Cu20  1  0.50764500  0.74105800  0.50764500  1
  Cu  Cu21  1  0.23710900  0.00000000  0.74589100  1
  Cu  Cu22  1  0.00000000  0.23052900  0.23052900  1
  Cu  Cu23  1  0.23341400  0.00000000  0.49235500  1
  Cu  Cu24  1  0.50099700  0.25699300  0.50099700  1
  Cu  Cu25  1  0.23710900  0.74589100  0.00000000  1
  Cu  Cu26  1  0.23052900  0.00000000  0.23052900  1
  Cu  Cu27  1  0.50764500  0.50764500  0.74105800  1
  Cu  Cu28  1  0.75000000  0.50000000  0.25000000  1
  Cu  Cu29  1  0.49121800  0.25410900  0.25410900  1
  Cu  Cu30  1  0.25410900  0.49121800  0.25410900  1
  Cu  Cu31  1  0.25894200  0.76658600  0.76658600  1
  Cu  Cu32  1  0.74589100  0.23710900  0.00000000  1
  Cu  Cu33  1  0.50878200  0.76289100  0.76289100  1
  Cu  Cu34  1  0.74589100  0.00000000  0.23710900  1
  Cu  Cu35  1  0.76947100  0.00000000  0.76947100  1
  Cu  Cu36  1  0.00000000  0.74589100  0.23710900  1
  Cu  Cu37  1  0.76658600  0.25894200  0.76658600  1
  Cu  Cu38  1  0.75599600  0.49900300  0.00000000  1
  Cu  Cu39  1  0.76289100  0.76289100  0.50878200  1
  Cu  Cu40  1  0.00000000  0.23341400  0.49235500  1
  Cu  Cu41  1  0.25000000  0.50000000  0.75000000  1
  Cu  Cu42  1  0.00000000  0.49900300  0.75599600  1
  Cu  Cu43  1  0.75599600  0.00000000  0.49900300  1
  Cu  Cu44  1  0.24400400  0.74300700  0.24400400  1
  Cu  Cu45  1  0.00000000  0.75599600  0.49900300  1
  Cu  Cu46  1  0.75000000  0.25000000  0.50000000  1
  Cu  Cu47  1  0.00000000  0.23710900  0.74589100  1
  Cu  Cu48  1  0.25699300  0.50099700  0.50099700  1
  Cu  Cu49  1  0.00000000  0.76947100  0.76947100  1
  Cu  Cu50  1  0.23052900  0.23052900  0.00000000  1
  Cu  Cu51  1  0.23341400  0.49235500  0.00000000  1
  C  C52  1  0.00000000  0.27809600  0.00000000  1
  C  C53  1  0.00000000  0.00000000  0.52553200  1
  C  C54  1  0.47446800  0.47446800  0.47446800  1
  C  C55  1  0.00000000  0.00000000  0.27809600  1
  C  C56  1  0.00000000  0.52553200  0.00000000  1
  C  C57  1  0.52553200  0.00000000  0.00000000  1
  C  C58  1  0.27809600  0.00000000  0.00000000  1
  C  C59  1  0.72190400  0.72190400  0.72190400  1
  C  C60  1  0.26294600  0.26294600  0.26294600  1
  C  C61  1  0.73705400  0.00000000  0.00000000  1
  C  C62  1  0.00000000  0.73705400  0.00000000  1
  C  C63  1  0.00000000  0.00000000  0.73705400  1
