# generated using pymatgen
data_Cu15Ni15C4
_symmetry_space_group_name_H-M   'P 1'
_cell_length_a   17.32615800
_cell_length_b   6.70947800
_cell_length_c   19.97523860
_cell_angle_alpha   79.79044628
_cell_angle_beta   90.00000000
_cell_angle_gamma   90.00000000
_symmetry_Int_Tables_number   1
_chemical_formula_structural   Cu15Ni15C4
_chemical_formula_sum   'Cu60 Ni60 C16'
_cell_volume   2285.34286725
_cell_formula_units_Z   4
loop_
 _symmetry_equiv_pos_site_id
 _symmetry_equiv_pos_as_xyz
  1  'x, y, z'
loop_
 _atom_site_type_symbol
 _atom_site_label
 _atom_site_symmetry_multiplicity
 _atom_site_fract_x
 _atom_site_fract_y
 _atom_site_fract_z
 _atom_site_occupancy
  C  C0  1  0.31514800  0.79187100  0.11357200  1
  C  C1  1  0.45485300  0.77693000  0.63752500  1
  C  C2  1  0.29991600  0.67302700  0.83519800  1
  C  C3  1  0.68485200  0.20812900  0.88642800  1
  C  C4  1  0.20008400  0.67302700  0.33519800  1
  C  C5  1  0.70008400  0.32697300  0.16480200  1
  C  C6  1  0.81514800  0.20812900  0.38642800  1
  C  C7  1  0.18485200  0.79187100  0.61357200  1
  C  C8  1  0.95485300  0.22307000  0.86247500  1
  C  C9  1  0.04514700  0.77693000  0.13752500  1
  C  C10  1  0.54514700  0.22307000  0.36247500  1
  C  C11  1  0.79991600  0.32697300  0.66480200  1
  C  C12  1  0.31100700  0.90121500  0.69555500  1
  C  C13  1  0.18899300  0.90121500  0.19555500  1
  C  C14  1  0.68899300  0.09878500  0.30444500  1
  C  C15  1  0.81100700  0.09878500  0.80444500  1
  Ni  Ni16  1  0.26302000  0.46290600  0.79586400  1
  Ni  Ni17  1  0.20405600  0.79235100  0.83426800  1
  Ni  Ni18  1  0.76302000  0.53709400  0.70413600  1
  Ni  Ni19  1  0.84220700  0.09254000  0.64396700  1
  Ni  Ni20  1  0.36759500  0.67375300  0.19098500  1
  Ni  Ni21  1  0.70405600  0.20764900  0.66573200  1
  Ni  Ni22  1  0.34220700  0.90746000  0.85603300  1
  Ni  Ni23  1  0.00896400  0.86584400  0.21353300  1
  Ni  Ni24  1  0.39063900  0.73026100  0.05791900  1
  Ni  Ni25  1  0.05160100  0.28369100  0.88721200  1
  Ni  Ni26  1  0.21355500  0.54107800  0.42100300  1
  Ni  Ni27  1  0.28644500  0.54107800  0.92100300  1
  Ni  Ni28  1  0.45292000  0.04262800  0.59288300  1
  Ni  Ni29  1  0.74251700  0.07746000  0.95933800  1
  Ni  Ni30  1  0.41147800  0.70371900  0.56098100  1
  Ni  Ni31  1  0.49103600  0.86584400  0.71353300  1
  Ni  Ni32  1  0.55160100  0.71630900  0.61278800  1
  Ni  Ni33  1  0.89868300  0.43012600  0.66289800  1
  Ni  Ni34  1  0.44839900  0.28369100  0.38721200  1
  Ni  Ni35  1  0.75871900  0.44300000  0.38356000  1
  Ni  Ni36  1  0.39868300  0.56987400  0.83710200  1
  Ni  Ni37  1  0.64399600  0.95895800  0.87751100  1
  Ni  Ni38  1  0.43347400  0.52016800  0.68485000  1
  Ni  Ni39  1  0.94839900  0.71630900  0.11278800  1
  Ni  Ni40  1  0.08852200  0.70371900  0.06098100  1
  Ni  Ni41  1  0.10936100  0.73026100  0.55791900  1
  Ni  Ni42  1  0.78644500  0.45892200  0.57899700  1
  Ni  Ni43  1  0.75748300  0.07746000  0.45933800  1
  Ni  Ni44  1  0.65779300  0.09254000  0.14396700  1
  Ni  Ni45  1  0.24251700  0.92254000  0.54066200  1
  Ni  Ni46  1  0.91147800  0.29628100  0.93901900  1
  Ni  Ni47  1  0.14399600  0.04104200  0.62248900  1
  Ni  Ni48  1  0.79594400  0.20764900  0.16573200  1
  Ni  Ni49  1  0.56652600  0.47983200  0.31515000  1
  Ni  Ni50  1  0.93347400  0.47983200  0.81515000  1
  Ni  Ni51  1  0.15779300  0.90746000  0.35603300  1
  Ni  Ni52  1  0.54708000  0.95737200  0.40711700  1
  Ni  Ni53  1  0.71355500  0.45892200  0.07899700  1
  Ni  Ni54  1  0.24128100  0.55700000  0.61644000  1
  Ni  Ni55  1  0.13240500  0.67375300  0.69098500  1
  Ni  Ni56  1  0.04708000  0.04262800  0.09288300  1
  Ni  Ni57  1  0.25871900  0.55700000  0.11644000  1
  Ni  Ni58  1  0.10131700  0.56987400  0.33710200  1
  Ni  Ni59  1  0.23698000  0.46290600  0.29586400  1
  Ni  Ni60  1  0.86759500  0.32624700  0.30901500  1
  Ni  Ni61  1  0.35600400  0.04104200  0.12248900  1
  Ni  Ni62  1  0.25748300  0.92254000  0.04066200  1
  Ni  Ni63  1  0.50896400  0.13415600  0.28646700  1
  Ni  Ni64  1  0.99103600  0.13415600  0.78646700  1
  Ni  Ni65  1  0.60131700  0.43012600  0.16289800  1
  Ni  Ni66  1  0.29594400  0.79235100  0.33426800  1
  Ni  Ni67  1  0.06652600  0.52016800  0.18485000  1
  Ni  Ni68  1  0.85600400  0.95895800  0.37751100  1
  Ni  Ni69  1  0.58852200  0.29628100  0.43901900  1
  Ni  Ni70  1  0.74128100  0.44300000  0.88356000  1
  Ni  Ni71  1  0.89063900  0.26973900  0.44208100  1
  Ni  Ni72  1  0.60936100  0.26973900  0.94208100  1
  Ni  Ni73  1  0.63240500  0.32624700  0.80901500  1
  Ni  Ni74  1  0.95292000  0.95737200  0.90711700  1
  Ni  Ni75  1  0.73698000  0.53709400  0.20413600  1
  Cu  Cu76  1  0.38216500  0.19836000  0.12564100  1
  Cu  Cu77  1  0.51581500  0.92453500  0.76041900  1
  Cu  Cu78  1  0.54770900  0.79118500  0.43624000  1
  Cu  Cu79  1  0.59683600  0.40301400  0.76221900  1
  Cu  Cu80  1  0.72506500  0.59321800  0.38302400  1
  Cu  Cu81  1  0.86858600  0.94643400  0.62962200  1
  Cu  Cu82  1  0.14530000  0.87228300  0.83833400  1
  Cu  Cu83  1  0.61391000  0.67442500  0.59878400  1
  Cu  Cu84  1  0.27944300  0.44586200  0.97520200  1
  Cu  Cu85  1  0.42184600  0.35387800  0.71116800  1
  Cu  Cu86  1  0.90316400  0.40301400  0.26221900  1
  Cu  Cu87  1  0.11391000  0.32557500  0.90121600  1
  Cu  Cu88  1  0.93815700  0.30639100  0.47919800  1
  Cu  Cu89  1  0.03939400  0.50383500  0.34418400  1
  Cu  Cu90  1  0.35470000  0.87228300  0.33833400  1
  Cu  Cu91  1  0.13141400  0.05356600  0.37037800  1
  Cu  Cu92  1  0.22506500  0.40678200  0.11697600  1
  Cu  Cu93  1  0.98418500  0.92453500  0.26041900  1
  Cu  Cu94  1  0.27569300  0.00582000  0.49330500  1
  Cu  Cu95  1  0.72430700  0.99418000  0.50669500  1
  Cu  Cu96  1  0.36858600  0.05356600  0.87037800  1
  Cu  Cu97  1  0.77493500  0.59321800  0.88302400  1
  Cu  Cu98  1  0.88609000  0.67442500  0.09878400  1
  Cu  Cu99  1  0.75901400  0.67684800  0.22572900  1
  Cu  Cu100  1  0.40316400  0.59698600  0.23778100  1
  Cu  Cu101  1  0.43815700  0.69360900  0.02080200  1
  Cu  Cu102  1  0.77944300  0.55413800  0.52479800  1
  Cu  Cu103  1  0.25901400  0.32315200  0.27427100  1
  Cu  Cu104  1  0.77569300  0.99418000  0.00669500  1
  Cu  Cu105  1  0.85470000  0.12771700  0.16166600  1
  Cu  Cu106  1  0.48418500  0.07546500  0.23958100  1
  Cu  Cu107  1  0.22055700  0.44586200  0.47520200  1
  Cu  Cu108  1  0.56184300  0.30639100  0.97919800  1
  Cu  Cu109  1  0.07815400  0.35387800  0.21116800  1
  Cu  Cu110  1  0.88216500  0.80164000  0.37435900  1
  Cu  Cu111  1  0.72055700  0.55413800  0.02479800  1
  Cu  Cu112  1  0.45229100  0.20881500  0.56376000  1
  Cu  Cu113  1  0.57815400  0.64612200  0.28883200  1
  Cu  Cu114  1  0.53939400  0.49616500  0.15581600  1
  Cu  Cu115  1  0.04770900  0.20881500  0.06376000  1
  Cu  Cu116  1  0.61783500  0.80164000  0.87435900  1
  Cu  Cu117  1  0.01581500  0.07546500  0.73958100  1
  Cu  Cu118  1  0.11105900  0.65810200  0.01111800  1
  Cu  Cu119  1  0.92184600  0.64612200  0.78883200  1
  Cu  Cu120  1  0.27493500  0.40678200  0.61697600  1
  Cu  Cu121  1  0.95229100  0.79118500  0.93624000  1
  Cu  Cu122  1  0.64530000  0.12771700  0.66166600  1
  Cu  Cu123  1  0.09683600  0.59698600  0.73778100  1
  Cu  Cu124  1  0.96060600  0.49616500  0.65581600  1
  Cu  Cu125  1  0.88894100  0.34189800  0.98888200  1
  Cu  Cu126  1  0.11783500  0.19836000  0.62564100  1
  Cu  Cu127  1  0.74098600  0.67684800  0.72572900  1
  Cu  Cu128  1  0.63141400  0.94643400  0.12962200  1
  Cu  Cu129  1  0.06184300  0.69360900  0.52080200  1
  Cu  Cu130  1  0.38609000  0.32557500  0.40121600  1
  Cu  Cu131  1  0.24098600  0.32315200  0.77427100  1
  Cu  Cu132  1  0.46060600  0.50383500  0.84418400  1
  Cu  Cu133  1  0.22430700  0.00582000  0.99330500  1
  Cu  Cu134  1  0.61105900  0.34189800  0.48888200  1
  Cu  Cu135  1  0.38894100  0.65810200  0.51111800  1
