# generated using pymatgen
data_Cu9(Ni2C3)2
_symmetry_space_group_name_H-M   'P 1'
_cell_length_a   13.64467600
_cell_length_b   4.60743800
_cell_length_c   6.98425253
_cell_angle_alpha   88.39663338
_cell_angle_beta   90.00000000
_cell_angle_gamma   90.00000000
_symmetry_Int_Tables_number   1
_chemical_formula_structural   Cu9(Ni2C3)2
_chemical_formula_sum   'Cu18 Ni8 C12'
_cell_volume   438.90708303
_cell_formula_units_Z   2
loop_
 _symmetry_equiv_pos_site_id
 _symmetry_equiv_pos_as_xyz
  1  'x, y, z'
loop_
 _atom_site_type_symbol
 _atom_site_label
 _atom_site_symmetry_multiplicity
 _atom_site_fract_x
 _atom_site_fract_y
 _atom_site_fract_z
 _atom_site_occupancy
  C  C0  1  0.94344300  0.72491200  0.86685300  1
  C  C1  1  0.44344300  0.27508800  0.13314700  1
  C  C2  1  0.03842400  0.08763700  0.25294800  1
  C  C3  1  0.95705000  0.34619100  0.27559000  1
  C  C4  1  0.45705000  0.65380900  0.72441000  1
  C  C5  1  0.53842400  0.91236300  0.74705200  1
  C  C6  1  0.62024700  0.43484900  0.84593400  1
  C  C7  1  0.44266500  0.88295400  0.88787600  1
  C  C8  1  0.94266500  0.11704600  0.11212400  1
  C  C9  1  0.12024700  0.56515100  0.15406600  1
  C  C10  1  0.15530700  0.07582900  0.90499400  1
  C  C11  1  0.65530700  0.92417100  0.09500600  1
  Ni  Ni12  1  0.49650000  0.76525300  0.82229400  1
  Ni  Ni13  1  0.99650000  0.23474700  0.17770600  1
  Ni  Ni14  1  0.99740600  0.74491100  0.61252400  1
  Ni  Ni15  1  0.49740600  0.25508900  0.38747600  1
  Ni  Ni16  1  0.74020400  0.20384100  0.75639300  1
  Ni  Ni17  1  0.26193300  0.31250900  0.81008800  1
  Ni  Ni18  1  0.76193300  0.68749100  0.18991200  1
  Ni  Ni19  1  0.24020400  0.79615900  0.24360700  1
  Cu  Cu20  1  0.00970000  0.70222400  0.81280900  1
  Cu  Cu21  1  0.50970000  0.29777600  0.18719100  1
  Cu  Cu22  1  0.91760900  0.83161500  0.55572700  1
  Cu  Cu23  1  0.07111900  0.68920000  0.52232400  1
  Cu  Cu24  1  0.57111900  0.31080000  0.47767600  1
  Cu  Cu25  1  0.41760900  0.16838500  0.44427300  1
  Cu  Cu26  1  0.71519800  0.98924900  0.67327600  1
  Cu  Cu27  1  0.28560500  0.49934300  0.69406300  1
  Cu  Cu28  1  0.78560500  0.50065700  0.30593700  1
  Cu  Cu29  1  0.21519800  0.01075100  0.32672400  1
  Cu  Cu30  1  0.66963800  0.30155300  0.90772400  1
  Cu  Cu31  1  0.31238600  0.19760900  0.93839200  1
  Cu  Cu32  1  0.81238600  0.80239100  0.06160800  1
  Cu  Cu33  1  0.16963800  0.69844700  0.09227600  1
  Cu  Cu34  1  0.81593700  0.33998100  0.74825100  1
  Cu  Cu35  1  0.16532300  0.21388400  0.79475400  1
  Cu  Cu36  1  0.66532300  0.78611600  0.20524600  1
  Cu  Cu37  1  0.31593700  0.66001900  0.25174900  1
