# generated using pymatgen
data_Cu12Ni4C61
_symmetry_space_group_name_H-M   'P 1'
_cell_length_a   5.58209353
_cell_length_b   5.62825325
_cell_length_c   44.86544285
_cell_angle_alpha   59.74110521
_cell_angle_beta   59.59781985
_cell_angle_gamma   59.69246124
_symmetry_Int_Tables_number   1
_chemical_formula_structural   Cu12Ni4C61
_chemical_formula_sum   'Cu12 Ni4 C61'
_cell_volume   989.39334346
_cell_formula_units_Z   1
loop_
 _symmetry_equiv_pos_site_id
 _symmetry_equiv_pos_as_xyz
  1  'x, y, z'
loop_
 _atom_site_type_symbol
 _atom_site_label
 _atom_site_symmetry_multiplicity
 _atom_site_fract_x
 _atom_site_fract_y
 _atom_site_fract_z
 _atom_site_occupancy
  C  C0  1  0.24049300  0.74572400  0.09656000  1
  C  C1  1  0.23467900  0.74839600  0.22294700  1
  C  C2  1  0.74030100  0.28200000  0.02906400  1
  C  C3  1  0.73512600  0.28283700  0.15444200  1
  C  C4  1  0.25699400  0.69473300  0.34818100  1
  C  C5  1  0.73705600  0.27953500  0.28034800  1
  C  C6  1  0.25217700  0.74038300  0.46928000  1
  C  C7  1  0.75706600  0.24729100  0.40475600  1
  C  C8  1  0.25047200  0.74115500  0.59470300  1
  C  C9  1  0.74952800  0.25862000  0.53039000  1
  C  C10  1  0.25078300  0.74147500  0.71956200  1
  C  C11  1  0.74988500  0.25943900  0.65514200  1
  C  C12  1  0.24958600  0.74007400  0.84501000  1
  C  C13  1  0.75025300  0.25967300  0.78005400  1
  C  C14  1  0.25805200  0.73922500  0.96876500  1
  C  C15  1  0.75475200  0.26195000  0.90376000  1
  Ni  Ni16  1  0.52723100  0.97928900  0.99580200  1
  Ni  Ni17  1  0.52255400  0.98418000  0.12089400  1
  Ni  Ni18  1  0.52083000  0.98603700  0.24622300  1
  Ni  Ni19  1  0.97338600  0.53714300  0.31451500  1
  Cu  Cu20  1  0.97252100  0.53227600  0.06549700  1
  Cu  Cu21  1  0.50543600  0.99321600  0.37487200  1
  Cu  Cu22  1  0.97013100  0.53551200  0.19083700  1
  Cu  Cu23  1  0.00051200  0.50029900  0.56232100  1
  Cu  Cu24  1  0.49999700  0.99967700  0.50003900  1
  Cu  Cu25  1  0.50020600  0.00031000  0.62493400  1
  Cu  Cu26  1  0.99905200  0.49565600  0.43827400  1
  Cu  Cu27  1  0.00096700  0.50104800  0.81204800  1
  Cu  Cu28  1  0.50005800  0.00015200  0.74999600  1
  Cu  Cu29  1  0.99772700  0.49843700  0.93850700  1
  Cu  Cu30  1  0.50128200  0.99812600  0.87489600  1
  Cu  Cu31  1  0.00004900  0.50032900  0.68742100  1
  C  C32  1  0.29415000  0.69158100  0.02435100  1
  C  C33  1  0.21151900  0.29729100  0.09696300  1
  C  C34  1  0.29599200  0.69124600  0.15087600  1
  C  C35  1  0.80763100  0.67042900  0.02736200  1
  C  C36  1  0.20620500  0.30105500  0.22271900  1
  C  C37  1  0.71537600  0.28115700  0.10199500  1
  C  C38  1  0.75612100  0.85613700  0.07958300  1
  C  C39  1  0.28755000  0.70844800  0.27705900  1
  C  C40  1  0.80656600  0.66214000  0.15327200  1
  C  C41  1  0.21909800  0.29534300  0.34846200  1
  C  C42  1  0.71234700  0.28345100  0.22821600  1
  C  C43  1  0.25323100  0.17230200  0.41533200  1
  C  C44  1  0.75042200  0.86221000  0.20436200  1
  C  C45  1  0.28364000  0.70561800  0.39993800  1
  C  C46  1  0.77607800  0.67564100  0.27936700  1
  C  C47  1  0.21606400  0.30638200  0.47335600  1
  C  C48  1  0.73369300  0.26312000  0.35093900  1
  C  C49  1  0.25015200  0.16708600  0.54157800  1
  C  C50  1  0.73373100  0.84791500  0.33493600  1
  C  C51  1  0.28257400  0.71633900  0.52385500  1
  C  C52  1  0.78341900  0.68026100  0.40312300  1
  C  C53  1  0.21798500  0.30796900  0.59782100  1
  C  C54  1  0.71889500  0.28019200  0.47634200  1
  C  C55  1  0.25004200  0.16802400  0.66647800  1
  C  C56  1  0.74953300  0.83113700  0.45867300  1
  C  C57  1  0.28234800  0.71687400  0.64908200  1
  C  C58  1  0.78314900  0.69164000  0.52703000  1
  C  C59  1  0.21802900  0.30772700  0.72283600  1
  C  C60  1  0.71769500  0.28315700  0.60091800  1
  C  C61  1  0.24998900  0.16747700  0.79158300  1
  C  C62  1  0.75006200  0.83126900  0.58361200  1
  C  C63  1  0.28359800  0.71628600  0.77393500  1
  C  C64  1  0.78223000  0.69211800  0.65215100  1
  C  C65  1  0.21866100  0.30655600  0.84784600  1
  C  C66  1  0.71759300  0.28310800  0.72588600  1
  C  C67  1  0.24356600  0.17495400  0.91705100  1
  C  C68  1  0.75005700  0.83189000  0.70852300  1
  C  C69  1  0.28966600  0.71301400  0.89875300  1
  C  C70  1  0.78284000  0.69205400  0.77699400  1
  C  C71  1  0.20117100  0.30933600  0.97602700  1
  C  C72  1  0.71696400  0.28251700  0.85060700  1
  C  C73  1  0.75223700  0.83111400  0.83313200  1
  C  C74  1  0.78155300  0.69121500  0.90190500  1
  C  C75  1  0.69562900  0.28925800  0.97867500  1
  C  C76  1  0.76181100  0.83176700  0.95520600  1
