# generated using pymatgen
data_Cu11Ni11C6
_symmetry_space_group_name_H-M   'P 1'
_cell_length_a   6.90570300
_cell_length_b   15.90082000
_cell_length_c   17.49653000
_cell_angle_alpha   90.00000000
_cell_angle_beta   90.00000000
_cell_angle_gamma   90.00000000
_symmetry_Int_Tables_number   1
_chemical_formula_structural   Cu11Ni11C6
_chemical_formula_sum   'Cu44 Ni44 C24'
_cell_volume   1921.22992859
_cell_formula_units_Z   4
loop_
 _symmetry_equiv_pos_site_id
 _symmetry_equiv_pos_as_xyz
  1  'x, y, z'
loop_
 _atom_site_type_symbol
 _atom_site_label
 _atom_site_symmetry_multiplicity
 _atom_site_fract_x
 _atom_site_fract_y
 _atom_site_fract_z
 _atom_site_occupancy
  C  C0  1  0.18151700  0.32504900  0.15457700  1
  C  C1  1  0.32566200  0.33412700  0.80867400  1
  C  C2  1  0.17433800  0.16587300  0.80867400  1
  C  C3  1  0.31848300  0.32504900  0.65457700  1
  C  C4  1  0.18151700  0.17495100  0.65457700  1
  C  C5  1  0.82566200  0.83412700  0.19132600  1
  C  C6  1  0.81848300  0.67495100  0.84542300  1
  C  C7  1  0.17433800  0.33412700  0.30867400  1
  C  C8  1  0.81848300  0.82504900  0.34542300  1
  C  C9  1  0.31848300  0.17495100  0.15457700  1
  C  C10  1  0.67433800  0.66587300  0.19132600  1
  C  C11  1  0.82566200  0.66587300  0.69132600  1
  C  C12  1  0.32566200  0.16587300  0.30867400  1
  C  C13  1  0.68151700  0.82504900  0.84542300  1
  C  C14  1  0.68151700  0.67495100  0.34542300  1
  C  C15  1  0.67433800  0.83412700  0.69132600  1
  C  C16  1  0.48904100  0.20920100  0.73897600  1
  C  C17  1  0.51095900  0.70920100  0.76102400  1
  C  C18  1  0.48904100  0.29079900  0.23897600  1
  C  C19  1  0.01095900  0.20920100  0.23897600  1
  C  C20  1  0.51095900  0.79079900  0.26102400  1
  C  C21  1  0.01095900  0.29079900  0.73897600  1
  C  C22  1  0.98904100  0.70920100  0.26102400  1
  C  C23  1  0.98904100  0.79079900  0.76102400  1
  Ni  Ni24  1  0.70065200  0.58750400  0.89015800  1
  Ni  Ni25  1  0.45509900  0.64522900  0.38763500  1
  Ni  Ni26  1  0.47953900  0.83055000  0.62387900  1
  Ni  Ni27  1  0.20065200  0.41249600  0.60984200  1
  Ni  Ni28  1  0.97953900  0.33055000  0.37612100  1
  Ni  Ni29  1  0.59867500  0.57397500  0.24061300  1
  Ni  Ni30  1  0.04490100  0.64522900  0.88763500  1
  Ni  Ni31  1  0.95509900  0.14522900  0.61236500  1
  Ni  Ni32  1  0.82558000  0.61477500  0.12234000  1
  Ni  Ni33  1  0.02046100  0.83055000  0.12387900  1
  Ni  Ni34  1  0.79934800  0.91249600  0.89015800  1
  Ni  Ni35  1  0.90132500  0.57397500  0.74061300  1
  Ni  Ni36  1  0.40132500  0.42602500  0.75938700  1
  Ni  Ni37  1  0.54490100  0.14522900  0.11236500  1
  Ni  Ni38  1  0.59867500  0.92602500  0.74061300  1
  Ni  Ni39  1  0.09867500  0.07397500  0.75938700  1
  Ni  Ni40  1  0.32558000  0.11477500  0.87766000  1
  Ni  Ni41  1  0.02046100  0.66945000  0.62387900  1
  Ni  Ni42  1  0.29934800  0.41249600  0.10984200  1
  Ni  Ni43  1  0.75000000  0.75000000  0.42749000  1
  Ni  Ni44  1  0.67442000  0.61477500  0.62234000  1
  Ni  Ni45  1  0.17442000  0.11477500  0.37766000  1
  Ni  Ni46  1  0.17442000  0.38522500  0.87766000  1
  Ni  Ni47  1  0.25000000  0.25000000  0.57251000  1
  Ni  Ni48  1  0.54490100  0.35477100  0.61236500  1
  Ni  Ni49  1  0.32558000  0.38522500  0.37766000  1
  Ni  Ni50  1  0.52046100  0.16945000  0.37612100  1
  Ni  Ni51  1  0.45509900  0.85477100  0.88763500  1
  Ni  Ni52  1  0.04490100  0.85477100  0.38763500  1
  Ni  Ni53  1  0.97953900  0.16945000  0.87612100  1
  Ni  Ni54  1  0.20065200  0.08750400  0.10984200  1
  Ni  Ni55  1  0.40132500  0.07397500  0.25938700  1
  Ni  Ni56  1  0.90132500  0.92602500  0.24061300  1
  Ni  Ni57  1  0.47953900  0.66945000  0.12387900  1
  Ni  Ni58  1  0.82558000  0.88522500  0.62234000  1
  Ni  Ni59  1  0.70065200  0.91249600  0.39015800  1
  Ni  Ni60  1  0.67442000  0.88522500  0.12234000  1
  Ni  Ni61  1  0.29934800  0.08750400  0.60984200  1
  Ni  Ni62  1  0.79934800  0.58750400  0.39015800  1
  Ni  Ni63  1  0.25000000  0.25000000  0.07251000  1
  Ni  Ni64  1  0.75000000  0.75000000  0.92749000  1
  Ni  Ni65  1  0.52046100  0.33055000  0.87612100  1
  Ni  Ni66  1  0.09867500  0.42602500  0.25938700  1
  Ni  Ni67  1  0.95509900  0.35477100  0.11236500  1
  Cu  Cu68  1  0.30925200  0.62673000  0.41588900  1
  Cu  Cu69  1  0.19074800  0.87327000  0.41588900  1
  Cu  Cu70  1  0.64570400  0.16879800  0.42027800  1
  Cu  Cu71  1  0.75000000  0.75000000  0.49540700  1
  Cu  Cu72  1  0.85429600  0.16879800  0.92027800  1
  Cu  Cu73  1  0.25000000  0.25000000  0.00459300  1
  Cu  Cu74  1  0.87401400  0.96834000  0.92084200  1
  Cu  Cu75  1  0.54354100  0.99417900  0.75409800  1
  Cu  Cu76  1  0.91930600  0.58021200  0.07715200  1
  Cu  Cu77  1  0.95645900  0.99417900  0.25409800  1
  Cu  Cu78  1  0.37401400  0.46834000  0.07915800  1
  Cu  Cu79  1  0.85429600  0.33120200  0.42027800  1
  Cu  Cu80  1  0.91930600  0.91978800  0.57715200  1
  Cu  Cu81  1  0.45645900  0.00582100  0.24590200  1
  Cu  Cu82  1  0.87401400  0.53166000  0.42084200  1
  Cu  Cu83  1  0.37401400  0.03166000  0.57915800  1
  Cu  Cu84  1  0.41930600  0.41978800  0.42284800  1
  Cu  Cu85  1  0.08069400  0.41978800  0.92284800  1
  Cu  Cu86  1  0.25000000  0.25000000  0.50459300  1
  Cu  Cu87  1  0.69074800  0.37327000  0.58411100  1
  Cu  Cu88  1  0.35429600  0.83120200  0.57972200  1
  Cu  Cu89  1  0.35429600  0.66879800  0.07972200  1
  Cu  Cu90  1  0.04354100  0.49417900  0.24590200  1
  Cu  Cu91  1  0.95645900  0.50582100  0.75409800  1
  Cu  Cu92  1  0.62598600  0.53166000  0.92084200  1
  Cu  Cu93  1  0.58069400  0.58021200  0.57715200  1
  Cu  Cu94  1  0.41930600  0.08021200  0.92284800  1
  Cu  Cu95  1  0.80925200  0.12673000  0.58411100  1
  Cu  Cu96  1  0.54354100  0.50582100  0.25409800  1
  Cu  Cu97  1  0.80925200  0.37327000  0.08411100  1
  Cu  Cu98  1  0.14570400  0.83120200  0.07972200  1
  Cu  Cu99  1  0.04354100  0.00582100  0.74590200  1
  Cu  Cu100  1  0.58069400  0.91978800  0.07715200  1
  Cu  Cu101  1  0.45645900  0.49417900  0.74590200  1
  Cu  Cu102  1  0.64570400  0.33120200  0.92027800  1
  Cu  Cu103  1  0.12598600  0.03166000  0.07915800  1
  Cu  Cu104  1  0.62598600  0.96834000  0.42084200  1
  Cu  Cu105  1  0.08069400  0.08021200  0.42284800  1
  Cu  Cu106  1  0.69074800  0.12673000  0.08411100  1
  Cu  Cu107  1  0.19074800  0.62673000  0.91588900  1
  Cu  Cu108  1  0.12598600  0.46834000  0.57915800  1
  Cu  Cu109  1  0.14570400  0.66879800  0.57972200  1
  Cu  Cu110  1  0.30925200  0.87327000  0.91588900  1
  Cu  Cu111  1  0.75000000  0.75000000  0.99540700  1
