# generated using pymatgen
data_Cu(NiC3)4
_symmetry_space_group_name_H-M   'P 1'
_cell_length_a   13.88969648
_cell_length_b   13.88969648
_cell_length_c   13.88969648
_cell_angle_alpha   109.47122063
_cell_angle_beta   109.47122063
_cell_angle_gamma   109.47122063
_symmetry_Int_Tables_number   1
_chemical_formula_structural   Cu(NiC3)4
_chemical_formula_sum   'Cu8 Ni32 C96'
_cell_volume   2062.79645161
_cell_formula_units_Z   8
loop_
 _symmetry_equiv_pos_site_id
 _symmetry_equiv_pos_as_xyz
  1  'x, y, z'
loop_
 _atom_site_type_symbol
 _atom_site_label
 _atom_site_symmetry_multiplicity
 _atom_site_fract_x
 _atom_site_fract_y
 _atom_site_fract_z
 _atom_site_occupancy
  Ni  Ni0  1  0.74863900  0.49863900  0.25000000  1
  Ni  Ni1  1  0.49863900  0.74863900  0.75000000  1
  Ni  Ni2  1  0.75000000  0.75136100  0.00136100  1
  Ni  Ni3  1  0.49863900  0.25000000  0.74863900  1
  Ni  Ni4  1  0.25000000  0.74863900  0.49863900  1
  Ni  Ni5  1  0.00136100  0.75000000  0.75136100  1
  Ni  Ni6  1  0.75136100  0.25000000  0.00136100  1
  Ni  Ni7  1  0.74863900  0.75000000  0.49863900  1
  Ni  Ni8  1  0.75000000  0.49863900  0.74863900  1
  Ni  Ni9  1  0.25000000  0.00136100  0.75136100  1
  Ni  Ni10  1  0.00136100  0.75136100  0.25000000  1
  Ni  Ni11  1  0.75136100  0.00136100  0.75000000  1
  Ni  Ni12  1  0.25136100  0.50136100  0.75000000  1
  Ni  Ni13  1  0.50136100  0.25136100  0.25000000  1
  Ni  Ni14  1  0.25000000  0.24863900  0.99863900  1
  Ni  Ni15  1  0.50136100  0.75000000  0.25136100  1
  Ni  Ni16  1  0.75000000  0.25136100  0.50136100  1
  Ni  Ni17  1  0.99863900  0.25000000  0.24863900  1
  Ni  Ni18  1  0.24863900  0.75000000  0.99863900  1
  Ni  Ni19  1  0.25136100  0.25000000  0.50136100  1
  Ni  Ni20  1  0.25000000  0.50136100  0.25136100  1
  Ni  Ni21  1  0.75000000  0.99863900  0.24863900  1
  Ni  Ni22  1  0.99863900  0.24863900  0.75000000  1
  Ni  Ni23  1  0.24863900  0.99863900  0.25000000  1
  Ni  Ni24  1  0.50000000  0.50000000  0.50000000  1
  Ni  Ni25  1  0.50000000  0.50000000  0.00000000  1
  Ni  Ni26  1  0.50000000  0.00000000  0.50000000  1
  Ni  Ni27  1  0.00000000  0.50000000  0.50000000  1
  Ni  Ni28  1  0.50000000  0.00000000  0.00000000  1
  Ni  Ni29  1  0.00000000  0.00000000  0.50000000  1
  Ni  Ni30  1  0.00000000  0.50000000  0.00000000  1
  Ni  Ni31  1  0.00000000  0.00000000  0.00000000  1
  Cu  Cu32  1  0.25000000  0.25000000  0.25000000  1
  Cu  Cu33  1  0.25000000  0.50000000  0.00000000  1
  Cu  Cu34  1  0.00000000  0.25000000  0.50000000  1
  Cu  Cu35  1  0.50000000  0.00000000  0.25000000  1
  Cu  Cu36  1  0.75000000  0.75000000  0.75000000  1
  Cu  Cu37  1  0.75000000  0.50000000  0.00000000  1
  Cu  Cu38  1  0.00000000  0.75000000  0.50000000  1
  Cu  Cu39  1  0.50000000  0.00000000  0.75000000  1
  C  C40  1  0.73359200  0.98359200  0.96718400  1
  C  C41  1  0.48359200  0.23359200  0.46718400  1
  C  C42  1  0.23359200  0.26640800  0.75000000  1
  C  C43  1  0.01640800  0.48359200  0.75000000  1
  C  C44  1  0.75000000  0.01640800  0.48359200  1
  C  C45  1  0.46718400  0.48359200  0.23359200  1
  C  C46  1  0.23359200  0.46718400  0.48359200  1
  C  C47  1  0.26640800  0.75000000  0.23359200  1
  C  C48  1  0.01640800  0.03281600  0.26640800  1
  C  C49  1  0.96718400  0.73359200  0.98359200  1
  C  C50  1  0.51640800  0.25000000  0.98359200  1
  C  C51  1  0.25000000  0.76640800  0.73359200  1
  C  C52  1  0.98359200  0.96718400  0.73359200  1
  C  C53  1  0.73359200  0.25000000  0.76640800  1
  C  C54  1  0.76640800  0.53281600  0.51640800  1
  C  C55  1  0.53281600  0.51640800  0.76640800  1
  C  C56  1  0.25000000  0.98359200  0.51640800  1
  C  C57  1  0.98359200  0.51640800  0.25000000  1
  C  C58  1  0.76640800  0.73359200  0.25000000  1
  C  C59  1  0.51640800  0.76640800  0.53281600  1
  C  C60  1  0.26640800  0.01640800  0.03281600  1
  C  C61  1  0.03281600  0.26640800  0.01640800  1
  C  C62  1  0.48359200  0.75000000  0.01640800  1
  C  C63  1  0.75000000  0.23359200  0.26640800  1
  C  C64  1  0.74301300  0.59761700  0.59861100  1
  C  C65  1  0.41112900  0.45556400  0.70556400  1
  C  C66  1  0.70556400  0.41112900  0.45556400  1
  C  C67  1  0.79443600  0.25000000  0.70556400  1
  C  C68  1  0.04443600  0.08887100  0.79443600  1
  C  C69  1  0.25000000  0.70556400  0.79443600  1
  C  C70  1  0.45556400  0.25000000  0.04443600  1
  C  C71  1  0.79443600  0.04443600  0.08887100  1
  C  C72  1  0.40138900  0.25698700  0.40238300  1
  C  C73  1  0.25698700  0.35460500  0.85559900  1
  C  C74  1  0.99900600  0.40138900  0.64440100  1
  C  C75  1  0.64440100  0.99900600  0.40138900  1
  C  C76  1  0.40238300  0.50099400  0.14539500  1
  C  C77  1  0.14539500  0.40238300  0.50099400  1
  C  C78  1  0.35460500  0.85559900  0.25698700  1
  C  C79  1  0.99900600  0.09761700  0.35460500  1
  C  C80  1  0.64440100  0.14539500  0.24301300  1
  C  C81  1  0.50099400  0.85559900  0.09861100  1
  C  C82  1  0.09761700  0.35460500  0.99900600  1
  C  C83  1  0.24301300  0.64440100  0.14539500  1
  C  C84  1  0.85559900  0.09861100  0.50099400  1
  C  C85  1  0.40238300  0.40138900  0.25698700  1
  C  C86  1  0.25698700  0.40238300  0.40138900  1
  C  C87  1  0.35460500  0.99900600  0.09761700  1
  C  C88  1  0.24301300  0.09861100  0.09761700  1
  C  C89  1  0.14539500  0.24301300  0.64440100  1
  C  C90  1  0.09761700  0.24301300  0.09861100  1
  C  C91  1  0.09861100  0.50099400  0.85559900  1
  C  C92  1  0.09861100  0.09761700  0.24301300  1
  C  C93  1  0.50099400  0.14539500  0.40238300  1
  C  C94  1  0.85559900  0.25698700  0.35460500  1
  C  C95  1  0.40138900  0.64440100  0.99900600  1
  C  C96  1  0.59861100  0.74301300  0.59761700  1
  C  C97  1  0.74301300  0.64539500  0.14440100  1
  C  C98  1  0.00099400  0.59861100  0.35559900  1
  C  C99  1  0.35559900  0.00099400  0.59861100  1
  C  C100  1  0.59761700  0.49900600  0.85460500  1
  C  C101  1  0.85460500  0.59761700  0.49900600  1
  C  C102  1  0.64539500  0.14440100  0.74301300  1
  C  C103  1  0.00099400  0.90238300  0.64539500  1
  C  C104  1  0.35559900  0.85460500  0.75698700  1
  C  C105  1  0.49900600  0.14440100  0.90138900  1
  C  C106  1  0.90238300  0.64539500  0.00099400  1
  C  C107  1  0.75698700  0.35559900  0.85460500  1
  C  C108  1  0.14440100  0.90138900  0.49900600  1
  C  C109  1  0.59761700  0.59861100  0.74301300  1
  C  C110  1  0.08887100  0.79443600  0.04443600  1
  C  C111  1  0.64539500  0.00099400  0.90238300  1
  C  C112  1  0.75698700  0.90138900  0.90238300  1
  C  C113  1  0.85460500  0.75698700  0.35559900  1
  C  C114  1  0.90238300  0.75698700  0.90138900  1
  C  C115  1  0.90138900  0.49900600  0.14440100  1
  C  C116  1  0.25000000  0.04443600  0.45556400  1
  C  C117  1  0.49900600  0.85460500  0.59761700  1
  C  C118  1  0.14440100  0.74301300  0.64539500  1
  C  C119  1  0.59861100  0.35559900  0.00099400  1
  C  C120  1  0.54443600  0.29443600  0.58887100  1
  C  C121  1  0.29443600  0.20556400  0.75000000  1
  C  C122  1  0.95556400  0.54443600  0.75000000  1
  C  C123  1  0.75000000  0.95556400  0.54443600  1
  C  C124  1  0.58887100  0.54443600  0.29443600  1
  C  C125  1  0.29443600  0.58887100  0.54443600  1
  C  C126  1  0.20556400  0.75000000  0.29443600  1
  C  C127  1  0.95556400  0.91112900  0.20556400  1
  C  C128  1  0.75000000  0.29443600  0.20556400  1
  C  C129  1  0.54443600  0.75000000  0.95556400  1
  C  C130  1  0.91112900  0.20556400  0.95556400  1
  C  C131  1  0.20556400  0.95556400  0.91112900  1
  C  C132  1  0.45556400  0.70556400  0.41112900  1
  C  C133  1  0.70556400  0.79443600  0.25000000  1
  C  C134  1  0.04443600  0.45556400  0.25000000  1
  C  C135  1  0.90138900  0.90238300  0.75698700  1
