# generated using pymatgen
data_Cu10NiC9
_symmetry_space_group_name_H-M   'P 1'
_cell_length_a   6.53458456
_cell_length_b   6.53458456
_cell_length_c   11.53456526
_cell_angle_alpha   89.96870699
_cell_angle_beta   89.96870699
_cell_angle_gamma   121.75276444
_symmetry_Int_Tables_number   1
_chemical_formula_structural   Cu10NiC9
_chemical_formula_sum   'Cu20 Ni2 C18'
_cell_volume   418.81555892
_cell_formula_units_Z   2
loop_
 _symmetry_equiv_pos_site_id
 _symmetry_equiv_pos_as_xyz
  1  'x, y, z'
loop_
 _atom_site_type_symbol
 _atom_site_label
 _atom_site_symmetry_multiplicity
 _atom_site_fract_x
 _atom_site_fract_y
 _atom_site_fract_z
 _atom_site_occupancy
  C  C0  1  0.74828800  0.25097200  0.50048200  1
  C  C1  1  0.25097200  0.74828800  0.00048200  1
  C  C2  1  0.37150200  0.31282200  0.22609700  1
  C  C3  1  0.31282200  0.37150200  0.72609700  1
  C  C4  1  0.45044300  0.84151000  0.23943400  1
  C  C5  1  0.84151000  0.45044300  0.73943400  1
  C  C6  1  0.85507300  0.91083500  0.22828100  1
  C  C7  1  0.91083500  0.85507300  0.72828000  1
  C  C8  1  0.01411500  0.62687500  0.27481000  1
  C  C9  1  0.62687500  0.01411500  0.77481000  1
  C  C10  1  0.77883600  0.23755000  0.16394000  1
  C  C11  1  0.23755000  0.77883600  0.66394000  1
  C  C12  1  0.28400800  0.79825300  0.43987200  1
  C  C13  1  0.79825300  0.28400800  0.93987200  1
  C  C14  1  0.75475000  0.80421900  0.46469400  1
  C  C15  1  0.80421900  0.75475000  0.96469400  1
  C  C16  1  0.02653600  0.01586600  0.45979400  1
  C  C17  1  0.01586600  0.02653600  0.95979400  1
  Ni  Ni18  1  0.40921200  0.39225900  0.47570900  1
  Ni  Ni19  1  0.39225900  0.40921200  0.97570900  1
  Cu  Cu20  1  0.61291500  0.74300300  0.23324700  1
  Cu  Cu21  1  0.74300300  0.61291500  0.73324700  1
  Cu  Cu22  1  0.52479700  0.03785100  0.15426900  1
  Cu  Cu23  1  0.03785100  0.52479700  0.65426900  1
  Cu  Cu24  1  0.46161000  0.93483100  0.35863500  1
  Cu  Cu25  1  0.93483100  0.46161000  0.85863500  1
  Cu  Cu26  1  0.21485100  0.63947700  0.21048400  1
  Cu  Cu27  1  0.63947700  0.21485100  0.71048400  1
  Cu  Cu28  1  0.93748500  0.14895500  0.20494900  1
  Cu  Cu29  1  0.14895500  0.93748500  0.70494900  1
  Cu  Cu30  1  0.86993600  0.35739700  0.05092000  1
  Cu  Cu31  1  0.35739700  0.86993600  0.55092000  1
  Cu  Cu32  1  0.78511600  0.41329600  0.24711900  1
  Cu  Cu33  1  0.41329600  0.78511600  0.74711900  1
  Cu  Cu34  1  0.03008400  0.86256200  0.25259300  1
  Cu  Cu35  1  0.86256200  0.03008400  0.75259300  1
  Cu  Cu36  1  0.05543100  0.62194500  0.40506000  1
  Cu  Cu37  1  0.62194500  0.05543100  0.90506000  1
  Cu  Cu38  1  0.86787200  0.96802200  0.49090100  1
  Cu  Cu39  1  0.96802200  0.86787200  0.99090100  1
