# generated using pymatgen
data_Cu12Ni12C55
_symmetry_space_group_name_H-M   'P 1'
_cell_length_a   12.17452000
_cell_length_b   12.18118761
_cell_length_c   12.92924780
_cell_angle_alpha   89.52801357
_cell_angle_beta   89.46363170
_cell_angle_gamma   89.80216500
_symmetry_Int_Tables_number   1
_chemical_formula_structural   Cu12Ni12C55
_chemical_formula_sum   'Cu12 Ni12 C55'
_cell_volume   1917.24890365
_cell_formula_units_Z   1
loop_
 _symmetry_equiv_pos_site_id
 _symmetry_equiv_pos_as_xyz
  1  'x, y, z'
loop_
 _atom_site_type_symbol
 _atom_site_label
 _atom_site_symmetry_multiplicity
 _atom_site_fract_x
 _atom_site_fract_y
 _atom_site_fract_z
 _atom_site_occupancy
  C  C0  1  0.80380400  0.80131400  0.77074000  1
  C  C1  1  0.18656000  0.81598900  0.21676500  1
  C  C2  1  0.81600800  0.81380300  0.22241400  1
  C  C3  1  0.81698900  0.18395000  0.21783200  1
  C  C4  1  0.18013300  0.17913000  0.21629000  1
  Ni  Ni5  1  0.99960400  0.63856400  0.82279100  1
  Ni  Ni6  1  0.63696300  0.99704400  0.82391200  1
  Ni  Ni7  1  0.19644200  0.99540100  0.62642400  1
  Ni  Ni8  1  0.00111300  0.19655600  0.62372500  1
  Ni  Ni9  1  0.80438600  0.00027000  0.38857400  1
  Ni  Ni10  1  0.99978300  0.80415700  0.38904800  1
  Ni  Ni11  1  0.19441100  0.99755800  0.38821400  1
  Ni  Ni12  1  0.99829800  0.19550800  0.38795500  1
  Ni  Ni13  1  0.36443800  0.00118000  0.16563600  1
  Ni  Ni14  1  0.00250200  0.63582700  0.16783100  1
  Ni  Ni15  1  0.00150700  0.36383300  0.16563700  1
  Ni  Ni16  1  0.63634000  0.00147100  0.16768100  1
  Cu  Cu17  1  0.36911100  0.81468900  0.99613600  1
  Cu  Cu18  1  0.81392200  0.37157200  0.99886600  1
  Cu  Cu19  1  0.63395100  0.18944600  0.99419300  1
  Cu  Cu20  1  0.18732500  0.37156100  0.99183900  1
  Cu  Cu21  1  0.37005400  0.18729300  0.99170800  1
  Cu  Cu22  1  0.37200600  0.99679100  0.82204400  1
  Cu  Cu23  1  0.99803900  0.37494700  0.82185400  1
  Cu  Cu24  1  0.81083100  0.00298000  0.62180400  1
  Cu  Cu25  1  0.00674500  0.81132500  0.62350800  1
  Cu  Cu26  1  0.63312100  0.81153000  0.00019800  1
  Cu  Cu27  1  0.81202100  0.63478600  0.99934500  1
  Cu  Cu28  1  0.18861500  0.63478600  0.99439500  1
  C  C29  1  0.19672100  0.19049000  0.78456600  1
  C  C30  1  0.80652400  0.20073200  0.78957500  1
  C  C31  1  0.68918300  0.68940200  0.99977100  1
  C  C32  1  0.30842400  0.69600200  0.98902300  1
  C  C33  1  0.69607300  0.30890000  0.98775300  1
  C  C34  1  0.21454600  0.50176000  0.00071700  1
  C  C35  1  0.50177700  0.21355400  0.99818700  1
  C  C36  1  0.33986300  0.89274500  0.89852300  1
  C  C37  1  0.89013900  0.34199700  0.89800600  1
  C  C38  1  0.11086700  0.34606100  0.89030900  1
  C  C39  1  0.34386700  0.11149400  0.89109800  1
  C  C40  1  0.67661300  0.87557900  0.89534600  1
  C  C41  1  0.87378300  0.67476400  0.89289500  1
  C  C42  1  0.11332700  0.66562000  0.89741000  1
  C  C43  1  0.66982300  0.11883800  0.89189300  1
  C  C44  1  0.50092000  0.99488400  0.79604700  1
  C  C45  1  0.99279600  0.50148300  0.79160500  1
  C  C46  1  0.72631700  0.97310200  0.71950100  1
  C  C47  1  0.97030500  0.72564300  0.71822500  1
  C  C48  1  0.99007000  0.29145900  0.72790700  1
  C  C49  1  0.29644900  0.00087700  0.72413000  1
  C  C50  1  0.89299100  0.89317700  0.63419000  1
  C  C51  1  0.11455400  0.87706500  0.64963500  1
  C  C52  1  0.87569300  0.11615700  0.64647000  1
  C  C53  1  0.11214300  0.11156900  0.65399100  1
  C  C54  1  0.00222900  0.74871800  0.51365500  1
  C  C55  1  0.25678300  0.99576800  0.50505900  1
  C  C56  1  0.99749100  0.25988600  0.50466600  1
  C  C57  1  0.74748000  0.00177100  0.51331400  1
  C  C58  1  0.87584000  0.87647100  0.37084300  1
  C  C59  1  0.11984500  0.87650800  0.36237000  1
  C  C60  1  0.87602400  0.12166400  0.36565400  1
  C  C61  1  0.11560500  0.11596600  0.36268900  1
  C  C62  1  0.73286700  0.99936000  0.26685400  1
  C  C63  1  0.99538300  0.73057100  0.26857800  1
  C  C64  1  0.99948000  0.26310200  0.26161200  1
  C  C65  1  0.26365900  0.00023800  0.26197600  1
  C  C66  1  0.00195300  0.49950900  0.18969100  1
  C  C67  1  0.50000900  0.00428700  0.19021500  1
  C  C68  1  0.32613400  0.87490300  0.10247300  1
  C  C69  1  0.87435300  0.32480400  0.10249300  1
  C  C70  1  0.12472400  0.32287200  0.09537200  1
  C  C71  1  0.32420800  0.12592600  0.09669300  1
  C  C72  1  0.67728300  0.87611800  0.10279400  1
  C  C73  1  0.87794700  0.67818200  0.10105000  1
  C  C74  1  0.12786100  0.67738200  0.10238600  1
  C  C75  1  0.67821500  0.12576300  0.09866400  1
  C  C76  1  0.50160300  0.79273500  0.00127200  1
  C  C77  1  0.79181000  0.50266000  0.00320300  1
  C  C78  1  0.30282000  0.30322500  0.97649000  1
