# generated using pymatgen
data_Cu17Ni3C80
_symmetry_space_group_name_H-M   'P 1'
_cell_length_a   5.58239806
_cell_length_b   5.58239806
_cell_length_c   45.86957294
_cell_angle_alpha   86.27621311
_cell_angle_beta   86.27621311
_cell_angle_gamma   59.96006390
_symmetry_Int_Tables_number   1
_chemical_formula_structural   Cu17Ni3C80
_chemical_formula_sum   'Cu17 Ni3 C80'
_cell_volume   1233.95071501
_cell_formula_units_Z   1
loop_
 _symmetry_equiv_pos_site_id
 _symmetry_equiv_pos_as_xyz
  1  'x, y, z'
loop_
 _atom_site_type_symbol
 _atom_site_label
 _atom_site_symmetry_multiplicity
 _atom_site_fract_x
 _atom_site_fract_y
 _atom_site_fract_z
 _atom_site_occupancy
  C  C0  1  0.32571700  0.32571700  0.02503100  1
  C  C1  1  0.62508000  0.62508000  0.12482900  1
  C  C2  1  0.92509500  0.92509500  0.22474800  1
  C  C3  1  0.97616300  0.97616300  0.07547900  1
  C  C4  1  0.22509400  0.22509400  0.32470700  1
  C  C5  1  0.27555500  0.27555500  0.17488800  1
  C  C6  1  0.52505500  0.52505500  0.42468200  1
  C  C7  1  0.57542600  0.57542600  0.27485700  1
  C  C8  1  0.82504600  0.82504600  0.52459000  1
  C  C9  1  0.87540200  0.87540200  0.37483700  1
  C  C10  1  0.12385900  0.12385900  0.62436300  1
  C  C11  1  0.17557600  0.17557600  0.47482600  1
  C  C12  1  0.42532900  0.42532900  0.72449000  1
  C  C13  1  0.47517800  0.47517800  0.57441100  1
  C  C14  1  0.72143400  0.72143400  0.82333100  1
  C  C15  1  0.77734500  0.77734500  0.67511000  1
  C  C16  1  0.02029600  0.02029600  0.92417400  1
  C  C17  1  0.07943900  0.07943900  0.77661600  1
  C  C18  1  0.37807400  0.37807400  0.87561400  1
  C  C19  1  0.67930000  0.67930000  0.97563600  1
  Ni  Ni20  1  0.74928100  0.74928100  0.74992400  1
  Ni  Ni21  1  0.05005100  0.05005100  0.85033600  1
  Ni  Ni22  1  0.35187200  0.35187200  0.94972000  1
  Cu  Cu23  1  0.99638800  0.99638800  0.99838500  1
  Cu  Cu24  1  0.30070200  0.30070200  0.09927900  1
  Cu  Cu25  1  0.60038500  0.60038500  0.19943500  1
  Cu  Cu26  1  0.65403100  0.65403100  0.04943700  1
  Cu  Cu27  1  0.95146300  0.95146300  0.14949700  1
  Cu  Cu28  1  0.90010100  0.90010100  0.29940600  1
  Cu  Cu29  1  0.20012800  0.20012800  0.39939200  1
  Cu  Cu30  1  0.25086700  0.25086700  0.24942700  1
  Cu  Cu31  1  0.55070700  0.55070700  0.34940700  1
  Cu  Cu32  1  0.50052100  0.50052100  0.49934200  1
  Cu  Cu33  1  0.85093300  0.85093300  0.44938200  1
  Cu  Cu34  1  0.80150100  0.80150100  0.59923400  1
  Cu  Cu35  1  0.10166000  0.10166000  0.70204600  1
  Cu  Cu36  1  0.15044400  0.15044400  0.54943300  1
  Cu  Cu37  1  0.40323400  0.40323400  0.79956700  1
  Cu  Cu38  1  0.44627400  0.44627400  0.64989300  1
  Cu  Cu39  1  0.70018500  0.70018500  0.89965300  1
  C  C40  1  0.96153700  0.45777800  0.07726900  1
  C  C41  1  0.83882600  0.35077400  0.02171000  1
  C  C42  1  0.46351300  0.46351300  0.07143100  1
  C  C43  1  0.83814300  0.83814300  0.03083500  1
  C  C44  1  0.26223800  0.76157700  0.17710100  1
  C  C45  1  0.13708500  0.63742300  0.12338100  1
  C  C46  1  0.45777800  0.96153700  0.07726900  1
  C  C47  1  0.35077400  0.83882600  0.02171000  1
  C  C48  1  0.76403300  0.76403300  0.17189400  1
  C  C49  1  0.13442700  0.13442700  0.12889700  1
  C  C50  1  0.56255500  0.06207300  0.27705500  1
  C  C51  1  0.43719000  0.93771500  0.22346300  1
  C  C52  1  0.76157700  0.26223800  0.17710100  1
  C  C53  1  0.63742300  0.13708500  0.12338100  1
  C  C54  1  0.06432000  0.06432000  0.27185000  1
  C  C55  1  0.43460800  0.43460800  0.22867200  1
  C  C56  1  0.86250200  0.36210400  0.37705200  1
  C  C57  1  0.73733800  0.23777500  0.32345100  1
  C  C58  1  0.06207300  0.56255500  0.27705500  1
  C  C59  1  0.93771500  0.43719000  0.22346300  1
  C  C60  1  0.36435500  0.36435500  0.37182800  1
  C  C61  1  0.73474700  0.73474700  0.32862300  1
  C  C62  1  0.16236700  0.66179700  0.47702500  1
  C  C63  1  0.03732800  0.53775500  0.42342200  1
  C  C64  1  0.36210400  0.86250200  0.37705200  1
  C  C65  1  0.23777500  0.73733800  0.32345100  1
  C  C66  1  0.66413100  0.66413100  0.47177200  1
  C  C67  1  0.03473000  0.03473000  0.42861800  1
  C  C68  1  0.46169600  0.95888000  0.57723900  1
  C  C69  1  0.33732000  0.83781100  0.52334500  1
  C  C70  1  0.66179700  0.16236700  0.47702500  1
  C  C71  1  0.53775500  0.03732800  0.42342200  1
  C  C72  1  0.96379900  0.96379900  0.57133000  1
  C  C73  1  0.33431200  0.33431200  0.52874900  1
  C  C74  1  0.75491200  0.24652600  0.67689800  1
  C  C75  1  0.64244400  0.14171100  0.62242800  1
  C  C76  1  0.95888000  0.46169600  0.57723900  1
  C  C77  1  0.83781100  0.33732000  0.52334500  1
  C  C78  1  0.26140300  0.26140300  0.66871100  1
  C  C79  1  0.64388800  0.64388800  0.63098900  1
  C  C80  1  0.04885400  0.53765700  0.78065300  1
  C  C81  1  0.94765200  0.45003100  0.71893900  1
  C  C82  1  0.24652600  0.75491200  0.67689800  1
  C  C83  1  0.14171100  0.64244400  0.62242800  1
  C  C84  1  0.54878700  0.54878700  0.76918300  1
  C  C85  1  0.95399500  0.95399500  0.73168000  1
  C  C86  1  0.34431400  0.83597900  0.88134500  1
  C  C87  1  0.25917900  0.75384800  0.82004100  1
  C  C88  1  0.53765700  0.04885400  0.78065300  1
  C  C89  1  0.45003100  0.94765200  0.71893900  1
  C  C90  1  0.84103900  0.84103900  0.86707400  1
  C  C91  1  0.25677700  0.25677700  0.83364200  1
  C  C92  1  0.65855100  0.13664200  0.97910200  1
  C  C93  1  0.56196700  0.05210300  0.91955700  1
  C  C94  1  0.83597900  0.34431400  0.88134500  1
  C  C95  1  0.75384800  0.25917900  0.82004100  1
  C  C96  1  0.14716300  0.14716300  0.96863800  1
  C  C97  1  0.55851100  0.55851100  0.93374100  1
  C  C98  1  0.13664200  0.65855100  0.97910200  1
  C  C99  1  0.05210300  0.56196700  0.91955700  1
