# generated using pymatgen
data_Cu(NiC6)2
_symmetry_space_group_name_H-M   'P 1'
_cell_length_a   9.75690707
_cell_length_b   9.75690707
_cell_length_c   12.01576400
_cell_angle_alpha   90.00000000
_cell_angle_beta   90.00000000
_cell_angle_gamma   98.11128201
_symmetry_Int_Tables_number   1
_chemical_formula_structural   Cu(NiC6)2
_chemical_formula_sum   'Cu4 Ni8 C48'
_cell_volume   1132.42414385
_cell_formula_units_Z   4
loop_
 _symmetry_equiv_pos_site_id
 _symmetry_equiv_pos_as_xyz
  1  'x, y, z'
loop_
 _atom_site_type_symbol
 _atom_site_label
 _atom_site_symmetry_multiplicity
 _atom_site_fract_x
 _atom_site_fract_y
 _atom_site_fract_z
 _atom_site_occupancy
  Ni  Ni0  1  0.63430200  0.87620500  0.75000000  1
  Ni  Ni1  1  0.38149800  0.61850200  0.41725300  1
  Ni  Ni2  1  0.36569800  0.12379500  0.25000000  1
  Ni  Ni3  1  0.61850200  0.38149800  0.58274700  1
  Ni  Ni4  1  0.87620500  0.63430200  0.25000000  1
  Ni  Ni5  1  0.38149800  0.61850200  0.08274700  1
  Ni  Ni6  1  0.61850200  0.38149800  0.91725300  1
  Ni  Ni7  1  0.12379500  0.36569800  0.75000000  1
  Cu  Cu8  1  0.86658400  0.13341600  0.07829400  1
  Cu  Cu9  1  0.13341600  0.86658400  0.92170600  1
  Cu  Cu10  1  0.13341600  0.86658400  0.57829400  1
  Cu  Cu11  1  0.86658400  0.13341600  0.42170600  1
  C  C12  1  0.78012700  0.95872900  0.25000000  1
  C  C13  1  0.90227000  0.66307200  0.75000000  1
  C  C14  1  0.27223200  0.72776800  0.75000000  1
  C  C15  1  0.33692800  0.09773000  0.75000000  1
  C  C16  1  0.09773000  0.33692800  0.25000000  1
  C  C17  1  0.54830300  0.84510300  0.25000000  1
  C  C18  1  0.00000000  0.50000000  0.50000000  1
  C  C19  1  0.04127100  0.21987300  0.25000000  1
  C  C20  1  0.95872900  0.78012700  0.75000000  1
  C  C21  1  0.07492600  0.59527100  0.53711600  1
  C  C22  1  0.69135800  0.69135800  0.00000000  1
  C  C23  1  0.12312700  0.12312700  0.00000000  1
  C  C24  1  0.15489700  0.45169700  0.25000000  1
  C  C25  1  0.21637500  0.21637500  0.50000000  1
  C  C26  1  0.83513200  0.16486800  0.84886700  1
  C  C27  1  0.64719200  0.35280800  0.25000000  1
  C  C28  1  0.87687300  0.87687300  0.50000000  1
  C  C29  1  0.84510300  0.54830300  0.75000000  1
  C  C30  1  0.83649000  0.16351000  0.75000000  1
  C  C31  1  0.40472900  0.92507400  0.96288400  1
  C  C32  1  0.56630800  0.43369200  0.25000000  1
  C  C33  1  0.16486800  0.83513200  0.34886700  1
  C  C34  1  0.30864200  0.30864200  0.50000000  1
  C  C35  1  0.59527100  0.07492600  0.46288400  1
  C  C36  1  0.69135800  0.69135800  0.50000000  1
  C  C37  1  0.92507400  0.40472900  0.46288400  1
  C  C38  1  0.92507400  0.40472900  0.03711600  1
  C  C39  1  0.59527100  0.07492600  0.03711600  1
  C  C40  1  0.12312700  0.12312700  0.50000000  1
  C  C41  1  0.45169700  0.15489700  0.75000000  1
  C  C42  1  0.21637500  0.21637500  0.00000000  1
  C  C43  1  0.07492600  0.59527100  0.96288400  1
  C  C44  1  0.78362500  0.78362500  0.50000000  1
  C  C45  1  0.66307200  0.90227000  0.25000000  1
  C  C46  1  0.72776800  0.27223200  0.25000000  1
  C  C47  1  0.16486800  0.83513200  0.15113300  1
  C  C48  1  0.30864200  0.30864200  0.00000000  1
  C  C49  1  0.43369200  0.56630800  0.75000000  1
  C  C50  1  0.00000000  0.50000000  0.00000000  1
  C  C51  1  0.35280800  0.64719200  0.75000000  1
  C  C52  1  0.78362500  0.78362500  0.00000000  1
  C  C53  1  0.16351000  0.83649000  0.25000000  1
  C  C54  1  0.87687300  0.87687300  0.00000000  1
  C  C55  1  0.21987300  0.04127100  0.75000000  1
  C  C56  1  0.40472900  0.92507400  0.53711600  1
  C  C57  1  0.50000000  0.00000000  0.00000000  1
  C  C58  1  0.50000000  0.00000000  0.50000000  1
  C  C59  1  0.83513200  0.16486800  0.65113300  1
