# generated using pymatgen
data_CuNi3C11
_symmetry_space_group_name_H-M   'P 1'
_cell_length_a   6.00984350
_cell_length_b   6.00984350
_cell_length_c   14.92030100
_cell_angle_alpha   90.00000000
_cell_angle_beta   90.00000000
_cell_angle_gamma   119.99999450
_symmetry_Int_Tables_number   1
_chemical_formula_structural   CuNi3C11
_chemical_formula_sum   'Cu2 Ni6 C22'
_cell_volume   466.69652393
_cell_formula_units_Z   2
loop_
 _symmetry_equiv_pos_site_id
 _symmetry_equiv_pos_as_xyz
  1  'x, y, z'
loop_
 _atom_site_type_symbol
 _atom_site_label
 _atom_site_symmetry_multiplicity
 _atom_site_fract_x
 _atom_site_fract_y
 _atom_site_fract_z
 _atom_site_occupancy
  Ni  Ni0  1  0.33333300  0.66666700  0.60288100  1
  Ni  Ni1  1  0.00000000  0.00000000  0.25000000  1
  Ni  Ni2  1  0.66666700  0.33333300  0.39711900  1
  Ni  Ni3  1  0.66666700  0.33333300  0.10288100  1
  Ni  Ni4  1  0.33333300  0.66666700  0.89711900  1
  Ni  Ni5  1  0.00000000  0.00000000  0.75000000  1
  Cu  Cu6  1  0.00000000  0.00000000  0.50000000  1
  Cu  Cu7  1  0.00000000  0.00000000  0.00000000  1
  C  C8  1  0.33333300  0.66666700  0.33364700  1
  C  C9  1  0.66666700  0.33333300  0.83364700  1
  C  C10  1  0.66666700  0.33333300  0.66635300  1
  C  C11  1  0.33333300  0.66666700  0.16635300  1
  C  C12  1  0.17813800  0.82186200  0.09266600  1
  C  C13  1  0.17813800  0.35627600  0.09266600  1
  C  C14  1  0.64372400  0.82186200  0.09266600  1
  C  C15  1  0.35627600  0.17813800  0.59266600  1
  C  C16  1  0.82186200  0.64372400  0.90733400  1
  C  C17  1  0.82186200  0.17813800  0.59266600  1
  C  C18  1  0.82186200  0.64372400  0.59266600  1
  C  C19  1  0.17813800  0.82186200  0.40733400  1
  C  C20  1  0.64372400  0.82186200  0.40733400  1
  C  C21  1  0.35627600  0.17813800  0.90733400  1
  C  C22  1  0.82186200  0.17813800  0.90733400  1
  C  C23  1  0.17813800  0.35627600  0.40733400  1
  C  C24  1  0.49096200  0.98192400  0.25000000  1
  C  C25  1  0.50903800  0.49096200  0.75000000  1
  C  C26  1  0.98192400  0.49096200  0.75000000  1
  C  C27  1  0.01807600  0.50903800  0.25000000  1
  C  C28  1  0.49096200  0.50903800  0.25000000  1
  C  C29  1  0.50903800  0.01807600  0.75000000  1
