# generated using pymatgen
data_Cu2NiC9
_symmetry_space_group_name_H-M   'P 1'
_cell_length_a   7.90614200
_cell_length_b   7.90614200
_cell_length_c   5.05938600
_cell_angle_alpha   90.00000000
_cell_angle_beta   90.00000000
_cell_angle_gamma   90.00000000
_symmetry_Int_Tables_number   1
_chemical_formula_structural   Cu2NiC9
_chemical_formula_sum   'Cu4 Ni2 C18'
_cell_volume   316.24745215
_cell_formula_units_Z   2
loop_
 _symmetry_equiv_pos_site_id
 _symmetry_equiv_pos_as_xyz
  1  'x, y, z'
loop_
 _atom_site_type_symbol
 _atom_site_label
 _atom_site_symmetry_multiplicity
 _atom_site_fract_x
 _atom_site_fract_y
 _atom_site_fract_z
 _atom_site_occupancy
  C  C0  1  0.16976900  0.33023100  0.49826200  1
  C  C1  1  0.33023100  0.83023100  0.50173800  1
  C  C2  1  0.66976900  0.16976900  0.50173800  1
  C  C3  1  0.83023100  0.66976900  0.49826200  1
  Ni  Ni4  1  0.00000000  0.00000000  0.00000000  1
  Ni  Ni5  1  0.50000000  0.50000000  0.00000000  1
  Cu  Cu6  1  0.14072300  0.64072300  0.93398200  1
  Cu  Cu7  1  0.35927700  0.14072300  0.06601800  1
  Cu  Cu8  1  0.85927700  0.35927700  0.93398200  1
  Cu  Cu9  1  0.64072300  0.85927700  0.06601800  1
  C  C10  1  0.68589100  0.41753600  0.77896800  1
  C  C11  1  0.31410900  0.58246400  0.77896800  1
  C  C12  1  0.41753600  0.31410900  0.22103200  1
  C  C13  1  0.58246400  0.68589100  0.22103200  1
  C  C14  1  0.91753600  0.18589100  0.77896800  1
  C  C15  1  0.81410900  0.91753600  0.22103200  1
  C  C16  1  0.18589100  0.08246400  0.22103200  1
  C  C17  1  0.08246400  0.81410900  0.77896800  1
  C  C18  1  0.85779500  0.35779500  0.25266800  1
  C  C19  1  0.64220500  0.85779500  0.74733200  1
  C  C20  1  0.50000000  0.00000000  0.18387600  1
  C  C21  1  0.00000000  0.50000000  0.81612400  1
  C  C22  1  0.14220500  0.64220500  0.25266800  1
  C  C23  1  0.35779500  0.14220500  0.74733200  1
