# generated using pymatgen
data_Cu2NiC5
_symmetry_space_group_name_H-M   'P 1'
_cell_length_a   8.26931258
_cell_length_b   8.26931258
_cell_length_c   8.26931258
_cell_angle_alpha   113.02062919
_cell_angle_beta   113.02062919
_cell_angle_gamma   102.58424878
_symmetry_Int_Tables_number   1
_chemical_formula_structural   Cu2NiC5
_chemical_formula_sum   'Cu8 Ni4 C20'
_cell_volume   430.65949122
_cell_formula_units_Z   4
loop_
 _symmetry_equiv_pos_site_id
 _symmetry_equiv_pos_as_xyz
  1  'x, y, z'
loop_
 _atom_site_type_symbol
 _atom_site_label
 _atom_site_symmetry_multiplicity
 _atom_site_fract_x
 _atom_site_fract_y
 _atom_site_fract_z
 _atom_site_occupancy
  C  C0  1  0.32540900  0.62153700  0.21400200  1
  C  C1  1  0.40753500  0.11140700  0.78599800  1
  C  C2  1  0.88859300  0.67459100  0.29612800  1
  C  C3  1  0.37846300  0.59246500  0.70387200  1
  Ni  Ni4  1  0.07144000  0.78005800  0.85188700  1
  Ni  Ni5  1  0.92817100  0.21955300  0.14811300  1
  Ni  Ni6  1  0.78044700  0.92856000  0.70861800  1
  Ni  Ni7  1  0.21994200  0.07182900  0.29138200  1
  Cu  Cu8  1  0.59605200  0.36624100  0.69803400  1
  Cu  Cu9  1  0.66820700  0.89801800  0.30196600  1
  Cu  Cu10  1  0.10198200  0.40394800  0.77018900  1
  Cu  Cu11  1  0.63375900  0.33179300  0.22981100  1
  Cu  Cu12  1  0.81671800  0.48015700  0.86307300  1
  Cu  Cu13  1  0.61708400  0.95364500  0.13692700  1
  Cu  Cu14  1  0.04635500  0.18328200  0.66343900  1
  Cu  Cu15  1  0.51984300  0.38291600  0.33656100  1
  C  C16  1  0.72787400  0.16584200  0.11795800  1
  C  C17  1  0.04788400  0.60991600  0.88204200  1
  C  C18  1  0.39008400  0.27212600  0.43796800  1
  C  C19  1  0.83415800  0.95211600  0.56203200  1
  C  C20  1  0.14760100  0.79194200  0.71810900  1
  C  C21  1  0.07383300  0.42949200  0.28189100  1
  C  C22  1  0.57050800  0.85239900  0.64434100  1
  C  C23  1  0.20805800  0.92616700  0.35565900  1
  C  C24  1  0.86056700  0.78612900  0.77325200  1
  C  C25  1  0.01287700  0.08731500  0.22674800  1
  C  C26  1  0.91268500  0.13943300  0.92556200  1
  C  C27  1  0.21387100  0.98712300  0.07443800  1
  C  C28  1  0.68885200  0.43056800  0.84811100  1
  C  C29  1  0.58245700  0.84074100  0.15188900  1
  C  C30  1  0.15925900  0.31114800  0.74171600  1
  C  C31  1  0.56943200  0.41754300  0.25828400  1
