# generated using pymatgen
data_Cu18Ni3C2
_symmetry_space_group_name_H-M   'P 1'
_cell_length_a   10.19565530
_cell_length_b   10.19565530
_cell_length_c   10.19565530
_cell_angle_alpha   60.00000000
_cell_angle_beta   60.00000000
_cell_angle_gamma   60.00000000
_symmetry_Int_Tables_number   1
_chemical_formula_structural   Cu18Ni3C2
_chemical_formula_sum   'Cu36 Ni6 C4'
_cell_volume   749.42889632
_cell_formula_units_Z   2
loop_
 _symmetry_equiv_pos_site_id
 _symmetry_equiv_pos_as_xyz
  1  'x, y, z'
loop_
 _atom_site_type_symbol
 _atom_site_label
 _atom_site_symmetry_multiplicity
 _atom_site_fract_x
 _atom_site_fract_y
 _atom_site_fract_z
 _atom_site_occupancy
  Ni  Ni0  1  0.25000000  0.25000000  0.25000000  1
  Ni  Ni1  1  0.62500000  0.12500000  0.12500000  1
  Ni  Ni2  1  0.12500000  0.62500000  0.12500000  1
  Ni  Ni3  1  0.00000000  0.00000000  0.00000000  1
  Ni  Ni4  1  0.12500000  0.12500000  0.12500000  1
  Ni  Ni5  1  0.12500000  0.12500000  0.62500000  1
  C  C6  1  0.62500000  0.62500000  0.12500000  1
  C  C7  1  0.62500000  0.62500000  0.62500000  1
  C  C8  1  0.62500000  0.12500000  0.62500000  1
  C  C9  1  0.12500000  0.62500000  0.62500000  1
  Cu  Cu10  1  0.33494700  0.06644600  0.79930300  1
  Cu  Cu11  1  0.06644600  0.79930300  0.33494700  1
  Cu  Cu12  1  0.91505300  0.18355400  0.45069700  1
  Cu  Cu13  1  0.18355400  0.45069700  0.45069700  1
  Cu  Cu14  1  0.06644600  0.33494700  0.79930300  1
  Cu  Cu15  1  0.79930300  0.79930300  0.06644600  1
  Cu  Cu16  1  0.79930300  0.06644600  0.79930300  1
  Cu  Cu17  1  0.63741800  0.63741800  0.36258200  1
  Cu  Cu18  1  0.79930300  0.33494700  0.06644600  1
  Cu  Cu19  1  0.45069700  0.45069700  0.18355400  1
  Cu  Cu20  1  0.45069700  0.91505300  0.45069700  1
  Cu  Cu21  1  0.79930300  0.06644600  0.33494700  1
  Cu  Cu22  1  0.63741800  0.36258200  0.63741800  1
  Cu  Cu23  1  0.45069700  0.18355400  0.91505300  1
  Cu  Cu24  1  0.18355400  0.91505300  0.45069700  1
  Cu  Cu25  1  0.88741800  0.88741800  0.61258200  1
  Cu  Cu26  1  0.06644600  0.79930300  0.79930300  1
  Cu  Cu27  1  0.33494700  0.79930300  0.06644600  1
  Cu  Cu28  1  0.79930300  0.33494700  0.79930300  1
  Cu  Cu29  1  0.91505300  0.45069700  0.18355400  1
  Cu  Cu30  1  0.61258200  0.88741800  0.88741800  1
  Cu  Cu31  1  0.63741800  0.36258200  0.36258200  1
  Cu  Cu32  1  0.45069700  0.18355400  0.45069700  1
  Cu  Cu33  1  0.61258200  0.88741800  0.61258200  1
  Cu  Cu34  1  0.18355400  0.45069700  0.91505300  1
  Cu  Cu35  1  0.91505300  0.45069700  0.45069700  1
  Cu  Cu36  1  0.36258200  0.63741800  0.63741800  1
  Cu  Cu37  1  0.61258200  0.61258200  0.88741800  1
  Cu  Cu38  1  0.88741800  0.61258200  0.61258200  1
  Cu  Cu39  1  0.36258200  0.36258200  0.63741800  1
  Cu  Cu40  1  0.45069700  0.45069700  0.91505300  1
  Cu  Cu41  1  0.79930300  0.79930300  0.33494700  1
  Cu  Cu42  1  0.33494700  0.79930300  0.79930300  1
  Cu  Cu43  1  0.36258200  0.63741800  0.36258200  1
  Cu  Cu44  1  0.88741800  0.61258200  0.88741800  1
  Cu  Cu45  1  0.45069700  0.91505300  0.18355400  1
