# generated using pymatgen
data_Cu2Ni2C9
_symmetry_space_group_name_H-M   'P 1'
_cell_length_a   8.26623700
_cell_length_b   13.03462850
_cell_length_c   13.06026394
_cell_angle_alpha   85.58390438
_cell_angle_beta   81.28143159
_cell_angle_gamma   89.14906588
_symmetry_Int_Tables_number   1
_chemical_formula_structural   Cu2Ni2C9
_chemical_formula_sum   'Cu16 Ni16 C72'
_cell_volume   1386.81127296
_cell_formula_units_Z   8
loop_
 _symmetry_equiv_pos_site_id
 _symmetry_equiv_pos_as_xyz
  1  'x, y, z'
loop_
 _atom_site_type_symbol
 _atom_site_label
 _atom_site_symmetry_multiplicity
 _atom_site_fract_x
 _atom_site_fract_y
 _atom_site_fract_z
 _atom_site_occupancy
  C  C0  1  0.68355900  0.50012300  0.07909900  1
  C  C1  1  0.31644100  0.49987700  0.92090100  1
  C  C2  1  0.23541600  0.46047100  0.53954900  1
  C  C3  1  0.76458400  0.53952900  0.46045100  1
  C  C4  1  0.73157300  0.96238500  0.54072700  1
  C  C5  1  0.26842700  0.03761500  0.45927300  1
  C  C6  1  0.17573600  0.01991200  0.08864300  1
  C  C7  1  0.82426400  0.98008800  0.91135700  1
  Ni  Ni8  1  0.00455300  0.62181900  0.18291500  1
  Ni  Ni9  1  0.99544700  0.37818100  0.81708500  1
  Ni  Ni10  1  0.00674700  0.12842800  0.67321900  1
  Ni  Ni11  1  0.99325300  0.87157200  0.32678100  1
  Ni  Ni12  1  0.60194800  0.16048600  0.38901600  1
  Ni  Ni13  1  0.39805200  0.83951400  0.61098400  1
  Ni  Ni14  1  0.61341900  0.66629700  0.88757900  1
  Ni  Ni15  1  0.38658100  0.33370300  0.11242100  1
  Ni  Ni16  1  0.12652600  0.81535500  0.88200900  1
  Ni  Ni17  1  0.87347400  0.18464500  0.11799100  1
  Ni  Ni18  1  0.11139500  0.31449900  0.37895900  1
  Ni  Ni19  1  0.46546600  0.11296800  0.84889300  1
  Ni  Ni20  1  0.52396900  0.39061700  0.66846300  1
  Ni  Ni21  1  0.47603100  0.60938300  0.33153700  1
  Ni  Ni22  1  0.53453400  0.88703200  0.15110700  1
  Ni  Ni23  1  0.88860500  0.68550100  0.62104100  1
  Cu  Cu24  1  0.39639100  0.67803600  0.11013500  1
  Cu  Cu25  1  0.60360900  0.32196400  0.88986500  1
  Cu  Cu26  1  0.39189800  0.18571900  0.61412800  1
  Cu  Cu27  1  0.60810200  0.81428100  0.38587200  1
  Cu  Cu28  1  0.97972800  0.10283300  0.33569200  1
  Cu  Cu29  1  0.02027200  0.89716700  0.66430800  1
  Cu  Cu30  1  0.97712700  0.60661500  0.85165400  1
  Cu  Cu31  1  0.02287300  0.39338500  0.14834600  1
  Cu  Cu32  1  0.51448000  0.88362700  0.81185400  1
  Cu  Cu33  1  0.48552000  0.11637300  0.18814600  1
  Cu  Cu34  1  0.49616800  0.37820700  0.32730100  1
  Cu  Cu35  1  0.50383200  0.62179300  0.67269900  1
  Cu  Cu36  1  0.09216600  0.15908700  0.89592900  1
  Cu  Cu37  1  0.09724800  0.65560300  0.39559900  1
  Cu  Cu38  1  0.90783400  0.84091300  0.10407100  1
  Cu  Cu39  1  0.90275200  0.34439700  0.60440100  1
  C  C40  1  0.50754400  0.62593700  0.19577900  1
  C  C41  1  0.49245600  0.37406300  0.80422100  1
  C  C42  1  0.45346900  0.14347600  0.71962200  1
  C  C43  1  0.54653100  0.85652400  0.28037800  1
  C  C44  1  0.95499600  0.63684800  0.73298100  1
  C  C45  1  0.04500400  0.36315200  0.26701900  1
  C  C46  1  0.99273600  0.12505200  0.21004700  1
  C  C47  1  0.00726400  0.87494800  0.78995300  1
  C  C48  1  0.48886000  0.39461200  0.20178300  1
  C  C49  1  0.51114000  0.60538800  0.79821700  1
  C  C50  1  0.53555400  0.89762200  0.68289500  1
  C  C51  1  0.46444600  0.10237800  0.31710500  1
  C  C52  1  0.02362700  0.39357700  0.67799000  1
  C  C53  1  0.97637300  0.60642300  0.32201000  1
  C  C54  1  0.99558700  0.89557100  0.19123400  1
  C  C55  1  0.00441300  0.10442900  0.80876600  1
  C  C56  1  0.41609600  0.80217500  0.09680100  1
  C  C57  1  0.58390400  0.19782500  0.90319900  1
  C  C58  1  0.40684100  0.31229800  0.60260200  1
  C  C59  1  0.59315900  0.68770200  0.39739800  1
  C  C60  1  0.90960500  0.82087000  0.60922400  1
  C  C61  1  0.09039500  0.17913000  0.39077600  1
  C  C62  1  0.89740300  0.31843400  0.10420900  1
  C  C63  1  0.10259700  0.68156600  0.89579100  1
  C  C64  1  0.35883800  0.20266400  0.14800800  1
  C  C65  1  0.20781000  0.39692100  0.07821000  1
  C  C66  1  0.64116200  0.79733600  0.85199200  1
  C  C67  1  0.62600300  0.29008500  0.35380600  1
  C  C68  1  0.87327200  0.22342600  0.63613200  1
  C  C69  1  0.12672800  0.77657400  0.36386800  1
  C  C70  1  0.88208700  0.72010000  0.13615200  1
  C  C71  1  0.11791300  0.27990000  0.86384800  1
  C  C72  1  0.20938300  0.64140000  0.13695200  1
  C  C73  1  0.79061700  0.35860000  0.86304800  1
  C  C74  1  0.20530900  0.14933600  0.60458000  1
  C  C75  1  0.79469100  0.85066400  0.39542000  1
  C  C76  1  0.68901500  0.64465500  0.60926300  1
  C  C77  1  0.31098500  0.35534500  0.39073700  1
  C  C78  1  0.67352000  0.14515500  0.14662500  1
  C  C79  1  0.32648000  0.85484500  0.85337500  1
  C  C80  1  0.96864500  0.12383900  0.00547500  1
  C  C81  1  0.03135500  0.87616100  0.99452500  1
  C  C82  1  0.99829200  0.62470000  0.51364300  1
  C  C83  1  0.00170800  0.37530000  0.48635700  1
  C  C84  1  0.49825800  0.12723000  0.51643100  1
  C  C85  1  0.50174200  0.87277000  0.48356900  1
  C  C86  1  0.47703700  0.62273400  0.00245900  1
  C  C87  1  0.52296300  0.37726600  0.99754100  1
  C  C88  1  0.56926200  0.99172300  0.85632900  1
  C  C89  1  0.43073800  0.00827700  0.14367100  1
  C  C90  1  0.56145600  0.48668300  0.36574500  1
  C  C91  1  0.43854400  0.51331700  0.63425500  1
  C  C92  1  0.06338500  0.98958000  0.36421400  1
  C  C93  1  0.93661500  0.01042000  0.63578600  1
  C  C94  1  0.06589800  0.49220300  0.86170700  1
  C  C95  1  0.93410200  0.50779700  0.13829300  1
  C  C96  1  0.26328400  0.10134800  0.91937900  1
  C  C97  1  0.73671600  0.89865200  0.08062100  1
  C  C98  1  0.27236400  0.59492200  0.39499300  1
  C  C99  1  0.72763600  0.40507800  0.60500700  1
  C  C100  1  0.78944800  0.09549100  0.39419000  1
  C  C101  1  0.21055200  0.90450900  0.60581000  1
  C  C102  1  0.79219000  0.60307900  0.92179000  1
  C  C103  1  0.37399700  0.70991500  0.64619400  1
