# generated using pymatgen
data_Cu2Ni2C11
_symmetry_space_group_name_H-M   'P 1'
_cell_length_a   15.44888372
_cell_length_b   15.44888372
_cell_length_c   15.44888372
_cell_angle_alpha   165.53917393
_cell_angle_beta   165.53917393
_cell_angle_gamma   20.50572287
_symmetry_Int_Tables_number   1
_chemical_formula_structural   Cu2Ni2C11
_chemical_formula_sum   'Cu2 Ni2 C11'
_cell_volume   229.89778008
_cell_formula_units_Z   1
loop_
 _symmetry_equiv_pos_site_id
 _symmetry_equiv_pos_as_xyz
  1  'x, y, z'
loop_
 _atom_site_type_symbol
 _atom_site_label
 _atom_site_symmetry_multiplicity
 _atom_site_fract_x
 _atom_site_fract_y
 _atom_site_fract_z
 _atom_site_occupancy
  C  C0  1  0.11721200  0.11721200  0.00000000  1
  C  C1  1  0.88278800  0.88278800  0.00000000  1
  C  C2  1  0.00000000  0.00000000  0.00000000  1
  Ni  Ni3  1  0.28771600  0.28771600  0.00000000  1
  Ni  Ni4  1  0.71228400  0.71228400  0.00000000  1
  Cu  Cu5  1  0.55060100  0.55060100  0.00000000  1
  Cu  Cu6  1  0.44939900  0.44939900  0.00000000  1
  C  C7  1  0.78072500  0.78072500  0.00000000  1
  C  C8  1  0.44785500  0.94785500  0.50000000  1
  C  C9  1  0.05214500  0.55214500  0.50000000  1
  C  C10  1  0.64556200  0.64556200  0.00000000  1
  C  C11  1  0.55214500  0.05214500  0.50000000  1
  C  C12  1  0.94785500  0.44785500  0.50000000  1
  C  C13  1  0.35443800  0.35443800  0.00000000  1
  C  C14  1  0.21927500  0.21927500  0.00000000  1
