# generated using pymatgen
data_Cu2Ni
_symmetry_space_group_name_H-M   'P 1'
_cell_length_a   19.14660578
_cell_length_b   19.14660578
_cell_length_c   19.14660578
_cell_angle_alpha   109.47122063
_cell_angle_beta   109.47122063
_cell_angle_gamma   109.47122063
_symmetry_Int_Tables_number   1
_chemical_formula_structural   Cu2Ni
_chemical_formula_sum   'Cu48 Ni24'
_cell_volume   5403.23050835
_cell_formula_units_Z   24
loop_
 _symmetry_equiv_pos_site_id
 _symmetry_equiv_pos_as_xyz
  1  'x, y, z'
loop_
 _atom_site_type_symbol
 _atom_site_label
 _atom_site_symmetry_multiplicity
 _atom_site_fract_x
 _atom_site_fract_y
 _atom_site_fract_z
 _atom_site_occupancy
  Ni  Ni0  1  0.74390900  0.38076900  0.25689800  1
  Ni  Ni1  1  0.48701100  0.12387100  0.74310200  1
  Ni  Ni2  1  0.63686000  0.51298900  0.25609100  1
  Ni  Ni3  1  0.74390900  0.25689800  0.38076900  1
  Ni  Ni4  1  0.51298900  0.63686000  0.25609100  1
  Ni  Ni5  1  0.38076900  0.74390900  0.25689800  1
  Ni  Ni6  1  0.36314000  0.61923100  0.87612900  1
  Ni  Ni7  1  0.38076900  0.25689800  0.74390900  1
  Ni  Ni8  1  0.25689800  0.38076900  0.74390900  1
  Ni  Ni9  1  0.25609100  0.63686000  0.51298900  1
  Ni  Ni10  1  0.36314000  0.87612900  0.61923100  1
  Ni  Ni11  1  0.87612900  0.36314000  0.61923100  1
  Ni  Ni12  1  0.25689800  0.74390900  0.38076900  1
  Ni  Ni13  1  0.74310200  0.12387100  0.48701100  1
  Ni  Ni14  1  0.51298900  0.25609100  0.63686000  1
  Ni  Ni15  1  0.12387100  0.48701100  0.74310200  1
  Ni  Ni16  1  0.48701100  0.74310200  0.12387100  1
  Ni  Ni17  1  0.63686000  0.25609100  0.51298900  1
  Ni  Ni18  1  0.25609100  0.51298900  0.63686000  1
  Ni  Ni19  1  0.61923100  0.36314000  0.87612900  1
  Ni  Ni20  1  0.74310200  0.48701100  0.12387100  1
  Ni  Ni21  1  0.61923100  0.87612900  0.36314000  1
  Ni  Ni22  1  0.87612900  0.61923100  0.36314000  1
  Ni  Ni23  1  0.12387100  0.74310200  0.48701100  1
  Cu  Cu24  1  0.00000000  0.75034900  0.48769700  1
  Cu  Cu25  1  0.38349800  0.62031800  0.26151300  1
  Cu  Cu26  1  0.23681900  0.87801500  0.61650200  1
  Cu  Cu27  1  0.87801500  0.23681900  0.61650200  1
  Cu  Cu28  1  0.00000000  0.48769700  0.75034900  1
  Cu  Cu29  1  0.50000000  0.12028100  0.62028100  1
  Cu  Cu30  1  0.64119500  0.76318100  0.37968200  1
  Cu  Cu31  1  0.50000000  0.87971900  0.37971900  1
  Cu  Cu32  1  0.87801500  0.61650200  0.23681900  1
  Cu  Cu33  1  0.26265300  0.51230300  0.51230300  1
  Cu  Cu34  1  0.12198500  0.73848700  0.35880500  1
  Cu  Cu35  1  0.73848700  0.35880500  0.12198500  1
  Cu  Cu36  1  0.38349800  0.26151300  0.62031800  1
  Cu  Cu37  1  0.12028100  0.62028100  0.50000000  1
  Cu  Cu38  1  0.26151300  0.62031800  0.38349800  1
  Cu  Cu39  1  0.61650200  0.23681900  0.87801500  1
  Cu  Cu40  1  0.12028100  0.50000000  0.62028100  1
  Cu  Cu41  1  0.62031800  0.26151300  0.38349800  1
  Cu  Cu42  1  0.62028100  0.12028100  0.50000000  1
  Cu  Cu43  1  0.51230300  0.51230300  0.26265300  1
  Cu  Cu44  1  0.37968200  0.76318100  0.64119500  1
  Cu  Cu45  1  0.73734700  0.24965100  0.24965100  1
  Cu  Cu46  1  0.76318100  0.64119500  0.37968200  1
  Cu  Cu47  1  0.37971900  0.50000000  0.87971900  1
  Cu  Cu48  1  0.75034900  0.00000000  0.48769700  1
  Cu  Cu49  1  0.75034900  0.48769700  0.00000000  1
  Cu  Cu50  1  0.37968200  0.64119500  0.76318100  1
  Cu  Cu51  1  0.12198500  0.35880500  0.73848700  1
  Cu  Cu52  1  0.64119500  0.37968200  0.76318100  1
  Cu  Cu53  1  0.23681900  0.61650200  0.87801500  1
  Cu  Cu54  1  0.35880500  0.12198500  0.73848700  1
  Cu  Cu55  1  0.24965100  0.73734700  0.24965100  1
  Cu  Cu56  1  0.73848700  0.12198500  0.35880500  1
  Cu  Cu57  1  0.48769700  0.00000000  0.75034900  1
  Cu  Cu58  1  0.35880500  0.73848700  0.12198500  1
  Cu  Cu59  1  0.50000000  0.62028100  0.12028100  1
  Cu  Cu60  1  0.62031800  0.38349800  0.26151300  1
  Cu  Cu61  1  0.50000000  0.37971900  0.87971900  1
  Cu  Cu62  1  0.87971900  0.50000000  0.37971900  1
  Cu  Cu63  1  0.62028100  0.50000000  0.12028100  1
  Cu  Cu64  1  0.26151300  0.38349800  0.62031800  1
  Cu  Cu65  1  0.61650200  0.87801500  0.23681900  1
  Cu  Cu66  1  0.24965100  0.24965100  0.73734700  1
  Cu  Cu67  1  0.37971900  0.87971900  0.50000000  1
  Cu  Cu68  1  0.87971900  0.37971900  0.50000000  1
  Cu  Cu69  1  0.48769700  0.75034900  0.00000000  1
  Cu  Cu70  1  0.51230300  0.26265300  0.51230300  1
  Cu  Cu71  1  0.76318100  0.37968200  0.64119500  1
