# generated using pymatgen
data_Cu3Ni7C40
_symmetry_space_group_name_H-M   'P 1'
_cell_length_a   5.49438300
_cell_length_b   5.57744660
_cell_length_c   38.99047310
_cell_angle_alpha   90.08875294
_cell_angle_beta   90.04882500
_cell_angle_gamma   90.18666668
_symmetry_Int_Tables_number   1
_chemical_formula_structural   Cu3Ni7C40
_chemical_formula_sum   'Cu6 Ni14 C80'
_cell_volume   1194.84032167
_cell_formula_units_Z   2
loop_
 _symmetry_equiv_pos_site_id
 _symmetry_equiv_pos_as_xyz
  1  'x, y, z'
loop_
 _atom_site_type_symbol
 _atom_site_label
 _atom_site_symmetry_multiplicity
 _atom_site_fract_x
 _atom_site_fract_y
 _atom_site_fract_z
 _atom_site_occupancy
  C  C0  1  0.99442800  0.03228000  0.14889100  1
  C  C1  1  0.99149200  0.02197800  0.35197700  1
  C  C2  1  0.99129900  0.02173400  0.55191900  1
  C  C3  1  0.99180800  0.02130300  0.75200100  1
  C  C4  1  0.98734300  0.02447800  0.95277500  1
  C  C5  1  0.50976800  0.52092700  0.35236900  1
  C  C6  1  0.51077400  0.52086500  0.55237500  1
  C  C7  1  0.51147300  0.52019700  0.75256000  1
  C  C8  1  0.50665800  0.52265800  0.95282700  1
  C  C9  1  0.48685000  0.47466600  0.04878700  1
  C  C10  1  0.49776900  0.47553100  0.24826700  1
  C  C11  1  0.49092800  0.47169000  0.64758100  1
  C  C12  1  0.49068000  0.47194200  0.44746800  1
  C  C13  1  0.49176700  0.47138200  0.84777800  1
  C  C14  1  0.52050400  0.53967400  0.14951100  1
  C  C15  1  0.01401900  0.94943600  0.24787900  1
  C  C16  1  0.00910300  0.95339500  0.04900600  1
  C  C17  1  0.00914500  0.95272700  0.64753500  1
  C  C18  1  0.00911700  0.95250800  0.44743800  1
  C  C19  1  0.01000500  0.95227100  0.84772900  1
  Ni  Ni20  1  0.00126300  0.49338500  0.29972200  1
  Ni  Ni21  1  0.00067900  0.49495100  0.50043100  1
  Ni  Ni22  1  0.00092600  0.49500400  0.70078900  1
  Ni  Ni23  1  0.00054900  0.49451400  0.90088200  1
  Ni  Ni24  1  0.50561100  0.00483500  0.10002000  1
  Ni  Ni25  1  0.50407100  0.99841300  0.30062400  1
  Ni  Ni26  1  0.49399800  0.99509700  0.99976500  1
  Ni  Ni27  1  0.50252800  0.99979500  0.50022300  1
  Ni  Ni28  1  0.50292900  0.99897500  0.90032800  1
  Ni  Ni29  1  0.50272800  0.99990000  0.70019600  1
  Ni  Ni30  1  0.50803700  0.00561900  0.19972400  1
  Ni  Ni31  1  0.50227900  0.99296900  0.59939800  1
  Ni  Ni32  1  0.50262900  0.99296200  0.39960400  1
  Ni  Ni33  1  0.50277300  0.99257200  0.79948400  1
  Cu  Cu34  1  0.98927700  0.48985200  0.99980400  1
  Cu  Cu35  1  0.00642000  0.49447000  0.09744600  1
  Cu  Cu36  1  0.01592800  0.49422800  0.19746400  1
  Cu  Cu37  1  0.99815000  0.48355200  0.39927900  1
  Cu  Cu38  1  0.99782400  0.48372300  0.59990900  1
  Cu  Cu39  1  0.99829900  0.48343400  0.80015600  1
  C  C40  1  0.92722700  0.51481700  0.05074300  1
  C  C41  1  0.92948600  0.52095800  0.25031000  1
  C  C42  1  0.92769500  0.51807700  0.45019000  1
  C  C43  1  0.92789100  0.51820000  0.65027300  1
  C  C44  1  0.92800500  0.51755500  0.85044000  1
  C  C45  1  0.77875700  0.78209200  0.19245100  1
  C  C46  1  0.78029000  0.78371100  0.39407700  1
  C  C47  1  0.78051700  0.78389400  0.59419700  1
  C  C48  1  0.77222700  0.77733500  0.10750600  1
  C  C49  1  0.78510700  0.78810400  0.30664600  1
  C  C50  1  0.78145900  0.78347800  0.79432000  1
  C  C51  1  0.77860700  0.78010400  0.99472500  1
  C  C52  1  0.78397000  0.78827600  0.50652400  1
  C  C53  1  0.78384100  0.78789100  0.70669200  1
  C  C54  1  0.78532300  0.78833900  0.90680600  1
  C  C55  1  0.71215300  0.28542600  0.10915900  1
  C  C56  1  0.71169300  0.28974200  0.19112600  1
  C  C57  1  0.71393500  0.28553500  0.30771500  1
  C  C58  1  0.72321600  0.28151200  0.39264600  1
  C  C59  1  0.71296200  0.28626000  0.90849100  1
  C  C60  1  0.72393100  0.28185800  0.59289700  1
  C  C61  1  0.71408000  0.28610900  0.70823800  1
  C  C62  1  0.72526400  0.28138300  0.79309700  1
  C  C63  1  0.71422000  0.28570600  0.50811300  1
  C  C64  1  0.72395400  0.27923300  0.99298800  1
  C  C65  1  0.58138100  0.01938200  0.05036200  1
  C  C66  1  0.58572100  0.01839400  0.24988000  1
  C  C67  1  0.58183600  0.02080300  0.65038100  1
  C  C68  1  0.58169000  0.02101500  0.45025100  1
  C  C69  1  0.58235500  0.01972800  0.85055400  1
  C  C70  1  0.42544500  0.98908800  0.34958800  1
  C  C71  1  0.42331600  0.98207400  0.14995900  1
  C  C72  1  0.42555400  0.98993600  0.54970900  1
  C  C73  1  0.42637200  0.99039500  0.74982700  1
  C  C74  1  0.42524900  0.98597300  0.94993000  1
  C  C75  1  0.27120500  0.73119400  0.00916800  1
  C  C76  1  0.27177700  0.72394100  0.09227300  1
  C  C77  1  0.27810400  0.72462000  0.20759900  1
  C  C78  1  0.27244300  0.73374000  0.60859300  1
  C  C79  1  0.27923200  0.72709900  0.29083500  1
  C  C80  1  0.27211900  0.73362900  0.40840800  1
  C  C81  1  0.27702700  0.72818600  0.49090300  1
  C  C82  1  0.27324600  0.73327100  0.80873600  1
  C  C83  1  0.27663800  0.72830900  0.69107700  1
  C  C84  1  0.27763700  0.72640300  0.89119100  1
  C  C85  1  0.20937000  0.21474700  0.09159200  1
  C  C86  1  0.21702200  0.22172900  0.00858300  1
  C  C87  1  0.21285400  0.21553000  0.20843000  1
  C  C88  1  0.21742800  0.22381700  0.40822500  1
  C  C89  1  0.21776600  0.22419100  0.60845600  1
  C  C90  1  0.21416400  0.21387200  0.29062900  1
  C  C91  1  0.21304200  0.21582700  0.49082500  1
  C  C92  1  0.21263100  0.21574400  0.69095600  1
  C  C93  1  0.21224400  0.21473000  0.89122200  1
  C  C94  1  0.21902500  0.22423500  0.80868600  1
  C  C95  1  0.08406400  0.48686100  0.15075000  1
  C  C96  1  0.07308700  0.49106800  0.34982900  1
  C  C97  1  0.07375900  0.49204400  0.54994200  1
  C  C98  1  0.07473500  0.49138900  0.75007300  1
  C  C99  1  0.07281700  0.49154500  0.95028200  1
