# generated using pymatgen
data_Cu3Ni2C13
_symmetry_space_group_name_H-M   'P 1'
_cell_length_a   5.62508531
_cell_length_b   5.62508531
_cell_length_c   7.97991221
_cell_angle_alpha   66.58478774
_cell_angle_beta   66.58478774
_cell_angle_gamma   70.50209717
_symmetry_Int_Tables_number   1
_chemical_formula_structural   Cu3Ni2C13
_chemical_formula_sum   'Cu3 Ni2 C13'
_cell_volume   207.93476580
_cell_formula_units_Z   1
loop_
 _symmetry_equiv_pos_site_id
 _symmetry_equiv_pos_as_xyz
  1  'x, y, z'
loop_
 _atom_site_type_symbol
 _atom_site_label
 _atom_site_symmetry_multiplicity
 _atom_site_fract_x
 _atom_site_fract_y
 _atom_site_fract_z
 _atom_site_occupancy
  C  C0  1  0.00000000  0.00000000  0.00000000  1
  C  C1  1  0.50000000  0.00000000  0.50000000  1
  C  C2  1  0.00000000  0.50000000  0.50000000  1
  Ni  Ni3  1  0.43482800  0.43482800  0.76009000  1
  Ni  Ni4  1  0.56517200  0.56517200  0.23991000  1
  Cu  Cu5  1  0.00000000  0.00000000  0.50000000  1
  Cu  Cu6  1  0.79597200  0.79597200  0.70619700  1
  Cu  Cu7  1  0.20402800  0.20402800  0.29380300  1
  C  C8  1  0.31131100  0.31131100  0.68659200  1
  C  C9  1  0.68868900  0.68868900  0.31340800  1
  C  C10  1  0.33503100  0.73406100  0.72778300  1
  C  C11  1  0.73406100  0.33503100  0.72778300  1
  C  C12  1  0.66496900  0.26593900  0.27221700  1
  C  C13  1  0.26593900  0.66496900  0.27221700  1
  C  C14  1  0.15141400  0.15141400  0.43443700  1
  C  C15  1  0.84858600  0.84858600  0.56556300  1
  C  C16  1  0.31913000  0.31913000  0.99270000  1
  C  C17  1  0.68087000  0.68087000  0.00730000  1
