# generated using pymatgen
data_Cu(NiC4)4
_symmetry_space_group_name_H-M   'P 1'
_cell_length_a   8.37085700
_cell_length_b   8.69675200
_cell_length_c   12.10755100
_cell_angle_alpha   90.00000000
_cell_angle_beta   90.00000000
_cell_angle_gamma   90.00000000
_symmetry_Int_Tables_number   1
_chemical_formula_structural   Cu(NiC4)4
_chemical_formula_sum   'Cu4 Ni16 C64'
_cell_volume   881.42084228
_cell_formula_units_Z   4
loop_
 _symmetry_equiv_pos_site_id
 _symmetry_equiv_pos_as_xyz
  1  'x, y, z'
loop_
 _atom_site_type_symbol
 _atom_site_label
 _atom_site_symmetry_multiplicity
 _atom_site_fract_x
 _atom_site_fract_y
 _atom_site_fract_z
 _atom_site_occupancy
  C  C0  1  0.50000000  0.50000000  0.50000000  1
  C  C1  1  0.00000000  0.00000000  0.00000000  1
  C  C2  1  0.50000000  0.50000000  0.00000000  1
  C  C3  1  0.00000000  0.00000000  0.50000000  1
  C  C4  1  0.84671700  0.58570200  0.75000000  1
  C  C5  1  0.65328300  0.08570200  0.75000000  1
  C  C6  1  0.15328300  0.41429800  0.25000000  1
  C  C7  1  0.34671800  0.91429800  0.25000000  1
  C  C8  1  0.01258700  0.64255400  0.68039700  1
  C  C9  1  0.48741300  0.14255400  0.81960300  1
  C  C10  1  0.98741300  0.35744600  0.18039700  1
  C  C11  1  0.51258700  0.85744600  0.31960300  1
  C  C12  1  0.98741300  0.35744600  0.31960300  1
  C  C13  1  0.51258700  0.85744600  0.18039700  1
  C  C14  1  0.01258700  0.64255400  0.81960300  1
  C  C15  1  0.48741300  0.14255400  0.68039700  1
  C  C16  1  0.27740900  0.77646600  0.46661000  1
  C  C17  1  0.22259100  0.27646600  0.03339000  1
  C  C18  1  0.72259100  0.22353400  0.96661000  1
  C  C19  1  0.77740900  0.72353400  0.53339000  1
  C  C20  1  0.72259100  0.22353400  0.53339000  1
  C  C21  1  0.77740900  0.72353400  0.96661000  1
  C  C22  1  0.27740900  0.77646600  0.03339000  1
  C  C23  1  0.22259100  0.27646600  0.46661000  1
  C  C24  1  0.56882000  0.49809800  0.25000000  1
  C  C25  1  0.93118000  0.99809800  0.25000000  1
  C  C26  1  0.43118000  0.50190200  0.75000000  1
  C  C27  1  0.06882000  0.00190200  0.75000000  1
  C  C28  1  0.15403900  0.41429700  0.75000000  1
  C  C29  1  0.34596100  0.91429700  0.75000000  1
  C  C30  1  0.84596100  0.58570300  0.25000000  1
  C  C31  1  0.65403900  0.08570300  0.25000000  1
  C  C32  1  0.97683000  0.36318500  0.67612800  1
  C  C33  1  0.52317000  0.86318500  0.82387200  1
  C  C34  1  0.02317000  0.63681500  0.17612800  1
  C  C35  1  0.47683000  0.13681500  0.32387200  1
  C  C36  1  0.02317000  0.63681500  0.32387200  1
  C  C37  1  0.47683000  0.13681500  0.17612800  1
  C  C38  1  0.97683000  0.36318500  0.82387200  1
  C  C39  1  0.52317000  0.86318500  0.67612800  1
  Ni  Ni40  1  0.21447700  0.71460400  0.53378900  1
  Ni  Ni41  1  0.28552300  0.21460400  0.96621100  1
  Ni  Ni42  1  0.78552300  0.28539600  0.03378900  1
  Ni  Ni43  1  0.71447700  0.78539600  0.46621100  1
  Ni  Ni44  1  0.78552300  0.28539600  0.46621100  1
  Ni  Ni45  1  0.71447700  0.78539600  0.03378900  1
  Ni  Ni46  1  0.21447700  0.71460400  0.96621100  1
  Ni  Ni47  1  0.28552300  0.21460400  0.53378900  1
  Ni  Ni48  1  0.43800000  0.47889200  0.25000000  1
  Ni  Ni49  1  0.06200000  0.97889200  0.25000000  1
  Ni  Ni50  1  0.56200000  0.52110800  0.75000000  1
  Ni  Ni51  1  0.93800000  0.02110800  0.75000000  1
  Ni  Ni52  1  0.02373800  0.41986000  0.75000000  1
  Ni  Ni53  1  0.47626200  0.91986000  0.75000000  1
  Ni  Ni54  1  0.97626200  0.58014000  0.25000000  1
  Ni  Ni55  1  0.52373800  0.08014000  0.25000000  1
  Cu  Cu56  1  0.97073300  0.58293000  0.75000000  1
  Cu  Cu57  1  0.52926700  0.08293000  0.75000000  1
  Cu  Cu58  1  0.02926700  0.41707000  0.25000000  1
  Cu  Cu59  1  0.47073300  0.91707000  0.25000000  1
  C  C60  1  0.27903000  0.59606100  0.57428100  1
  C  C61  1  0.22097000  0.09606100  0.92571900  1
  C  C62  1  0.72097000  0.40393900  0.07428100  1
  C  C63  1  0.77903000  0.90393900  0.42571900  1
  C  C64  1  0.72097000  0.40393900  0.42571900  1
  C  C65  1  0.77903000  0.90393900  0.07428100  1
  C  C66  1  0.27903000  0.59606100  0.92571900  1
  C  C67  1  0.22097000  0.09606100  0.57428100  1
  C  C68  1  0.08024500  0.76967500  0.56536900  1
  C  C69  1  0.41975500  0.26967500  0.93463100  1
  C  C70  1  0.91975500  0.23032500  0.06536900  1
  C  C71  1  0.58024500  0.73032500  0.43463100  1
  C  C72  1  0.91975500  0.23032500  0.43463100  1
  C  C73  1  0.58024500  0.73032500  0.06536900  1
  C  C74  1  0.08024500  0.76967500  0.93463100  1
  C  C75  1  0.41975500  0.26967500  0.56536900  1
  C  C76  1  0.36716100  0.46813100  0.34255600  1
  C  C77  1  0.13283900  0.96813100  0.15744400  1
  C  C78  1  0.63283900  0.53186900  0.84255600  1
  C  C79  1  0.86716100  0.03186900  0.65744400  1
  C  C80  1  0.63283900  0.53186900  0.65744400  1
  C  C81  1  0.86716100  0.03186900  0.84255600  1
  C  C82  1  0.36716100  0.46813100  0.15744400  1
  C  C83  1  0.13283900  0.96813100  0.34255600  1
