# generated using pymatgen
data_Cu6NiC8
_symmetry_space_group_name_H-M   'P 1'
_cell_length_a   7.68582700
_cell_length_b   11.75814600
_cell_length_c   17.22003383
_cell_angle_alpha   48.15204047
_cell_angle_beta   90.00000000
_cell_angle_gamma   90.00000000
_symmetry_Int_Tables_number   1
_chemical_formula_structural   Cu6NiC8
_chemical_formula_sum   'Cu24 Ni4 C32'
_cell_volume   1159.23588106
_cell_formula_units_Z   4
loop_
 _symmetry_equiv_pos_site_id
 _symmetry_equiv_pos_as_xyz
  1  'x, y, z'
loop_
 _atom_site_type_symbol
 _atom_site_label
 _atom_site_symmetry_multiplicity
 _atom_site_fract_x
 _atom_site_fract_y
 _atom_site_fract_z
 _atom_site_occupancy
  Ni  Ni0  1  0.24976800  0.97342100  0.03932800  1
  Ni  Ni1  1  0.25023200  0.97342100  0.53932800  1
  Ni  Ni2  1  0.75023200  0.02657900  0.96067200  1
  Ni  Ni3  1  0.74976800  0.02657900  0.46067200  1
  C  C4  1  0.56399500  0.80602700  0.15428400  1
  C  C5  1  0.93600500  0.80602700  0.65428400  1
  C  C6  1  0.43600500  0.19397300  0.84571600  1
  C  C7  1  0.06399500  0.19397300  0.34571600  1
  C  C8  1  0.53532900  0.13751100  0.03597600  1
  C  C9  1  0.96467100  0.13751100  0.53597600  1
  C  C10  1  0.46467100  0.86248900  0.96402400  1
  C  C11  1  0.03532900  0.86248900  0.46402400  1
  Cu  Cu12  1  0.77709500  0.77561300  0.22253700  1
  Cu  Cu13  1  0.72290500  0.77561300  0.72253700  1
  Cu  Cu14  1  0.22290500  0.22438700  0.77746300  1
  Cu  Cu15  1  0.27709500  0.22438700  0.27746300  1
  Cu  Cu16  1  0.57459700  0.61525600  0.19079700  1
  Cu  Cu17  1  0.92540300  0.61525600  0.69079700  1
  Cu  Cu18  1  0.42540300  0.38474400  0.80920300  1
  Cu  Cu19  1  0.07459700  0.38474400  0.30920300  1
  Cu  Cu20  1  0.42490200  0.73156700  0.27185100  1
  Cu  Cu21  1  0.07509800  0.73156700  0.77185100  1
  Cu  Cu22  1  0.57509800  0.26843300  0.72814900  1
  Cu  Cu23  1  0.92490200  0.26843300  0.22814900  1
  Cu  Cu24  1  0.70882100  0.29190000  0.97617100  1
  Cu  Cu25  1  0.79117900  0.29190000  0.47617100  1
  Cu  Cu26  1  0.29117900  0.70810000  0.02382900  1
  Cu  Cu27  1  0.20882100  0.70810000  0.52382900  1
  Cu  Cu28  1  0.35603400  0.25880500  0.02603900  1
  Cu  Cu29  1  0.14396600  0.25880500  0.52603900  1
  Cu  Cu30  1  0.64396600  0.74119500  0.97396100  1
  Cu  Cu31  1  0.85603400  0.74119500  0.47396100  1
  Cu  Cu32  1  0.59151000  0.04047000  0.17458800  1
  Cu  Cu33  1  0.90849000  0.04047000  0.67458800  1
  Cu  Cu34  1  0.40849000  0.95953000  0.82541200  1
  Cu  Cu35  1  0.09151000  0.95953000  0.32541200  1
  C  C36  1  0.90382400  0.75162400  0.26806800  1
  C  C37  1  0.59617600  0.75162400  0.76806800  1
  C  C38  1  0.09617600  0.24837600  0.73193200  1
  C  C39  1  0.40382400  0.24837600  0.23193200  1
  C  C40  1  0.58763300  0.49073800  0.22443100  1
  C  C41  1  0.91236700  0.49073800  0.72443100  1
  C  C42  1  0.41236700  0.50926200  0.77556900  1
  C  C43  1  0.08763300  0.50926200  0.27556900  1
  C  C44  1  0.34443100  0.68334600  0.34518000  1
  C  C45  1  0.15556900  0.68334600  0.84518000  1
  C  C46  1  0.65556900  0.31665400  0.65482000  1
  C  C47  1  0.84443100  0.31665400  0.15482000  1
  C  C48  1  0.81266200  0.38663900  0.94195500  1
  C  C49  1  0.68733800  0.38663900  0.44195500  1
  C  C50  1  0.18733800  0.61336100  0.05804500  1
  C  C51  1  0.31266200  0.61336100  0.55804500  1
  C  C52  1  0.25020800  0.33303600  0.02181600  1
  C  C53  1  0.24979200  0.33303600  0.52181600  1
  C  C54  1  0.74979200  0.66696400  0.97818400  1
  C  C55  1  0.75020800  0.66696400  0.47818400  1
  C  C56  1  0.62493900  0.99641700  0.25680300  1
  C  C57  1  0.87506100  0.99641700  0.75680300  1
  C  C58  1  0.37506100  0.00358300  0.74319700  1
  C  C59  1  0.12493900  0.00358300  0.24319700  1
