# generated using pymatgen
data_Cu11NiC5
_symmetry_space_group_name_H-M   'P 1'
_cell_length_a   10.38301781
_cell_length_b   10.38301781
_cell_length_c   10.24509946
_cell_angle_alpha   83.62001290
_cell_angle_beta   83.62001290
_cell_angle_gamma   83.64248860
_symmetry_Int_Tables_number   1
_chemical_formula_structural   Cu11NiC5
_chemical_formula_sum   'Cu22 Ni2 C10'
_cell_volume   1085.42994469
_cell_formula_units_Z   2
loop_
 _symmetry_equiv_pos_site_id
 _symmetry_equiv_pos_as_xyz
  1  'x, y, z'
loop_
 _atom_site_type_symbol
 _atom_site_label
 _atom_site_symmetry_multiplicity
 _atom_site_fract_x
 _atom_site_fract_y
 _atom_site_fract_z
 _atom_site_occupancy
  C  C0  1  0.51195400  0.35639400  0.93112100  1
  C  C1  1  0.98885100  0.14795300  0.01473500  1
  C  C2  1  0.75227700  0.88742200  0.68545800  1
  C  C3  1  0.35639400  0.51195400  0.43112100  1
  C  C4  1  0.88742200  0.75227700  0.18545800  1
  C  C5  1  0.14795300  0.98885100  0.51473500  1
  C  C6  1  0.79427100  0.24791500  0.41365300  1
  C  C7  1  0.24791500  0.79427100  0.91365300  1
  C  C8  1  0.49792900  0.90954500  0.09924900  1
  C  C9  1  0.90954500  0.49792900  0.59924900  1
  Ni  Ni10  1  0.12753300  0.44880600  0.86005100  1
  Ni  Ni11  1  0.44880600  0.12753300  0.36005100  1
  Cu  Cu12  1  0.57521000  0.66409700  0.15950900  1
  Cu  Cu13  1  0.39939300  0.89629100  0.71384000  1
  Cu  Cu14  1  0.35186800  0.02124000  0.89900200  1
  Cu  Cu15  1  0.27982700  0.59991100  0.75847200  1
  Cu  Cu16  1  0.82358600  0.23353800  0.66772100  1
  Cu  Cu17  1  0.90268600  0.53365200  0.85216300  1
  Cu  Cu18  1  0.66409700  0.57521000  0.65950900  1
  Cu  Cu19  1  0.53365200  0.90268600  0.35216300  1
  Cu  Cu20  1  0.23353800  0.82358600  0.16772100  1
  Cu  Cu21  1  0.03471000  0.87057400  0.85541300  1
  Cu  Cu22  1  0.22008600  0.60944300  0.10480200  1
  Cu  Cu23  1  0.68090100  0.02180500  0.01448200  1
  Cu  Cu24  1  0.10989000  0.32200700  0.67319500  1
  Cu  Cu25  1  0.72675100  0.52404400  0.43827400  1
  Cu  Cu26  1  0.87057400  0.03471000  0.35541300  1
  Cu  Cu27  1  0.52404400  0.72675100  0.93827400  1
  Cu  Cu28  1  0.89629100  0.39939300  0.21384000  1
  Cu  Cu29  1  0.60944300  0.22008600  0.60480200  1
  Cu  Cu30  1  0.32200700  0.10989000  0.17319500  1
  Cu  Cu31  1  0.02124000  0.35186800  0.39900200  1
  Cu  Cu32  1  0.59991100  0.27982700  0.25847200  1
  Cu  Cu33  1  0.02180500  0.68090100  0.51448200  1
