# generated using pymatgen
data_CuNiC8
_symmetry_space_group_name_H-M   'P 1'
_cell_length_a   8.06671590
_cell_length_b   8.06671590
_cell_length_c   18.42438550
_cell_angle_alpha   70.92649068
_cell_angle_beta   70.92649068
_cell_angle_gamma   34.70089613
_symmetry_Int_Tables_number   1
_chemical_formula_structural   CuNiC8
_chemical_formula_sum   'Cu4 Ni4 C32'
_cell_volume   641.28447614
_cell_formula_units_Z   4
loop_
 _symmetry_equiv_pos_site_id
 _symmetry_equiv_pos_as_xyz
  1  'x, y, z'
loop_
 _atom_site_type_symbol
 _atom_site_label
 _atom_site_symmetry_multiplicity
 _atom_site_fract_x
 _atom_site_fract_y
 _atom_site_fract_z
 _atom_site_occupancy
  C  C0  1  0.85848300  0.40843200  0.86802900  1
  C  C1  1  0.59156800  0.14151700  0.63197100  1
  C  C2  1  0.40843200  0.85848300  0.36802900  1
  C  C3  1  0.14151700  0.59156800  0.13197100  1
  C  C4  1  0.50000000  0.00000000  0.50000000  1
  C  C5  1  0.21497000  0.78503000  0.75000000  1
  C  C6  1  0.78503000  0.21497000  0.25000000  1
  C  C7  1  0.00000000  0.50000000  0.00000000  1
  Ni  Ni8  1  0.78934400  0.26983900  0.06611000  1
  Ni  Ni9  1  0.73016100  0.21065600  0.43389000  1
  Ni  Ni10  1  0.21065600  0.73016100  0.93389000  1
  Ni  Ni11  1  0.26983900  0.78934400  0.56611000  1
  Cu  Cu12  1  0.30007600  0.83448700  0.85810600  1
  Cu  Cu13  1  0.83448700  0.30007600  0.35810600  1
  Cu  Cu14  1  0.16551300  0.69992400  0.64189400  1
  Cu  Cu15  1  0.69992400  0.16551300  0.14189400  1
  C  C16  1  0.85172000  0.34431200  0.01158000  1
  C  C17  1  0.34431200  0.85172000  0.51158000  1
  C  C18  1  0.65568800  0.14828000  0.48842000  1
  C  C19  1  0.14828000  0.65568800  0.98842000  1
  C  C20  1  0.86956100  0.49232500  0.65719500  1
  C  C21  1  0.50767500  0.13043900  0.84280500  1
  C  C22  1  0.13043900  0.50767500  0.34280500  1
  C  C23  1  0.49232500  0.86956100  0.15719500  1
  C  C24  1  0.54927800  0.97280600  0.91895800  1
  C  C25  1  0.33282500  0.83478300  0.17050300  1
  C  C26  1  0.45072200  0.02719400  0.08104200  1
  C  C27  1  0.57510200  0.80948700  0.65970500  1
  C  C28  1  0.42489800  0.19051300  0.34029500  1
  C  C29  1  0.97229300  0.60764100  0.28289900  1
  C  C30  1  0.02770700  0.39235900  0.71710100  1
  C  C31  1  0.83478300  0.33282500  0.67050300  1
  C  C32  1  0.02719400  0.45072200  0.58104200  1
  C  C33  1  0.80948700  0.57510200  0.15970500  1
  C  C34  1  0.60764100  0.97229300  0.78289900  1
  C  C35  1  0.39235900  0.02770700  0.21710100  1
  C  C36  1  0.66717500  0.16521700  0.82949700  1
  C  C37  1  0.16521700  0.66717500  0.32949700  1
  C  C38  1  0.97280600  0.54927800  0.41895800  1
  C  C39  1  0.19051300  0.42489800  0.84029500  1
