# generated using pymatgen
data_Cu3NiC13
_symmetry_space_group_name_H-M   'P 1'
_cell_length_a   9.40675300
_cell_length_b   9.40675300
_cell_length_c   9.40675300
_cell_angle_alpha   90.00000000
_cell_angle_beta   90.00000000
_cell_angle_gamma   90.00000000
_symmetry_Int_Tables_number   1
_chemical_formula_structural   Cu3NiC13
_chemical_formula_sum   'Cu12 Ni4 C52'
_cell_volume   832.37537155
_cell_formula_units_Z   4
loop_
 _symmetry_equiv_pos_site_id
 _symmetry_equiv_pos_as_xyz
  1  'x, y, z'
loop_
 _atom_site_type_symbol
 _atom_site_label
 _atom_site_symmetry_multiplicity
 _atom_site_fract_x
 _atom_site_fract_y
 _atom_site_fract_z
 _atom_site_occupancy
  C  C0  1  0.94933700  0.05066300  0.55066300  1
  C  C1  1  0.75984000  0.74016000  0.25984000  1
  C  C2  1  0.74016000  0.25984000  0.75984000  1
  C  C3  1  0.25984000  0.75984000  0.74016000  1
  C  C4  1  0.24016000  0.24016000  0.24016000  1
  C  C5  1  0.14142000  0.35858000  0.64142000  1
  C  C6  1  0.35858000  0.64142000  0.14142000  1
  C  C7  1  0.64142000  0.14142000  0.35858000  1
  C  C8  1  0.44933700  0.44933700  0.44933700  1
  C  C9  1  0.85858000  0.85858000  0.85858000  1
  C  C10  1  0.05066300  0.55066300  0.94933700  1
  C  C11  1  0.55066300  0.94933700  0.05066300  1
  Ni  Ni12  1  0.33254700  0.16745300  0.83254700  1
  Ni  Ni13  1  0.16745300  0.83254700  0.33254700  1
  Ni  Ni14  1  0.83254700  0.33254700  0.16745300  1
  Ni  Ni15  1  0.66745300  0.66745300  0.66745300  1
  Cu  Cu16  1  0.17139600  0.92161400  0.01078600  1
  Cu  Cu17  1  0.01078600  0.17139600  0.92161400  1
  Cu  Cu18  1  0.92161400  0.01078600  0.17139600  1
  Cu  Cu19  1  0.98921400  0.67139600  0.57838600  1
  Cu  Cu20  1  0.48921400  0.82860400  0.42161400  1
  Cu  Cu21  1  0.57838600  0.98921400  0.67139600  1
  Cu  Cu22  1  0.82860400  0.42161400  0.48921400  1
  Cu  Cu23  1  0.67139600  0.57838600  0.98921400  1
  Cu  Cu24  1  0.42161400  0.48921400  0.82860400  1
  Cu  Cu25  1  0.07838600  0.51078600  0.32860400  1
  Cu  Cu26  1  0.51078600  0.32860400  0.07838600  1
  Cu  Cu27  1  0.32860400  0.07838600  0.51078600  1
  C  C28  1  0.94255900  0.55744100  0.44255900  1
  C  C29  1  0.55744100  0.44255900  0.94255900  1
  C  C30  1  0.44255900  0.94255900  0.55744100  1
  C  C31  1  0.05744100  0.05744100  0.05744100  1
  C  C32  1  0.34954500  0.75406300  0.37951600  1
  C  C33  1  0.58904400  0.69752500  0.05963900  1
  C  C34  1  0.91095600  0.30247500  0.55963900  1
  C  C35  1  0.69752500  0.05963900  0.58904400  1
  C  C36  1  0.55963900  0.91095600  0.30247500  1
  C  C37  1  0.05963900  0.58904400  0.69752500  1
  C  C38  1  0.80247500  0.94036100  0.08904400  1
  C  C39  1  0.94036100  0.08904400  0.80247500  1
  C  C40  1  0.25406300  0.12048400  0.65045500  1
  C  C41  1  0.65045500  0.25406300  0.12048400  1
  C  C42  1  0.12048400  0.65045500  0.25406300  1
  C  C43  1  0.37951600  0.34954500  0.75406300  1
  C  C44  1  0.15045500  0.24593700  0.87951600  1
  C  C45  1  0.30247500  0.55963900  0.91095600  1
  C  C46  1  0.84954500  0.74593700  0.62048400  1
  C  C47  1  0.08904400  0.80247500  0.94036100  1
  C  C48  1  0.62048400  0.84954500  0.74593700  1
  C  C49  1  0.75406300  0.37951600  0.34954500  1
  C  C50  1  0.74593700  0.62048400  0.84954500  1
  C  C51  1  0.24593700  0.87951600  0.15045500  1
  C  C52  1  0.21783900  0.01442400  0.40786200  1
  C  C53  1  0.40786200  0.21783900  0.01442400  1
  C  C54  1  0.01442400  0.40786200  0.21783900  1
  C  C55  1  0.48557600  0.59213800  0.71783900  1
  C  C56  1  0.90786200  0.28216100  0.98557600  1
  C  C57  1  0.98557600  0.90786200  0.28216100  1
  C  C58  1  0.09213800  0.78216100  0.51442400  1
  C  C59  1  0.59213800  0.71783900  0.48557600  1
  C  C60  1  0.51442400  0.09213800  0.78216100  1
  C  C61  1  0.71783900  0.48557600  0.59213800  1
  C  C62  1  0.78216100  0.51442400  0.09213800  1
  C  C63  1  0.28216100  0.98557600  0.90786200  1
  C  C64  1  0.41095600  0.19752500  0.44036100  1
  C  C65  1  0.44036100  0.41095600  0.19752500  1
  C  C66  1  0.19752500  0.44036100  0.41095600  1
  C  C67  1  0.87951600  0.15045500  0.24593700  1
