# generated using pymatgen
data_Cu15NiC25
_symmetry_space_group_name_H-M   'P 1'
_cell_length_a   16.99470418
_cell_length_b   16.99470418
_cell_length_c   16.99470371
_cell_angle_alpha   50.47335506
_cell_angle_beta   50.47335506
_cell_angle_gamma   50.47335294
_symmetry_Int_Tables_number   1
_chemical_formula_structural   Cu15NiC25
_chemical_formula_sum   'Cu60 Ni4 C100'
_cell_volume   2690.34624115
_cell_formula_units_Z   4
loop_
 _symmetry_equiv_pos_site_id
 _symmetry_equiv_pos_as_xyz
  1  'x, y, z'
loop_
 _atom_site_type_symbol
 _atom_site_label
 _atom_site_symmetry_multiplicity
 _atom_site_fract_x
 _atom_site_fract_y
 _atom_site_fract_z
 _atom_site_occupancy
  Ni  Ni0  1  0.79966900  0.79966900  0.79966900  1
  Ni  Ni1  1  0.60015200  0.60015200  0.60015200  1
  Ni  Ni2  1  0.40001100  0.40001100  0.40001100  1
  Ni  Ni3  1  0.20027800  0.20027800  0.20027800  1
  Cu  Cu4  1  0.91152700  0.71962100  0.57502400  1
  Cu  Cu5  1  0.97027100  0.79895400  0.28289400  1
  Cu  Cu6  1  0.81553300  0.51198400  0.67725900  1
  Cu  Cu7  1  0.89390300  0.56064600  0.39547700  1
  Cu  Cu8  1  0.92107400  0.78705600  0.09940900  1
  Cu  Cu9  1  0.81155700  0.31102900  0.61672800  1
  Cu  Cu10  1  0.99599700  0.49653200  0.15950000  1
  Cu  Cu11  1  0.71275800  0.51926700  0.37798200  1
  Cu  Cu12  1  0.87266800  0.01595100  0.71279400  1
  Cu  Cu13  1  0.91610700  0.21396500  0.40683800  1
  Cu  Cu14  1  0.75730700  0.59926500  0.09176800  1
  Cu  Cu15  1  0.97849200  0.31151100  0.11636700  1
  Cu  Cu16  1  0.61662400  0.31420200  0.47442800  1
  Cu  Cu17  1  0.81642100  0.00953900  0.50957300  1
  Cu  Cu18  1  0.69134400  0.36002400  0.20054400  1
  Cu  Cu19  1  0.71962100  0.57502400  0.91152700  1
  Cu  Cu20  1  0.90593200  0.07774100  0.21099600  1
  Cu  Cu21  1  0.60533600  0.11397000  0.41758100  1
  Cu  Cu22  1  0.79895400  0.28289400  0.97027100  1
  Cu  Cu23  1  0.50963700  0.32170700  0.17796200  1
  Cu  Cu24  1  0.67725900  0.81553300  0.51198400  1
  Cu  Cu25  1  0.71855800  0.02417400  0.20246800  1
  Cu  Cu26  1  0.56064600  0.39547700  0.89390300  1
  Cu  Cu27  1  0.78705600  0.09940900  0.92107400  1
  Cu  Cu28  1  0.41824100  0.11367200  0.27393300  1
  Cu  Cu29  1  0.61672800  0.81155700  0.31102900  1
  Cu  Cu30  1  0.49653200  0.15950000  0.99599700  1
  Cu  Cu31  1  0.51926700  0.37798200  0.71275800  1
  Cu  Cu32  1  0.71279400  0.87266800  0.01595100  1
  Cu  Cu33  1  0.40683800  0.91610700  0.21396500  1
  Cu  Cu34  1  0.59926500  0.09176800  0.75730700  1
  Cu  Cu35  1  0.31151100  0.11636700  0.97849200  1
  Cu  Cu36  1  0.47442800  0.61662400  0.31420200  1
  Cu  Cu37  1  0.50957300  0.81642100  0.00953900  1
  Cu  Cu38  1  0.36002400  0.20054400  0.69134400  1
  Cu  Cu39  1  0.57502400  0.91152700  0.71962100  1
  Cu  Cu40  1  0.21099600  0.90593200  0.07774100  1
  Cu  Cu41  1  0.41758100  0.60533600  0.11397000  1
  Cu  Cu42  1  0.28289400  0.97027100  0.79895400  1
  Cu  Cu43  1  0.32170700  0.17796200  0.50963700  1
  Cu  Cu44  1  0.51198400  0.67725900  0.81553300  1
  Cu  Cu45  1  0.20246800  0.71855800  0.02417400  1
  Cu  Cu46  1  0.39547700  0.89390300  0.56064600  1
  Cu  Cu47  1  0.09940900  0.92107400  0.78705600  1
  Cu  Cu48  1  0.27393300  0.41824100  0.11367200  1
  Cu  Cu49  1  0.31102900  0.61672800  0.81155700  1
  Cu  Cu50  1  0.15950000  0.99599700  0.49653200  1
  Cu  Cu51  1  0.37798200  0.71275800  0.51926700  1
  Cu  Cu52  1  0.01595100  0.71279400  0.87266800  1
  Cu  Cu53  1  0.21396500  0.40683800  0.91610700  1
  Cu  Cu54  1  0.09176800  0.75730700  0.59926500  1
  Cu  Cu55  1  0.11636700  0.97849200  0.31151100  1
  Cu  Cu56  1  0.31420200  0.47442800  0.61662400  1
  Cu  Cu57  1  0.00953900  0.50957300  0.81642100  1
  Cu  Cu58  1  0.20054400  0.69134400  0.36002400  1
  Cu  Cu59  1  0.07774100  0.21099600  0.90593200  1
  Cu  Cu60  1  0.11397000  0.41758100  0.60533600  1
  Cu  Cu61  1  0.17796200  0.50963700  0.32170700  1
  Cu  Cu62  1  0.02417400  0.20246800  0.71855800  1
  Cu  Cu63  1  0.11367200  0.27393300  0.41824100  1
  C  C64  1  0.94556900  0.94556900  0.94556900  1
  C  C65  1  0.87693300  0.87693300  0.87693300  1
  C  C66  1  0.87431200  0.68715300  0.87577600  1
  C  C67  1  0.87577600  0.87431200  0.68715300  1
  C  C68  1  0.76218400  0.76218400  0.76218400  1
  C  C69  1  0.91507400  0.55704900  0.67660900  1
  C  C70  1  0.98506600  0.34523000  0.72329100  1
  C  C71  1  0.84970300  0.72727400  0.46730200  1
  C  C72  1  0.67927200  0.67927200  0.67927200  1
  C  C73  1  0.85099400  0.22354800  0.85087300  1
  C  C74  1  0.85087300  0.85099400  0.22354800  1
  C  C75  1  0.94556900  0.32409700  0.58412400  1
  C  C76  1  0.67478700  0.48726200  0.67576800  1
  C  C77  1  0.67576800  0.67478700  0.48726200  1
  C  C78  1  0.87107200  0.63251500  0.25123500  1
  C  C79  1  0.87648800  0.11507300  0.75464700  1
  C  C80  1  0.83776400  0.44127400  0.44201600  1
  C  C81  1  0.56256300  0.56256300  0.56256300  1
  C  C82  1  0.92582200  0.18438600  0.54217100  1
  C  C83  1  0.92661700  0.66980100  0.04563400  1
  C  C84  1  0.85264100  0.47112100  0.23326600  1
  C  C85  1  0.71384600  0.35747300  0.47729500  1
  C  C86  1  0.78515900  0.14232000  0.52482900  1
  C  C87  1  0.64757700  0.52665600  0.26715500  1
  C  C88  1  0.47905500  0.47905500  0.47905500  1
  C  C89  1  0.83305300  0.45351700  0.06918100  1
  C  C90  1  0.95407600  0.07818300  0.31595700  1
  C  C91  1  0.64127700  0.03785700  0.64052700  1
  C  C92  1  0.64052700  0.64127700  0.03785700  1
  C  C93  1  0.74068200  0.12703200  0.38367600  1
  C  C94  1  0.86648400  0.25000900  0.12786700  1
  C  C95  1  0.47474800  0.28734000  0.47552400  1
  C  C96  1  0.47552400  0.47474800  0.28734000  1
  C  C97  1  0.66931200  0.43141700  0.05544800  1
  C  C98  1  0.67660900  0.91507400  0.55704900  1
  C  C99  1  0.63106500  0.24593200  0.24599000  1
  C  C100  1  0.36235500  0.36235500  0.36235500  1
  C  C101  1  0.72329100  0.98506600  0.34523000  1
  C  C102  1  0.72727400  0.46730200  0.84970300  1
  C  C103  1  0.83753300  0.10865500  0.10826200  1
  C  C104  1  0.65003700  0.27214700  0.03359000  1
  C  C105  1  0.51520200  0.15832100  0.27732800  1
  C  C106  1  0.58412400  0.94556900  0.32409700  1
  C  C107  1  0.44694400  0.32734800  0.06827700  1
  C  C108  1  0.27971800  0.27971800  0.27971800  1
  C  C109  1  0.63251500  0.25123500  0.87107200  1
  C  C110  1  0.75464700  0.87648800  0.11507300  1
  C  C111  1  0.44201600  0.83776400  0.44127400  1
  C  C112  1  0.44127400  0.44201600  0.83776400  1
  C  C113  1  0.54217100  0.92582200  0.18438600  1
  C  C114  1  0.66980100  0.04563400  0.92661700  1
  C  C115  1  0.27671500  0.08718400  0.27376100  1
  C  C116  1  0.27376100  0.27671500  0.08718400  1
  C  C117  1  0.47112100  0.23326600  0.85264100  1
  C  C118  1  0.47729500  0.71384600  0.35747300  1
  C  C119  1  0.43873700  0.04198100  0.04066300  1
  C  C120  1  0.16243500  0.16243500  0.16243500  1
  C  C121  1  0.52482900  0.78515900  0.14232000  1
  C  C122  1  0.52665600  0.26715500  0.64757700  1
  C  C123  1  0.68715300  0.87577600  0.87431200  1
  C  C124  1  0.45351700  0.06918100  0.83305300  1
  C  C125  1  0.31595700  0.95407600  0.07818300  1
  C  C126  1  0.38367600  0.74068200  0.12703200  1
  C  C127  1  0.25000900  0.12786700  0.86648400  1
  C  C128  1  0.07462800  0.07462800  0.07462800  1
  C  C129  1  0.43141700  0.05544800  0.66931200  1
  C  C130  1  0.55704900  0.67660900  0.91507400  1
  C  C131  1  0.24599000  0.63106500  0.24593200  1
  C  C132  1  0.24593200  0.24599000  0.63106500  1
  C  C133  1  0.34523000  0.72329100  0.98506600  1
  C  C134  1  0.46730200  0.84970300  0.72727400  1
  C  C135  1  0.10826200  0.83753300  0.10865500  1
  C  C136  1  0.10865500  0.10826200  0.83753300  1
  C  C137  1  0.27214700  0.03359000  0.65003700  1
  C  C138  1  0.27732800  0.51520200  0.15832100  1
  C  C139  1  0.22354800  0.85087300  0.85099400  1
  C  C140  1  0.32409700  0.58412400  0.94556900  1
  C  C141  1  0.32734800  0.06827700  0.44694400  1
  C  C142  1  0.48726200  0.67576800  0.67478700  1
  C  C143  1  0.25123500  0.87107200  0.63251500  1
  C  C144  1  0.11507300  0.75464700  0.87648800  1
  C  C145  1  0.18438600  0.54217100  0.92582200  1
  C  C146  1  0.04563400  0.92661700  0.66980100  1
  C  C147  1  0.23326600  0.85264100  0.47112100  1
  C  C148  1  0.35747300  0.47729500  0.71384600  1
  C  C149  1  0.04066300  0.43873700  0.04198100  1
  C  C150  1  0.04198100  0.04066300  0.43873700  1
  C  C151  1  0.14232000  0.52482900  0.78515900  1
  C  C152  1  0.26715500  0.64757700  0.52665600  1
  C  C153  1  0.06918100  0.83305300  0.45351700  1
  C  C154  1  0.07818300  0.31595700  0.95407600  1
  C  C155  1  0.03785700  0.64052700  0.64127700  1
  C  C156  1  0.12703200  0.38367600  0.74068200  1
  C  C157  1  0.12786700  0.86648400  0.25000900  1
  C  C158  1  0.28734000  0.47552400  0.47474800  1
  C  C159  1  0.05544800  0.66931200  0.43141700  1
  C  C160  1  0.03359000  0.65003700  0.27214700  1
  C  C161  1  0.15832100  0.27732800  0.51520200  1
  C  C162  1  0.06827700  0.44694400  0.32734800  1
  C  C163  1  0.08718400  0.27376100  0.27671500  1
