# generated using pymatgen
data_CuNiC12
_symmetry_space_group_name_H-M   'P 1'
_cell_length_a   7.00877453
_cell_length_b   7.00877453
_cell_length_c   7.00877453
_cell_angle_alpha   60.00000000
_cell_angle_beta   60.00000000
_cell_angle_gamma   60.00000000
_symmetry_Int_Tables_number   1
_chemical_formula_structural   CuNiC12
_chemical_formula_sum   'Cu1 Ni1 C12'
_cell_volume   243.45083586
_cell_formula_units_Z   1
loop_
 _symmetry_equiv_pos_site_id
 _symmetry_equiv_pos_as_xyz
  1  'x, y, z'
loop_
 _atom_site_type_symbol
 _atom_site_label
 _atom_site_symmetry_multiplicity
 _atom_site_fract_x
 _atom_site_fract_y
 _atom_site_fract_z
 _atom_site_occupancy
  C  C0  1  0.62265700  0.62265700  0.62265700  1
  C  C1  1  0.13202800  0.62265700  0.62265700  1
  C  C2  1  0.62265700  0.62265700  0.13202800  1
  C  C3  1  0.62265700  0.13202800  0.62265700  1
  Ni  Ni4  1  0.00000000  0.00000000  0.00000000  1
  Cu  Cu5  1  0.25000000  0.25000000  0.25000000  1
  C  C6  1  0.86708700  0.86708700  0.39874000  1
  C  C7  1  0.86708700  0.39874000  0.86708700  1
  C  C8  1  0.39874000  0.86708700  0.86708700  1
  C  C9  1  0.86708700  0.86708700  0.86708700  1
  C  C10  1  0.38292000  0.38292000  0.85124100  1
  C  C11  1  0.38292000  0.85124100  0.38292000  1
  C  C12  1  0.38292000  0.38292000  0.38292000  1
  C  C13  1  0.85124100  0.38292000  0.38292000  1
