# generated using pymatgen
data_Cu7Ni18C83
_symmetry_space_group_name_H-M   'P 1'
_cell_length_a   8.61654600
_cell_length_b   8.62459288
_cell_length_c   23.57137640
_cell_angle_alpha   90.36707068
_cell_angle_beta   90.04474741
_cell_angle_gamma   104.79625749
_symmetry_Int_Tables_number   1
_chemical_formula_structural   Cu7Ni18C83
_chemical_formula_sum   'Cu7 Ni18 C83'
_cell_volume   1693.56211260
_cell_formula_units_Z   1
loop_
 _symmetry_equiv_pos_site_id
 _symmetry_equiv_pos_as_xyz
  1  'x, y, z'
loop_
 _atom_site_type_symbol
 _atom_site_label
 _atom_site_symmetry_multiplicity
 _atom_site_fract_x
 _atom_site_fract_y
 _atom_site_fract_z
 _atom_site_occupancy
  C  C0  1  0.67375600  0.66934700  0.33164700  1
  C  C1  1  0.00458300  0.00109300  0.00011000  1
  Ni  Ni2  1  0.31492800  0.52503500  0.82228300  1
  Ni  Ni3  1  0.57914200  0.70259000  0.95037600  1
  Ni  Ni4  1  0.61526400  0.75393900  0.71896900  1
  Ni  Ni5  1  0.66272900  0.85987300  0.48698000  1
  Ni  Ni6  1  0.79731500  0.01511300  0.84769200  1
  Ni  Ni7  1  0.67619400  0.37646400  0.77796000  1
  Ni  Ni8  1  0.92015800  0.02916700  0.62084000  1
  Ni  Ni9  1  0.96684200  0.07525700  0.37992300  1
  Ni  Ni10  1  0.99175900  0.19045200  0.15396300  1
  Ni  Ni11  1  0.95675500  0.65288000  0.88584300  1
  Ni  Ni12  1  0.15185200  0.32905000  0.50943700  1
  Ni  Ni13  1  0.02050700  0.69006100  0.44989600  1
  Ni  Ni14  1  0.25293100  0.36719900  0.28260700  1
  Ni  Ni15  1  0.29492100  0.41365200  0.04962900  1
  Ni  Ni16  1  0.30397500  0.98315500  0.55265000  1
  Ni  Ni17  1  0.47704700  0.67463900  0.17824000  1
  Ni  Ni18  1  0.34876000  0.03088400  0.11588300  1
  Ni  Ni19  1  0.63639400  0.31942600  0.21762900  1
  Cu  Cu20  1  0.61041400  0.20514500  0.97233100  1
  Cu  Cu21  1  0.76742300  0.59795500  0.58523400  1
  Cu  Cu22  1  0.04151800  0.48126300  0.64607200  1
  Cu  Cu23  1  0.28702200  0.06169700  0.83382200  1
  Cu  Cu24  1  0.19520800  0.80378200  0.29318200  1
  Cu  Cu25  1  0.52265000  0.19998700  0.41072700  1
  Cu  Cu26  1  0.87012100  0.55063000  0.08265300  1
  C  C27  1  0.07020500  0.30798600  0.92579100  1
  C  C28  1  0.40541600  0.63693900  0.58823300  1
  C  C29  1  0.57148800  0.10891100  0.66415600  1
  C  C30  1  0.74181200  0.97552100  0.25564500  1
  C  C31  1  0.89690100  0.43472000  0.33343200  1
  C  C32  1  0.22748600  0.77173700  0.00064900  1
  C  C33  1  0.02565700  0.24624200  0.74776600  1
  C  C34  1  0.36805900  0.59147400  0.40799500  1
  C  C35  1  0.69599100  0.92416300  0.07560500  1
  C  C36  1  0.10153300  0.78355700  0.95514200  1
  C  C37  1  0.15855100  0.63210900  0.84467700  1
  C  C38  1  0.15256300  0.28423100  0.98270600  1
  C  C39  1  0.19936200  0.33494600  0.87849900  1
  C  C40  1  0.44657000  0.10820600  0.61712700  1
  C  C41  1  0.39666100  0.81329500  0.97398500  1
  C  C42  1  0.56248000  0.23123500  0.71156600  1
  C  C43  1  0.49481500  0.96328200  0.50611100  1
  C  C44  1  0.41616700  0.66374900  0.76335600  1
  C  C45  1  0.53101900  0.94052300  0.69154700  1
  C  C46  1  0.46359400  0.61473100  0.88366200  1
  C  C47  1  0.49723500  0.62811200  0.64418500  1
  C  C48  1  0.52890400  0.66669000  0.53898000  1
  C  C49  1  0.47926200  0.37379600  0.81088100  1
  C  C50  1  0.77164900  0.44631900  0.28700900  1
  C  C51  1  0.66067600  0.91459100  0.90638900  1
  C  C52  1  0.74118600  0.15220100  0.63762600  1
  C  C53  1  0.88789400  0.56479200  0.37828100  1
  C  C54  1  0.70743500  0.87026200  0.78451100  1
  C  C55  1  0.82552400  0.30381700  0.17262400  1
  C  C56  1  0.76518400  0.00361000  0.43135600  1
  C  C57  1  0.85335900  0.26744300  0.36050900  1
  C  C58  1  0.79370700  0.93160700  0.55403600  1
  C  C59  1  0.69242600  0.56386800  0.72914100  1
  C  C60  1  0.82265100  0.95023600  0.31291300  1
  C  C61  1  0.81029000  0.85670600  0.66826200  1
  C  C62  1  0.76789300  0.63310400  0.93899300  1
  C  C63  1  0.87003200  0.00981100  0.20864500  1
  C  C64  1  0.81915100  0.70900200  0.47654500  1
  C  C65  1  0.69765100  0.17803000  0.82821600  1
  C  C66  1  0.00947200  0.23381900  0.56656800  1
  C  C67  1  0.81840600  0.51844200  0.83241300  1
  C  C68  1  0.06666400  0.47819600  0.30665900  1
  C  C69  1  0.99696200  0.11661800  0.79379900  1
  C  C70  1  0.94886900  0.85314200  0.86028100  1
  C  C71  1  0.21868700  0.90042800  0.04644200  1
  C  C72  1  0.06252900  0.20178600  0.44492800  1
  C  C73  1  0.04235300  0.17055900  0.68847300  1
  C  C74  1  0.08739000  0.33563500  0.09650500  1
  C  C75  1  0.18373900  0.60483400  0.02868400  1
  C  C76  1  0.89020100  0.33269700  0.74387500  1
  C  C77  1  0.13121300  0.28580300  0.21597100  1
  C  C78  1  0.03406800  0.89072300  0.39321300  1
  C  C79  1  0.14312300  0.18785800  0.33012800  1
  C  C80  1  0.10838800  0.96727900  0.60211500  1
  C  C81  1  0.98513900  0.44324600  0.93073700  1
  C  C82  1  0.15129100  0.05102500  0.14215700  1
  C  C83  1  0.04018500  0.50453900  0.49015500  1
  C  C84  1  0.94277300  0.14599200  0.91503600  1
  C  C85  1  0.33527200  0.57909400  0.23609000  1
  C  C86  1  0.15701100  0.84539100  0.49857500  1
  C  C87  1  0.33590000  0.46080300  0.45369900  1
  C  C88  1  0.29701900  0.18059000  0.51959300  1
  C  C89  1  0.38476900  0.53707400  0.11578700  1
  C  C90  1  0.39002500  0.51356400  0.34958500  1
  C  C91  1  0.23090000  0.67738700  0.40266600  1
  C  C92  1  0.36980500  0.23082600  0.06132900  1
  C  C93  1  0.18503000  0.37282800  0.76035600  1
  C  C94  1  0.47043600  0.52512100  0.99949600  1
  C  C95  1  0.44049400  0.30238500  0.26976900  1
  C  C96  1  0.31510900  0.76862100  0.59292900  1
  C  C97  1  0.36911300  0.84352100  0.15767500  1
  C  C98  1  0.28269700  0.47421500  0.57635400  1
  C  C99  1  0.48885200  0.18187200  0.16583600  1
  C  C100  1  0.66201900  0.79618700  0.12241700  1
  C  C101  1  0.62170500  0.51892900  0.18971500  1
  C  C102  1  0.71959600  0.84347000  0.01832300  1
  C  C103  1  0.56177400  0.01324100  0.06976400  1
  C  C104  1  0.52908600  0.71901700  0.41935800  1
  C  C105  1  0.65713900  0.11151900  0.26146900  1
  C  C106  1  0.61600300  0.81411400  0.24401300  1
  C  C107  1  0.85748800  0.05051800  0.08722800  1
