# generated using pymatgen
data_Cu22(Ni7C2)3
_symmetry_space_group_name_H-M   'P 1'
_cell_length_a   11.03154000
_cell_length_b   13.18145690
_cell_length_c   17.96267603
_cell_angle_alpha   83.53816775
_cell_angle_beta   80.52681477
_cell_angle_gamma   71.23833774
_symmetry_Int_Tables_number   1
_chemical_formula_structural   Cu22(Ni7C2)3
_chemical_formula_sum   'Cu22 Ni21 C6'
_cell_volume   2434.49515519
_cell_formula_units_Z   1
loop_
 _symmetry_equiv_pos_site_id
 _symmetry_equiv_pos_as_xyz
  1  'x, y, z'
loop_
 _atom_site_type_symbol
 _atom_site_label
 _atom_site_symmetry_multiplicity
 _atom_site_fract_x
 _atom_site_fract_y
 _atom_site_fract_z
 _atom_site_occupancy
  Ni  Ni0  1  0.82608400  0.99495000  0.65956700  1
  Ni  Ni1  1  0.53666400  0.15274700  0.60236600  1
  Ni  Ni2  1  0.97827500  0.82203700  0.89696400  1
  Ni  Ni3  1  0.33304200  0.32531900  0.20896300  1
  Ni  Ni4  1  0.39326300  0.16990700  0.38107200  1
  Ni  Ni5  1  0.97638500  0.93732200  0.52075000  1
  Ni  Ni6  1  0.16129700  0.53903500  0.61021900  1
  Ni  Ni7  1  0.85575900  0.56894200  0.04558700  1
  Ni  Ni8  1  0.29908500  0.20856000  0.53728200  1
  Ni  Ni9  1  0.35147100  0.18142300  0.05017000  1
  Ni  Ni10  1  0.65460500  0.80114500  0.94713000  1
  Ni  Ni11  1  0.70130400  0.82221400  0.45831800  1
  Ni  Ni12  1  0.15029800  0.42529900  0.93985100  1
  Ni  Ni13  1  0.87298700  0.42901000  0.41455100  1
  Ni  Ni14  1  0.04129200  0.12847400  0.48847400  1
  Ni  Ni15  1  0.64004700  0.82322700  0.61510600  1
  Ni  Ni16  1  0.60918400  0.68318700  0.80903600  1
  Ni  Ni17  1  0.99843300  0.16921900  0.07350300  1
  Ni  Ni18  1  0.45083900  0.85816500  0.37873500  1
  Ni  Ni19  1  0.66350500  0.37061000  0.40646000  1
  Ni  Ni20  1  0.19086400  0.94617200  0.35880600  1
  C  C21  1  0.83742600  0.74233600  0.82465200  1
  C  C22  1  0.19006000  0.38007900  0.09162300  1
  C  C23  1  0.29626100  0.02565200  0.45762700  1
  C  C24  1  0.70764100  0.98665300  0.53946500  1
  C  C25  1  0.80849800  0.59885100  0.89247900  1
  C  C26  1  0.14912000  0.23806700  0.15153000  1
  Cu  Cu27  1  0.07163400  0.69640200  0.72341100  1
  Cu  Cu28  1  0.71364800  0.08717400  0.39942500  1
  Cu  Cu29  1  0.22580400  0.60321200  0.96108600  1
  Cu  Cu30  1  0.42055600  0.32704300  0.86088400  1
  Cu  Cu31  1  0.46526200  0.55738700  0.38037100  1
  Cu  Cu32  1  0.57056800  0.16052500  0.15595000  1
  Cu  Cu33  1  0.12199100  0.95731700  0.12593400  1
  Cu  Cu34  1  0.10366500  0.53263900  0.20147600  1
  Cu  Cu35  1  0.08143100  0.63567500  0.47683800  1
  Cu  Cu36  1  0.19082200  0.20705800  0.70255200  1
  Cu  Cu37  1  0.13260600  0.17718300  0.91975200  1
  Cu  Cu38  1  0.86764000  0.79322300  0.07390000  1
  Cu  Cu39  1  0.75287800  0.82622700  0.27989500  1
  Cu  Cu40  1  0.90271500  0.40562000  0.56616600  1
  Cu  Cu41  1  0.91456100  0.44124000  0.79781800  1
  Cu  Cu42  1  0.84908900  0.03791000  0.86126100  1
  Cu  Cu43  1  0.39691200  0.89737800  0.91421800  1
  Cu  Cu44  1  0.59362200  0.54887400  0.70243800  1
  Cu  Cu45  1  0.58034200  0.65781700  0.12884300  1
  Cu  Cu46  1  0.77282400  0.38861000  0.02441400  1
  Cu  Cu47  1  0.32217100  0.92322000  0.59359100  1
  Cu  Cu48  1  0.91077100  0.25546300  0.23792100  1
