# generated using pymatgen
data_Cu4NiC7
_symmetry_space_group_name_H-M   'P 1'
_cell_length_a   7.22626800
_cell_length_b   8.06295800
_cell_length_c   8.11275200
_cell_angle_alpha   90.00000000
_cell_angle_beta   90.00000000
_cell_angle_gamma   90.00000000
_symmetry_Int_Tables_number   1
_chemical_formula_structural   Cu4NiC7
_chemical_formula_sum   'Cu16 Ni4 C28'
_cell_volume   472.69026908
_cell_formula_units_Z   4
loop_
 _symmetry_equiv_pos_site_id
 _symmetry_equiv_pos_as_xyz
  1  'x, y, z'
loop_
 _atom_site_type_symbol
 _atom_site_label
 _atom_site_symmetry_multiplicity
 _atom_site_fract_x
 _atom_site_fract_y
 _atom_site_fract_z
 _atom_site_occupancy
  C  C0  1  0.49510400  0.03741100  0.45067900  1
  C  C1  1  0.00489600  0.96258900  0.95067900  1
  C  C2  1  0.50489600  0.53741100  0.04932100  1
  C  C3  1  0.99510400  0.46258900  0.54932100  1
  C  C4  1  0.75151100  0.70109200  0.11002900  1
  C  C5  1  0.84221500  0.96031000  0.41317500  1
  C  C6  1  0.24848900  0.20109200  0.38997100  1
  C  C7  1  0.97994400  0.86078300  0.55064700  1
  C  C8  1  0.82671600  0.58299100  0.34532300  1
  C  C9  1  0.04217400  0.56755500  0.93737400  1
  C  C10  1  0.42018100  0.01681800  0.90960600  1
  C  C11  1  0.74848900  0.29890800  0.61002900  1
  C  C12  1  0.17328400  0.08299100  0.15467700  1
  C  C13  1  0.15778500  0.46031000  0.08682500  1
  C  C14  1  0.95782600  0.06755500  0.56262600  1
  C  C15  1  0.52005600  0.13921700  0.05064700  1
  C  C16  1  0.07981900  0.98318200  0.40960600  1
  C  C17  1  0.54217400  0.93244500  0.06262600  1
  C  C18  1  0.65778500  0.03969000  0.91317500  1
  C  C19  1  0.34221500  0.53969000  0.58682500  1
  C  C20  1  0.47994400  0.63921700  0.44935300  1
  C  C21  1  0.67328400  0.41700900  0.84532300  1
  C  C22  1  0.92018100  0.48318200  0.09039400  1
  C  C23  1  0.25151100  0.79890800  0.88997100  1
  C  C24  1  0.57981900  0.51681800  0.59039400  1
  C  C25  1  0.32671600  0.91700900  0.65467700  1
  C  C26  1  0.02005600  0.36078300  0.94935300  1
  C  C27  1  0.45782600  0.43244500  0.43737400  1
  Ni  Ni28  1  0.96553400  0.96794600  0.48369300  1
  Ni  Ni29  1  0.46553400  0.53205400  0.51630700  1
  Ni  Ni30  1  0.03446600  0.46794600  0.01630700  1
  Ni  Ni31  1  0.53446600  0.03205400  0.98369300  1
  Cu  Cu32  1  0.58717200  0.39000000  0.93618000  1
  Cu  Cu33  1  0.81535000  0.39931400  0.65495600  1
  Cu  Cu34  1  0.08717200  0.11000000  0.06382000  1
  Cu  Cu35  1  0.62320000  0.95111300  0.33201900  1
  Cu  Cu36  1  0.06709800  0.32009200  0.44718900  1
  Cu  Cu37  1  0.12320000  0.54888700  0.66798100  1
  Cu  Cu38  1  0.68465000  0.60068600  0.15495600  1
  Cu  Cu39  1  0.31535000  0.10068600  0.34504400  1
  Cu  Cu40  1  0.37680000  0.45111300  0.16798100  1
  Cu  Cu41  1  0.43290200  0.67990800  0.94718900  1
  Cu  Cu42  1  0.87680000  0.04888700  0.83201900  1
  Cu  Cu43  1  0.18465000  0.89931400  0.84504400  1
  Cu  Cu44  1  0.56709800  0.17990800  0.55281100  1
  Cu  Cu45  1  0.91282800  0.61000000  0.43618000  1
  Cu  Cu46  1  0.93290200  0.82009200  0.05281100  1
  Cu  Cu47  1  0.41282800  0.89000000  0.56382000  1
