# generated using pymatgen
data_Cu2Ni3C5
_symmetry_space_group_name_H-M   'P 1'
_cell_length_a   6.79883880
_cell_length_b   6.79883880
_cell_length_c   58.15381800
_cell_angle_alpha   90.00000000
_cell_angle_beta   90.00000000
_cell_angle_gamma   117.97630144
_symmetry_Int_Tables_number   1
_chemical_formula_structural   Cu2Ni3C5
_chemical_formula_sum   'Cu16 Ni24 C40'
_cell_volume   2373.98577447
_cell_formula_units_Z   8
loop_
 _symmetry_equiv_pos_site_id
 _symmetry_equiv_pos_as_xyz
  1  'x, y, z'
loop_
 _atom_site_type_symbol
 _atom_site_label
 _atom_site_symmetry_multiplicity
 _atom_site_fract_x
 _atom_site_fract_y
 _atom_site_fract_z
 _atom_site_occupancy
  Ni  Ni0  1  0.75001700  0.75007500  0.79996700  1
  Ni  Ni1  1  0.24993300  0.25003300  0.89999200  1
  Ni  Ni2  1  0.25007500  0.25001700  0.79996700  1
  Ni  Ni3  1  0.74998100  0.74998100  0.00000000  1
  Ni  Ni4  1  0.75003300  0.74993300  0.89999200  1
  Ni  Ni5  1  0.25003300  0.24993300  0.10000800  1
  Ni  Ni6  1  0.24998100  0.24998100  0.00000000  1
  Ni  Ni7  1  0.74993300  0.75003300  0.10000800  1
  Ni  Ni8  1  0.75007500  0.75001700  0.20003300  1
  Ni  Ni9  1  0.49984200  0.99984200  0.34998100  1
  Ni  Ni10  1  0.24976800  0.25018200  0.30000800  1
  Ni  Ni11  1  0.25001700  0.25007500  0.20003300  1
  Ni  Ni12  1  0.99979900  0.49979900  0.44999800  1
  Ni  Ni13  1  0.74995800  0.74999800  0.40000900  1
  Ni  Ni14  1  0.75018200  0.74976800  0.30000800  1
  Ni  Ni15  1  0.49979900  0.99979900  0.55000200  1
  Ni  Ni16  1  0.25007900  0.25007900  0.50000000  1
  Ni  Ni17  1  0.24999800  0.24995800  0.40000900  1
  Ni  Ni18  1  0.99984200  0.49984200  0.65001900  1
  Ni  Ni19  1  0.74999800  0.74995800  0.59999100  1
  Ni  Ni20  1  0.75007900  0.75007900  0.50000000  1
  Ni  Ni21  1  0.25018200  0.24976800  0.69999200  1
  Ni  Ni22  1  0.24995800  0.24999800  0.59999100  1
  Ni  Ni23  1  0.74976800  0.75018200  0.69999200  1
  Cu  Cu24  1  0.49967900  0.99967900  0.75000400  1
  Cu  Cu25  1  0.99971100  0.49971100  0.85001700  1
  Cu  Cu26  1  0.49953900  0.99953900  0.95001000  1
  Cu  Cu27  1  0.00031000  0.50031000  0.74999700  1
  Cu  Cu28  1  0.99953900  0.49953900  0.04999000  1
  Cu  Cu29  1  0.50041100  0.00041100  0.84999100  1
  Cu  Cu30  1  0.49971100  0.99971100  0.14998300  1
  Cu  Cu31  1  0.00031800  0.50031800  0.95003400  1
  Cu  Cu32  1  0.99967900  0.49967900  0.24999600  1
  Cu  Cu33  1  0.50031800  0.00031800  0.04996600  1
  Cu  Cu34  1  0.00041100  0.50041100  0.15000900  1
  Cu  Cu35  1  0.50031000  0.00031000  0.25000300  1
  Cu  Cu36  1  0.00029400  0.50029400  0.35000200  1
  Cu  Cu37  1  0.50009400  0.00009400  0.44999400  1
  Cu  Cu38  1  0.00009400  0.50009400  0.55000600  1
  Cu  Cu39  1  0.50029400  0.00029400  0.64999800  1
  C  C40  1  0.42111000  0.57903000  0.75000400  1
  C  C41  1  0.74993900  0.24993900  0.78432700  1
  C  C42  1  0.92106200  0.07902700  0.84999500  1
  C  C43  1  0.25006000  0.75006000  0.88433800  1
  C  C44  1  0.74968900  0.24968900  0.71565100  1
  C  C45  1  0.07903000  0.92111000  0.75000400  1
  C  C46  1  0.42101900  0.57893700  0.95000500  1
  C  C47  1  0.75003500  0.25003500  0.98435200  1
  C  C48  1  0.24993800  0.74993800  0.81568100  1
  C  C49  1  0.57902700  0.42106200  0.84999500  1
  C  C50  1  0.92101900  0.07893700  0.04999500  1
  C  C51  1  0.24994300  0.74994300  0.08431700  1
  C  C52  1  0.74994300  0.24994300  0.91568300  1
  C  C53  1  0.07893700  0.92101900  0.95000500  1
  C  C54  1  0.42106200  0.57902700  0.15000500  1
  C  C55  1  0.74993800  0.24993800  0.18431900  1
  C  C56  1  0.25003500  0.75003500  0.01564800  1
  C  C57  1  0.57893700  0.42101900  0.04999500  1
  C  C58  1  0.92111000  0.07903000  0.24999600  1
  C  C59  1  0.24968900  0.74968900  0.28434900  1
  C  C60  1  0.75006000  0.25006000  0.11566200  1
  C  C61  1  0.07902700  0.92106200  0.15000500  1
  C  C62  1  0.41688500  0.56626800  0.34999900  1
  C  C63  1  0.75830300  0.25830300  0.38516600  1
  C  C64  1  0.24993900  0.74993900  0.21567300  1
  C  C65  1  0.57903000  0.42111000  0.24999600  1
  C  C66  1  0.91695500  0.06633900  0.45000100  1
  C  C67  1  0.25835000  0.75835000  0.48517300  1
  C  C68  1  0.75877600  0.25877600  0.31484000  1
  C  C69  1  0.06626800  0.91688500  0.34999900  1
  C  C70  1  0.41695500  0.56633900  0.54999900  1
  C  C71  1  0.75831300  0.25831300  0.58516900  1
  C  C72  1  0.25831300  0.75831300  0.41483100  1
  C  C73  1  0.56633900  0.41695500  0.45000100  1
  C  C74  1  0.91688500  0.06626800  0.65000100  1
  C  C75  1  0.25877600  0.75877600  0.68516000  1
  C  C76  1  0.75835000  0.25835000  0.51482700  1
  C  C77  1  0.06633900  0.91695500  0.54999900  1
  C  C78  1  0.25830300  0.75830300  0.61483400  1
  C  C79  1  0.56626800  0.41688500  0.65000100  1
