# generated using pymatgen
data_Cu(NiC2)8
_symmetry_space_group_name_H-M   'P 1'
_cell_length_a   23.96839400
_cell_length_b   13.24335400
_cell_length_c   13.48460587
_cell_angle_alpha   61.01405180
_cell_angle_beta   90.00000000
_cell_angle_gamma   90.00000000
_symmetry_Int_Tables_number   1
_chemical_formula_structural   Cu(NiC2)8
_chemical_formula_sum   'Cu4 Ni32 C64'
_cell_volume   3744.15192177
_cell_formula_units_Z   4
loop_
 _symmetry_equiv_pos_site_id
 _symmetry_equiv_pos_as_xyz
  1  'x, y, z'
loop_
 _atom_site_type_symbol
 _atom_site_label
 _atom_site_symmetry_multiplicity
 _atom_site_fract_x
 _atom_site_fract_y
 _atom_site_fract_z
 _atom_site_occupancy
  C  C0  1  0.06825300  0.40733800  0.16894700  1
  C  C1  1  0.20558700  0.66164800  0.62251300  1
  C  C2  1  0.97273100  0.28677200  0.49628500  1
  C  C3  1  0.89460100  0.05671100  0.90695400  1
  C  C4  1  0.61826700  0.88010000  0.12088100  1
  C  C5  1  0.79441300  0.33835200  0.37748700  1
  C  C6  1  0.16035700  0.22727700  0.09583000  1
  C  C7  1  0.24477600  0.84125300  0.27096800  1
  C  C8  1  0.83835500  0.98690400  0.18978100  1
  C  C9  1  0.25522400  0.34125300  0.27096800  1
  C  C10  1  0.99408700  0.04587200  0.27988900  1
  C  C11  1  0.83964300  0.77272300  0.90417000  1
  C  C12  1  0.70558700  0.83835200  0.37748700  1
  C  C13  1  0.74477600  0.65874700  0.72903200  1
  C  C14  1  0.30966400  0.13408300  0.14312500  1
  C  C15  1  0.87767800  0.60107700  0.47465500  1
  C  C16  1  0.38173300  0.11990000  0.87911900  1
  C  C17  1  0.52726900  0.78677200  0.49628500  1
  C  C18  1  0.27474000  0.78919100  0.83915600  1
  C  C19  1  0.10539900  0.94328900  0.09304600  1
  C  C20  1  0.77474000  0.71080900  0.16084400  1
  C  C21  1  0.80966400  0.36591700  0.85687500  1
  C  C22  1  0.47273100  0.21322800  0.50371500  1
  C  C23  1  0.43174700  0.90733800  0.16894700  1
  C  C24  1  0.75522400  0.15874700  0.72903200  1
  C  C25  1  0.29441300  0.16164800  0.62251300  1
  C  C26  1  0.66035700  0.27272300  0.90417000  1
  C  C27  1  0.69033600  0.86591700  0.85687500  1
  C  C28  1  0.93174700  0.59266200  0.83105300  1
  C  C29  1  0.60539900  0.55671100  0.90695400  1
  C  C30  1  0.49408700  0.45412800  0.72011100  1
  C  C31  1  0.50591300  0.54587200  0.27988900  1
  C  C32  1  0.22526000  0.28919100  0.83915600  1
  C  C33  1  0.56825300  0.09266200  0.83105300  1
  C  C34  1  0.72526000  0.21080900  0.16084400  1
  C  C35  1  0.02726900  0.71322800  0.50371500  1
  C  C36  1  0.39460100  0.44328900  0.09304600  1
  C  C37  1  0.19033600  0.63408300  0.14312500  1
  C  C38  1  0.12232200  0.39892300  0.52534500  1
  C  C39  1  0.33964300  0.72727700  0.09583000  1
  C  C40  1  0.16164500  0.01309600  0.81021900  1
  C  C41  1  0.66164500  0.48690400  0.18978100  1
  C  C42  1  0.88173300  0.38010000  0.12088100  1
  C  C43  1  0.00591300  0.95412800  0.72011100  1
  C  C44  1  0.37767800  0.89892300  0.52534500  1
  C  C45  1  0.11826700  0.61990000  0.87911900  1
  C  C46  1  0.33835500  0.51309600  0.81021900  1
  C  C47  1  0.62232200  0.10107700  0.47465500  1
  Ni  Ni48  1  0.76802200  0.98718000  0.52456700  1
  Ni  Ni49  1  0.95316900  0.80100300  0.18564700  1
  Ni  Ni50  1  0.86785500  0.09955800  0.38065600  1
  Ni  Ni51  1  0.50352600  0.77922100  0.96746500  1
  Ni  Ni52  1  0.26802200  0.51282000  0.47543300  1
  Ni  Ni53  1  0.45552100  0.12716000  0.27306200  1
  Ni  Ni54  1  0.73197800  0.48718000  0.52456700  1
  Ni  Ni55  1  0.95552100  0.37284000  0.72693800  1
  Ni  Ni56  1  0.13214500  0.90044200  0.61934400  1
  Ni  Ni57  1  0.62526000  0.35160100  0.54922200  1
  Ni  Ni58  1  0.23197800  0.01282000  0.47543300  1
  Ni  Ni59  1  0.36780200  0.46495800  0.37868700  1
  Ni  Ni60  1  0.45316900  0.69899700  0.81435300  1
  Ni  Ni61  1  0.87474000  0.85160100  0.54922200  1
  Ni  Ni62  1  0.43141400  0.93801300  0.77070500  1
  Ni  Ni63  1  0.04683100  0.19899700  0.81435300  1
  Ni  Ni64  1  0.00352600  0.72077900  0.03253500  1
  Ni  Ni65  1  0.37474000  0.64839900  0.45077800  1
  Ni  Ni66  1  0.12526000  0.14839900  0.45077800  1
  Ni  Ni67  1  0.36785500  0.40044200  0.61934400  1
  Ni  Ni68  1  0.06858600  0.43801300  0.77070500  1
  Ni  Ni69  1  0.56858600  0.06198700  0.22929500  1
  Ni  Ni70  1  0.63219800  0.53504200  0.62131300  1
  Ni  Ni71  1  0.49647400  0.22077900  0.03253500  1
  Ni  Ni72  1  0.13219800  0.96495800  0.37868700  1
  Ni  Ni73  1  0.93141400  0.56198700  0.22929500  1
  Ni  Ni74  1  0.54683100  0.30100300  0.18564700  1
  Ni  Ni75  1  0.54447900  0.87284000  0.72693800  1
  Ni  Ni76  1  0.99647400  0.27922100  0.96746500  1
  Ni  Ni77  1  0.04447900  0.62716000  0.27306200  1
  Ni  Ni78  1  0.63214500  0.59955800  0.38065600  1
  Ni  Ni79  1  0.86780200  0.03504200  0.62131300  1
  Cu  Cu80  1  0.74234600  0.00933000  0.00443200  1
  Cu  Cu81  1  0.24234600  0.49067000  0.99556800  1
  Cu  Cu82  1  0.25765400  0.99067000  0.99556800  1
  Cu  Cu83  1  0.75765400  0.50933000  0.00443200  1
  C  C84  1  0.77674800  0.14164200  0.97607300  1
  C  C85  1  0.26718300  0.08098300  0.84497900  1
  C  C86  1  0.67637000  0.04146700  0.92945100  1
  C  C87  1  0.28481500  0.56693100  0.04803600  1
  C  C88  1  0.32363000  0.95853300  0.07054900  1
  C  C89  1  0.76718300  0.41901700  0.15502100  1
  C  C90  1  0.72325200  0.64164200  0.97607300  1
  C  C91  1  0.71518500  0.43306900  0.95196400  1
  C  C92  1  0.17637000  0.45853300  0.07054900  1
  C  C93  1  0.21518500  0.06693100  0.04803600  1
  C  C94  1  0.73281700  0.91901700  0.15502100  1
  C  C95  1  0.23281700  0.58098300  0.84497900  1
  C  C96  1  0.78481500  0.93306900  0.95196400  1
  C  C97  1  0.22325200  0.85835800  0.02392700  1
  C  C98  1  0.82363000  0.54146700  0.92945100  1
  C  C99  1  0.27674800  0.35835800  0.02392700  1
