# generated using pymatgen
data_CuNiC5
_symmetry_space_group_name_H-M   'P 1'
_cell_length_a   18.66103083
_cell_length_b   18.66103083
_cell_length_c   8.73094400
_cell_angle_alpha   90.00000000
_cell_angle_beta   90.00000000
_cell_angle_gamma   120.00000295
_symmetry_Int_Tables_number   1
_chemical_formula_structural   CuNiC5
_chemical_formula_sum   'Cu24 Ni24 C120'
_cell_volume   2633.07410650
_cell_formula_units_Z   24
loop_
 _symmetry_equiv_pos_site_id
 _symmetry_equiv_pos_as_xyz
  1  'x, y, z'
loop_
 _atom_site_type_symbol
 _atom_site_label
 _atom_site_symmetry_multiplicity
 _atom_site_fract_x
 _atom_site_fract_y
 _atom_site_fract_z
 _atom_site_occupancy
  C  C0  1  0.33333300  0.66666700  0.98368700  1
  C  C1  1  0.18500300  0.33296400  0.49022200  1
  C  C2  1  0.66666700  0.33333300  0.48368700  1
  C  C3  1  0.66750100  0.80392600  0.98615000  1
  C  C4  1  0.33296400  0.14796100  0.99022200  1
  C  C5  1  0.47103100  0.99424900  0.98987400  1
  C  C6  1  0.81499700  0.66703600  0.99022200  1
  C  C7  1  0.66703600  0.85203900  0.49022200  1
  C  C8  1  0.13642400  0.33249900  0.98615000  1
  C  C9  1  0.80392600  0.13642400  0.48615000  1
  C  C10  1  0.33333300  0.66666700  0.48103300  1
  C  C11  1  0.00575100  0.47678200  0.98987400  1
  C  C12  1  0.66666700  0.33333300  0.98103300  1
  C  C13  1  0.99424900  0.52321800  0.48987400  1
  C  C14  1  0.00000000  0.00000000  0.50116300  1
  C  C15  1  0.52896900  0.00575100  0.48987400  1
  C  C16  1  0.14796100  0.81499700  0.49022200  1
  C  C17  1  0.85203900  0.18500300  0.99022200  1
  C  C18  1  0.19607400  0.86357600  0.98615000  1
  C  C19  1  0.86357600  0.66750100  0.48615000  1
  C  C20  1  0.47678200  0.47103100  0.48987400  1
  C  C21  1  0.33249900  0.19607400  0.48615000  1
  C  C22  1  0.00000000  0.00000000  0.00116300  1
  C  C23  1  0.52321800  0.52896900  0.98987400  1
  Ni  Ni24  1  0.50057400  0.17911800  0.68954800  1
  Ni  Ni25  1  0.01077800  0.83968200  0.17005300  1
  Ni  Ni26  1  0.83968200  0.82890500  0.67005300  1
  Ni  Ni27  1  0.16031800  0.17109500  0.17005300  1
  Ni  Ni28  1  0.65189800  0.16219000  0.19009300  1
  Ni  Ni29  1  0.16219000  0.51029200  0.69009300  1
  Ni  Ni30  1  0.48970800  0.65189800  0.69009300  1
  Ni  Ni31  1  0.51029200  0.34810200  0.19009300  1
  Ni  Ni32  1  0.33033800  0.33052800  0.79280400  1
  Ni  Ni33  1  0.82088200  0.32145600  0.68954800  1
  Ni  Ni34  1  0.33052800  0.00019000  0.29280400  1
  Ni  Ni35  1  0.34810200  0.83781000  0.69009300  1
  Ni  Ni36  1  0.66947200  0.99981000  0.79280400  1
  Ni  Ni37  1  0.99981000  0.33033800  0.29280400  1
  Ni  Ni38  1  0.66966200  0.66947200  0.29280400  1
  Ni  Ni39  1  0.82890500  0.98922200  0.17005300  1
  Ni  Ni40  1  0.98922200  0.16031800  0.67005300  1
  Ni  Ni41  1  0.00019000  0.66966200  0.79280400  1
  Ni  Ni42  1  0.17911800  0.67854400  0.18954800  1
  Ni  Ni43  1  0.83781000  0.48970800  0.19009300  1
  Ni  Ni44  1  0.32145600  0.50057400  0.18954800  1
  Ni  Ni45  1  0.67854400  0.49942600  0.68954800  1
  Ni  Ni46  1  0.17109500  0.01077800  0.67005300  1
  Ni  Ni47  1  0.49942600  0.82088200  0.18954800  1
  Cu  Cu48  1  0.33516700  0.00075700  0.68517400  1
  Cu  Cu49  1  0.68115600  0.50369700  0.30859800  1
  Cu  Cu50  1  0.15703800  0.16816200  0.78647000  1
  Cu  Cu51  1  0.01112400  0.84296200  0.78647000  1
  Cu  Cu52  1  0.33441000  0.33516700  0.18517400  1
  Cu  Cu53  1  0.49402200  0.65600100  0.30912500  1
  Cu  Cu54  1  0.50597800  0.34399900  0.80912500  1
  Cu  Cu55  1  0.50369700  0.82254200  0.80859800  1
  Cu  Cu56  1  0.66559000  0.66483300  0.68517400  1
  Cu  Cu57  1  0.65600100  0.16197900  0.80912500  1
  Cu  Cu58  1  0.84296200  0.83183800  0.28647000  1
  Cu  Cu59  1  0.82254200  0.31884400  0.30859800  1
  Cu  Cu60  1  0.83183800  0.98887600  0.78647000  1
  Cu  Cu61  1  0.49630300  0.17745800  0.30859800  1
  Cu  Cu62  1  0.17745800  0.68115600  0.80859800  1
  Cu  Cu63  1  0.34399900  0.83802100  0.30912500  1
  Cu  Cu64  1  0.99924300  0.33441000  0.68517400  1
  Cu  Cu65  1  0.16816200  0.01112400  0.28647000  1
  Cu  Cu66  1  0.83802100  0.49402200  0.80912500  1
  Cu  Cu67  1  0.98887600  0.15703800  0.28647000  1
  Cu  Cu68  1  0.66483300  0.99924300  0.18517400  1
  Cu  Cu69  1  0.16197900  0.50597800  0.30912500  1
  Cu  Cu70  1  0.00075700  0.66559000  0.18517400  1
  Cu  Cu71  1  0.31884400  0.49630300  0.80859800  1
  C  C72  1  0.73252500  0.46232000  0.20298800  1
  C  C73  1  0.02968800  0.26029800  0.22149200  1
  C  C74  1  0.81275600  0.95391100  0.97811100  1
  C  C75  1  0.23061000  0.97031200  0.22149200  1
  C  C76  1  0.92703000  0.36484700  0.73780600  1
  C  C77  1  0.40850500  0.31222900  0.26192700  1
  C  C78  1  0.29568300  0.39885800  0.73259200  1
  C  C79  1  0.39904300  0.60532500  0.20999900  1
  C  C80  1  0.61593500  0.14187300  0.99813100  1
  C  C81  1  0.59149500  0.68777100  0.76192700  1
  C  C82  1  0.95391100  0.14115500  0.47811100  1
  C  C83  1  0.72979500  0.26747500  0.20298800  1
  C  C84  1  0.73507200  0.97029500  0.26016200  1
  C  C85  1  0.47260600  0.23722800  0.81113300  1
  C  C86  1  0.56218300  0.92703000  0.23780600  1
  C  C87  1  0.32157700  0.98806700  0.48880000  1
  C  C88  1  0.13922600  0.57377800  0.80674900  1
  C  C89  1  0.67842300  0.01193300  0.98880000  1
  C  C90  1  0.80532300  0.90146600  0.67122300  1
  C  C91  1  0.60532500  0.20628200  0.70999900  1
  C  C92  1  0.10317400  0.70431700  0.73259200  1
  C  C93  1  0.68777100  0.09627600  0.26192700  1
  C  C94  1  0.76462200  0.52739400  0.81113300  1
  C  C95  1  0.09627600  0.40850500  0.76192700  1
  C  C96  1  0.97031200  0.73970200  0.72149200  1
  C  C97  1  0.42622200  0.56544800  0.80674900  1
  C  C98  1  0.38406500  0.85812700  0.49813100  1
  C  C99  1  0.63515300  0.56218300  0.73780600  1
  C  C100  1  0.36484700  0.43781700  0.23780600  1
  C  C101  1  0.98806700  0.66649000  0.98880000  1
  C  C102  1  0.26747500  0.53768000  0.70298800  1
  C  C103  1  0.39885800  0.10317400  0.23259200  1
  C  C104  1  0.90385700  0.80532300  0.17122300  1
  C  C105  1  0.85812700  0.47406200  0.99813100  1
  C  C106  1  0.39467500  0.79371800  0.20999900  1
  C  C107  1  0.27020500  0.73252500  0.70298800  1
  C  C108  1  0.43781700  0.07297000  0.73780600  1
  C  C109  1  0.23522300  0.26492800  0.26016200  1
  C  C110  1  0.60095700  0.39467500  0.70999900  1
  C  C111  1  0.09853400  0.90385700  0.67122300  1
  C  C112  1  0.53768000  0.27020500  0.20298800  1
  C  C113  1  0.36112300  0.93073100  0.21868400  1
  C  C114  1  0.26492800  0.02970500  0.76016200  1
  C  C115  1  0.06466400  0.12751600  0.26828600  1
  C  C116  1  0.26029800  0.23061000  0.72149200  1
  C  C117  1  0.56960700  0.63887700  0.21868400  1
  C  C118  1  0.63887700  0.06926900  0.71868400  1
  C  C119  1  0.02970500  0.76477700  0.26016200  1
  C  C120  1  0.90372400  0.59149500  0.26192700  1
  C  C121  1  0.85884500  0.81275600  0.47811100  1
  C  C122  1  0.89682600  0.29568300  0.23259200  1
  C  C123  1  0.46232000  0.72979500  0.70298800  1
  C  C124  1  0.07297000  0.63515300  0.23780600  1
  C  C125  1  0.20147500  0.71716800  0.99964900  1
  C  C126  1  0.23537800  0.47260600  0.31113300  1
  C  C127  1  0.70431700  0.60114200  0.23259200  1
  C  C128  1  0.76477700  0.73507200  0.76016200  1
  C  C129  1  0.71716800  0.51569200  0.49964900  1
  C  C130  1  0.43455200  0.86077400  0.80674900  1
  C  C131  1  0.52593800  0.38406500  0.99813100  1
  C  C132  1  0.23722800  0.76462200  0.31113300  1
  C  C133  1  0.51569200  0.79852500  0.99964900  1
  C  C134  1  0.18724400  0.04608900  0.47811100  1
  C  C135  1  0.09614300  0.19467700  0.67122300  1
  C  C136  1  0.06285200  0.93533600  0.26828600  1
  C  C137  1  0.20628200  0.60095700  0.20999900  1
  C  C138  1  0.73970200  0.76939000  0.22149200  1
  C  C139  1  0.76939000  0.02968800  0.72149200  1
  C  C140  1  0.01193300  0.33351000  0.48880000  1
  C  C141  1  0.90146600  0.09614300  0.17122300  1
  C  C142  1  0.56544800  0.13922600  0.30674900  1
  C  C143  1  0.60114200  0.89682600  0.73259200  1
  C  C144  1  0.14115500  0.18724400  0.97811100  1
  C  C145  1  0.93073100  0.56960700  0.71868400  1
  C  C146  1  0.52739400  0.76277200  0.31113300  1
  C  C147  1  0.76277200  0.23537800  0.81113300  1
  C  C148  1  0.19467700  0.09853400  0.17122300  1
  C  C149  1  0.93714800  0.06466400  0.76828600  1
  C  C150  1  0.97029500  0.23522300  0.76016200  1
  C  C151  1  0.48430800  0.20147500  0.49964900  1
  C  C152  1  0.12751600  0.06285200  0.76828600  1
  C  C153  1  0.33351000  0.32157700  0.98880000  1
  C  C154  1  0.66649000  0.67842300  0.48880000  1
  C  C155  1  0.14187300  0.52593800  0.49813100  1
  C  C156  1  0.86077400  0.42622200  0.30674900  1
  C  C157  1  0.47406200  0.61593500  0.49813100  1
  C  C158  1  0.28283200  0.48430800  0.99964900  1
  C  C159  1  0.57377800  0.43455200  0.30674900  1
  C  C160  1  0.43039300  0.36112300  0.71868400  1
  C  C161  1  0.79371800  0.39904300  0.70999900  1
  C  C162  1  0.87248400  0.93714800  0.26828600  1
  C  C163  1  0.31222900  0.90372400  0.76192700  1
  C  C164  1  0.79852500  0.28283200  0.49964900  1
  C  C165  1  0.93533600  0.87248400  0.76828600  1
  C  C166  1  0.06926900  0.43039300  0.21868400  1
  C  C167  1  0.04608900  0.85884500  0.97811100  1
