# generated using pymatgen
data_Cu4(Ni2C13)5
_symmetry_space_group_name_H-M   'P 1'
_cell_length_a   8.55034315
_cell_length_b   8.55034301
_cell_length_c   27.96809868
_cell_angle_alpha   90.00000000
_cell_angle_beta   90.00000000
_cell_angle_gamma   97.45560084
_symmetry_Int_Tables_number   1
_chemical_formula_structural   Cu4(Ni2C13)5
_chemical_formula_sum   'Cu8 Ni20 C130'
_cell_volume   2027.41551324
_cell_formula_units_Z   2
loop_
 _symmetry_equiv_pos_site_id
 _symmetry_equiv_pos_as_xyz
  1  'x, y, z'
loop_
 _atom_site_type_symbol
 _atom_site_label
 _atom_site_symmetry_multiplicity
 _atom_site_fract_x
 _atom_site_fract_y
 _atom_site_fract_z
 _atom_site_occupancy
  Ni  Ni0  1  0.37414987  0.13260455  0.71353558  1
  Ni  Ni1  1  0.14081462  0.37595620  0.50000000  1
  Ni  Ni2  1  0.37396012  0.12608040  0.56963911  1
  Ni  Ni3  1  0.85918538  0.62404380  0.50000000  1
  Ni  Ni4  1  0.12608040  0.37396012  0.93036089  1
  Ni  Ni5  1  0.86739545  0.62585013  0.21353558  1
  Ni  Ni6  1  0.37595620  0.14081462  0.00000000  1
  Ni  Ni7  1  0.37414987  0.13260455  0.28646442  1
  Ni  Ni8  1  0.62404380  0.85918538  0.00000000  1
  Ni  Ni9  1  0.62603988  0.87391960  0.43036089  1
  Ni  Ni10  1  0.62585013  0.86739545  0.28646442  1
  Ni  Ni11  1  0.87391960  0.62603988  0.93036089  1
  Ni  Ni12  1  0.62603988  0.87391960  0.56963911  1
  Ni  Ni13  1  0.12608040  0.37396012  0.06963911  1
  Ni  Ni14  1  0.13260455  0.37414987  0.21353558  1
  Ni  Ni15  1  0.86739545  0.62585013  0.78646442  1
  Ni  Ni16  1  0.62585013  0.86739545  0.71353558  1
  Ni  Ni17  1  0.37396012  0.12608040  0.43036089  1
  Ni  Ni18  1  0.87391960  0.62603988  0.06963911  1
  Ni  Ni19  1  0.13260455  0.37414987  0.78646442  1
  Cu  Cu20  1  0.13050535  0.36053576  0.35717657  1
  Cu  Cu21  1  0.36053576  0.13050535  0.85717657  1
  Cu  Cu22  1  0.86949465  0.63946424  0.35717657  1
  Cu  Cu23  1  0.63946424  0.86949465  0.14282343  1
  Cu  Cu24  1  0.36053576  0.13050535  0.14282343  1
  Cu  Cu25  1  0.63946424  0.86949465  0.85717657  1
  Cu  Cu26  1  0.86949465  0.63946424  0.64282343  1
  Cu  Cu27  1  0.13050535  0.36053576  0.64282343  1
  C  C28  1  0.66909179  0.16877636  0.21485821  1
  C  C29  1  0.66909179  0.16877636  0.78514179  1
  C  C30  1  0.50000000  0.50000000  0.90014400  1
  C  C31  1  0.67204856  0.16391733  0.50000000  1
  C  C32  1  0.50000000  0.50000000  0.79959298  1
  C  C33  1  0.32795144  0.83608267  0.50000000  1
  C  C34  1  0.00000000  0.00000000  0.54952874  1
  C  C35  1  0.16877636  0.66909179  0.28514179  1
  C  C36  1  0.00000000  0.00000000  0.84963145  1
  C  C37  1  0.83122364  0.33090821  0.28514179  1
  C  C38  1  0.00000000  0.00000000  0.65036855  1
  C  C39  1  0.16894716  0.66704950  0.57013656  1
  C  C40  1  0.33090821  0.83122364  0.21485821  1
  C  C41  1  0.50000000  0.50000000  0.70040702  1
  C  C42  1  0.83426026  0.33578603  0.85709204  1
  C  C43  1  0.83122364  0.33090821  0.71485821  1
  C  C44  1  0.50000000  0.50000000  0.59985600  1
  C  C45  1  0.00000000  0.00000000  0.75000000  1
  C  C46  1  0.00000000  0.00000000  0.15036855  1
  C  C47  1  0.83105284  0.33295050  0.42986344  1
  C  C48  1  0.50000000  0.50000000  0.09985600  1
  C  C49  1  0.33295050  0.83105284  0.07013656  1
  C  C50  1  0.66704950  0.16894716  0.92986344  1
  C  C51  1  0.33295050  0.83105284  0.92986344  1
  C  C52  1  0.33090821  0.83122364  0.78514179  1
  C  C53  1  0.16391733  0.67204856  0.00000000  1
  C  C54  1  0.66704950  0.16894716  0.07013656  1
  C  C55  1  0.00000000  0.00000000  0.34963145  1
  C  C56  1  0.16573974  0.66421397  0.85709204  1
  C  C57  1  0.50000000  0.50000000  0.29959298  1
  C  C58  1  0.83426026  0.33578603  0.14290796  1
  C  C59  1  0.33578603  0.83426026  0.64290796  1
  C  C60  1  0.50000000  0.50000000  0.20040702  1
  C  C61  1  0.00000000  0.00000000  0.45047126  1
  C  C62  1  0.50000000  0.50000000  0.50000000  1
  C  C63  1  0.50000000  0.50000000  0.00000000  1
  C  C64  1  0.66421397  0.16573974  0.35709204  1
  C  C65  1  0.50000000  0.50000000  0.40014400  1
  C  C66  1  0.16894716  0.66704950  0.42986344  1
  C  C67  1  0.66421397  0.16573974  0.64290796  1
  C  C68  1  0.83608267  0.32795144  0.00000000  1
  C  C69  1  0.16877636  0.66909179  0.71485821  1
  C  C70  1  0.83105284  0.33295050  0.57013656  1
  C  C71  1  0.00000000  0.00000000  0.25000000  1
  C  C72  1  0.00000000  0.00000000  0.95047126  1
  C  C73  1  0.33578603  0.83426026  0.35709204  1
  C  C74  1  0.00000000  0.00000000  0.04952874  1
  C  C75  1  0.16573974  0.66421397  0.14290796  1
  C  C76  1  0.33696650  0.84136303  0.28576467  1
  C  C77  1  0.33838134  0.82740277  0.14222472  1
  C  C78  1  0.36267797  0.40328042  0.15134103  1
  C  C79  1  0.33590609  0.83691937  0.42841006  1
  C  C80  1  0.50000000  0.00000000  0.64177044  1
  C  C81  1  0.15863697  0.66303350  0.78576467  1
  C  C82  1  0.66303350  0.15863697  0.71423533  1
  C  C83  1  0.89598084  0.85986429  0.30069702  1
  C  C84  1  0.16308063  0.66409391  0.07158994  1
  C  C85  1  0.10235130  0.13030610  0.00000000  1
  C  C86  1  0.50000000  0.00000000  0.35822956  1
  C  C87  1  0.66433333  0.15783689  0.00000000  1
  C  C88  1  0.11464206  0.12185183  0.59857659  1
  C  C89  1  0.40328042  0.36267797  0.65134103  1
  C  C90  1  0.66303350  0.15863697  0.28576467  1
  C  C91  1  0.00000000  0.50000000  0.70937748  1
  C  C92  1  0.16308063  0.66409391  0.92841006  1
  C  C93  1  0.61702459  0.61702459  0.75000000  1
  C  C94  1  0.33566667  0.84216311  0.00000000  1
  C  C95  1  0.00000000  0.50000000  0.29062252  1
  C  C96  1  0.39311635  0.37004302  0.95046048  1
  C  C97  1  0.37004302  0.39311635  0.54953952  1
  C  C98  1  0.87814817  0.88535794  0.09857659  1
  C  C99  1  0.88535794  0.87814817  0.40142341  1
  C  C100  1  0.85986429  0.89598084  0.80069702  1
  C  C101  1  0.38297541  0.38297541  0.75000000  1
  C  C102  1  0.83691937  0.33590609  0.92841006  1
  C  C103  1  0.50000000  0.00000000  0.79062252  1
  C  C104  1  0.00000000  0.50000000  0.42460671  1
  C  C105  1  0.17259723  0.66161866  0.64222472  1
  C  C106  1  0.12185183  0.11464206  0.90142341  1
  C  C107  1  0.84216311  0.33566667  0.50000000  1
  C  C108  1  0.50000000  0.00000000  0.50000000  1
  C  C109  1  0.59671958  0.63732203  0.34865897  1
  C  C110  1  0.83691937  0.33590609  0.07158994  1
  C  C111  1  0.85986429  0.89598084  0.19930298  1
  C  C112  1  0.17259723  0.66161866  0.35777528  1
  C  C113  1  0.66409391  0.16308063  0.42841006  1
  C  C114  1  0.00000000  0.50000000  0.85822956  1
  C  C115  1  0.00000000  0.50000000  0.14177044  1
  C  C116  1  0.39311635  0.37004302  0.04953952  1
  C  C117  1  0.33696650  0.84136303  0.71423533  1
  C  C118  1  0.84136303  0.33696650  0.78576467  1
  C  C119  1  0.66161866  0.17259723  0.14222472  1
  C  C120  1  0.12185183  0.11464206  0.09857659  1
  C  C121  1  0.00000000  0.50000000  0.57539329  1
  C  C122  1  0.84136303  0.33696650  0.21423533  1
  C  C123  1  0.88535794  0.87814817  0.59857659  1
  C  C124  1  0.60688365  0.62995698  0.95046048  1
  C  C125  1  0.15783689  0.66433333  0.50000000  1
  C  C126  1  0.60688365  0.62995698  0.04953952  1
  C  C127  1  0.63732203  0.59671958  0.15134103  1
  C  C128  1  0.89764870  0.86969390  0.00000000  1
  C  C129  1  0.37004302  0.39311635  0.45046048  1
  C  C130  1  0.13030610  0.10235130  0.50000000  1
  C  C131  1  0.00000000  0.50000000  0.00000000  1
  C  C132  1  0.40328042  0.36267797  0.34865897  1
  C  C133  1  0.50000000  0.00000000  0.92460671  1
  C  C134  1  0.33590609  0.83691937  0.57158994  1
  C  C135  1  0.87814817  0.88535794  0.90142341  1
  C  C136  1  0.10401916  0.14013571  0.69930298  1
  C  C137  1  0.59671958  0.63732203  0.65134103  1
  C  C138  1  0.50000000  0.00000000  0.20937748  1
  C  C139  1  0.33838134  0.82740277  0.85777528  1
  C  C140  1  0.66161866  0.17259723  0.85777528  1
  C  C141  1  0.11464206  0.12185183  0.40142341  1
  C  C142  1  0.14013571  0.10401916  0.80069702  1
  C  C143  1  0.15863697  0.66303350  0.21423533  1
  C  C144  1  0.89598084  0.85986429  0.69930298  1
  C  C145  1  0.38297541  0.38297541  0.25000000  1
  C  C146  1  0.63732203  0.59671958  0.84865897  1
  C  C147  1  0.82740277  0.33838134  0.64222472  1
  C  C148  1  0.36267797  0.40328042  0.84865897  1
  C  C149  1  0.86969390  0.89764870  0.50000000  1
  C  C150  1  0.50000000  0.00000000  0.07539329  1
  C  C151  1  0.14013571  0.10401916  0.19930298  1
  C  C152  1  0.10401916  0.14013571  0.30069702  1
  C  C153  1  0.61702459  0.61702459  0.25000000  1
  C  C154  1  0.62995698  0.60688365  0.54953952  1
  C  C155  1  0.66409391  0.16308063  0.57158994  1
  C  C156  1  0.62995698  0.60688365  0.45046048  1
  C  C157  1  0.82740277  0.33838134  0.35777528  1
