# generated using pymatgen
data_Cu4Ni2C3
_symmetry_space_group_name_H-M   'P 1'
_cell_length_a   8.44958800
_cell_length_b   8.44958800
_cell_length_c   12.67142300
_cell_angle_alpha   90.00000000
_cell_angle_beta   90.00000000
_cell_angle_gamma   90.00000000
_symmetry_Int_Tables_number   1
_chemical_formula_structural   Cu4Ni2C3
_chemical_formula_sum   'Cu24 Ni12 C18'
_cell_volume   904.68305432
_cell_formula_units_Z   6
loop_
 _symmetry_equiv_pos_site_id
 _symmetry_equiv_pos_as_xyz
  1  'x, y, z'
loop_
 _atom_site_type_symbol
 _atom_site_label
 _atom_site_symmetry_multiplicity
 _atom_site_fract_x
 _atom_site_fract_y
 _atom_site_fract_z
 _atom_site_occupancy
  C  C0  1  0.50000000  0.00000000  0.75000000  1
  C  C1  1  0.00000000  0.50000000  0.75000000  1
  C  C2  1  0.50000000  0.00000000  0.25000000  1
  C  C3  1  0.00000000  0.50000000  0.25000000  1
  C  C4  1  0.50000000  0.50000000  0.50000000  1
  C  C5  1  0.00000000  0.00000000  0.00000000  1
  C  C6  1  0.62895800  0.70078300  0.50000000  1
  C  C7  1  0.37104200  0.29921700  0.50000000  1
  C  C8  1  0.00000000  0.00000000  0.15868400  1
  C  C9  1  0.50000000  0.50000000  0.34131600  1
  C  C10  1  0.00000000  0.00000000  0.84131600  1
  C  C11  1  0.50000000  0.50000000  0.65868400  1
  C  C12  1  0.20078300  0.12895800  0.00000000  1
  C  C13  1  0.87104200  0.20078300  0.00000000  1
  C  C14  1  0.12895800  0.79921700  0.00000000  1
  C  C15  1  0.70078300  0.37104200  0.50000000  1
  C  C16  1  0.29921700  0.62895800  0.50000000  1
  C  C17  1  0.79921700  0.87104200  0.00000000  1
  Ni  Ni18  1  0.70024800  0.81470800  0.50000000  1
  Ni  Ni19  1  0.29975200  0.18529200  0.50000000  1
  Ni  Ni20  1  0.00000000  0.00000000  0.24836000  1
  Ni  Ni21  1  0.50000000  0.50000000  0.25164000  1
  Ni  Ni22  1  0.00000000  0.00000000  0.75164000  1
  Ni  Ni23  1  0.50000000  0.50000000  0.74836000  1
  Ni  Ni24  1  0.31470800  0.20024800  0.00000000  1
  Ni  Ni25  1  0.79975200  0.31470800  0.00000000  1
  Ni  Ni26  1  0.20024800  0.68529200  0.00000000  1
  Ni  Ni27  1  0.81470800  0.29975200  0.50000000  1
  Ni  Ni28  1  0.18529200  0.70024800  0.50000000  1
  Ni  Ni29  1  0.68529200  0.79975200  0.00000000  1
  Cu  Cu30  1  0.33967500  0.16032500  0.75000000  1
  Cu  Cu31  1  0.16032500  0.66032500  0.25000000  1
  Cu  Cu32  1  0.83967500  0.33967500  0.75000000  1
  Cu  Cu33  1  0.39304800  0.88098300  0.35811600  1
  Cu  Cu34  1  0.16032500  0.66032500  0.75000000  1
  Cu  Cu35  1  0.66032500  0.83967500  0.75000000  1
  Cu  Cu36  1  0.61901700  0.10695200  0.14188400  1
  Cu  Cu37  1  0.89304800  0.61901700  0.14188400  1
  Cu  Cu38  1  0.10695200  0.38098300  0.14188400  1
  Cu  Cu39  1  0.11901700  0.39304800  0.35811600  1
  Cu  Cu40  1  0.88098300  0.60695200  0.35811600  1
  Cu  Cu41  1  0.38098300  0.89304800  0.14188400  1
  Cu  Cu42  1  0.60695200  0.11901700  0.35811600  1
  Cu  Cu43  1  0.83967500  0.33967500  0.25000000  1
  Cu  Cu44  1  0.38098300  0.89304800  0.85811600  1
  Cu  Cu45  1  0.10695200  0.38098300  0.85811600  1
  Cu  Cu46  1  0.89304800  0.61901700  0.85811600  1
  Cu  Cu47  1  0.88098300  0.60695200  0.64188400  1
  Cu  Cu48  1  0.11901700  0.39304800  0.64188400  1
  Cu  Cu49  1  0.61901700  0.10695200  0.85811600  1
  Cu  Cu50  1  0.39304800  0.88098300  0.64188400  1
  Cu  Cu51  1  0.60695200  0.11901700  0.64188400  1
  Cu  Cu52  1  0.33967500  0.16032500  0.25000000  1
  Cu  Cu53  1  0.66032500  0.83967500  0.25000000  1
