# generated using pymatgen
data_Cu2NiC8
_symmetry_space_group_name_H-M   'P 1'
_cell_length_a   8.52500200
_cell_length_b   6.01172400
_cell_length_c   14.33297982
_cell_angle_alpha   67.25636933
_cell_angle_beta   90.00000000
_cell_angle_gamma   90.00000000
_symmetry_Int_Tables_number   1
_chemical_formula_structural   Cu2NiC8
_chemical_formula_sum   'Cu8 Ni4 C32'
_cell_volume   677.44778967
_cell_formula_units_Z   4
loop_
 _symmetry_equiv_pos_site_id
 _symmetry_equiv_pos_as_xyz
  1  'x, y, z'
loop_
 _atom_site_type_symbol
 _atom_site_label
 _atom_site_symmetry_multiplicity
 _atom_site_fract_x
 _atom_site_fract_y
 _atom_site_fract_z
 _atom_site_occupancy
  C  C0  1  0.34900100  0.50195400  0.78720300  1
  C  C1  1  0.84900100  0.49804600  0.71279700  1
  C  C2  1  0.65099900  0.49804600  0.21279700  1
  C  C3  1  0.15099900  0.50195400  0.28720300  1
  Ni  Ni4  1  0.35875100  0.15298800  0.12107900  1
  Ni  Ni5  1  0.14124900  0.15298800  0.62107900  1
  Ni  Ni6  1  0.64124900  0.84701200  0.87892100  1
  Ni  Ni7  1  0.85875100  0.84701200  0.37892100  1
  Cu  Cu8  1  0.46581400  0.90544100  0.34287400  1
  Cu  Cu9  1  0.68056800  0.16459100  0.00549400  1
  Cu  Cu10  1  0.03418600  0.90544100  0.84287400  1
  Cu  Cu11  1  0.53418600  0.09455900  0.65712600  1
  Cu  Cu12  1  0.31943200  0.83540900  0.99450600  1
  Cu  Cu13  1  0.81943200  0.16459100  0.50549400  1
  Cu  Cu14  1  0.18056800  0.83540900  0.49450600  1
  Cu  Cu15  1  0.96581400  0.09455900  0.15712600  1
  C  C16  1  0.58809800  0.20010700  0.10640400  1
  C  C17  1  0.08809800  0.79989300  0.39359600  1
  C  C18  1  0.41190200  0.79989300  0.89359600  1
  C  C19  1  0.91190200  0.20010700  0.60640400  1
  C  C20  1  0.64941800  0.87265600  0.01303400  1
  C  C21  1  0.14941800  0.12734400  0.48696600  1
  C  C22  1  0.35058200  0.12734400  0.98696600  1
  C  C23  1  0.85058200  0.87265600  0.51303400  1
  C  C24  1  0.65820100  0.39289800  0.89222100  1
  C  C25  1  0.15820100  0.60710200  0.60777900  1
  C  C26  1  0.34179900  0.60710200  0.10777900  1
  C  C27  1  0.84179900  0.39289800  0.39222100  1
  C  C28  1  0.88658700  0.17294100  0.03323500  1
  C  C29  1  0.38658700  0.82705900  0.46676500  1
  C  C30  1  0.11341300  0.82705900  0.96676500  1
  C  C31  1  0.61341300  0.17294100  0.53323500  1
  C  C32  1  0.62731000  0.83658800  0.73891300  1
  C  C33  1  0.12731000  0.16341200  0.76108700  1
  C  C34  1  0.37269000  0.16341200  0.26108700  1
  C  C35  1  0.87269000  0.83658800  0.23891300  1
  C  C36  1  0.44350600  0.66665500  0.31002700  1
  C  C37  1  0.94350600  0.33334500  0.18997300  1
  C  C38  1  0.55649400  0.33334500  0.68997300  1
  C  C39  1  0.05649400  0.66665500  0.81002700  1
  C  C40  1  0.34631600  0.00149900  0.65119200  1
  C  C41  1  0.84631600  0.99850100  0.84880800  1
  C  C42  1  0.65368400  0.99850100  0.34880800  1
  C  C43  1  0.15368400  0.00149900  0.15119200  1
