# generated using pymatgen
data_Cu9(Ni2C3)2
_symmetry_space_group_name_H-M   'P 1'
_cell_length_a   13.59337400
_cell_length_b   4.90173700
_cell_length_c   6.53572410
_cell_angle_alpha   87.16232501
_cell_angle_beta   90.00000000
_cell_angle_gamma   90.00000000
_symmetry_Int_Tables_number   1
_chemical_formula_structural   Cu9(Ni2C3)2
_chemical_formula_sum   'Cu18 Ni8 C12'
_cell_volume   434.94878690
_cell_formula_units_Z   2
loop_
 _symmetry_equiv_pos_site_id
 _symmetry_equiv_pos_as_xyz
  1  'x, y, z'
loop_
 _atom_site_type_symbol
 _atom_site_label
 _atom_site_symmetry_multiplicity
 _atom_site_fract_x
 _atom_site_fract_y
 _atom_site_fract_z
 _atom_site_occupancy
  C  C0  1  0.03407300  0.75204300  0.85737300  1
  C  C1  1  0.53407300  0.24795700  0.14262700  1
  C  C2  1  0.98388700  0.04460600  0.35716500  1
  C  C3  1  0.07036000  0.52983900  0.38765300  1
  C  C4  1  0.57036000  0.47016100  0.61234700  1
  C  C5  1  0.48388700  0.95539400  0.64283500  1
  C  C6  1  0.35036700  0.61337200  0.65250100  1
  C  C7  1  0.85036700  0.38662800  0.34749900  1
  C  C8  1  0.85077400  0.32425600  0.88111300  1
  C  C9  1  0.07569600  0.25168600  0.98506200  1
  C  C10  1  0.57569600  0.74831400  0.01493800  1
  C  C11  1  0.35077400  0.67574400  0.11888700  1
  Ni  Ni12  1  0.51573300  0.75462700  0.91383200  1
  Ni  Ni13  1  0.01573300  0.24537300  0.08616800  1
  Ni  Ni14  1  0.02118900  0.79056100  0.57071000  1
  Ni  Ni15  1  0.52118900  0.20943900  0.42929000  1
  Ni  Ni16  1  0.73637500  0.14343900  0.78760900  1
  Ni  Ni17  1  0.26793600  0.34264500  0.78381100  1
  Ni  Ni18  1  0.76793600  0.65735500  0.21618900  1
  Ni  Ni19  1  0.23637500  0.85656100  0.21239100  1
  Cu  Cu20  1  0.97665800  0.75087400  0.76618600  1
  Cu  Cu21  1  0.47665800  0.24912600  0.23381400  1
  Cu  Cu22  1  0.94604000  0.92225000  0.45270800  1
  Cu  Cu23  1  0.02273400  0.51096800  0.50047000  1
  Cu  Cu24  1  0.52273400  0.48903200  0.49953000  1
  Cu  Cu25  1  0.44604000  0.07775000  0.54729200  1
  Cu  Cu26  1  0.70788600  0.96509600  0.67806400  1
  Cu  Cu27  1  0.27858600  0.57748000  0.65324200  1
  Cu  Cu28  1  0.77858600  0.42252000  0.34675800  1
  Cu  Cu29  1  0.20788600  0.03490400  0.32193600  1
  Cu  Cu30  1  0.68843900  0.27183200  0.91144700  1
  Cu  Cu31  1  0.33726400  0.28414700  0.89881500  1
  Cu  Cu32  1  0.83726400  0.71585300  0.10118500  1
  Cu  Cu33  1  0.18843900  0.72816800  0.08855300  1
  Cu  Cu34  1  0.83533500  0.21036700  0.76474900  1
  Cu  Cu35  1  0.18924200  0.22720700  0.76842700  1
  Cu  Cu36  1  0.68924200  0.77279300  0.23157300  1
  Cu  Cu37  1  0.33533500  0.78963300  0.23525100  1
