# generated using pymatgen
data_Cu5Ni2
_symmetry_space_group_name_H-M   'P 1'
_cell_length_a   8.84707400
_cell_length_b   8.84707400
_cell_length_c   2.70190800
_cell_angle_alpha   90.00000000
_cell_angle_beta   90.00000000
_cell_angle_gamma   90.00000000
_symmetry_Int_Tables_number   1
_chemical_formula_structural   Cu5Ni2
_chemical_formula_sum   'Cu10 Ni4'
_cell_volume   211.48028011
_cell_formula_units_Z   2
loop_
 _symmetry_equiv_pos_site_id
 _symmetry_equiv_pos_as_xyz
  1  'x, y, z'
loop_
 _atom_site_type_symbol
 _atom_site_label
 _atom_site_symmetry_multiplicity
 _atom_site_fract_x
 _atom_site_fract_y
 _atom_site_fract_z
 _atom_site_occupancy
  Ni  Ni0  1  0.67865100  0.17865100  0.50000000  1
  Ni  Ni1  1  0.32134900  0.82134900  0.50000000  1
  Ni  Ni2  1  0.17865100  0.32134900  0.50000000  1
  Ni  Ni3  1  0.82134900  0.67865100  0.50000000  1
  Cu  Cu4  1  0.50000000  0.00000000  0.00000000  1
  Cu  Cu5  1  0.00000000  0.50000000  0.00000000  1
  Cu  Cu6  1  0.56478500  0.70687000  0.00000000  1
  Cu  Cu7  1  0.43521500  0.29313000  0.00000000  1
  Cu  Cu8  1  0.06478500  0.79313000  0.00000000  1
  Cu  Cu9  1  0.93521500  0.20687000  0.00000000  1
  Cu  Cu10  1  0.29313000  0.56478500  0.00000000  1
  Cu  Cu11  1  0.70687000  0.43521500  0.00000000  1
  Cu  Cu12  1  0.20687000  0.06478500  0.00000000  1
  Cu  Cu13  1  0.79313000  0.93521500  0.00000000  1
