# generated using pymatgen
data_Cu9(Ni2C7)2
_symmetry_space_group_name_H-M   'P 1'
_cell_length_a   10.04539500
_cell_length_b   10.07995595
_cell_length_c   15.28835292
_cell_angle_alpha   102.17997485
_cell_angle_beta   107.67929419
_cell_angle_gamma   101.84807795
_symmetry_Int_Tables_number   1
_chemical_formula_structural   Cu9(Ni2C7)2
_chemical_formula_sum   'Cu18 Ni8 C28'
_cell_volume   1380.10922268
_cell_formula_units_Z   2
loop_
 _symmetry_equiv_pos_site_id
 _symmetry_equiv_pos_as_xyz
  1  'x, y, z'
loop_
 _atom_site_type_symbol
 _atom_site_label
 _atom_site_symmetry_multiplicity
 _atom_site_fract_x
 _atom_site_fract_y
 _atom_site_fract_z
 _atom_site_occupancy
  C  C0  1  0.27603200  0.35017900  0.76834400  1
  C  C1  1  0.90131500  0.20933600  0.39930600  1
  C  C2  1  0.26520000  0.89628200  0.30432400  1
  C  C3  1  0.72396800  0.64982100  0.23165600  1
  C  C4  1  0.73480000  0.10371800  0.69567600  1
  C  C5  1  0.89819000  0.68342600  0.90703600  1
  C  C6  1  0.10181000  0.31657400  0.09296400  1
  C  C7  1  0.09868500  0.79066400  0.60069400  1
  C  C8  1  0.61086500  0.67187600  0.49869000  1
  C  C9  1  0.49180300  0.41448800  0.37589100  1
  C  C10  1  0.50847000  0.85939600  0.90081300  1
  C  C11  1  0.67062600  0.98465700  0.08395700  1
  C  C12  1  0.67015100  0.45276200  0.55344200  1
  C  C13  1  0.50819700  0.58551200  0.62410900  1
  C  C14  1  0.32937400  0.01534300  0.91604300  1
  C  C15  1  0.49153000  0.14060400  0.09918700  1
  C  C16  1  0.38937600  0.86047700  0.03346600  1
  C  C17  1  0.38913500  0.32812400  0.50131000  1
  C  C18  1  0.61062400  0.13952300  0.96653400  1
  C  C19  1  0.32984900  0.54723800  0.44655800  1
  Ni  Ni20  1  0.13853000  0.03702100  0.82278400  1
  Ni  Ni21  1  0.26550000  0.13685900  0.50833000  1
  Ni  Ni22  1  0.86147000  0.96297900  0.17721600  1
  Ni  Ni23  1  0.73450000  0.86314100  0.49167000  1
  Ni  Ni24  1  0.25830900  0.70867900  0.07164100  1
  Ni  Ni25  1  0.86025300  0.39851300  0.61763200  1
  Ni  Ni26  1  0.74169100  0.29132100  0.92835900  1
  Ni  Ni27  1  0.13974700  0.60148700  0.38236800  1
  Cu  Cu28  1  0.47054800  0.34025900  0.20896800  1
  Cu  Cu29  1  0.43792300  0.27018400  0.98218800  1
  Cu  Cu30  1  0.45164900  0.77929000  0.56365100  1
  Cu  Cu31  1  0.23311500  0.30628700  0.33995900  1
  Cu  Cu32  1  0.52945200  0.65974100  0.79103200  1
  Cu  Cu33  1  0.43840000  0.62410200  0.33779000  1
  Cu  Cu34  1  0.45185200  0.01309500  0.80089000  1
  Cu  Cu35  1  0.56207700  0.72981600  0.01781200  1
  Cu  Cu36  1  0.76731400  0.98825400  0.95658900  1
  Cu  Cu37  1  0.54814800  0.98690500  0.19911000  1
  Cu  Cu38  1  0.23268600  0.01174600  0.04341100  1
  Cu  Cu39  1  0.75259800  0.24195200  0.13756800  1
  Cu  Cu40  1  0.24668700  0.46469400  0.56342100  1
  Cu  Cu41  1  0.54835100  0.22071000  0.43634900  1
  Cu  Cu42  1  0.75331300  0.53530600  0.43657900  1
  Cu  Cu43  1  0.24740200  0.75804800  0.86243200  1
  Cu  Cu44  1  0.56160000  0.37589800  0.66221000  1
  Cu  Cu45  1  0.76688500  0.69371300  0.66004100  1
  C  C46  1  0.82152600  0.36853200  0.90572000  1
  C  C47  1  0.03411700  0.63008500  0.34190200  1
  C  C48  1  0.96563800  0.94468700  0.22898900  1
  C  C49  1  0.17847400  0.63146800  0.09428000  1
  C  C50  1  0.96588300  0.36991500  0.65809800  1
  C  C51  1  0.80547000  0.96496700  0.48363700  1
  C  C52  1  0.03436200  0.05531300  0.77101100  1
  C  C53  1  0.19453000  0.03503300  0.51636300  1
