# generated using pymatgen
data_Cu6Ni3C2
_symmetry_space_group_name_H-M   'P 1'
_cell_length_a   12.29730400
_cell_length_b   6.20343700
_cell_length_c   17.29997240
_cell_angle_alpha   70.30938051
_cell_angle_beta   90.00000000
_cell_angle_gamma   90.00000000
_symmetry_Int_Tables_number   1
_chemical_formula_structural   Cu6Ni3C2
_chemical_formula_sum   'Cu24 Ni12 C8'
_cell_volume   1242.56719809
_cell_formula_units_Z   4
loop_
 _symmetry_equiv_pos_site_id
 _symmetry_equiv_pos_as_xyz
  1  'x, y, z'
loop_
 _atom_site_type_symbol
 _atom_site_label
 _atom_site_symmetry_multiplicity
 _atom_site_fract_x
 _atom_site_fract_y
 _atom_site_fract_z
 _atom_site_occupancy
  C  C0  1  0.38459300  0.92764100  0.69749600  1
  C  C1  1  0.88459300  0.07235900  0.80250400  1
  C  C2  1  0.61540700  0.07235900  0.30250400  1
  C  C3  1  0.11540700  0.92764100  0.19749600  1
  C  C4  1  0.09458200  0.16826700  0.40252600  1
  C  C5  1  0.40541800  0.16826700  0.90252600  1
  C  C6  1  0.90541800  0.83173300  0.59747400  1
  C  C7  1  0.59458200  0.83173300  0.09747400  1
  Ni  Ni8  1  0.13176200  0.40699800  0.56726400  1
  Ni  Ni9  1  0.82522500  0.31005100  0.08209700  1
  Ni  Ni10  1  0.63176200  0.59300200  0.93273600  1
  Ni  Ni11  1  0.86823800  0.59300200  0.43273600  1
  Ni  Ni12  1  0.36823800  0.40699800  0.06726400  1
  Ni  Ni13  1  0.37157500  0.56066700  0.24461100  1
  Ni  Ni14  1  0.87157500  0.43933300  0.25538900  1
  Ni  Ni15  1  0.62842500  0.43933300  0.75538900  1
  Ni  Ni16  1  0.12842500  0.56066700  0.74461100  1
  Ni  Ni17  1  0.32522500  0.68994900  0.41790300  1
  Ni  Ni18  1  0.67477500  0.31005100  0.58209700  1
  Ni  Ni19  1  0.17477500  0.68994900  0.91790300  1
  Cu  Cu20  1  0.86059200  0.63870800  0.11873900  1
  Cu  Cu21  1  0.05350400  0.37013100  0.25748900  1
  Cu  Cu22  1  0.55350400  0.62986900  0.24251100  1
  Cu  Cu23  1  0.94649600  0.62986900  0.74251100  1
  Cu  Cu24  1  0.44649600  0.37013100  0.75748900  1
  Cu  Cu25  1  0.35966900  0.23121600  0.21022800  1
  Cu  Cu26  1  0.85966900  0.76878400  0.28977200  1
  Cu  Cu27  1  0.64033100  0.76878400  0.78977200  1
  Cu  Cu28  1  0.14033100  0.23121600  0.71022800  1
  Cu  Cu29  1  0.18514900  0.49883100  0.05673800  1
  Cu  Cu30  1  0.68514900  0.50116900  0.44326200  1
  Cu  Cu31  1  0.81485100  0.50116900  0.94326200  1
  Cu  Cu32  1  0.31485100  0.49883100  0.55673800  1
  Cu  Cu33  1  0.36370000  0.06247800  0.04908100  1
  Cu  Cu34  1  0.86370000  0.93752200  0.45091900  1
  Cu  Cu35  1  0.63630000  0.93752200  0.95091900  1
  Cu  Cu36  1  0.34908500  0.74379200  0.88426700  1
  Cu  Cu37  1  0.84908500  0.25620800  0.61573300  1
  Cu  Cu38  1  0.65091500  0.25620800  0.11573300  1
  Cu  Cu39  1  0.15091500  0.74379200  0.38426700  1
  Cu  Cu40  1  0.13940800  0.36129200  0.88126100  1
  Cu  Cu41  1  0.63940800  0.63870800  0.61873900  1
  Cu  Cu42  1  0.36059200  0.36129200  0.38126100  1
  Cu  Cu43  1  0.13630000  0.06247800  0.54908100  1
