# generated using pymatgen
data_Cu4Ni7C31
_symmetry_space_group_name_H-M   'P 1'
_cell_length_a   7.87660553
_cell_length_b   7.87660553
_cell_length_c   10.30100783
_cell_angle_alpha   65.57746882
_cell_angle_beta   65.57746882
_cell_angle_gamma   55.26669207
_symmetry_Int_Tables_number   1
_chemical_formula_structural   Cu4Ni7C31
_chemical_formula_sum   'Cu4 Ni7 C31'
_cell_volume   464.50259742
_cell_formula_units_Z   1
loop_
 _symmetry_equiv_pos_site_id
 _symmetry_equiv_pos_as_xyz
  1  'x, y, z'
loop_
 _atom_site_type_symbol
 _atom_site_label
 _atom_site_symmetry_multiplicity
 _atom_site_fract_x
 _atom_site_fract_y
 _atom_site_fract_z
 _atom_site_occupancy
  C  C0  1  0.05418200  0.05418200  0.82362800  1
  C  C1  1  0.47592200  0.62367300  0.42543300  1
  C  C2  1  0.62367300  0.47592200  0.42543300  1
  C  C3  1  0.33539800  0.54969800  0.53489700  1
  C  C4  1  0.54969800  0.33539800  0.53489700  1
  C  C5  1  0.98881500  0.76182100  0.85095200  1
  C  C6  1  0.42135500  0.76991400  0.83135400  1
  C  C7  1  0.76991400  0.42135500  0.83135400  1
  C  C8  1  0.97588900  0.38974100  0.85473800  1
  C  C9  1  0.76182100  0.98881500  0.85095200  1
  C  C10  1  0.38974100  0.97588900  0.85473800  1
  C  C11  1  0.21305700  0.50787700  0.06983400  1
  C  C12  1  0.20900500  0.71299500  0.08410000  1
  C  C13  1  0.98147200  0.71332900  0.10895500  1
  C  C14  1  0.11890800  0.55788500  0.24214700  1
  C  C15  1  0.50787700  0.21305700  0.06983400  1
  C  C16  1  0.20526000  0.20526000  0.06772600  1
  C  C17  1  0.71299500  0.20900500  0.08410000  1
  C  C18  1  0.97757700  0.21055300  0.09979700  1
  C  C19  1  0.21055300  0.97757700  0.09979700  1
  C  C20  1  0.71332900  0.98147200  0.10895500  1
  C  C21  1  0.55788500  0.11890800  0.24214700  1
  C  C22  1  0.09590500  0.09590500  0.24173600  1
  Ni  Ni23  1  0.90826800  0.90826800  0.87328400  1
  Ni  Ni24  1  0.31593800  0.88569000  0.88969800  1
  Ni  Ni25  1  0.88569000  0.31593800  0.88969800  1
  Ni  Ni26  1  0.49501100  0.49501100  0.53189700  1
  Ni  Ni27  1  0.12920500  0.62338400  0.13154700  1
  Ni  Ni28  1  0.62338400  0.12920500  0.13154700  1
  Ni  Ni29  1  0.11996400  0.11996400  0.13124800  1
  Cu  Cu30  1  0.83526700  0.83526700  0.53328600  1
  Cu  Cu31  1  0.61986800  0.61986800  0.20180600  1
  Cu  Cu32  1  0.35576100  0.35576100  0.90878000  1
  Cu  Cu33  1  0.17654400  0.17654400  0.44093000  1
  C  C34  1  0.88899900  0.88899900  0.37174300  1
  C  C35  1  0.30957700  0.98413100  0.38626100  1
  C  C36  1  0.29401500  0.29401500  0.38929800  1
  C  C37  1  0.98413100  0.30957700  0.38626100  1
  C  C38  1  0.71819600  0.71819600  0.58992900  1
  C  C39  1  0.03115800  0.70523300  0.58564800  1
  C  C40  1  0.70523300  0.03115800  0.58564800  1
  C  C41  1  0.12126000  0.12126000  0.60088900  1
