# generated using pymatgen
data_CuNi5C4
_symmetry_space_group_name_H-M   'P 1'
_cell_length_a   7.44868700
_cell_length_b   10.64667600
_cell_length_c   15.31783300
_cell_angle_alpha   90.00000000
_cell_angle_beta   90.00000000
_cell_angle_gamma   90.00000000
_symmetry_Int_Tables_number   1
_chemical_formula_structural   CuNi5C4
_chemical_formula_sum   'Cu4 Ni20 C16'
_cell_volume   1214.76170775
_cell_formula_units_Z   4
loop_
 _symmetry_equiv_pos_site_id
 _symmetry_equiv_pos_as_xyz
  1  'x, y, z'
loop_
 _atom_site_type_symbol
 _atom_site_label
 _atom_site_symmetry_multiplicity
 _atom_site_fract_x
 _atom_site_fract_y
 _atom_site_fract_z
 _atom_site_occupancy
  C  C0  1  0.85018300  0.49880400  0.34829400  1
  C  C1  1  0.35018300  0.99880400  0.15170600  1
  C  C2  1  0.14981700  0.99880400  0.65170600  1
  C  C3  1  0.64981700  0.49880400  0.84829400  1
  C  C4  1  0.35018300  0.50119600  0.15170600  1
  C  C5  1  0.64981700  0.00119600  0.84829400  1
  C  C6  1  0.14981700  0.50119600  0.65170600  1
  C  C7  1  0.85018300  0.00119600  0.34829400  1
  C  C8  1  0.19980000  0.25000000  0.87580600  1
  C  C9  1  0.80020000  0.75000000  0.12419400  1
  C  C10  1  0.69980000  0.75000000  0.62419400  1
  C  C11  1  0.30020000  0.25000000  0.37580600  1
  C  C12  1  0.95243000  0.25000000  0.04998300  1
  C  C13  1  0.45243000  0.75000000  0.45001700  1
  C  C14  1  0.04757000  0.75000000  0.95001700  1
  C  C15  1  0.54757000  0.25000000  0.54998300  1
  Ni  Ni16  1  0.69474600  0.98688500  0.62317600  1
  Ni  Ni17  1  0.80525400  0.51311500  0.12317600  1
  Ni  Ni18  1  0.57195600  0.25000000  0.27790100  1
  Ni  Ni19  1  0.19474600  0.01311500  0.87682400  1
  Ni  Ni20  1  0.30525400  0.01311500  0.37682400  1
  Ni  Ni21  1  0.19474600  0.48688500  0.87682400  1
  Ni  Ni22  1  0.96785600  0.75000000  0.52244500  1
  Ni  Ni23  1  0.60216700  0.75000000  0.25064000  1
  Ni  Ni24  1  0.46785600  0.25000000  0.97755500  1
  Ni  Ni25  1  0.39783300  0.25000000  0.74936000  1
  Ni  Ni26  1  0.69474600  0.51311500  0.62317600  1
  Ni  Ni27  1  0.30525400  0.48688500  0.37682400  1
  Ni  Ni28  1  0.10216700  0.25000000  0.24936000  1
  Ni  Ni29  1  0.42804400  0.75000000  0.72209900  1
  Ni  Ni30  1  0.80525400  0.98688500  0.12317600  1
  Ni  Ni31  1  0.92804400  0.25000000  0.77790100  1
  Ni  Ni32  1  0.53214400  0.75000000  0.02244500  1
  Ni  Ni33  1  0.89783300  0.75000000  0.75064000  1
  Ni  Ni34  1  0.07195600  0.75000000  0.22209900  1
  Ni  Ni35  1  0.03214400  0.25000000  0.47755500  1
  Cu  Cu36  1  0.96381800  0.75000000  0.01365500  1
  Cu  Cu37  1  0.46381800  0.25000000  0.48634500  1
  Cu  Cu38  1  0.53618200  0.75000000  0.51365500  1
  Cu  Cu39  1  0.03618200  0.25000000  0.98634500  1
