# generated using pymatgen
data_Cu2(NiC3)3
_symmetry_space_group_name_H-M   'P 1'
_cell_length_a   14.21633461
_cell_length_b   14.21633461
_cell_length_c   14.21633461
_cell_angle_alpha   164.23017157
_cell_angle_beta   164.23017157
_cell_angle_gamma   22.37345519
_symmetry_Int_Tables_number   1
_chemical_formula_structural   Cu2(NiC3)3
_chemical_formula_sum   'Cu2 Ni3 C9'
_cell_volume   212.17649123
_cell_formula_units_Z   1
loop_
 _symmetry_equiv_pos_site_id
 _symmetry_equiv_pos_as_xyz
  1  'x, y, z'
loop_
 _atom_site_type_symbol
 _atom_site_label
 _atom_site_symmetry_multiplicity
 _atom_site_fract_x
 _atom_site_fract_y
 _atom_site_fract_z
 _atom_site_occupancy
  Ni  Ni0  1  0.65226900  0.15226900  0.50000000  1
  Ni  Ni1  1  0.25000000  0.75000000  0.50000000  1
  Ni  Ni2  1  0.84773100  0.34773100  0.50000000  1
  Cu  Cu3  1  0.44270600  0.94270600  0.50000000  1
  Cu  Cu4  1  0.05729400  0.55729400  0.50000000  1
  C  C5  1  0.10820700  0.10820700  0.00000000  1
  C  C6  1  0.69815400  0.69815400  0.00000000  1
  C  C7  1  0.30184600  0.30184600  0.00000000  1
  C  C8  1  0.89179300  0.89179300  0.00000000  1
  C  C9  1  0.40226300  0.40226300  0.00000000  1
  C  C10  1  0.00000000  0.00000000  0.00000000  1
  C  C11  1  0.59773700  0.59773700  0.00000000  1
  C  C12  1  0.20414600  0.20414600  0.00000000  1
  C  C13  1  0.79585400  0.79585400  0.00000000  1
