# generated using pymatgen
data_Cu4NiC9
_symmetry_space_group_name_H-M   'P 1'
_cell_length_a   7.45465400
_cell_length_b   11.59689519
_cell_length_c   7.16129136
_cell_angle_alpha   90.00023311
_cell_angle_beta   109.12273755
_cell_angle_gamma   90.01047410
_symmetry_Int_Tables_number   1
_chemical_formula_structural   Cu4NiC9
_chemical_formula_sum   'Cu16 Ni4 C36'
_cell_volume   584.93710131
_cell_formula_units_Z   4
loop_
 _symmetry_equiv_pos_site_id
 _symmetry_equiv_pos_as_xyz
  1  'x, y, z'
loop_
 _atom_site_type_symbol
 _atom_site_label
 _atom_site_symmetry_multiplicity
 _atom_site_fract_x
 _atom_site_fract_y
 _atom_site_fract_z
 _atom_site_occupancy
  C  C0  1  0.35231500  0.99018600  0.30894800  1
  C  C1  1  0.16726600  0.00157600  0.24996500  1
  C  C2  1  0.64748100  0.00984300  0.80888100  1
  C  C3  1  0.83266600  0.99846600  0.75010900  1
  C  C4  1  0.88153100  0.11465900  0.30659900  1
  C  C5  1  0.97551900  0.17450800  0.18189000  1
  C  C6  1  0.11748900  0.88272900  0.80717600  1
  C  C7  1  0.02476100  0.82540500  0.68198000  1
  C  C8  1  0.63226300  0.83373000  0.18751700  1
  C  C9  1  0.62584200  0.83835800  0.32106800  1
  C  C10  1  0.36370100  0.16530600  0.68832500  1
  C  C11  1  0.37339000  0.16289700  0.82158100  1
  C  C12  1  0.66333800  0.35486800  0.30326200  1
  C  C13  1  0.66663700  0.56781100  0.25010800  1
  C  C14  1  0.33684400  0.64499900  0.80335100  1
  C  C15  1  0.33368600  0.43222900  0.75007500  1
  C  C16  1  0.18872800  0.71814300  0.23604900  1
  C  C17  1  0.99273300  0.53774600  0.24443600  1
  C  C18  1  0.81104800  0.28188500  0.73591500  1
  C  C19  1  0.00727900  0.46189400  0.74443000  1
  C  C20  1  0.34705600  0.37430700  0.36594000  1
  C  C21  1  0.20590600  0.49934200  0.32152900  1
  C  C22  1  0.65278200  0.62568100  0.86593600  1
  C  C23  1  0.79405900  0.50058400  0.82146200  1
  C  C24  1  0.52236500  0.83276900  0.54108500  1
  C  C25  1  0.40336300  0.61124700  0.49191700  1
  C  C26  1  0.40537200  0.64281800  0.64117600  1
  C  C27  1  0.47763600  0.16719600  0.04111300  1
  C  C28  1  0.59473700  0.35731900  0.14129100  1
  C  C29  1  0.59656400  0.38865200  0.99199100  1
  C  C30  1  0.02688800  0.05360200  0.50678800  1
  C  C31  1  0.13729400  0.31182000  0.46720300  1
  C  C32  1  0.93744300  0.22762000  0.55291500  1
  C  C33  1  0.06240700  0.77219200  0.05325600  1
  C  C34  1  0.97337600  0.94646300  0.00673300  1
  C  C35  1  0.86276900  0.68812900  0.96718000  1
  Ni  Ni36  1  0.98295800  0.77696000  0.48175500  1
  Ni  Ni37  1  0.01683100  0.22299000  0.98183100  1
  Ni  Ni38  1  0.58019600  0.13552600  0.44734900  1
  Ni  Ni39  1  0.42052500  0.86410200  0.94781200  1
  Cu  Cu40  1  0.27855200  0.95603900  0.23685400  1
  Cu  Cu41  1  0.72139000  0.04389900  0.73686100  1
  Cu  Cu42  1  0.97827500  0.10015700  0.25357000  1
  Cu  Cu43  1  0.02460800  0.90241100  0.75295600  1
  Cu  Cu44  1  0.58959800  0.74939100  0.25444900  1
  Cu  Cu45  1  0.41025300  0.25057100  0.75445300  1
  Cu  Cu46  1  0.69674800  0.44052200  0.23363200  1
  Cu  Cu47  1  0.30332000  0.55947000  0.73367700  1
  Cu  Cu48  1  0.12972100  0.56830500  0.23079900  1
  Cu  Cu49  1  0.87032000  0.43172900  0.73082100  1
  Cu  Cu50  1  0.26836300  0.44797600  0.39725500  1
  Cu  Cu51  1  0.73171300  0.55216600  0.89715200  1
  Cu  Cu52  1  0.48395000  0.68848700  0.55765100  1
  Cu  Cu53  1  0.51599900  0.31148600  0.05767600  1
  Cu  Cu54  1  0.05681100  0.20595100  0.53214800  1
  Cu  Cu55  1  0.94332800  0.79408700  0.03206300  1
