# generated using pymatgen
data_Cu7NiC2
_symmetry_space_group_name_H-M   'P 1'
_cell_length_a   9.76024600
_cell_length_b   12.01441400
_cell_length_c   13.71162500
_cell_angle_alpha   90.00000000
_cell_angle_beta   90.00000000
_cell_angle_gamma   90.00000000
_symmetry_Int_Tables_number   1
_chemical_formula_structural   Cu7NiC2
_chemical_formula_sum   'Cu28 Ni4 C8'
_cell_volume   1607.87500552
_cell_formula_units_Z   4
loop_
 _symmetry_equiv_pos_site_id
 _symmetry_equiv_pos_as_xyz
  1  'x, y, z'
loop_
 _atom_site_type_symbol
 _atom_site_label
 _atom_site_symmetry_multiplicity
 _atom_site_fract_x
 _atom_site_fract_y
 _atom_site_fract_z
 _atom_site_occupancy
  Ni  Ni0  1  0.29589900  0.75000000  0.40302900  1
  Ni  Ni1  1  0.20410100  0.25000000  0.90302900  1
  Ni  Ni2  1  0.79589900  0.75000000  0.09697100  1
  Ni  Ni3  1  0.70410100  0.25000000  0.59697100  1
  Cu  Cu4  1  0.74716300  0.25000000  0.22678700  1
  Cu  Cu5  1  0.84658100  0.38919700  0.27793200  1
  Cu  Cu6  1  0.15341900  0.88919700  0.72206800  1
  Cu  Cu7  1  0.34658100  0.11080300  0.22206800  1
  Cu  Cu8  1  0.15341900  0.61080300  0.72206800  1
  Cu  Cu9  1  0.23782700  0.04181500  0.10569700  1
  Cu  Cu10  1  0.73782700  0.04181500  0.39430300  1
  Cu  Cu11  1  0.67128500  0.91204400  0.01971200  1
  Cu  Cu12  1  0.82871500  0.41204400  0.51971200  1
  Cu  Cu13  1  0.76217300  0.54181500  0.89430300  1
  Cu  Cu14  1  0.65341900  0.61080300  0.77793200  1
  Cu  Cu15  1  0.26217300  0.54181500  0.60569700  1
  Cu  Cu16  1  0.32871500  0.41204400  0.98028800  1
  Cu  Cu17  1  0.17128500  0.91204400  0.48028800  1
  Cu  Cu18  1  0.25283700  0.75000000  0.77321300  1
  Cu  Cu19  1  0.32871500  0.08795600  0.98028800  1
  Cu  Cu20  1  0.24716300  0.25000000  0.27321300  1
  Cu  Cu21  1  0.73782700  0.45818500  0.39430300  1
  Cu  Cu22  1  0.75283700  0.75000000  0.72678700  1
  Cu  Cu23  1  0.67128500  0.58795600  0.01971200  1
  Cu  Cu24  1  0.26217300  0.95818500  0.60569700  1
  Cu  Cu25  1  0.84658100  0.11080300  0.27793200  1
  Cu  Cu26  1  0.23782700  0.45818500  0.10569700  1
  Cu  Cu27  1  0.76217300  0.95818500  0.89430300  1
  Cu  Cu28  1  0.82871500  0.08795600  0.51971200  1
  Cu  Cu29  1  0.17128500  0.58795600  0.48028800  1
  Cu  Cu30  1  0.34658100  0.38919700  0.22206800  1
  Cu  Cu31  1  0.65341900  0.88919700  0.77793200  1
  C  C32  1  0.93418000  0.25000000  0.70678300  1
  C  C33  1  0.56582000  0.75000000  0.20678300  1
  C  C34  1  0.49573800  0.75000000  0.52867100  1
  C  C35  1  0.00426200  0.25000000  0.02867100  1
  C  C36  1  0.43418000  0.25000000  0.79321700  1
  C  C37  1  0.99573800  0.75000000  0.97132900  1
  C  C38  1  0.50426200  0.25000000  0.47132900  1
  C  C39  1  0.06582000  0.75000000  0.29321700  1
