# generated using pymatgen
data_Cu6Ni3C4
_symmetry_space_group_name_H-M   'P 1'
_cell_length_a   6.42243882
_cell_length_b   6.42243882
_cell_length_c   6.42243855
_cell_angle_alpha   115.45490450
_cell_angle_beta   115.45490450
_cell_angle_gamma   115.45490120
_symmetry_Int_Tables_number   1
_chemical_formula_structural   Cu6Ni3C4
_chemical_formula_sum   'Cu6 Ni3 C4'
_cell_volume   141.92444812
_cell_formula_units_Z   1
loop_
 _symmetry_equiv_pos_site_id
 _symmetry_equiv_pos_as_xyz
  1  'x, y, z'
loop_
 _atom_site_type_symbol
 _atom_site_label
 _atom_site_symmetry_multiplicity
 _atom_site_fract_x
 _atom_site_fract_y
 _atom_site_fract_z
 _atom_site_occupancy
  C  C0  1  0.00243000  0.00243000  0.00243000  1
  C  C1  1  0.38292800  0.86910600  0.38292800  1
  C  C2  1  0.38292800  0.38292800  0.86910600  1
  C  C3  1  0.86910600  0.38292800  0.38292800  1
  Ni  Ni4  1  0.61530900  0.15819800  0.61530900  1
  Ni  Ni5  1  0.61530900  0.61530900  0.15819800  1
  Ni  Ni6  1  0.15819800  0.61530900  0.61530900  1
  Cu  Cu7  1  0.88419800  0.29040800  0.88419800  1
  Cu  Cu8  1  0.88419800  0.88419800  0.29040800  1
  Cu  Cu9  1  0.29040800  0.88419800  0.88419800  1
  Cu  Cu10  1  0.59131400  0.33636100  0.59131400  1
  Cu  Cu11  1  0.59131400  0.59131400  0.33636100  1
  Cu  Cu12  1  0.33636100  0.59131400  0.59131400  1
