# generated using pymatgen
data_CuNi6C
_symmetry_space_group_name_H-M   'P 1'
_cell_length_a   4.30568800
_cell_length_b   4.43995634
_cell_length_c   11.41734407
_cell_angle_alpha   100.19653617
_cell_angle_beta   88.96740159
_cell_angle_gamma   109.27519259
_symmetry_Int_Tables_number   1
_chemical_formula_structural   CuNi6C
_chemical_formula_sum   'Cu3 Ni18 C3'
_cell_volume   202.58503671
_cell_formula_units_Z   3
loop_
 _symmetry_equiv_pos_site_id
 _symmetry_equiv_pos_as_xyz
  1  'x, y, z'
loop_
 _atom_site_type_symbol
 _atom_site_label
 _atom_site_symmetry_multiplicity
 _atom_site_fract_x
 _atom_site_fract_y
 _atom_site_fract_z
 _atom_site_occupancy
  C  C0  1  0.41342000  0.26040900  0.64451000  1
  C  C1  1  0.74448600  0.60172300  0.32155500  1
  C  C2  1  0.03608100  0.95886200  0.98386600  1
  Ni  Ni3  1  0.23211100  0.85031100  0.92682300  1
  Ni  Ni4  1  0.66974800  0.46379700  0.95244500  1
  Ni  Ni5  1  0.59670100  0.38434100  0.73361500  1
  Ni  Ni6  1  0.54776000  0.12856300  0.56617200  1
  Ni  Ni7  1  0.91495600  0.08767200  0.71238700  1
  Ni  Ni8  1  0.14429800  0.88131700  0.74725400  1
  Ni  Ni9  1  0.98224300  0.80788800  0.61165400  1
  Ni  Ni10  1  0.89744300  0.73886900  0.41614900  1
  Ni  Ni11  1  0.16386800  0.14351700  0.07583700  1
  Ni  Ni12  1  0.91787300  0.09614100  0.92266400  1
  Ni  Ni13  1  0.91307500  0.48419500  0.25262600  1
  Ni  Ni14  1  0.24489100  0.40686500  0.38388100  1
  Ni  Ni15  1  0.46681400  0.18132000  0.40452000  1
  Ni  Ni16  1  0.31730900  0.15914700  0.26996800  1
  Ni  Ni17  1  0.32711400  0.46372000  0.60801600  1
  Ni  Ni18  1  0.53400300  0.72560100  0.03836300  1
  Ni  Ni19  1  0.79773600  0.58355200  0.09291900  1
  Ni  Ni20  1  0.65098800  0.78932900  0.27742400  1
  Cu  Cu21  1  0.09315300  0.99069100  0.68130200  1
  Cu  Cu22  1  0.42296000  0.31670500  0.34676100  1
  Cu  Cu23  1  0.74157500  0.66286500  0.01954500  1
