# generated using pymatgen
data_Cu2Ni10C13
_symmetry_space_group_name_H-M   'P 1'
_cell_length_a   7.76168000
_cell_length_b   15.46234900
_cell_length_c   17.11457422
_cell_angle_alpha   69.52850887
_cell_angle_beta   90.00000000
_cell_angle_gamma   90.00000000
_symmetry_Int_Tables_number   1
_chemical_formula_structural   Cu2Ni10C13
_chemical_formula_sum   'Cu8 Ni40 C52'
_cell_volume   1924.26846537
_cell_formula_units_Z   4
loop_
 _symmetry_equiv_pos_site_id
 _symmetry_equiv_pos_as_xyz
  1  'x, y, z'
loop_
 _atom_site_type_symbol
 _atom_site_label
 _atom_site_symmetry_multiplicity
 _atom_site_fract_x
 _atom_site_fract_y
 _atom_site_fract_z
 _atom_site_occupancy
  C  C0  1  0.85260100  0.82257700  0.36108100  1
  C  C1  1  0.35450700  0.63782900  0.11232000  1
  C  C2  1  0.64739900  0.82257700  0.86108100  1
  C  C3  1  0.85450700  0.36217100  0.38768000  1
  C  C4  1  0.35260100  0.17742300  0.13891900  1
  C  C5  1  0.14549300  0.63782900  0.61232000  1
  C  C6  1  0.14739900  0.17742300  0.63891900  1
  C  C7  1  0.64549300  0.36217100  0.88768000  1
  C  C8  1  0.63976800  0.24073700  0.04765000  1
  C  C9  1  0.36023200  0.75926300  0.95235000  1
  C  C10  1  0.13976800  0.75926300  0.45235000  1
  C  C11  1  0.86023200  0.24073700  0.54765000  1
  Ni  Ni12  1  0.68524700  0.42781200  0.42164400  1
  Ni  Ni13  1  0.48652900  0.87786200  0.77653000  1
  Ni  Ni14  1  0.14232000  0.55089500  0.71729800  1
  Ni  Ni15  1  0.63397900  0.92267700  0.89908400  1
  Ni  Ni16  1  0.35768000  0.55089500  0.21729800  1
  Ni  Ni17  1  0.33131400  0.12925600  0.70828500  1
  Ni  Ni18  1  0.01933400  0.28654000  0.36443500  1
  Ni  Ni19  1  0.47615900  0.42152000  0.92724000  1
  Ni  Ni20  1  0.68111400  0.29056600  0.36411000  1
  Ni  Ni21  1  0.81475300  0.42781200  0.92164400  1
  Ni  Ni22  1  0.85758900  0.71459300  0.33636200  1
  Ni  Ni23  1  0.36602100  0.07732300  0.10091600  1
  Ni  Ni24  1  0.86602100  0.92267700  0.39908400  1
  Ni  Ni25  1  0.48066600  0.28654000  0.86443500  1
  Ni  Ni26  1  0.64232000  0.44910500  0.78270200  1
  Ni  Ni27  1  0.51933400  0.71346000  0.13556500  1
  Ni  Ni28  1  0.31888600  0.70943400  0.63589000  1
  Ni  Ni29  1  0.51347100  0.12213800  0.22347000  1
  Ni  Ni30  1  0.72038600  0.75981400  0.45468900  1
  Ni  Ni31  1  0.18111400  0.70943400  0.13589000  1
  Ni  Ni32  1  0.27961400  0.24018600  0.54531100  1
  Ni  Ni33  1  0.81888600  0.29056600  0.86411000  1
  Ni  Ni34  1  0.02384100  0.42152000  0.42724000  1
  Ni  Ni35  1  0.83131400  0.87074400  0.79171500  1
  Ni  Ni36  1  0.77961400  0.75981400  0.95468900  1
  Ni  Ni37  1  0.64241100  0.71459300  0.83636200  1
  Ni  Ni38  1  0.16868600  0.12925600  0.20828500  1
  Ni  Ni39  1  0.98652900  0.12213800  0.72347000  1
  Ni  Ni40  1  0.97615900  0.57848000  0.57276000  1
  Ni  Ni41  1  0.14241100  0.28540700  0.66363800  1
  Ni  Ni42  1  0.31475300  0.57218800  0.57835600  1
  Ni  Ni43  1  0.66868600  0.87074400  0.29171500  1
  Ni  Ni44  1  0.35758900  0.28540700  0.16363800  1
  Ni  Ni45  1  0.85768000  0.44910500  0.28270200  1
  Ni  Ni46  1  0.18524700  0.57218800  0.07835600  1
  Ni  Ni47  1  0.98066600  0.71346000  0.63556500  1
  Ni  Ni48  1  0.52384100  0.57848000  0.07276000  1
  Ni  Ni49  1  0.01347100  0.87786200  0.27653000  1
  Ni  Ni50  1  0.13397900  0.07732300  0.60091600  1
  Ni  Ni51  1  0.22038600  0.24018600  0.04531100  1
  Cu  Cu52  1  0.82491400  0.09829000  0.06030000  1
  Cu  Cu53  1  0.32491400  0.90171000  0.43970000  1
  Cu  Cu54  1  0.17605300  0.69063400  0.86163700  1
  Cu  Cu55  1  0.82394700  0.30936600  0.13836300  1
  Cu  Cu56  1  0.32394700  0.69063400  0.36163700  1
  Cu  Cu57  1  0.17508600  0.90171000  0.93970000  1
  Cu  Cu58  1  0.67605300  0.30936600  0.63836300  1
  Cu  Cu59  1  0.67508600  0.09829000  0.56030000  1
  C  C60  1  0.12974500  0.01690900  0.57635600  1
  C  C61  1  0.61098300  0.08824100  0.27619900  1
  C  C62  1  0.35753800  0.28098800  0.48634700  1
  C  C63  1  0.14053600  0.49345600  0.78249100  1
  C  C64  1  0.12140600  0.24033000  0.34930000  1
  C  C65  1  0.35617700  0.35313700  0.17795900  1
  C  C66  1  0.55697000  0.90170700  0.24595300  1
  C  C67  1  0.14246200  0.28098800  0.98634700  1
  C  C68  1  0.94303000  0.90170700  0.74595300  1
  C  C69  1  0.85753800  0.71901200  0.01365300  1
  C  C70  1  0.91843300  0.47174000  0.93820600  1
  C  C71  1  0.92556000  0.24826600  0.84731700  1
  C  C72  1  0.87025500  0.98309100  0.42364400  1
  C  C73  1  0.62974500  0.98309100  0.92364400  1
  C  C74  1  0.41843300  0.52826000  0.56179400  1
  C  C75  1  0.64053600  0.50654400  0.71750900  1
  C  C76  1  0.14382300  0.35313700  0.67795900  1
  C  C77  1  0.62140600  0.75967000  0.15070000  1
  C  C78  1  0.57444000  0.24826600  0.34731700  1
  C  C79  1  0.85946400  0.50654400  0.21750900  1
  C  C80  1  0.87193300  0.54142500  0.54779000  1
  C  C81  1  0.62806700  0.54142500  0.04779000  1
  C  C82  1  0.88901700  0.08824100  0.77619900  1
  C  C83  1  0.64246200  0.71901200  0.51365300  1
  C  C84  1  0.85617700  0.64686300  0.32204100  1
  C  C85  1  0.35946400  0.49345600  0.28249100  1
  C  C86  1  0.37859400  0.24033000  0.84930000  1
  C  C87  1  0.87859400  0.75967000  0.65070000  1
  C  C88  1  0.42556000  0.75173400  0.65268300  1
  C  C89  1  0.44303000  0.09829300  0.75404700  1
  C  C90  1  0.58156700  0.47174000  0.43820600  1
  C  C91  1  0.05697000  0.09829300  0.25404700  1
  C  C92  1  0.07444000  0.75173400  0.15268300  1
  C  C93  1  0.11098300  0.91175900  0.22380100  1
  C  C94  1  0.38901700  0.91175900  0.72380100  1
  C  C95  1  0.37025500  0.01690900  0.07635600  1
  C  C96  1  0.12806700  0.45857500  0.45221000  1
  C  C97  1  0.37193300  0.45857500  0.95221000  1
  C  C98  1  0.64382300  0.64686300  0.82204100  1
  C  C99  1  0.08156700  0.52826000  0.06179400  1
