# generated using pymatgen
data_Cu4NiC3
_symmetry_space_group_name_H-M   'P 1'
_cell_length_a   5.54951200
_cell_length_b   6.19032700
_cell_length_c   9.82814000
_cell_angle_alpha   90.00000000
_cell_angle_beta   90.00000000
_cell_angle_gamma   90.00000000
_symmetry_Int_Tables_number   1
_chemical_formula_structural   Cu4NiC3
_chemical_formula_sum   'Cu16 Ni4 C12'
_cell_volume   337.62898260
_cell_formula_units_Z   4
loop_
 _symmetry_equiv_pos_site_id
 _symmetry_equiv_pos_as_xyz
  1  'x, y, z'
loop_
 _atom_site_type_symbol
 _atom_site_label
 _atom_site_symmetry_multiplicity
 _atom_site_fract_x
 _atom_site_fract_y
 _atom_site_fract_z
 _atom_site_occupancy
  C  C0  1  0.79776400  0.66431400  0.39180200  1
  C  C1  1  0.29776400  0.33568600  0.60819800  1
  C  C2  1  0.29776400  0.83568600  0.89180200  1
  C  C3  1  0.79776400  0.16431400  0.10819800  1
  C  C4  1  0.87111300  0.88686500  0.20391500  1
  C  C5  1  0.11433400  0.01127000  0.20458800  1
  C  C6  1  0.37111300  0.11313500  0.79608500  1
  C  C7  1  0.61433400  0.98873000  0.79541200  1
  C  C8  1  0.37111300  0.61313500  0.70391500  1
  C  C9  1  0.61433400  0.48873000  0.70458800  1
  C  C10  1  0.87111300  0.38686500  0.29608500  1
  C  C11  1  0.11433400  0.51127000  0.29541200  1
  Ni  Ni12  1  0.47281200  0.78464600  0.40743000  1
  Ni  Ni13  1  0.97281200  0.21535400  0.59257000  1
  Ni  Ni14  1  0.97281200  0.71535400  0.90743000  1
  Ni  Ni15  1  0.47281200  0.28464600  0.09257000  1
  Cu  Cu16  1  0.68193100  0.71752900  0.46862800  1
  Cu  Cu17  1  0.18193100  0.28247100  0.53137200  1
  Cu  Cu18  1  0.18193100  0.78247100  0.96862800  1
  Cu  Cu19  1  0.68193100  0.21752900  0.03137200  1
  Cu  Cu20  1  0.29705600  0.79551100  0.48246000  1
  Cu  Cu21  1  0.79705600  0.20448900  0.51754000  1
  Cu  Cu22  1  0.79705600  0.70448900  0.98246000  1
  Cu  Cu23  1  0.29705600  0.29551100  0.01754000  1
  Cu  Cu24  1  0.47907600  0.82642800  0.28423000  1
  Cu  Cu25  1  0.97907600  0.17357200  0.71577000  1
  Cu  Cu26  1  0.97907600  0.67357200  0.78423000  1
  Cu  Cu27  1  0.47907600  0.32642800  0.21577000  1
  Cu  Cu28  1  0.94025900  0.03182400  0.21260100  1
  Cu  Cu29  1  0.44025900  0.96817600  0.78739900  1
  Cu  Cu30  1  0.44025900  0.46817600  0.71260100  1
  Cu  Cu31  1  0.94025900  0.53182400  0.28739900  1
