# generated using pymatgen
data_Cu5(NiC)3
_symmetry_space_group_name_H-M   'P 1'
_cell_length_a   7.93950100
_cell_length_b   17.14337700
_cell_length_c   29.86245200
_cell_angle_alpha   90.00000000
_cell_angle_beta   90.00000000
_cell_angle_gamma   90.00000000
_symmetry_Int_Tables_number   1
_chemical_formula_structural   Cu5(NiC)3
_chemical_formula_sum   'Cu80 Ni48 C48'
_cell_volume   4064.57412618
_cell_formula_units_Z   16
loop_
 _symmetry_equiv_pos_site_id
 _symmetry_equiv_pos_as_xyz
  1  'x, y, z'
loop_
 _atom_site_type_symbol
 _atom_site_label
 _atom_site_symmetry_multiplicity
 _atom_site_fract_x
 _atom_site_fract_y
 _atom_site_fract_z
 _atom_site_occupancy
  C  C0  1  0.73436500  0.61329400  0.77350700  1
  C  C1  1  0.25868300  0.33519200  0.53973200  1
  C  C2  1  0.23363700  0.52794400  0.68544600  1
  C  C3  1  0.23436500  0.38670600  0.72649300  1
  C  C4  1  0.76563500  0.61329400  0.27350700  1
  C  C5  1  0.75868300  0.66480800  0.96026800  1
  C  C6  1  0.71987200  0.66646500  0.55084000  1
  C  C7  1  0.24131700  0.33519200  0.03973200  1
  C  C8  1  0.73363700  0.97205600  0.68544600  1
  C  C9  1  0.76636300  0.97205600  0.18544600  1
  C  C10  1  0.78012800  0.66646500  0.05084000  1
  C  C11  1  0.25868300  0.83519200  0.96026800  1
  C  C12  1  0.21987200  0.33353500  0.94916000  1
  C  C13  1  0.26636300  0.02794400  0.31455400  1
  C  C14  1  0.26636300  0.52794400  0.18544600  1
  C  C15  1  0.75868300  0.16480800  0.53973200  1
  C  C16  1  0.26563500  0.38670600  0.22649300  1
  C  C17  1  0.73363700  0.47205600  0.81455400  1
  C  C18  1  0.28012800  0.33353500  0.44916000  1
  C  C19  1  0.71987200  0.16646500  0.94916000  1
  C  C20  1  0.24131700  0.83519200  0.46026800  1
  C  C21  1  0.76563500  0.11329400  0.22649300  1
  C  C22  1  0.78012800  0.16646500  0.44916000  1
  C  C23  1  0.73436500  0.11329400  0.72649300  1
  C  C24  1  0.28012800  0.83353500  0.05084000  1
  C  C25  1  0.74131700  0.66480800  0.46026800  1
  C  C26  1  0.26563500  0.88670600  0.27350700  1
  C  C27  1  0.23363700  0.02794400  0.81455400  1
  C  C28  1  0.74131700  0.16480800  0.03973200  1
  C  C29  1  0.23436500  0.88670600  0.77350700  1
  C  C30  1  0.76636300  0.47205600  0.31455400  1
  C  C31  1  0.21987200  0.83353500  0.55084000  1
  C  C32  1  0.48392100  0.06505400  0.68123800  1
  C  C33  1  0.98473300  0.88626000  0.50169600  1
  C  C34  1  0.98392100  0.93494600  0.81876200  1
  C  C35  1  0.48473300  0.11374000  0.99830400  1
  C  C36  1  0.51526700  0.38626000  0.49830400  1
  C  C37  1  0.98473300  0.38626000  0.99830400  1
  C  C38  1  0.98392100  0.43494600  0.68123800  1
  C  C39  1  0.01607900  0.06505400  0.18123800  1
  C  C40  1  0.01526700  0.61374000  0.00169600  1
  C  C41  1  0.48392100  0.56505400  0.81876200  1
  C  C42  1  0.51607900  0.93494600  0.31876200  1
  C  C43  1  0.51607900  0.43494600  0.18123800  1
  C  C44  1  0.01526700  0.11374000  0.49830400  1
  C  C45  1  0.48473300  0.61374000  0.50169600  1
  C  C46  1  0.51526700  0.88626000  0.00169600  1
  C  C47  1  0.01607900  0.56505400  0.31876200  1
  Ni  Ni48  1  0.03668700  0.87290200  0.54307400  1
  Ni  Ni49  1  0.55613200  0.62536000  0.46186400  1
  Ni  Ni50  1  0.44386800  0.87464000  0.96186400  1
  Ni  Ni51  1  0.82879900  0.53205300  0.78201400  1
  Ni  Ni52  1  0.53668700  0.12709800  0.95692600  1
  Ni  Ni53  1  0.46331300  0.37290200  0.45692600  1
  Ni  Ni54  1  0.03668700  0.37290200  0.95692600  1
  Ni  Ni55  1  0.05613200  0.87464000  0.46186400  1
  Ni  Ni56  1  0.55613200  0.12536000  0.03813600  1
  Ni  Ni57  1  0.95435000  0.49622500  0.33070600  1
  Ni  Ni58  1  0.45435000  0.00377500  0.33070600  1
  Ni  Ni59  1  0.96331300  0.12709800  0.45692600  1
  Ni  Ni60  1  0.04565000  0.00377500  0.83070600  1
  Ni  Ni61  1  0.95174500  0.62353600  0.29514600  1
  Ni  Ni62  1  0.32879900  0.96794700  0.78201400  1
  Ni  Ni63  1  0.82879900  0.03205300  0.71798600  1
  Ni  Ni64  1  0.45174500  0.87646400  0.29514600  1
  Ni  Ni65  1  0.32200000  0.30789000  0.99316400  1
  Ni  Ni66  1  0.32879900  0.46794700  0.71798600  1
  Ni  Ni67  1  0.67800000  0.69211000  0.00683600  1
  Ni  Ni68  1  0.82200000  0.69211000  0.50683600  1
  Ni  Ni69  1  0.94386800  0.12536000  0.53813600  1
  Ni  Ni70  1  0.96331300  0.62709800  0.04307400  1
  Ni  Ni71  1  0.95435000  0.99622500  0.16929400  1
  Ni  Ni72  1  0.67800000  0.19211000  0.49316400  1
  Ni  Ni73  1  0.54825500  0.12353600  0.70485400  1
  Ni  Ni74  1  0.05613200  0.37464000  0.03813600  1
  Ni  Ni75  1  0.82200000  0.19211000  0.99316400  1
  Ni  Ni76  1  0.94386800  0.62536000  0.96186400  1
  Ni  Ni77  1  0.04825500  0.37646400  0.70485400  1
  Ni  Ni78  1  0.17120100  0.96794700  0.28201400  1
  Ni  Ni79  1  0.45174500  0.37646400  0.20485400  1
  Ni  Ni80  1  0.54825500  0.62353600  0.79514600  1
  Ni  Ni81  1  0.04565000  0.50377500  0.66929400  1
  Ni  Ni82  1  0.46331300  0.87290200  0.04307400  1
  Ni  Ni83  1  0.53668700  0.62709800  0.54307400  1
  Ni  Ni84  1  0.67120100  0.03205300  0.21798600  1
  Ni  Ni85  1  0.04825500  0.87646400  0.79514600  1
  Ni  Ni86  1  0.17800000  0.30789000  0.49316400  1
  Ni  Ni87  1  0.44386800  0.37464000  0.53813600  1
  Ni  Ni88  1  0.95174500  0.12353600  0.20485400  1
  Ni  Ni89  1  0.67120100  0.53205300  0.28201400  1
  Ni  Ni90  1  0.32200000  0.80789000  0.50683600  1
  Ni  Ni91  1  0.17800000  0.80789000  0.00683600  1
  Ni  Ni92  1  0.54565000  0.99622500  0.66929400  1
  Ni  Ni93  1  0.17120100  0.46794700  0.21798600  1
  Ni  Ni94  1  0.54565000  0.49622500  0.83070600  1
  Ni  Ni95  1  0.45435000  0.50377500  0.16929400  1
  Cu  Cu96  1  0.28259200  0.57304500  0.49866700  1
  Cu  Cu97  1  0.71916700  0.36659900  0.78557100  1
  Cu  Cu98  1  0.85732700  0.09348300  0.91111300  1
  Cu  Cu99  1  0.72122400  0.91770800  0.33836000  1
  Cu  Cu100  1  0.37551100  0.79635800  0.79420200  1
  Cu  Cu101  1  0.21916700  0.63340100  0.71442900  1
  Cu  Cu102  1  0.21729900  0.86661600  0.70739000  1
  Cu  Cu103  1  0.64267300  0.09348300  0.41111300  1
  Cu  Cu104  1  0.37279500  0.05026200  0.86917900  1
  Cu  Cu105  1  0.87551100  0.70364200  0.79420200  1
  Cu  Cu106  1  0.28270100  0.36661600  0.29261000  1
  Cu  Cu107  1  0.60103600  0.58999500  0.92951700  1
  Cu  Cu108  1  0.72122400  0.41770800  0.16164000  1
  Cu  Cu109  1  0.69310400  0.25857600  0.90834200  1
  Cu  Cu110  1  0.10103600  0.41000500  0.57048300  1
  Cu  Cu111  1  0.78270100  0.13338400  0.29261000  1
  Cu  Cu112  1  0.39896400  0.41000500  0.07048300  1
  Cu  Cu113  1  0.22122400  0.58229200  0.33836000  1
  Cu  Cu114  1  0.28083300  0.63340100  0.21442900  1
  Cu  Cu115  1  0.77877600  0.91770800  0.83836000  1
  Cu  Cu116  1  0.76540000  0.75443600  0.91732500  1
  Cu  Cu117  1  0.71916700  0.86659900  0.71442900  1
  Cu  Cu118  1  0.89896400  0.08999500  0.07048300  1
  Cu  Cu119  1  0.87279500  0.94973800  0.63082100  1
  Cu  Cu120  1  0.71729900  0.63338400  0.70739000  1
  Cu  Cu121  1  0.21916700  0.13340100  0.78557100  1
  Cu  Cu122  1  0.35732700  0.90651700  0.58888700  1
  Cu  Cu123  1  0.78259200  0.92695500  0.49866700  1
  Cu  Cu124  1  0.77877600  0.41770800  0.66164000  1
  Cu  Cu125  1  0.78083300  0.86659900  0.21442900  1
  Cu  Cu126  1  0.60103600  0.08999500  0.57048300  1
  Cu  Cu127  1  0.30689600  0.24142400  0.40834200  1
  Cu  Cu128  1  0.64267300  0.59348300  0.08888700  1
  Cu  Cu129  1  0.37551100  0.29635800  0.70579800  1
  Cu  Cu130  1  0.78259200  0.42695500  0.00133300  1
  Cu  Cu131  1  0.12448900  0.29635800  0.20579800  1
  Cu  Cu132  1  0.37279500  0.55026200  0.63082100  1
  Cu  Cu133  1  0.23460000  0.74556400  0.41732500  1
  Cu  Cu134  1  0.39896400  0.91000500  0.42951700  1
  Cu  Cu135  1  0.73460000  0.75443600  0.41732500  1
  Cu  Cu136  1  0.87551100  0.20364200  0.70579800  1
  Cu  Cu137  1  0.62720500  0.44973800  0.36917900  1
  Cu  Cu138  1  0.23460000  0.24556400  0.08267500  1
  Cu  Cu139  1  0.14267300  0.90651700  0.08888700  1
  Cu  Cu140  1  0.62448900  0.20364200  0.20579800  1
  Cu  Cu141  1  0.21729900  0.36661600  0.79261000  1
  Cu  Cu142  1  0.35732700  0.40651700  0.91111300  1
  Cu  Cu143  1  0.28259200  0.07304500  0.00133300  1
  Cu  Cu144  1  0.73460000  0.25443600  0.08267500  1
  Cu  Cu145  1  0.28270100  0.86661600  0.20739000  1
  Cu  Cu146  1  0.14267300  0.40651700  0.41111300  1
  Cu  Cu147  1  0.80689600  0.75857600  0.09165800  1
  Cu  Cu148  1  0.71729900  0.13338400  0.79261000  1
  Cu  Cu149  1  0.21740800  0.07304500  0.50133300  1
  Cu  Cu150  1  0.19310400  0.74142400  0.59165800  1
  Cu  Cu151  1  0.87279500  0.44973800  0.86917900  1
  Cu  Cu152  1  0.21740800  0.57304500  0.99866700  1
  Cu  Cu153  1  0.12448900  0.79635800  0.29420200  1
  Cu  Cu154  1  0.80689600  0.25857600  0.40834200  1
  Cu  Cu155  1  0.27877600  0.08229200  0.66164000  1
  Cu  Cu156  1  0.22122400  0.08229200  0.16164000  1
  Cu  Cu157  1  0.27877600  0.58229200  0.83836000  1
  Cu  Cu158  1  0.85732700  0.59348300  0.58888700  1
  Cu  Cu159  1  0.76540000  0.25443600  0.58267500  1
  Cu  Cu160  1  0.78083300  0.36659900  0.28557100  1
  Cu  Cu161  1  0.89896400  0.58999500  0.42951700  1
  Cu  Cu162  1  0.69310400  0.75857600  0.59165800  1
  Cu  Cu163  1  0.26540000  0.74556400  0.91732500  1
  Cu  Cu164  1  0.26540000  0.24556400  0.58267500  1
  Cu  Cu165  1  0.30689600  0.74142400  0.09165800  1
  Cu  Cu166  1  0.19310400  0.24142400  0.90834200  1
  Cu  Cu167  1  0.62720500  0.94973800  0.13082100  1
  Cu  Cu168  1  0.12720500  0.05026200  0.36917900  1
  Cu  Cu169  1  0.28083300  0.13340100  0.28557100  1
  Cu  Cu170  1  0.62448900  0.70364200  0.29420200  1
  Cu  Cu171  1  0.78270100  0.63338400  0.20739000  1
  Cu  Cu172  1  0.12720500  0.55026200  0.13082100  1
  Cu  Cu173  1  0.10103600  0.91000500  0.92951700  1
  Cu  Cu174  1  0.71740800  0.42695500  0.50133300  1
  Cu  Cu175  1  0.71740800  0.92695500  0.99866700  1
