# generated using pymatgen
data_Cu3Ni2C3
_symmetry_space_group_name_H-M   'P 1'
_cell_length_a   7.51924300
_cell_length_b   10.25924100
_cell_length_c   15.79716200
_cell_angle_alpha   90.00000000
_cell_angle_beta   90.00000000
_cell_angle_gamma   90.00000000
_symmetry_Int_Tables_number   1
_chemical_formula_structural   Cu3Ni2C3
_chemical_formula_sum   'Cu24 Ni16 C24'
_cell_volume   1218.62034376
_cell_formula_units_Z   8
loop_
 _symmetry_equiv_pos_site_id
 _symmetry_equiv_pos_as_xyz
  1  'x, y, z'
loop_
 _atom_site_type_symbol
 _atom_site_label
 _atom_site_symmetry_multiplicity
 _atom_site_fract_x
 _atom_site_fract_y
 _atom_site_fract_z
 _atom_site_occupancy
  C  C0  1  0.84259000  0.49173800  0.61756400  1
  C  C1  1  0.84259000  0.00826200  0.88243600  1
  C  C2  1  0.65741000  0.50826200  0.11756400  1
  C  C3  1  0.34259000  0.49173800  0.88243600  1
  C  C4  1  0.15741000  0.50826200  0.38243600  1
  C  C5  1  0.15741000  0.99173800  0.11756400  1
  C  C6  1  0.34259000  0.00826200  0.61756400  1
  C  C7  1  0.65741000  0.99173800  0.38243600  1
  C  C8  1  0.88577700  0.23654000  0.45310200  1
  C  C9  1  0.88577700  0.26346000  0.04689800  1
  C  C10  1  0.38577700  0.23654000  0.04689800  1
  C  C11  1  0.61422300  0.73654000  0.54689800  1
  C  C12  1  0.11422300  0.73654000  0.95310200  1
  C  C13  1  0.38577700  0.26346000  0.45310200  1
  C  C14  1  0.61422300  0.76346000  0.95310200  1
  C  C15  1  0.11422300  0.76346000  0.54689800  1
  C  C16  1  0.69957600  0.01323500  0.09453400  1
  C  C17  1  0.69957600  0.48676500  0.40546600  1
  C  C18  1  0.80042400  0.98676500  0.59453400  1
  C  C19  1  0.19957600  0.48676500  0.09453400  1
  C  C20  1  0.30042400  0.98676500  0.90546600  1
  C  C21  1  0.80042400  0.51323500  0.90546600  1
  C  C22  1  0.19957600  0.01323500  0.40546600  1
  C  C23  1  0.30042400  0.51323500  0.59453400  1
  Ni  Ni24  1  0.54035300  0.70868000  0.12404600  1
  Ni  Ni25  1  0.33366700  0.42287200  0.28263700  1
  Ni  Ni26  1  0.45964700  0.29132000  0.87595400  1
  Ni  Ni27  1  0.16633300  0.57712800  0.78263700  1
  Ni  Ni28  1  0.66633300  0.57712800  0.71736300  1
  Ni  Ni29  1  0.16633300  0.92287200  0.71736300  1
  Ni  Ni30  1  0.54035300  0.79132000  0.37595400  1
  Ni  Ni31  1  0.66633300  0.92287200  0.78263700  1
  Ni  Ni32  1  0.45964700  0.20868000  0.62404600  1
  Ni  Ni33  1  0.95964700  0.29132000  0.62404600  1
  Ni  Ni34  1  0.04035300  0.70868000  0.37595400  1
  Ni  Ni35  1  0.04035300  0.79132000  0.12404600  1
  Ni  Ni36  1  0.33366700  0.07712800  0.21736300  1
  Ni  Ni37  1  0.95964700  0.20868000  0.87595400  1
  Ni  Ni38  1  0.83366700  0.42287200  0.21736300  1
  Ni  Ni39  1  0.83366700  0.07712800  0.28263700  1
  Cu  Cu40  1  0.68794600  0.94224000  0.98042100  1
  Cu  Cu41  1  0.31205400  0.44224000  0.48042100  1
  Cu  Cu42  1  0.18794600  0.94224000  0.51957900  1
  Cu  Cu43  1  0.06584500  0.58480400  0.58159400  1
  Cu  Cu44  1  0.36279500  0.81091000  0.94034600  1
  Cu  Cu45  1  0.13720500  0.31091000  0.05965400  1
  Cu  Cu46  1  0.68794600  0.55776000  0.51957900  1
  Cu  Cu47  1  0.43415500  0.08480400  0.41840600  1
  Cu  Cu48  1  0.63720500  0.18909000  0.05965400  1
  Cu  Cu49  1  0.81205400  0.05776000  0.48042100  1
  Cu  Cu50  1  0.31205400  0.05776000  0.01957900  1
  Cu  Cu51  1  0.56584500  0.58480400  0.91840600  1
  Cu  Cu52  1  0.63720500  0.31091000  0.44034600  1
  Cu  Cu53  1  0.86279500  0.68909000  0.94034600  1
  Cu  Cu54  1  0.18794600  0.55776000  0.98042100  1
  Cu  Cu55  1  0.43415500  0.41519600  0.08159400  1
  Cu  Cu56  1  0.13720500  0.18909000  0.44034600  1
  Cu  Cu57  1  0.36279500  0.68909000  0.55965400  1
  Cu  Cu58  1  0.93415500  0.08480400  0.08159400  1
  Cu  Cu59  1  0.86279500  0.81091000  0.55965400  1
  Cu  Cu60  1  0.56584500  0.91519600  0.58159400  1
  Cu  Cu61  1  0.06584500  0.91519600  0.91840600  1
  Cu  Cu62  1  0.93415500  0.41519600  0.41840600  1
  Cu  Cu63  1  0.81205400  0.44224000  0.01957900  1
