# generated using pymatgen
data_CuNiC3
_symmetry_space_group_name_H-M   'P 1'
_cell_length_a   8.27018221
_cell_length_b   8.27018249
_cell_length_c   8.27018269
_cell_angle_alpha   109.70983636
_cell_angle_beta   109.27085988
_cell_angle_gamma   109.43326911
_symmetry_Int_Tables_number   1
_chemical_formula_structural   CuNiC3
_chemical_formula_sum   'Cu8 Ni8 C24'
_cell_volume   435.42851582
_cell_formula_units_Z   8
loop_
 _symmetry_equiv_pos_site_id
 _symmetry_equiv_pos_as_xyz
  1  'x, y, z'
loop_
 _atom_site_type_symbol
 _atom_site_label
 _atom_site_symmetry_multiplicity
 _atom_site_fract_x
 _atom_site_fract_y
 _atom_site_fract_z
 _atom_site_occupancy
  Ni  Ni0  1  0.21814000  0.96814000  0.25000000  1
  Ni  Ni1  1  0.25000000  0.21632100  0.96632100  1
  Ni  Ni2  1  0.28186000  0.53186000  0.75000000  1
  Ni  Ni3  1  0.25000000  0.71632100  0.46632100  1
  Ni  Ni4  1  0.75000000  0.28367900  0.53367900  1
  Ni  Ni5  1  0.75000000  0.78367900  0.03367900  1
  Ni  Ni6  1  0.71814000  0.46814000  0.25000000  1
  Ni  Ni7  1  0.78186000  0.03186000  0.75000000  1
  Cu  Cu8  1  0.00000000  0.00000000  0.50000000  1
  Cu  Cu9  1  0.03999900  0.75000000  0.78999900  1
  Cu  Cu10  1  0.00000000  0.50000000  0.00000000  1
  Cu  Cu11  1  0.46000100  0.25000000  0.71000100  1
  Cu  Cu12  1  0.50000000  0.50000000  0.50000000  1
  Cu  Cu13  1  0.53999900  0.75000000  0.28999900  1
  Cu  Cu14  1  0.50000000  0.00000000  0.00000000  1
  Cu  Cu15  1  0.96000100  0.25000000  0.21000100  1
  C  C16  1  0.05919400  0.50916100  0.78594600  1
  C  C17  1  0.22464900  0.95027500  0.49267500  1
  C  C18  1  0.27535100  0.76802700  0.72562600  1
  C  C19  1  0.22321500  0.27324800  0.71405400  1
  C  C20  1  0.98313600  0.04414300  0.26928500  1
  C  C21  1  0.22514100  0.45585700  0.43899300  1
  C  C22  1  0.04240000  0.26802700  0.99267500  1
  C  C23  1  0.27485900  0.71385200  0.23071500  1
  C  C24  1  0.72321500  0.00916100  0.94996700  1
  C  C25  1  0.55919400  0.77324800  0.55003300  1
  C  C26  1  0.48313600  0.21385200  0.93899300  1
  C  C27  1  0.54240000  0.54972500  0.77437400  1
  C  C28  1  0.45760000  0.45027500  0.22562600  1
  C  C29  1  0.51686400  0.78614800  0.06100700  1
  C  C30  1  0.44080600  0.22675200  0.44996700  1
  C  C31  1  0.27678500  0.99083900  0.05003300  1
  C  C32  1  0.95760000  0.73197300  0.00732500  1
  C  C33  1  0.72514100  0.28614800  0.76928500  1
  C  C34  1  0.77485900  0.54414300  0.56100700  1
  C  C35  1  0.01686400  0.95585700  0.73071500  1
  C  C36  1  0.77678500  0.72675200  0.28594600  1
  C  C37  1  0.72464900  0.23197300  0.27437400  1
  C  C38  1  0.77535100  0.04972500  0.50732500  1
  C  C39  1  0.94080600  0.49083900  0.21405400  1
