# generated using pymatgen
data_Cu7(NiC2)4
_symmetry_space_group_name_H-M   'P 1'
_cell_length_a   15.10341300
_cell_length_b   5.99804300
_cell_length_c   6.02969490
_cell_angle_alpha   65.40159031
_cell_angle_beta   90.00000000
_cell_angle_gamma   90.00000000
_symmetry_Int_Tables_number   1
_chemical_formula_structural   Cu7(NiC2)4
_chemical_formula_sum   'Cu7 Ni4 C8'
_cell_volume   496.66345403
_cell_formula_units_Z   1
loop_
 _symmetry_equiv_pos_site_id
 _symmetry_equiv_pos_as_xyz
  1  'x, y, z'
loop_
 _atom_site_type_symbol
 _atom_site_label
 _atom_site_symmetry_multiplicity
 _atom_site_fract_x
 _atom_site_fract_y
 _atom_site_fract_z
 _atom_site_occupancy
  C  C0  1  0.00000000  0.35767100  0.33603900  1
  C  C1  1  0.50000000  0.40808000  0.40452800  1
  C  C2  1  0.13212500  0.00612700  0.98929800  1
  C  C3  1  0.86787500  0.00612700  0.98929800  1
  C  C4  1  0.62732000  0.00406100  0.08621200  1
  C  C5  1  0.37268000  0.00406100  0.08621200  1
  C  C6  1  0.23778200  0.68598000  0.65285100  1
  C  C7  1  0.76221800  0.68598000  0.65285100  1
  Ni  Ni8  1  0.74296500  0.38378200  0.27516100  1
  Ni  Ni9  1  0.25703500  0.38378200  0.27516100  1
  Ni  Ni10  1  0.50000000  0.81541300  0.58502600  1
  Ni  Ni11  1  0.00000000  0.79450500  0.65119800  1
  Cu  Cu12  1  0.80022000  0.22225100  0.28747500  1
  Cu  Cu13  1  0.19978000  0.22225100  0.28747500  1
  Cu  Cu14  1  0.50000000  0.79644000  0.78447600  1
  Cu  Cu15  1  0.35981900  0.37267300  0.68515300  1
  Cu  Cu16  1  0.64018100  0.37267300  0.68515300  1
  Cu  Cu17  1  0.24095500  0.61357100  0.18921700  1
  Cu  Cu18  1  0.75904500  0.61357100  0.18921700  1
