# generated using pymatgen
data_CuNi2C
_symmetry_space_group_name_H-M   'P 1'
_cell_length_a   3.99010000
_cell_length_b   15.28361200
_cell_length_c   17.98446900
_cell_angle_alpha   90.00000000
_cell_angle_beta   90.00000000
_cell_angle_gamma   90.00000000
_symmetry_Int_Tables_number   1
_chemical_formula_structural   CuNi2C
_chemical_formula_sum   'Cu12 Ni24 C12'
_cell_volume   1096.74939519
_cell_formula_units_Z   12
loop_
 _symmetry_equiv_pos_site_id
 _symmetry_equiv_pos_as_xyz
  1  'x, y, z'
loop_
 _atom_site_type_symbol
 _atom_site_label
 _atom_site_symmetry_multiplicity
 _atom_site_fract_x
 _atom_site_fract_y
 _atom_site_fract_z
 _atom_site_occupancy
  C  C0  1  0.00000000  0.84105600  0.83580000  1
  C  C1  1  0.50000000  0.66371300  0.75143200  1
  C  C2  1  0.50000000  0.21822700  0.52668600  1
  C  C3  1  0.00000000  0.65894400  0.33580000  1
  C  C4  1  0.50000000  0.16371300  0.74856800  1
  C  C5  1  0.50000000  0.78177300  0.47331400  1
  C  C6  1  0.50000000  0.71822700  0.97331400  1
  C  C7  1  0.50000000  0.28177300  0.02668600  1
  C  C8  1  0.00000000  0.34105600  0.66420000  1
  C  C9  1  0.50000000  0.83628700  0.25143200  1
  C  C10  1  0.50000000  0.33628700  0.24856800  1
  C  C11  1  0.00000000  0.15894400  0.16420000  1
  Ni  Ni12  1  0.50000000  0.57112700  0.88274700  1
  Ni  Ni13  1  0.50000000  0.36081800  0.78089200  1
  Ni  Ni14  1  0.50000000  0.67471300  0.59653800  1
  Ni  Ni15  1  0.00000000  0.62194000  0.04521100  1
  Ni  Ni16  1  0.50000000  0.56612100  0.41509300  1
  Ni  Ni17  1  0.50000000  0.17471300  0.90346200  1
  Ni  Ni18  1  0.50000000  0.43387900  0.58490700  1
  Ni  Ni19  1  0.00000000  0.87806000  0.54521100  1
  Ni  Ni20  1  0.50000000  0.63918200  0.21910800  1
  Ni  Ni21  1  0.00000000  0.96960500  0.21712700  1
  Ni  Ni22  1  0.50000000  0.07112700  0.61725300  1
  Ni  Ni23  1  0.00000000  0.53039500  0.71712700  1
  Ni  Ni24  1  0.00000000  0.37806000  0.95478900  1
  Ni  Ni25  1  0.00000000  0.46960500  0.28287300  1
  Ni  Ni26  1  0.50000000  0.06612100  0.08490700  1
  Ni  Ni27  1  0.50000000  0.93387900  0.91509300  1
  Ni  Ni28  1  0.50000000  0.13918200  0.28089200  1
  Ni  Ni29  1  0.00000000  0.03039500  0.78287300  1
  Ni  Ni30  1  0.50000000  0.86081800  0.71910800  1
  Ni  Ni31  1  0.50000000  0.82528700  0.09653800  1
  Ni  Ni32  1  0.50000000  0.32528700  0.40346200  1
  Ni  Ni33  1  0.50000000  0.42887300  0.11725300  1
  Ni  Ni34  1  0.50000000  0.92887300  0.38274700  1
  Ni  Ni35  1  0.00000000  0.12194000  0.45478900  1
  Cu  Cu36  1  0.00000000  0.27231800  0.55489500  1
  Cu  Cu37  1  0.00000000  0.72768200  0.44510500  1
  Cu  Cu38  1  0.00000000  0.77231800  0.94510500  1
  Cu  Cu39  1  0.00000000  0.71410100  0.76589300  1
  Cu  Cu40  1  0.50000000  0.26010800  0.64848700  1
  Cu  Cu41  1  0.00000000  0.22768200  0.05489500  1
  Cu  Cu42  1  0.00000000  0.78589900  0.26589300  1
  Cu  Cu43  1  0.50000000  0.76010800  0.85151300  1
  Cu  Cu44  1  0.50000000  0.23989200  0.14848700  1
  Cu  Cu45  1  0.50000000  0.73989200  0.35151300  1
  Cu  Cu46  1  0.00000000  0.28589900  0.23410700  1
  Cu  Cu47  1  0.00000000  0.21410100  0.73410700  1
