# generated using pymatgen
data_Cu10NiC3
_symmetry_space_group_name_H-M   'P 1'
_cell_length_a   8.08100000
_cell_length_b   7.56875200
_cell_length_c   13.12400233
_cell_angle_alpha   70.19794563
_cell_angle_beta   90.00000000
_cell_angle_gamma   90.00000000
_symmetry_Int_Tables_number   1
_chemical_formula_structural   Cu10NiC3
_chemical_formula_sum   'Cu20 Ni2 C6'
_cell_volume   755.23944830
_cell_formula_units_Z   2
loop_
 _symmetry_equiv_pos_site_id
 _symmetry_equiv_pos_as_xyz
  1  'x, y, z'
loop_
 _atom_site_type_symbol
 _atom_site_label
 _atom_site_symmetry_multiplicity
 _atom_site_fract_x
 _atom_site_fract_y
 _atom_site_fract_z
 _atom_site_occupancy
  C  C0  1  0.99330800  0.40052900  0.45839300  1
  C  C1  1  0.00669200  0.40052900  0.95839300  1
  C  C2  1  0.44331500  0.86867400  0.68449400  1
  C  C3  1  0.55668500  0.86867400  0.18449400  1
  C  C4  1  0.55744000  0.87133000  0.47322900  1
  C  C5  1  0.44256000  0.87133000  0.97322900  1
  Ni  Ni6  1  0.11970800  0.00855000  0.79978300  1
  Ni  Ni7  1  0.88029200  0.00855000  0.29978300  1
  Cu  Cu8  1  0.05974000  0.19862700  0.25717500  1
  Cu  Cu9  1  0.94026000  0.19862700  0.75717500  1
  Cu  Cu10  1  0.87817200  0.85422100  0.46367700  1
  Cu  Cu11  1  0.12182800  0.85422100  0.96367700  1
  Cu  Cu12  1  0.61922500  0.62051500  0.10468600  1
  Cu  Cu13  1  0.38077500  0.62051500  0.60468600  1
  Cu  Cu14  1  0.37885800  0.61896700  0.14904500  1
  Cu  Cu15  1  0.62114200  0.61896700  0.64904500  1
  Cu  Cu16  1  0.62110200  0.12120900  0.00202500  1
  Cu  Cu17  1  0.37889800  0.12120900  0.50202500  1
  Cu  Cu18  1  0.38502700  0.12514300  0.05724700  1
  Cu  Cu19  1  0.61497300  0.12514300  0.55724700  1
  Cu  Cu20  1  0.65379600  0.80865500  0.84113100  1
  Cu  Cu21  1  0.34620400  0.80865500  0.34113100  1
  Cu  Cu22  1  0.45693800  0.62616700  0.87636400  1
  Cu  Cu23  1  0.54306200  0.62616700  0.37636400  1
  Cu  Cu24  1  0.12584100  0.83581600  0.70743600  1
  Cu  Cu25  1  0.87415900  0.83581600  0.20743600  1
  Cu  Cu26  1  0.36253400  0.11573700  0.78011600  1
  Cu  Cu27  1  0.63746600  0.11573700  0.28011600  1
