# generated using pymatgen
data_Cu3Ni3C20
_symmetry_space_group_name_H-M   'P 1'
_cell_length_a   10.60468422
_cell_length_b   10.60468422
_cell_length_c   6.44457600
_cell_angle_alpha   90.00000000
_cell_angle_beta   90.00000000
_cell_angle_gamma   120.00000139
_symmetry_Int_Tables_number   1
_chemical_formula_structural   Cu3Ni3C20
_chemical_formula_sum   'Cu6 Ni6 C40'
_cell_volume   627.65422591
_cell_formula_units_Z   2
loop_
 _symmetry_equiv_pos_site_id
 _symmetry_equiv_pos_as_xyz
  1  'x, y, z'
loop_
 _atom_site_type_symbol
 _atom_site_label
 _atom_site_symmetry_multiplicity
 _atom_site_fract_x
 _atom_site_fract_y
 _atom_site_fract_z
 _atom_site_occupancy
  Ni  Ni0  1  0.47301300  0.52698700  0.76418200  1
  Ni  Ni1  1  0.94602700  0.47301300  0.26418200  1
  Ni  Ni2  1  0.52698700  0.05397300  0.26418200  1
  Ni  Ni3  1  0.47301300  0.94602700  0.76418200  1
  Ni  Ni4  1  0.05397300  0.52698700  0.76418200  1
  Ni  Ni5  1  0.52698700  0.47301300  0.26418200  1
  Cu  Cu6  1  0.15561500  0.84438500  0.07951200  1
  Cu  Cu7  1  0.31123000  0.15561500  0.57951200  1
  Cu  Cu8  1  0.84438500  0.68877000  0.57951200  1
  Cu  Cu9  1  0.15561500  0.31123000  0.07951200  1
  Cu  Cu10  1  0.68877000  0.84438500  0.07951200  1
  Cu  Cu11  1  0.84438500  0.15561500  0.57951200  1
  C  C12  1  0.00000000  0.00000000  0.74616400  1
  C  C13  1  0.33333300  0.66666700  0.09817600  1
  C  C14  1  0.66666700  0.33333300  0.59817600  1
  C  C15  1  0.00000000  0.00000000  0.24616400  1
  C  C16  1  0.80206200  0.19793800  0.04781600  1
  C  C17  1  0.60412500  0.80206200  0.54781600  1
  C  C18  1  0.19793800  0.39587500  0.54781600  1
  C  C19  1  0.80206200  0.60412500  0.04781600  1
  C  C20  1  0.39587500  0.19793800  0.04781600  1
  C  C21  1  0.19793800  0.80206200  0.54781600  1
  C  C22  1  0.18085300  0.59042700  0.09750500  1
  C  C23  1  0.59042700  0.40957300  0.59750500  1
  C  C24  1  0.40957300  0.81914700  0.09750500  1
  C  C25  1  0.59042700  0.18085300  0.59750500  1
  C  C26  1  0.81914700  0.40957300  0.59750500  1
  C  C27  1  0.40957300  0.59042700  0.09750500  1
  C  C28  1  0.22593300  0.77406700  0.74503100  1
  C  C29  1  0.45186700  0.22593300  0.24503100  1
  C  C30  1  0.77406700  0.54813300  0.24503100  1
  C  C31  1  0.77406700  0.22593300  0.24503100  1
  C  C32  1  0.22593300  0.45186700  0.74503100  1
  C  C33  1  0.54813300  0.77406700  0.74503100  1
  C  C34  1  0.62819600  0.92842200  0.44634000  1
  C  C35  1  0.69977400  0.62819600  0.94634000  1
  C  C36  1  0.92842200  0.30022600  0.94634000  1
  C  C37  1  0.07157800  0.69977400  0.44634000  1
  C  C38  1  0.30022600  0.37180400  0.44634000  1
  C  C39  1  0.37180400  0.07157800  0.94634000  1
  C  C40  1  0.30022600  0.92842200  0.44634000  1
  C  C41  1  0.62819600  0.69977400  0.44634000  1
  C  C42  1  0.07157800  0.37180400  0.44634000  1
  C  C43  1  0.92842200  0.62819600  0.94634000  1
  C  C44  1  0.69977400  0.07157800  0.94634000  1
  C  C45  1  0.37180400  0.30022600  0.94634000  1
  C  C46  1  0.07529400  0.92470600  0.73952800  1
  C  C47  1  0.15058700  0.07529400  0.23952800  1
  C  C48  1  0.92470600  0.84941300  0.23952800  1
  C  C49  1  0.07529400  0.15058700  0.73952800  1
  C  C50  1  0.84941300  0.92470600  0.73952800  1
  C  C51  1  0.92470600  0.07529400  0.23952800  1
