# generated using pymatgen
data_Cu7(NiC2)2
_symmetry_space_group_name_H-M   'P 1'
_cell_length_a   6.91110400
_cell_length_b   9.51951000
_cell_length_c   10.72102000
_cell_angle_alpha   90.00000000
_cell_angle_beta   90.00000000
_cell_angle_gamma   90.00000000
_symmetry_Int_Tables_number   1
_chemical_formula_structural   Cu7(NiC2)2
_chemical_formula_sum   'Cu28 Ni8 C16'
_cell_volume   705.33937554
_cell_formula_units_Z   4
loop_
 _symmetry_equiv_pos_site_id
 _symmetry_equiv_pos_as_xyz
  1  'x, y, z'
loop_
 _atom_site_type_symbol
 _atom_site_label
 _atom_site_symmetry_multiplicity
 _atom_site_fract_x
 _atom_site_fract_y
 _atom_site_fract_z
 _atom_site_occupancy
  C  C0  1  0.49741300  0.63459900  0.14654300  1
  C  C1  1  0.00258700  0.13459900  0.35345700  1
  C  C2  1  0.00258700  0.36540100  0.64654300  1
  C  C3  1  0.49741300  0.86540100  0.85345700  1
  C  C4  1  0.50258700  0.36540100  0.85345700  1
  C  C5  1  0.99741300  0.86540100  0.64654300  1
  C  C6  1  0.99741300  0.63459900  0.35345700  1
  C  C7  1  0.50258700  0.13459900  0.14654300  1
  C  C8  1  0.63906700  0.77371200  0.56821400  1
  C  C9  1  0.86093300  0.27371200  0.93178600  1
  C  C10  1  0.86093300  0.22628800  0.06821400  1
  C  C11  1  0.63906700  0.72628800  0.43178600  1
  C  C12  1  0.36093300  0.22628800  0.43178600  1
  C  C13  1  0.13906700  0.72628800  0.06821400  1
  C  C14  1  0.13906700  0.77371200  0.93178600  1
  C  C15  1  0.36093300  0.27371200  0.56821400  1
  Ni  Ni16  1  0.81851100  0.88740600  0.11693800  1
  Ni  Ni17  1  0.68148900  0.38740600  0.38306200  1
  Ni  Ni18  1  0.68148900  0.11259400  0.61693800  1
  Ni  Ni19  1  0.81851100  0.61259400  0.88306200  1
  Ni  Ni20  1  0.18148900  0.11259400  0.88306200  1
  Ni  Ni21  1  0.31851100  0.61259400  0.61693800  1
  Ni  Ni22  1  0.31851100  0.88740600  0.38306200  1
  Ni  Ni23  1  0.18148900  0.38740600  0.11693800  1
  Cu  Cu24  1  0.61011300  0.89294800  0.06150200  1
  Cu  Cu25  1  0.88988700  0.39294800  0.43849800  1
  Cu  Cu26  1  0.88988700  0.10705200  0.56150200  1
  Cu  Cu27  1  0.61011300  0.60705200  0.93849800  1
  Cu  Cu28  1  0.38988700  0.10705200  0.93849800  1
  Cu  Cu29  1  0.11011300  0.60705200  0.56150200  1
  Cu  Cu30  1  0.11011300  0.89294800  0.43849800  1
  Cu  Cu31  1  0.38988700  0.39294800  0.06150200  1
  Cu  Cu32  1  0.80551700  0.76131300  0.20673400  1
  Cu  Cu33  1  0.69448300  0.26131300  0.29326600  1
  Cu  Cu34  1  0.69448300  0.23868700  0.70673400  1
  Cu  Cu35  1  0.80551700  0.73868700  0.79326600  1
  Cu  Cu36  1  0.19448300  0.23868700  0.79326600  1
  Cu  Cu37  1  0.30551700  0.73868700  0.70673400  1
  Cu  Cu38  1  0.30551700  0.76131300  0.29326600  1
  Cu  Cu39  1  0.19448300  0.26131300  0.20673400  1
  Cu  Cu40  1  0.82114500  0.02077800  0.19832800  1
  Cu  Cu41  1  0.67885500  0.52077800  0.30167200  1
  Cu  Cu42  1  0.67885500  0.97922200  0.69832800  1
  Cu  Cu43  1  0.82114500  0.47922200  0.80167200  1
  Cu  Cu44  1  0.17885500  0.97922200  0.80167200  1
  Cu  Cu45  1  0.32114500  0.47922200  0.69832800  1
  Cu  Cu46  1  0.32114500  0.02077800  0.30167200  1
  Cu  Cu47  1  0.17885500  0.52077800  0.19832800  1
  Cu  Cu48  1  0.72711800  0.75000000  0.50000000  1
  Cu  Cu49  1  0.77288200  0.25000000  0.00000000  1
  Cu  Cu50  1  0.27288200  0.25000000  0.50000000  1
  Cu  Cu51  1  0.22711800  0.75000000  0.00000000  1
