# generated using pymatgen
data_Cu5Ni11
_symmetry_space_group_name_H-M   'P 1'
_cell_length_a   5.71169200
_cell_length_b   5.71169200
_cell_length_c   5.70587900
_cell_angle_alpha   90.00000000
_cell_angle_beta   90.00000000
_cell_angle_gamma   90.00000000
_symmetry_Int_Tables_number   1
_chemical_formula_structural   Cu5Ni11
_chemical_formula_sum   'Cu5 Ni11'
_cell_volume   186.14531848
_cell_formula_units_Z   1
loop_
 _symmetry_equiv_pos_site_id
 _symmetry_equiv_pos_as_xyz
  1  'x, y, z'
loop_
 _atom_site_type_symbol
 _atom_site_label
 _atom_site_symmetry_multiplicity
 _atom_site_fract_x
 _atom_site_fract_y
 _atom_site_fract_z
 _atom_site_occupancy
  Ni  Ni0  1  0.74974200  0.74974200  0.24985000  1
  Ni  Ni1  1  0.25025800  0.74974200  0.75015000  1
  Ni  Ni2  1  0.74974200  0.25025800  0.24985000  1
  Ni  Ni3  1  0.74974200  0.25025800  0.75015000  1
  Ni  Ni4  1  0.00000000  0.00000000  0.00000000  1
  Ni  Ni5  1  0.25025800  0.74974200  0.24985000  1
  Ni  Ni6  1  0.74974200  0.74974200  0.75015000  1
  Ni  Ni7  1  0.25025800  0.25025800  0.24985000  1
  Ni  Ni8  1  0.00000000  0.00000000  0.50000000  1
  Ni  Ni9  1  0.50000000  0.50000000  0.50000000  1
  Ni  Ni10  1  0.25025800  0.25025800  0.75015000  1
  Cu  Cu11  1  0.50000000  0.00000000  0.00000000  1
  Cu  Cu12  1  0.00000000  0.50000000  0.50000000  1
  Cu  Cu13  1  0.00000000  0.50000000  0.00000000  1
  Cu  Cu14  1  0.50000000  0.50000000  0.00000000  1
  Cu  Cu15  1  0.50000000  0.00000000  0.50000000  1
