# generated using pymatgen
data_Cu2NiC8
_symmetry_space_group_name_H-M   'P 1'
_cell_length_a   8.82417600
_cell_length_b   7.31198000
_cell_length_c   9.97106621
_cell_angle_alpha   70.57946613
_cell_angle_beta   90.00000000
_cell_angle_gamma   90.00000000
_symmetry_Int_Tables_number   1
_chemical_formula_structural   Cu2NiC8
_chemical_formula_sum   'Cu8 Ni4 C32'
_cell_volume   606.75049443
_cell_formula_units_Z   4
loop_
 _symmetry_equiv_pos_site_id
 _symmetry_equiv_pos_as_xyz
  1  'x, y, z'
loop_
 _atom_site_type_symbol
 _atom_site_label
 _atom_site_symmetry_multiplicity
 _atom_site_fract_x
 _atom_site_fract_y
 _atom_site_fract_z
 _atom_site_occupancy
  C  C0  1  0.93108600  0.71094700  0.77364900  1
  C  C1  1  0.06891400  0.28905300  0.22635100  1
  C  C2  1  0.56891400  0.71094700  0.27364900  1
  C  C3  1  0.43108600  0.28905300  0.72635100  1
  Ni  Ni4  1  0.99887400  0.24951600  0.75796400  1
  Ni  Ni5  1  0.00112600  0.75048400  0.24203600  1
  Ni  Ni6  1  0.49887400  0.75048400  0.74203600  1
  Ni  Ni7  1  0.50112600  0.24951600  0.25796400  1
  Cu  Cu8  1  0.21733100  0.65041400  0.56075700  1
  Cu  Cu9  1  0.74690900  0.90834800  0.46621600  1
  Cu  Cu10  1  0.28266900  0.65041400  0.06075700  1
  Cu  Cu11  1  0.24690900  0.09165200  0.03378400  1
  Cu  Cu12  1  0.25309100  0.09165200  0.53378400  1
  Cu  Cu13  1  0.75309100  0.90834800  0.96621600  1
  Cu  Cu14  1  0.78266900  0.34958600  0.43924300  1
  Cu  Cu15  1  0.71733100  0.34958600  0.93924300  1
  C  C16  1  0.38852900  0.16436000  0.08721300  1
  C  C17  1  0.23122400  0.85723400  0.58797600  1
  C  C18  1  0.61147100  0.83564000  0.91278700  1
  C  C19  1  0.73122400  0.14276600  0.91202400  1
  C  C20  1  0.26877600  0.85723400  0.08797600  1
  C  C21  1  0.86579800  0.45124900  0.87828400  1
  C  C22  1  0.70044300  0.31519300  0.09783100  1
  C  C23  1  0.20044300  0.68480700  0.40216900  1
  C  C24  1  0.75577700  0.83251100  0.12986900  1
  C  C25  1  0.07787300  0.55975600  0.65268300  1
  C  C26  1  0.25577700  0.16748900  0.37013100  1
  C  C27  1  0.74422300  0.83251100  0.62986900  1
  C  C28  1  0.63420200  0.45124900  0.37828400  1
  C  C29  1  0.36579800  0.54875100  0.62171600  1
  C  C30  1  0.09702000  0.11689800  0.10339900  1
  C  C31  1  0.88852900  0.83564000  0.41278700  1
  C  C32  1  0.59702000  0.88310200  0.39660100  1
  C  C33  1  0.92212700  0.44024400  0.34731700  1
  C  C34  1  0.13420200  0.54875100  0.12171600  1
  C  C35  1  0.57787300  0.44024400  0.84731700  1
  C  C36  1  0.42212700  0.55975600  0.15268300  1
  C  C37  1  0.79955700  0.31519300  0.59783100  1
  C  C38  1  0.76877600  0.14276600  0.41202400  1
  C  C39  1  0.40298000  0.11689800  0.60339900  1
  C  C40  1  0.90298000  0.88310200  0.89660100  1
  C  C41  1  0.29955700  0.68480700  0.90216900  1
  C  C42  1  0.11147100  0.16436000  0.58721300  1
  C  C43  1  0.24422300  0.16748900  0.87013100  1
