# generated using pymatgen
data_Cu28NiC34
_symmetry_space_group_name_H-M   'P 1'
_cell_length_a   12.33823033
_cell_length_b   12.33823033
_cell_length_c   19.57228000
_cell_angle_alpha   90.00000000
_cell_angle_beta   90.00000000
_cell_angle_gamma   120.00000178
_symmetry_Int_Tables_number   1
_chemical_formula_structural   Cu28NiC34
_chemical_formula_sum   'Cu84 Ni3 C102'
_cell_volume   2580.34508654
_cell_formula_units_Z   3
loop_
 _symmetry_equiv_pos_site_id
 _symmetry_equiv_pos_as_xyz
  1  'x, y, z'
loop_
 _atom_site_type_symbol
 _atom_site_label
 _atom_site_symmetry_multiplicity
 _atom_site_fract_x
 _atom_site_fract_y
 _atom_site_fract_z
 _atom_site_occupancy
  C  C0  1  0.66432100  0.51076800  0.93403000  1
  C  C1  1  0.00000000  0.82340600  0.09597200  1
  C  C2  1  0.00000000  0.18912800  0.92885400  1
  C  C3  1  0.52134500  0.85247900  0.10308100  1
  C  C4  1  0.00000000  0.17771100  0.64759100  1
  C  C5  1  0.84090900  0.17444400  0.51537400  1
  C  C6  1  0.82555600  0.66646600  0.51537400  1
  C  C7  1  0.82228900  0.82228900  0.64759100  1
  C  C8  1  0.00000000  0.48762400  0.79227800  1
  C  C9  1  0.33353400  0.15909100  0.51537400  1
  C  C10  1  0.66886600  0.14752100  0.10308100  1
  C  C11  1  0.48661500  0.15285100  0.65339500  1
  C  C12  1  0.51843200  0.85029600  0.38488900  1
  C  C13  1  0.84948200  0.18323300  0.79404600  1
  C  C14  1  0.51338500  0.66623600  0.65339500  1
  C  C15  1  0.17659400  0.17659400  0.09597200  1
  C  C16  1  0.82340600  0.00000000  0.09597200  1
  C  C17  1  0.14752100  0.66886600  0.10308100  1
  C  C18  1  0.33268300  0.18034500  0.23867300  1
  C  C19  1  0.66813500  0.14970400  0.38488900  1
  C  C20  1  0.15909100  0.33353400  0.51537400  1
  C  C21  1  0.18034500  0.33268300  0.23867300  1
  C  C22  1  0.15355300  0.48923200  0.93403000  1
  C  C23  1  0.18912800  0.00000000  0.92885400  1
  C  C24  1  0.51733400  0.00000000  0.23574500  1
  C  C25  1  0.85029600  0.51843200  0.38488900  1
  C  C26  1  0.00000000  0.81584000  0.37905200  1
  C  C27  1  0.18323300  0.84948200  0.79404600  1
  C  C28  1  0.51076800  0.66432100  0.93403000  1
  C  C29  1  0.66624900  0.81676700  0.79404600  1
  C  C30  1  0.51568900  0.00000000  0.51732900  1
  C  C31  1  0.17771100  0.00000000  0.64759100  1
  C  C32  1  0.81676700  0.66624900  0.79404600  1
  C  C33  1  0.15051800  0.33375100  0.79404600  1
  C  C34  1  0.84714900  0.33376400  0.65339500  1
  C  C35  1  0.85247900  0.52134500  0.10308100  1
  C  C36  1  0.00000000  0.51568900  0.51732900  1
  C  C37  1  0.33376400  0.84714900  0.65339500  1
  C  C38  1  0.48431100  0.48431100  0.51732900  1
  C  C39  1  0.51237600  0.51237600  0.79227800  1
  C  C40  1  0.14970400  0.66813500  0.38488900  1
  C  C41  1  0.47865500  0.33113400  0.10308100  1
  C  C42  1  0.18416000  0.18416000  0.37905200  1
  C  C43  1  0.66646600  0.82555600  0.51537400  1
  C  C44  1  0.15233800  0.81965500  0.23867300  1
  C  C45  1  0.84644700  0.33567900  0.93403000  1
  C  C46  1  0.33186500  0.48156800  0.38488900  1
  C  C47  1  0.81965500  0.15233800  0.23867300  1
  C  C48  1  0.66731700  0.84766200  0.23867300  1
  C  C49  1  0.81584000  0.00000000  0.37905200  1
  C  C50  1  0.33375100  0.15051800  0.79404600  1
  C  C51  1  0.33567900  0.84644700  0.93403000  1
  C  C52  1  0.33113400  0.47865500  0.10308100  1
  C  C53  1  0.66623600  0.51338500  0.65339500  1
  C  C54  1  0.81087200  0.81087200  0.92885400  1
  C  C55  1  0.84766200  0.66731700  0.23867300  1
  C  C56  1  0.17444400  0.84090900  0.51537400  1
  C  C57  1  0.48923200  0.15355300  0.93403000  1
  C  C58  1  0.48266600  0.48266600  0.23574500  1
  C  C59  1  0.00000000  0.51733400  0.23574500  1
  C  C60  1  0.48156800  0.33186500  0.38488900  1
  C  C61  1  0.15285100  0.48661500  0.65339500  1
  C  C62  1  0.48762400  0.00000000  0.79227800  1
  C  C63  1  0.00000000  0.66696600  0.93893000  1
  C  C64  1  0.00000000  0.33452300  0.09390100  1
  C  C65  1  0.66666700  0.33333300  0.52677900  1
  C  C66  1  0.33333300  0.66666700  0.25550400  1
  C  C67  1  0.66350600  0.66350600  0.36834800  1
  C  C68  1  0.66666700  0.33333300  0.25550400  1
  C  C69  1  0.00000000  0.00000000  0.78056700  1
  C  C70  1  0.00000000  0.00000000  0.50684400  1
  C  C71  1  0.33025700  0.33025700  0.66648000  1
  C  C72  1  0.66974300  0.00000000  0.66648000  1
  C  C73  1  0.33649400  0.00000000  0.36834800  1
  C  C74  1  0.33333300  0.66666700  0.52677900  1
  C  C75  1  0.00000000  0.66974300  0.66648000  1
  C  C76  1  0.66696600  0.00000000  0.93893000  1
  C  C77  1  0.33303400  0.33303400  0.93893000  1
  C  C78  1  0.00000000  0.33649400  0.36834800  1
  C  C79  1  0.33452300  0.00000000  0.09390100  1
  C  C80  1  0.33333300  0.66666700  0.79541300  1
  C  C81  1  0.66666700  0.33333300  0.79541300  1
  C  C82  1  0.00000000  0.00000000  0.23831700  1
  C  C83  1  0.66547700  0.66547700  0.09390100  1
  Ni  Ni84  1  0.33333300  0.66666700  0.03008500  1
  Ni  Ni85  1  0.66666700  0.33333300  0.03008500  1
  Ni  Ni86  1  0.00000000  0.00000000  0.00043400  1
  Cu  Cu87  1  0.00000000  0.88567900  0.26371600  1
  Cu  Cu88  1  0.88624500  0.21988400  0.11957600  1
  Cu  Cu89  1  0.55256900  0.00000000  0.91362500  1
  Cu  Cu90  1  0.33333300  0.66666700  0.87197400  1
  Cu  Cu91  1  0.77843400  0.45015900  0.50195100  1
  Cu  Cu92  1  0.55059100  0.55059100  0.39575000  1
  Cu  Cu93  1  0.44940900  0.00000000  0.39575000  1
  Cu  Cu94  1  0.22107900  0.88582200  0.39239700  1
  Cu  Cu95  1  0.00000000  0.00000000  0.16180900  1
  Cu  Cu96  1  0.67606900  0.00000000  0.74312300  1
  Cu  Cu97  1  0.66583900  0.88545600  0.91302900  1
  Cu  Cu98  1  0.11435200  0.00000000  0.80546600  1
  Cu  Cu99  1  0.55176300  0.33174400  0.23019100  1
  Cu  Cu100  1  0.32827500  0.54984100  0.50195100  1
  Cu  Cu101  1  0.33187500  0.33187500  0.01549100  1
  Cu  Cu102  1  0.54984100  0.32827500  0.50195100  1
  Cu  Cu103  1  0.44823700  0.77998000  0.23019100  1
  Cu  Cu104  1  0.88567900  0.00000000  0.26371600  1
  Cu  Cu105  1  0.78152300  0.11423000  0.63902700  1
  Cu  Cu106  1  0.21961700  0.33416100  0.91302900  1
  Cu  Cu107  1  0.00000000  0.11423500  0.53215300  1
  Cu  Cu108  1  0.66058000  0.66058000  0.29158700  1
  Cu  Cu109  1  0.88582200  0.22107900  0.39239700  1
  Cu  Cu110  1  0.00000000  0.67606900  0.74312300  1
  Cu  Cu111  1  0.00000000  0.44875800  0.11992300  1
  Cu  Cu112  1  0.00000000  0.66812500  0.01549100  1
  Cu  Cu113  1  0.33333300  0.66666700  0.60359600  1
  Cu  Cu114  1  0.33416100  0.21961700  0.91302900  1
  Cu  Cu115  1  0.66666700  0.33333300  0.33263200  1
  Cu  Cu116  1  0.44875800  0.00000000  0.11992300  1
  Cu  Cu117  1  0.11432100  0.11432100  0.26371600  1
  Cu  Cu118  1  0.55362300  0.00000000  0.64502300  1
  Cu  Cu119  1  0.67172500  0.22156600  0.50195100  1
  Cu  Cu120  1  0.88577000  0.66729200  0.63902700  1
  Cu  Cu121  1  0.11423000  0.78152300  0.63902700  1
  Cu  Cu122  1  0.11417800  0.33525800  0.39239700  1
  Cu  Cu123  1  0.44743100  0.44743100  0.91362500  1
  Cu  Cu124  1  0.33522200  0.00000000  0.01770200  1
  Cu  Cu125  1  0.00000000  0.44940900  0.39575000  1
  Cu  Cu126  1  0.55304400  0.21853300  0.76994500  1
  Cu  Cu127  1  0.22156600  0.67172500  0.50195100  1
  Cu  Cu128  1  0.00000000  0.55256900  0.91362500  1
  Cu  Cu129  1  0.78011600  0.66636200  0.11957600  1
  Cu  Cu130  1  0.33270800  0.21847700  0.63902700  1
  Cu  Cu131  1  0.33525800  0.11417800  0.39239700  1
  Cu  Cu132  1  0.11375500  0.33363800  0.11957600  1
  Cu  Cu133  1  0.00000000  0.11435200  0.80546600  1
  Cu  Cu134  1  0.00000000  0.33942000  0.29158700  1
  Cu  Cu135  1  0.66666700  0.33333300  0.87197400  1
  Cu  Cu136  1  0.33942000  0.00000000  0.29158700  1
  Cu  Cu137  1  0.33451100  0.78146700  0.76994500  1
  Cu  Cu138  1  0.77892100  0.66474200  0.39239700  1
  Cu  Cu139  1  0.00000000  0.55362300  0.64502300  1
  Cu  Cu140  1  0.78146700  0.33451100  0.76994500  1
  Cu  Cu141  1  0.66666700  0.33333300  0.60359600  1
  Cu  Cu142  1  0.00000000  0.00000000  0.70353900  1
  Cu  Cu143  1  0.88564800  0.88564800  0.80546600  1
  Cu  Cu144  1  0.11423500  0.00000000  0.53215300  1
  Cu  Cu145  1  0.66636200  0.78011600  0.11957600  1
  Cu  Cu146  1  0.11454400  0.78038300  0.91302900  1
  Cu  Cu147  1  0.88576500  0.88576500  0.53215300  1
  Cu  Cu148  1  0.44637700  0.44637700  0.64502300  1
  Cu  Cu149  1  0.66477800  0.66477800  0.01770200  1
  Cu  Cu150  1  0.66812500  0.00000000  0.01549100  1
  Cu  Cu151  1  0.55124200  0.55124200  0.11992300  1
  Cu  Cu152  1  0.33333300  0.66666700  0.33263200  1
  Cu  Cu153  1  0.66825600  0.22002000  0.23019100  1
  Cu  Cu154  1  0.77998000  0.44823700  0.23019100  1
  Cu  Cu155  1  0.66729200  0.88577000  0.63902700  1
  Cu  Cu156  1  0.45015900  0.77843400  0.50195100  1
  Cu  Cu157  1  0.22002000  0.66825600  0.23019100  1
  Cu  Cu158  1  0.66474200  0.77892100  0.39239700  1
  Cu  Cu159  1  0.33174400  0.55176300  0.23019100  1
  Cu  Cu160  1  0.21853300  0.55304400  0.76994500  1
  Cu  Cu161  1  0.88545600  0.66583900  0.91302900  1
  Cu  Cu162  1  0.66548900  0.44695600  0.76994500  1
  Cu  Cu163  1  0.32393100  0.32393100  0.74312300  1
  Cu  Cu164  1  0.00000000  0.00000000  0.43022200  1
  Cu  Cu165  1  0.21847700  0.33270800  0.63902700  1
  Cu  Cu166  1  0.21988400  0.88624500  0.11957600  1
  Cu  Cu167  1  0.44695600  0.66548900  0.76994500  1
  Cu  Cu168  1  0.78038300  0.11454400  0.91302900  1
  Cu  Cu169  1  0.00000000  0.33522200  0.01770200  1
  Cu  Cu170  1  0.33363800  0.11375500  0.11957600  1
  C  C171  1  0.00000000  0.66146800  0.31311500  1
  C  C172  1  0.65981300  0.65981300  0.86396100  1
  C  C173  1  0.00000000  0.34943600  0.56649600  1
  C  C174  1  0.32604200  0.00000000  0.71755100  1
  C  C175  1  0.00000000  0.67537000  0.16739200  1
  C  C176  1  0.65056400  0.65056400  0.56649600  1
  C  C177  1  0.67537000  0.00000000  0.16739200  1
  C  C178  1  0.67395800  0.67395800  0.71755100  1
  C  C179  1  0.33853200  0.33853200  0.31311500  1
  C  C180  1  0.31483000  0.31483000  0.46530300  1
  C  C181  1  0.66146800  0.00000000  0.31311500  1
  C  C182  1  0.32463000  0.32463000  0.16739200  1
  C  C183  1  0.68517000  0.00000000  0.46530300  1
  C  C184  1  0.00000000  0.32604200  0.71755100  1
  C  C185  1  0.00000000  0.68517000  0.46530300  1
  C  C186  1  0.34018700  0.00000000  0.86396100  1
  C  C187  1  0.34943600  0.00000000  0.56649600  1
  C  C188  1  0.00000000  0.34018700  0.86396100  1
