# generated using pymatgen
data_Cu4NiC2
_symmetry_space_group_name_H-M   'P 1'
_cell_length_a   8.41161300
_cell_length_b   8.41161300
_cell_length_c   10.95811600
_cell_angle_alpha   90.00000000
_cell_angle_beta   90.00000000
_cell_angle_gamma   90.00000000
_symmetry_Int_Tables_number   1
_chemical_formula_structural   Cu4NiC2
_chemical_formula_sum   'Cu16 Ni4 C8'
_cell_volume   775.34405369
_cell_formula_units_Z   4
loop_
 _symmetry_equiv_pos_site_id
 _symmetry_equiv_pos_as_xyz
  1  'x, y, z'
loop_
 _atom_site_type_symbol
 _atom_site_label
 _atom_site_symmetry_multiplicity
 _atom_site_fract_x
 _atom_site_fract_y
 _atom_site_fract_z
 _atom_site_occupancy
  C  C0  1  0.00000000  0.50000000  0.25000000  1
  C  C1  1  0.50000000  0.00000000  0.75000000  1
  C  C2  1  0.50000000  0.00000000  0.25000000  1
  C  C3  1  0.00000000  0.50000000  0.75000000  1
  C  C4  1  0.50000000  0.50000000  0.50000000  1
  C  C5  1  0.00000000  0.00000000  0.00000000  1
  C  C6  1  0.00000000  0.00000000  0.50000000  1
  C  C7  1  0.50000000  0.50000000  0.00000000  1
  Ni  Ni8  1  0.24939300  0.75060700  0.50000000  1
  Ni  Ni9  1  0.75060700  0.24939300  0.50000000  1
  Ni  Ni10  1  0.25060700  0.25060700  0.00000000  1
  Ni  Ni11  1  0.74939300  0.74939300  0.00000000  1
  Cu  Cu12  1  0.26225900  0.00618800  0.00000000  1
  Cu  Cu13  1  0.99381200  0.73774100  0.00000000  1
  Cu  Cu14  1  0.50618800  0.23774100  0.50000000  1
  Cu  Cu15  1  0.00618800  0.26225900  0.00000000  1
  Cu  Cu16  1  0.49381200  0.76225900  0.50000000  1
  Cu  Cu17  1  0.86540400  0.13459600  0.64000500  1
  Cu  Cu18  1  0.73774100  0.99381200  0.00000000  1
  Cu  Cu19  1  0.36540400  0.36540400  0.14000500  1
  Cu  Cu20  1  0.23774100  0.50618800  0.50000000  1
  Cu  Cu21  1  0.86540400  0.13459600  0.35999500  1
  Cu  Cu22  1  0.76225900  0.49381200  0.50000000  1
  Cu  Cu23  1  0.36540400  0.36540400  0.85999500  1
  Cu  Cu24  1  0.63459600  0.63459600  0.85999500  1
  Cu  Cu25  1  0.63459600  0.63459600  0.14000500  1
  Cu  Cu26  1  0.13459600  0.86540400  0.35999500  1
  Cu  Cu27  1  0.13459600  0.86540400  0.64000500  1
