# generated using pymatgen
data_CuNi9C20
_symmetry_space_group_name_H-M   'P 1'
_cell_length_a   6.69213600
_cell_length_b   7.73449161
_cell_length_c   8.66299399
_cell_angle_alpha   102.83058027
_cell_angle_beta   97.58959565
_cell_angle_gamma   106.54969762
_symmetry_Int_Tables_number   1
_chemical_formula_structural   CuNi9C20
_chemical_formula_sum   'Cu1 Ni9 C20'
_cell_volume   409.83618304
_cell_formula_units_Z   1
loop_
 _symmetry_equiv_pos_site_id
 _symmetry_equiv_pos_as_xyz
  1  'x, y, z'
loop_
 _atom_site_type_symbol
 _atom_site_label
 _atom_site_symmetry_multiplicity
 _atom_site_fract_x
 _atom_site_fract_y
 _atom_site_fract_z
 _atom_site_occupancy
  Ni  Ni0  1  0.80041500  0.60092900  0.60110700  1
  Ni  Ni1  1  0.59966300  0.19914400  0.19914800  1
  Ni  Ni2  1  0.00000000  0.50000000  0.00000000  1
  Ni  Ni3  1  0.80023700  0.09991800  0.60107400  1
  Ni  Ni4  1  0.40033700  0.80085600  0.80085200  1
  Ni  Ni5  1  0.19958500  0.39907100  0.39889300  1
  Ni  Ni6  1  0.60152300  0.70085400  0.19952200  1
  Ni  Ni7  1  0.39847700  0.29914600  0.80047800  1
  Ni  Ni8  1  0.19976300  0.90008200  0.39892600  1
  Cu  Cu9  1  0.00000000  0.00000000  0.00000000  1
  C  C10  1  0.85014400  0.32486900  0.45092000  1
  C  C11  1  0.64295000  0.92288300  0.05152700  1
  C  C12  1  0.94891700  0.77030400  0.15342900  1
  C  C13  1  0.44942800  0.52407100  0.64995300  1
  C  C14  1  0.85063600  0.82569300  0.45025200  1
  C  C15  1  0.64884200  0.42530800  0.04935900  1
  C  C16  1  0.74830700  0.37440800  0.74993800  1
  C  C17  1  0.25515200  0.12766400  0.25531600  1
  C  C18  1  0.94920300  0.28099000  0.15344500  1
  C  C19  1  0.44928300  0.02545100  0.64931500  1
  C  C20  1  0.55071700  0.97454900  0.35068500  1
  C  C21  1  0.05079700  0.71901000  0.84655500  1
  C  C22  1  0.74484800  0.87233600  0.74468400  1
  C  C23  1  0.35115800  0.57469200  0.95064100  1
  C  C24  1  0.25169300  0.62559200  0.25006200  1
  C  C25  1  0.55057200  0.47592900  0.35004700  1
  C  C26  1  0.14936400  0.17430700  0.54974800  1
  C  C27  1  0.05108300  0.22969600  0.84657100  1
  C  C28  1  0.35705000  0.07711700  0.94847300  1
  C  C29  1  0.14985600  0.67513100  0.54908000  1
