# generated using pymatgen
data_Cu13NiC10
_symmetry_space_group_name_H-M   'P 1'
_cell_length_a   9.45211300
_cell_length_b   9.92551200
_cell_length_c   17.85110500
_cell_angle_alpha   90.00000000
_cell_angle_beta   90.00000000
_cell_angle_gamma   90.00000000
_symmetry_Int_Tables_number   1
_chemical_formula_structural   Cu13NiC10
_chemical_formula_sum   'Cu52 Ni4 C40'
_cell_volume   1674.73820682
_cell_formula_units_Z   4
loop_
 _symmetry_equiv_pos_site_id
 _symmetry_equiv_pos_as_xyz
  1  'x, y, z'
loop_
 _atom_site_type_symbol
 _atom_site_label
 _atom_site_symmetry_multiplicity
 _atom_site_fract_x
 _atom_site_fract_y
 _atom_site_fract_z
 _atom_site_occupancy
  C  C0  1  0.68798500  0.42111100  0.28369500  1
  C  C1  1  0.97078300  0.02183700  0.54113600  1
  C  C2  1  0.47078300  0.97816300  0.54113600  1
  C  C3  1  0.02921700  0.97816300  0.04113600  1
  C  C4  1  0.56777300  0.51109000  0.58370100  1
  C  C5  1  0.31201500  0.57888900  0.78369500  1
  C  C6  1  0.18798500  0.57888900  0.28369500  1
  C  C7  1  0.81201500  0.42111100  0.78369500  1
  C  C8  1  0.06777300  0.48891000  0.58370100  1
  C  C9  1  0.93222700  0.51109000  0.08370100  1
  C  C10  1  0.43222700  0.48891000  0.08370100  1
  C  C11  1  0.52921700  0.02183700  0.04113600  1
  C  C12  1  0.77176000  0.02692300  0.72569400  1
  C  C13  1  0.47216300  0.31480500  0.80074100  1
  C  C14  1  0.52440800  0.05714200  0.77128000  1
  C  C15  1  0.16480500  0.21423700  0.54939300  1
  C  C16  1  0.30147000  0.89428500  0.59169000  1
  C  C17  1  0.92602000  0.51173100  0.90553600  1
  C  C18  1  0.46633500  0.59915800  0.22078400  1
  C  C19  1  0.66480500  0.78576300  0.54939300  1
  C  C20  1  0.42602000  0.48826900  0.90553600  1
  C  C21  1  0.72824000  0.02692300  0.22569400  1
  C  C22  1  0.97559200  0.05714200  0.27128000  1
  C  C23  1  0.03366500  0.59915800  0.72078400  1
  C  C24  1  0.52783700  0.68519500  0.30074100  1
  C  C25  1  0.19853000  0.89428500  0.09169000  1
  C  C26  1  0.47559200  0.94285800  0.27128000  1
  C  C27  1  0.33519500  0.21423700  0.04939300  1
  C  C28  1  0.83519500  0.78576300  0.04939300  1
  C  C29  1  0.22824000  0.97307700  0.22569400  1
  C  C30  1  0.02440800  0.94285800  0.77128000  1
  C  C31  1  0.02783700  0.31480500  0.30074100  1
  C  C32  1  0.96633500  0.40084200  0.22078400  1
  C  C33  1  0.57398000  0.51173100  0.40553600  1
  C  C34  1  0.53366500  0.40084200  0.72078400  1
  C  C35  1  0.80147000  0.10571500  0.59169000  1
  C  C36  1  0.27176000  0.97307700  0.72569400  1
  C  C37  1  0.97216300  0.68519500  0.80074100  1
  C  C38  1  0.07398000  0.48826900  0.40553600  1
  C  C39  1  0.69853000  0.10571500  0.09169000  1
  Ni  Ni40  1  0.25632100  0.74141300  0.02968500  1
  Ni  Ni41  1  0.74367900  0.25858700  0.52968500  1
  Ni  Ni42  1  0.75632100  0.25858700  0.02968500  1
  Ni  Ni43  1  0.24367900  0.74141300  0.52968500  1
  Cu  Cu44  1  0.93796800  0.85197800  0.40236600  1
  Cu  Cu45  1  0.23349800  0.91660300  0.65614600  1
  Cu  Cu46  1  0.05654400  0.16425000  0.97161200  1
  Cu  Cu47  1  0.58699300  0.63770500  0.36497500  1
  Cu  Cu48  1  0.66129600  0.00081700  0.77236900  1
  Cu  Cu49  1  0.50379900  0.17834100  0.80257900  1
  Cu  Cu50  1  0.17920000  0.31304900  0.59205100  1
  Cu  Cu51  1  0.41325400  0.98583000  0.74023700  1
  Cu  Cu52  1  0.32303900  0.57498000  0.21442200  1
  Cu  Cu53  1  0.43717700  0.48026500  0.97937700  1
  Cu  Cu54  1  0.08699300  0.36229500  0.36497500  1
  Cu  Cu55  1  0.32080000  0.31304900  0.09205100  1
  Cu  Cu56  1  0.85259400  0.89587200  0.01180500  1
  Cu  Cu57  1  0.07752600  0.60595800  0.36427800  1
  Cu  Cu58  1  0.73349800  0.08339700  0.65614600  1
  Cu  Cu59  1  0.57752600  0.39404200  0.36427800  1
  Cu  Cu60  1  0.67920000  0.68695100  0.59205100  1
  Cu  Cu61  1  0.94345600  0.83575000  0.47161200  1
  Cu  Cu62  1  0.08674600  0.98583000  0.24023700  1
  Cu  Cu63  1  0.56282300  0.51973500  0.47937700  1
  Cu  Cu64  1  0.92247400  0.39404200  0.86427800  1
  Cu  Cu65  1  0.91325400  0.01417000  0.74023700  1
  Cu  Cu66  1  0.06203200  0.14802200  0.90236600  1
  Cu  Cu67  1  0.91300700  0.63770500  0.86497500  1
  Cu  Cu68  1  0.58674600  0.01417000  0.24023700  1
  Cu  Cu69  1  0.67696100  0.42502000  0.71442200  1
  Cu  Cu70  1  0.44345600  0.16425000  0.47161200  1
  Cu  Cu71  1  0.42247400  0.60595800  0.86427800  1
  Cu  Cu72  1  0.00379900  0.82165900  0.80257900  1
  Cu  Cu73  1  0.76650200  0.08339700  0.15614600  1
  Cu  Cu74  1  0.99620100  0.17834100  0.30257900  1
  Cu  Cu75  1  0.17696100  0.57498000  0.71442200  1
  Cu  Cu76  1  0.54576300  0.56351400  0.16104800  1
  Cu  Cu77  1  0.41300700  0.36229500  0.86497500  1
  Cu  Cu78  1  0.56203200  0.85197800  0.90236600  1
  Cu  Cu79  1  0.55654400  0.83575000  0.97161200  1
  Cu  Cu80  1  0.83870400  0.00081700  0.27236900  1
  Cu  Cu81  1  0.45423700  0.43648600  0.66104800  1
  Cu  Cu82  1  0.06282300  0.48026500  0.47937700  1
  Cu  Cu83  1  0.43796800  0.14802200  0.40236600  1
  Cu  Cu84  1  0.04576300  0.43648600  0.16104800  1
  Cu  Cu85  1  0.95423700  0.56351400  0.66104800  1
  Cu  Cu86  1  0.26650200  0.91660300  0.15614600  1
  Cu  Cu87  1  0.33870400  0.99918300  0.27236900  1
  Cu  Cu88  1  0.16129600  0.99918300  0.77236900  1
  Cu  Cu89  1  0.14740600  0.10412800  0.51180500  1
  Cu  Cu90  1  0.82303900  0.42502000  0.21442200  1
  Cu  Cu91  1  0.64740600  0.89587200  0.51180500  1
  Cu  Cu92  1  0.82080000  0.68695100  0.09205100  1
  Cu  Cu93  1  0.35259400  0.10412800  0.01180500  1
  Cu  Cu94  1  0.93717700  0.51973500  0.97937700  1
  Cu  Cu95  1  0.49620100  0.82165900  0.30257900  1
