# generated using pymatgen
data_CuNi2C7
_symmetry_space_group_name_H-M   'P 1'
_cell_length_a   7.37699687
_cell_length_b   7.37699687
_cell_length_c   7.37699687
_cell_angle_alpha   138.95339175
_cell_angle_beta   109.49138800
_cell_angle_gamma   84.96059701
_symmetry_Int_Tables_number   1
_chemical_formula_structural   CuNi2C7
_chemical_formula_sum   'Cu2 Ni4 C14'
_cell_volume   239.65979249
_cell_formula_units_Z   2
loop_
 _symmetry_equiv_pos_site_id
 _symmetry_equiv_pos_as_xyz
  1  'x, y, z'
loop_
 _atom_site_type_symbol
 _atom_site_label
 _atom_site_symmetry_multiplicity
 _atom_site_fract_x
 _atom_site_fract_y
 _atom_site_fract_z
 _atom_site_occupancy
  Ni  Ni0  1  0.86621800  0.65931800  0.20002000  1
  Ni  Ni1  1  0.13378200  0.33380200  0.79310000  1
  Ni  Ni2  1  0.45929700  0.65931800  0.79310000  1
  Ni  Ni3  1  0.54070300  0.33380200  0.20002000  1
  Cu  Cu4  1  0.64598400  0.13765400  0.49167000  1
  Cu  Cu5  1  0.35401600  0.84568600  0.49167000  1
  C  C6  1  0.87603600  0.31888400  0.19492000  1
  C  C7  1  0.12396400  0.31888400  0.44284900  1
  C  C8  1  0.91073500  0.85286300  0.76359800  1
  C  C9  1  0.08926500  0.85286300  0.94212800  1
  C  C10  1  0.86435200  0.06792100  0.52351600  1
  C  C11  1  0.13564800  0.65916500  0.20356900  1
  C  C12  1  0.54440400  0.06792100  0.20356900  1
  C  C13  1  0.45559600  0.65916500  0.52351600  1
  C  C14  1  0.66646500  0.47181100  0.80534600  1
  C  C15  1  0.33353500  0.13888200  0.80534600  1
  C  C16  1  0.80368500  0.46599000  0.26967400  1
  C  C17  1  0.19631500  0.46599000  0.66230500  1
  C  C18  1  0.50000000  0.91075700  0.41075700  1
  C  C19  1  0.00000000  0.97301600  0.97301600  1
