# generated using pymatgen
data_CuNi5C38
_symmetry_space_group_name_H-M   'P 1'
_cell_length_a   10.35634900
_cell_length_b   10.35634900
_cell_length_c   10.35634900
_cell_angle_alpha   90.00000000
_cell_angle_beta   90.00000000
_cell_angle_gamma   90.00000000
_symmetry_Int_Tables_number   1
_chemical_formula_structural   CuNi5C38
_chemical_formula_sum   'Cu2 Ni10 C76'
_cell_volume   1110.75948913
_cell_formula_units_Z   2
loop_
 _symmetry_equiv_pos_site_id
 _symmetry_equiv_pos_as_xyz
  1  'x, y, z'
loop_
 _atom_site_type_symbol
 _atom_site_label
 _atom_site_symmetry_multiplicity
 _atom_site_fract_x
 _atom_site_fract_y
 _atom_site_fract_z
 _atom_site_occupancy
  Ni  Ni0  1  0.25000000  0.25000000  0.75000000  1
  Ni  Ni1  1  0.25000000  0.75000000  0.25000000  1
  Ni  Ni2  1  0.00000000  0.50000000  0.50000000  1
  Ni  Ni3  1  0.50000000  0.00000000  0.00000000  1
  Ni  Ni4  1  0.50000000  0.00000000  0.50000000  1
  Ni  Ni5  1  0.75000000  0.75000000  0.75000000  1
  Ni  Ni6  1  0.50000000  0.50000000  0.00000000  1
  Ni  Ni7  1  0.00000000  0.50000000  0.00000000  1
  Ni  Ni8  1  0.75000000  0.25000000  0.25000000  1
  Ni  Ni9  1  0.00000000  0.00000000  0.50000000  1
  Cu  Cu10  1  0.00000000  0.00000000  0.00000000  1
  Cu  Cu11  1  0.50000000  0.50000000  0.50000000  1
  C  C12  1  0.75000000  0.75000000  0.25000000  1
  C  C13  1  0.25000000  0.75000000  0.75000000  1
  C  C14  1  0.75000000  0.25000000  0.75000000  1
  C  C15  1  0.25000000  0.25000000  0.25000000  1
  C  C16  1  0.25338100  0.25439000  0.43691700  1
  C  C17  1  0.56308300  0.74661900  0.25439000  1
  C  C18  1  0.43691700  0.74661900  0.74561000  1
  C  C19  1  0.25439000  0.56308300  0.74661900  1
  C  C20  1  0.74661900  0.74561000  0.43691700  1
  C  C21  1  0.75439000  0.06308300  0.75338100  1
  C  C22  1  0.06308300  0.75338100  0.75439000  1
  C  C23  1  0.56308300  0.25338100  0.74561000  1
  C  C24  1  0.25439000  0.43691700  0.25338100  1
  C  C25  1  0.75338100  0.24561000  0.93691700  1
  C  C26  1  0.74561000  0.56308300  0.25338100  1
  C  C27  1  0.24661900  0.24561000  0.06308300  1
  C  C28  1  0.25338100  0.74561000  0.56308300  1
  C  C29  1  0.75439000  0.93691700  0.24661900  1
  C  C30  1  0.43691700  0.25338100  0.25439000  1
  C  C31  1  0.24561000  0.93691700  0.75338100  1
  C  C32  1  0.24561000  0.06308300  0.24661900  1
  C  C33  1  0.93691700  0.75338100  0.24561000  1
  C  C34  1  0.74561000  0.43691700  0.74661900  1
  C  C35  1  0.74661900  0.25439000  0.56308300  1
  C  C36  1  0.24661900  0.75439000  0.93691700  1
  C  C37  1  0.75338100  0.75439000  0.06308300  1
  C  C38  1  0.93691700  0.24661900  0.75439000  1
  C  C39  1  0.06308300  0.24661900  0.24561000  1
  C  C40  1  0.25410600  0.99954500  0.65022500  1
  C  C41  1  0.75410600  0.49954500  0.84977500  1
  C  C42  1  0.15022500  0.75410600  0.50045500  1
  C  C43  1  0.00045500  0.34977500  0.25410600  1
  C  C44  1  0.65022500  0.25410600  0.99954500  1
  C  C45  1  0.99832000  0.85899000  0.22780900  1
  C  C46  1  0.14101000  0.22780900  0.00168000  1
  C  C47  1  0.72780900  0.50168000  0.35899000  1
  C  C48  1  0.34977500  0.74589400  0.99954500  1
  C  C49  1  0.77219100  0.99832000  0.14101000  1
  C  C50  1  0.84977500  0.75410600  0.49954500  1
  C  C51  1  0.14101000  0.77219100  0.99832000  1
  C  C52  1  0.50045500  0.15022500  0.75410600  1
  C  C53  1  0.64101000  0.72780900  0.49832000  1
  C  C54  1  0.77219100  0.00168000  0.85899000  1
  C  C55  1  0.65022500  0.74589400  0.00045500  1
  C  C56  1  0.64101000  0.27219100  0.50168000  1
  C  C57  1  0.99954500  0.65022500  0.25410600  1
  C  C58  1  0.84977500  0.24589400  0.50045500  1
  C  C59  1  0.85899000  0.77219100  0.00168000  1
  C  C60  1  0.27219100  0.50168000  0.64101000  1
  C  C61  1  0.99954500  0.34977500  0.74589400  1
  C  C62  1  0.99832000  0.14101000  0.77219100  1
  C  C63  1  0.50045500  0.84977500  0.24589400  1
  C  C64  1  0.75410600  0.50045500  0.15022500  1
  C  C65  1  0.00168000  0.14101000  0.22780900  1
  C  C66  1  0.15022500  0.24589400  0.49954500  1
  C  C67  1  0.74589400  0.99954500  0.34977500  1
  C  C68  1  0.34977500  0.25410600  0.00045500  1
  C  C69  1  0.27219100  0.49832000  0.35899000  1
  C  C70  1  0.50168000  0.35899000  0.72780900  1
  C  C71  1  0.35899000  0.72780900  0.50168000  1
  C  C72  1  0.00045500  0.65022500  0.74589400  1
  C  C73  1  0.49832000  0.64101000  0.72780900  1
  C  C74  1  0.49954500  0.84977500  0.75410600  1
  C  C75  1  0.25410600  0.00045500  0.34977500  1
  C  C76  1  0.50168000  0.64101000  0.27219100  1
  C  C77  1  0.49954500  0.15022500  0.24589400  1
  C  C78  1  0.74589400  0.00045500  0.65022500  1
  C  C79  1  0.24589400  0.50045500  0.84977500  1
  C  C80  1  0.85899000  0.22780900  0.99832000  1
  C  C81  1  0.00168000  0.85899000  0.77219100  1
  C  C82  1  0.22780900  0.00168000  0.14101000  1
  C  C83  1  0.35899000  0.27219100  0.49832000  1
  C  C84  1  0.24589400  0.49954500  0.15022500  1
  C  C85  1  0.72780900  0.49832000  0.64101000  1
  C  C86  1  0.49832000  0.35899000  0.27219100  1
  C  C87  1  0.22780900  0.99832000  0.85899000  1
