# generated using pymatgen
data_CuNi2C11
_symmetry_space_group_name_H-M   'P 1'
_cell_length_a   13.78277200
_cell_length_b   9.00786500
_cell_length_c   12.01287745
_cell_angle_alpha   76.84252922
_cell_angle_beta   90.00000000
_cell_angle_gamma   90.00000000
_symmetry_Int_Tables_number   1
_chemical_formula_structural   CuNi2C11
_chemical_formula_sum   'Cu8 Ni16 C88'
_cell_volume   1452.28591640
_cell_formula_units_Z   8
loop_
 _symmetry_equiv_pos_site_id
 _symmetry_equiv_pos_as_xyz
  1  'x, y, z'
loop_
 _atom_site_type_symbol
 _atom_site_label
 _atom_site_symmetry_multiplicity
 _atom_site_fract_x
 _atom_site_fract_y
 _atom_site_fract_z
 _atom_site_occupancy
  C  C0  1  0.59564400  0.91169600  0.67231200  1
  C  C1  1  0.09564400  0.08830400  0.82768800  1
  C  C2  1  0.40435600  0.08830400  0.32768800  1
  C  C3  1  0.90435600  0.91169600  0.17231200  1
  C  C4  1  0.58775000  0.82840100  0.55042900  1
  C  C5  1  0.08775000  0.17159900  0.94957100  1
  C  C6  1  0.41225000  0.17159900  0.44957100  1
  C  C7  1  0.91225000  0.82840100  0.05042900  1
  C  C8  1  0.67878300  0.76018400  0.65937200  1
  C  C9  1  0.17878300  0.23981600  0.84062800  1
  C  C10  1  0.32121700  0.23981600  0.34062800  1
  C  C11  1  0.82121700  0.76018400  0.15937200  1
  C  C12  1  0.54856100  0.75115700  0.88833400  1
  C  C13  1  0.04856100  0.24884300  0.61166600  1
  C  C14  1  0.45143900  0.24884300  0.11166600  1
  C  C15  1  0.95143900  0.75115700  0.38833400  1
  C  C16  1  0.64692100  0.63557300  0.85532300  1
  C  C17  1  0.14692100  0.36442700  0.64467700  1
  C  C18  1  0.35307900  0.36442700  0.14467700  1
  C  C19  1  0.85307900  0.63557300  0.35532300  1
  C  C20  1  0.53418100  0.54793900  0.91264200  1
  C  C21  1  0.03418100  0.45206100  0.58735800  1
  C  C22  1  0.46581900  0.45206100  0.08735800  1
  C  C23  1  0.96581900  0.54793900  0.41264200  1
  C  C24  1  0.81489200  0.19481700  0.79927600  1
  C  C25  1  0.31489200  0.80518300  0.70072400  1
  C  C26  1  0.18510800  0.80518300  0.20072400  1
  C  C27  1  0.68510800  0.19481700  0.29927600  1
  C  C28  1  0.75098200  0.32241000  0.87090100  1
  C  C29  1  0.25098200  0.67759000  0.62909900  1
  C  C30  1  0.24901800  0.67759000  0.12909900  1
  C  C31  1  0.74901800  0.32241000  0.37090100  1
  C  C32  1  0.73526900  0.33896500  0.71940900  1
  C  C33  1  0.23526900  0.66103500  0.78059100  1
  C  C34  1  0.26473100  0.66103500  0.28059100  1
  C  C35  1  0.76473100  0.33896500  0.21940900  1
  C  C36  1  0.74147600  0.99920400  0.98709400  1
  C  C37  1  0.24147600  0.00079600  0.51290600  1
  C  C38  1  0.25852400  0.00079600  0.01290600  1
  C  C39  1  0.75852400  0.99920400  0.48709400  1
  C  C40  1  0.61479500  0.95354300  0.00444600  1
  C  C41  1  0.11479500  0.04645700  0.49555400  1
  C  C42  1  0.38520500  0.04645700  0.99555400  1
  C  C43  1  0.88520500  0.95354300  0.50444600  1
  C  C44  1  0.65819300  0.13403800  0.02573800  1
  C  C45  1  0.15819300  0.86596200  0.47426200  1
  C  C46  1  0.34180700  0.86596200  0.97426200  1
  C  C47  1  0.84180700  0.13403800  0.52573800  1
  C  C48  1  0.46549600  0.31759400  0.69962000  1
  C  C49  1  0.96549600  0.68240600  0.80038000  1
  C  C50  1  0.53450400  0.68240600  0.30038000  1
  C  C51  1  0.03450400  0.31759400  0.19962000  1
  Ni  Ni52  1  0.60523800  0.80652000  0.64168800  1
  Ni  Ni53  1  0.10523800  0.19348000  0.85831200  1
  Ni  Ni54  1  0.39476200  0.19348000  0.35831200  1
  Ni  Ni55  1  0.89476200  0.80652000  0.14168800  1
  Ni  Ni56  1  0.56803200  0.64875800  0.85831300  1
  Ni  Ni57  1  0.06803200  0.35124200  0.64168700  1
  Ni  Ni58  1  0.43196800  0.35124200  0.14168700  1
  Ni  Ni59  1  0.93196800  0.64875800  0.35831300  1
  Ni  Ni60  1  0.74824000  0.26062100  0.80225500  1
  Ni  Ni61  1  0.24824000  0.73937900  0.69774500  1
  Ni  Ni62  1  0.25176000  0.73937900  0.19774500  1
  Ni  Ni63  1  0.75176000  0.26062100  0.30225500  1
  Ni  Ni64  1  0.66759100  0.04578000  0.97710000  1
  Ni  Ni65  1  0.16759100  0.95422000  0.52290000  1
  Ni  Ni66  1  0.33240900  0.95422000  0.02290000  1
  Ni  Ni67  1  0.83240900  0.04578000  0.47710000  1
  Cu  Cu68  1  0.52039800  0.66727000  0.71608600  1
  Cu  Cu69  1  0.02039800  0.33273000  0.78391400  1
  Cu  Cu70  1  0.47960200  0.33273000  0.28391400  1
  Cu  Cu71  1  0.97960200  0.66727000  0.21608600  1
  Cu  Cu72  1  0.64823500  0.12949100  0.82802100  1
  Cu  Cu73  1  0.14823500  0.87050900  0.67197900  1
  Cu  Cu74  1  0.35176500  0.87050900  0.17197900  1
  Cu  Cu75  1  0.85176500  0.12949100  0.32802100  1
  C  C76  1  0.37859400  0.39203700  0.59714000  1
  C  C77  1  0.87859400  0.60796300  0.90286000  1
  C  C78  1  0.62140600  0.60796300  0.40286000  1
  C  C79  1  0.12140600  0.39203700  0.09714000  1
  C  C80  1  0.39908200  0.10831400  0.72543700  1
  C  C81  1  0.89908200  0.89168600  0.77456300  1
  C  C82  1  0.60091800  0.89168600  0.27456300  1
  C  C83  1  0.10091800  0.10831400  0.22543700  1
  C  C84  1  0.57818100  0.24055800  0.57198600  1
  C  C85  1  0.07818100  0.75944200  0.92801400  1
  C  C86  1  0.42181900  0.75944200  0.42801400  1
  C  C87  1  0.92181900  0.24055800  0.07198600  1
  C  C88  1  0.36786300  0.38538700  0.84566900  1
  C  C89  1  0.86786300  0.61461300  0.65433100  1
  C  C90  1  0.63213700  0.61461300  0.15433100  1
  C  C91  1  0.13213700  0.38538700  0.34566900  1
  C  C92  1  0.55375300  0.52054500  0.67898900  1
  C  C93  1  0.05375300  0.47945500  0.82101100  1
  C  C94  1  0.44624700  0.47945500  0.32101100  1
  C  C95  1  0.94624700  0.52054500  0.17898900  1
  C  C96  1  0.55812900  0.23361700  0.83496700  1
  C  C97  1  0.05812900  0.76638300  0.66503300  1
  C  C98  1  0.44187100  0.76638300  0.16503300  1
  C  C99  1  0.94187100  0.23361700  0.33496700  1
  C  C100  1  0.31471500  0.43310400  0.53435700  1
  C  C101  1  0.81471500  0.56689600  0.96564300  1
  C  C102  1  0.68528500  0.56689600  0.46564300  1
  C  C103  1  0.18528500  0.43310400  0.03435700  1
  C  C104  1  0.44452700  0.99278800  0.77556800  1
  C  C105  1  0.94452700  0.00721200  0.72443200  1
  C  C106  1  0.55547300  0.00721200  0.22443200  1
  C  C107  1  0.05547300  0.99278800  0.27556800  1
  C  C108  1  0.31421700  0.09897000  0.68982500  1
  C  C109  1  0.81421700  0.90103000  0.81017500  1
  C  C110  1  0.68578300  0.90103000  0.31017500  1
  C  C111  1  0.18578300  0.09897000  0.18982500  1
