# generated using pymatgen
data_Cu(NiC2)3
_symmetry_space_group_name_H-M   'P 1'
_cell_length_a   7.76356700
_cell_length_b   7.31541300
_cell_length_c   13.17470459
_cell_angle_alpha   56.52922515
_cell_angle_beta   90.00000000
_cell_angle_gamma   90.00000000
_symmetry_Int_Tables_number   1
_chemical_formula_structural   Cu(NiC2)3
_chemical_formula_sum   'Cu2 Ni6 C12'
_cell_volume   624.15746974
_cell_formula_units_Z   2
loop_
 _symmetry_equiv_pos_site_id
 _symmetry_equiv_pos_as_xyz
  1  'x, y, z'
loop_
 _atom_site_type_symbol
 _atom_site_label
 _atom_site_symmetry_multiplicity
 _atom_site_fract_x
 _atom_site_fract_y
 _atom_site_fract_z
 _atom_site_occupancy
  Ni  Ni0  1  0.91936200  0.70857100  0.26665500  1
  Ni  Ni1  1  0.08063800  0.29142900  0.73334500  1
  Ni  Ni2  1  0.58063800  0.70857100  0.76665500  1
  Ni  Ni3  1  0.00000000  0.50000000  0.00000000  1
  Ni  Ni4  1  0.50000000  0.50000000  0.50000000  1
  Ni  Ni5  1  0.41936200  0.29142900  0.23334500  1
  Cu  Cu6  1  0.50000000  0.00000000  0.00000000  1
  Cu  Cu7  1  0.00000000  0.00000000  0.50000000  1
  C  C8  1  0.81881000  0.61462400  0.56609400  1
  C  C9  1  0.31881000  0.38537600  0.93390600  1
  C  C10  1  0.56513600  0.90031100  0.23864200  1
  C  C11  1  0.19101200  0.74877200  0.08025400  1
  C  C12  1  0.68119000  0.61462400  0.06609400  1
  C  C13  1  0.69101200  0.25122800  0.41974600  1
  C  C14  1  0.43486400  0.09968900  0.76135800  1
  C  C15  1  0.30898800  0.74877200  0.58025400  1
  C  C16  1  0.80898800  0.25122800  0.91974600  1
  C  C17  1  0.06513600  0.09968900  0.26135800  1
  C  C18  1  0.18119000  0.38537600  0.43390600  1
  C  C19  1  0.93486400  0.90031100  0.73864200  1
