# generated using pymatgen
data_Cu(NiC2)3
_symmetry_space_group_name_H-M   'P 1'
_cell_length_a   4.20360500
_cell_length_b   14.80810300
_cell_length_c   17.78692900
_cell_angle_alpha   90.00000000
_cell_angle_beta   90.00000000
_cell_angle_gamma   90.00000000
_symmetry_Int_Tables_number   1
_chemical_formula_structural   Cu(NiC2)3
_chemical_formula_sum   'Cu4 Ni12 C24'
_cell_volume   1107.19036547
_cell_formula_units_Z   4
loop_
 _symmetry_equiv_pos_site_id
 _symmetry_equiv_pos_as_xyz
  1  'x, y, z'
loop_
 _atom_site_type_symbol
 _atom_site_label
 _atom_site_symmetry_multiplicity
 _atom_site_fract_x
 _atom_site_fract_y
 _atom_site_fract_z
 _atom_site_occupancy
  Ni  Ni0  1  0.00000000  0.25152100  0.39999200  1
  Ni  Ni1  1  0.50000000  0.24847900  0.89999200  1
  Ni  Ni2  1  0.00000000  0.95096900  0.78147900  1
  Ni  Ni3  1  0.50000000  0.31930100  0.15110600  1
  Ni  Ni4  1  0.00000000  0.74847900  0.60000800  1
  Ni  Ni5  1  0.50000000  0.75152100  0.10000800  1
  Ni  Ni6  1  0.50000000  0.45096900  0.71852100  1
  Ni  Ni7  1  0.00000000  0.04903100  0.21852100  1
  Ni  Ni8  1  0.00000000  0.18069900  0.65110600  1
  Ni  Ni9  1  0.50000000  0.54903100  0.28147900  1
  Ni  Ni10  1  0.50000000  0.68069900  0.84889400  1
  Ni  Ni11  1  0.00000000  0.81930100  0.34889400  1
  Cu  Cu12  1  0.00000000  0.50000000  0.00000000  1
  Cu  Cu13  1  0.00000000  0.50000000  0.50000000  1
  Cu  Cu14  1  0.50000000  0.00000000  0.50000000  1
  Cu  Cu15  1  0.50000000  0.00000000  0.00000000  1
  C  C16  1  0.00000000  0.31347800  0.78987900  1
  C  C17  1  0.50000000  0.59090400  0.57830600  1
  C  C18  1  0.50000000  0.18652200  0.28987900  1
  C  C19  1  0.50000000  0.81347800  0.71012100  1
  C  C20  1  0.00000000  0.60450500  0.74554500  1
  C  C21  1  0.50000000  0.40909600  0.42169400  1
  C  C22  1  0.00000000  0.09090400  0.92169400  1
  C  C23  1  0.50000000  0.10450500  0.75445500  1
  C  C24  1  0.00000000  0.37471400  0.61019000  1
  C  C25  1  0.50000000  0.87471400  0.88981000  1
  C  C26  1  0.00000000  0.68652200  0.21012100  1
  C  C27  1  0.00000000  0.62528600  0.38981000  1
  C  C28  1  0.50000000  0.89549500  0.24554500  1
  C  C29  1  0.00000000  0.68745700  0.97655800  1
  C  C30  1  0.00000000  0.39549500  0.25445500  1
  C  C31  1  0.50000000  0.81254300  0.47655800  1
  C  C32  1  0.00000000  0.97669300  0.60499800  1
  C  C33  1  0.50000000  0.47669300  0.89500200  1
  C  C34  1  0.00000000  0.02330700  0.39500200  1
  C  C35  1  0.50000000  0.12528600  0.11019000  1
  C  C36  1  0.00000000  0.31254300  0.02344200  1
  C  C37  1  0.50000000  0.18745700  0.52344200  1
  C  C38  1  0.50000000  0.52330700  0.10499800  1
  C  C39  1  0.00000000  0.90909600  0.07830600  1
