# generated using pymatgen
data_Cu3(NiC13)5
_symmetry_space_group_name_H-M   'P 1'
_cell_length_a   8.76683100
_cell_length_b   9.03521117
_cell_length_c   29.21228829
_cell_angle_alpha   88.97216416
_cell_angle_beta   98.60199445
_cell_angle_gamma   118.99316814
_symmetry_Int_Tables_number   1
_chemical_formula_structural   Cu3(NiC13)5
_chemical_formula_sum   'Cu6 Ni10 C130'
_cell_volume   1997.17241389
_cell_formula_units_Z   2
loop_
 _symmetry_equiv_pos_site_id
 _symmetry_equiv_pos_as_xyz
  1  'x, y, z'
loop_
 _atom_site_type_symbol
 _atom_site_label
 _atom_site_symmetry_multiplicity
 _atom_site_fract_x
 _atom_site_fract_y
 _atom_site_fract_z
 _atom_site_occupancy
  C  C0  1  0.00035100  0.99941400  0.00047300  1
  C  C1  1  0.50028600  0.75001700  0.25028200  1
  C  C2  1  0.75018300  0.37499500  0.12543700  1
  C  C3  1  0.00171200  0.50030800  0.50071000  1
  C  C4  1  0.25020600  0.12487200  0.37546300  1
  C  C5  1  0.50354100  0.25770700  0.74793100  1
  C  C6  1  0.73892200  0.87289800  0.61984000  1
  C  C7  1  0.01482400  0.96714900  0.72153300  1
  C  C8  1  0.23552400  0.61421300  0.87798400  1
  C  C9  1  0.49920000  0.87751100  0.80776100  1
  Ni  Ni10  1  0.52907700  0.96957900  0.08841200  1
  Ni  Ni11  1  0.02909200  0.72000100  0.33835200  1
  Ni  Ni12  1  0.97086600  0.78002900  0.16197000  1
  Ni  Ni13  1  0.52899100  0.47026000  0.58958800  1
  Ni  Ni14  1  0.47061300  0.52977500  0.41198800  1
  Ni  Ni15  1  0.72272700  0.64967100  0.78788100  1
  Ni  Ni16  1  0.03197600  0.22201700  0.83764900  1
  Ni  Ni17  1  0.97307600  0.28824500  0.66188700  1
  Ni  Ni18  1  0.27511300  0.83294500  0.70978600  1
  Ni  Ni19  1  0.47182400  0.03090400  0.91237700  1
  Cu  Cu20  1  0.22321800  0.40895200  0.03738100  1
  Cu  Cu21  1  0.72317100  0.15893100  0.28741200  1
  Cu  Cu22  1  0.22301000  0.90881200  0.53768800  1
  Cu  Cu23  1  0.27707700  0.34111300  0.21298200  1
  Cu  Cu24  1  0.77719900  0.09122500  0.46298100  1
  Cu  Cu25  1  0.77715600  0.58919200  0.96287500  1
  C  C26  1  0.27075500  0.12859600  0.11254000  1
  C  C27  1  0.82250200  0.05486400  0.18631000  1
  C  C28  1  0.76852300  0.22873000  0.01170100  1
  C  C29  1  0.73190900  0.52021800  0.23854100  1
  C  C30  1  0.67772600  0.69516800  0.06359100  1
  C  C31  1  0.77063200  0.87848300  0.36250000  1
  C  C32  1  0.22898700  0.62134000  0.13758800  1
  C  C33  1  0.32258800  0.80494500  0.43632700  1
  C  C34  1  0.26818900  0.97929100  0.26145400  1
  C  C35  1  0.23235000  0.27011400  0.48880900  1
  C  C36  1  0.17760600  0.44546000  0.31369800  1
  C  C37  1  0.27167200  0.63076500  0.61299000  1
  C  C38  1  0.72908700  0.37144900  0.38763200  1
  C  C39  1  0.82689300  0.56116200  0.68771900  1
  C  C40  1  0.76783000  0.72891500  0.51139500  1
  C  C41  1  0.72787500  0.01630800  0.73931700  1
  C  C42  1  0.67782200  0.19611900  0.56389400  1
  C  C43  1  0.76881600  0.37697900  0.86166200  1
  C  C44  1  0.22751900  0.11772700  0.63900800  1
  C  C45  1  0.32266500  0.30498200  0.93648500  1
  C  C46  1  0.27401200  0.48627800  0.76161200  1
  C  C47  1  0.23245400  0.77055400  0.98859300  1
  C  C48  1  0.17372900  0.93969700  0.81321200  1
  C  C49  1  0.73445700  0.86973500  0.88656800  1
  C  C50  1  0.18140500  0.49002800  0.09975900  1
  C  C51  1  0.20016500  0.59411200  0.99549400  1
  C  C52  1  0.50336300  0.53756100  0.05206800  1
  C  C53  1  0.36721400  0.78845800  0.12821800  1
  C  C54  1  0.34907200  0.88899500  0.02772500  1
  C  C55  1  0.19949200  0.17893300  0.06841600  1
  C  C56  1  0.65952200  0.84355000  0.07305200  1
  C  C57  1  0.43613000  0.13111800  0.10678300  1
  C  C58  1  0.72913400  0.01998900  0.22775400  1
  C  C59  1  0.72103300  0.09083000  0.14709500  1
  C  C60  1  0.68154600  0.24002500  0.34983300  1
  C  C61  1  0.69960700  0.18047200  0.05575800  1
  C  C62  1  0.69972200  0.34390000  0.24560700  1
  C  C63  1  0.55747800  0.51829300  0.23426500  1
  C  C64  1  0.00340500  0.28777200  0.30199500  1
  C  C65  1  0.86727300  0.53854700  0.37824000  1
  C  C66  1  0.94297600  0.23097300  0.01590000  1
  C  C67  1  0.80054900  0.56758600  0.19438200  1
  C  C68  1  0.84861700  0.63893100  0.27765100  1
  C  C69  1  0.77928200  0.65944100  0.10282000  1
  C  C70  1  0.69937200  0.92877100  0.31833300  1
  C  C71  1  0.77132100  0.73004300  0.02210300  1
  C  C72  1  0.15912700  0.59354700  0.32328500  1
  C  C73  1  0.93604100  0.88108600  0.35673900  1
  C  C74  1  0.06381800  0.61909800  0.14335200  1
  C  C75  1  0.84036300  0.90633900  0.17667000  1
  C  C76  1  0.22933500  0.77026600  0.47774300  1
  C  C77  1  0.30029900  0.57085900  0.18160400  1
  C  C78  1  0.22136100  0.84113600  0.39707100  1
  C  C79  1  0.17765200  0.99184000  0.59952100  1
  C  C80  1  0.15168600  0.86075300  0.22227700  1
  C  C81  1  0.19932200  0.93166400  0.30554400  1
  C  C82  1  0.20005700  0.09364500  0.49579600  1
  C  C83  1  0.05769500  0.26796500  0.48445000  1
  C  C84  1  0.13265800  0.96127300  0.12179600  1
  C  C85  1  0.99697900  0.21234900  0.19770200  1
  C  C86  1  0.50389400  0.03791900  0.55218800  1
  C  C87  1  0.36683800  0.28641100  0.63067700  1
  C  C88  1  0.44271100  0.98149600  0.26568400  1
  C  C89  1  0.30022400  0.15560400  0.25439400  1
  C  C90  1  0.30082000  0.31725400  0.44459500  1
  C  C91  1  0.34905900  0.38845400  0.52800400  1
  C  C92  1  0.31748000  0.25991800  0.15022300  1
  C  C93  1  0.27902100  0.40950200  0.35289600  1
  C  C94  1  0.20174400  0.68151100  0.56832500  1
  C  C95  1  0.27143400  0.48089800  0.27225400  1
  C  C96  1  0.65858800  0.34370200  0.57350700  1
  C  C97  1  0.43828100  0.63426200  0.60716100  1
  C  C98  1  0.56385300  0.36913200  0.39335500  1
  C  C99  1  0.34043900  0.65641600  0.42665500  1
  C  C100  1  0.73426500  0.53076400  0.72846500  1
  C  C101  1  0.80033700  0.32096800  0.43169000  1
  C  C102  1  0.72613800  0.59572000  0.64741400  1
  C  C103  1  0.69254300  0.74793300  0.84731200  1
  C  C104  1  0.65124200  0.61069200  0.47220400  1
  C  C105  1  0.69864100  0.68104200  0.55542900  1
  C  C106  1  0.71164300  0.84844200  0.75038200  1
  C  C107  1  0.55085400  0.00554900  0.73371000  1
  C  C108  1  0.63257100  0.71121300  0.37177200  1
  C  C109  1  0.49723200  0.96241400  0.44775500  1
  C  C110  1  0.99442100  0.79330800  0.80209600  1
  C  C111  1  0.87206500  0.04080400  0.87926400  1
  C  C112  1  0.94231900  0.73129800  0.51560600  1
  C  C113  1  0.79989200  0.90550800  0.50449200  1
  C  C114  1  0.80422300  0.06316500  0.69555600  1
  C  C115  1  0.84232700  0.14263600  0.77793300  1
  C  C116  1  0.81741100  0.00987500  0.40017200  1
  C  C117  1  0.77931400  0.16047500  0.60327500  1
  C  C118  1  0.70244000  0.43198800  0.81889600  1
  C  C119  1  0.77175000  0.23117400  0.52250000  1
  C  C120  1  0.16754100  0.09604000  0.82286900  1
  C  C121  1  0.93559600  0.37883600  0.85720700  1
  C  C122  1  0.06130700  0.11617300  0.64567700  1
  C  C123  1  0.84474600  0.41153600  0.67803300  1
  C  C124  1  0.22908700  0.26977100  0.97791600  1
  C  C125  1  0.28900100  0.05846600  0.68241900  1
  C  C126  1  0.22170800  0.34174600  0.89734800  1
  C  C127  1  0.15533000  0.36177100  0.72293000  1
  C  C128  1  0.20144900  0.43958500  0.80575900  1
  C  C129  1  0.05806600  0.76861700  0.98419900  1
  C  C130  1  0.13406000  0.45940200  0.62029100  1
  C  C131  1  0.00419200  0.71721800  0.69814100  1
  C  C132  1  0.44833900  0.49255800  0.76715100  1
  C  C133  1  0.29752100  0.65906000  0.75239100  1
  C  C134  1  0.30188800  0.81809700  0.94447200  1
  C  C135  1  0.31154600  0.75553000  0.65091500  1
  C  C136  1  0.27730300  0.90111300  0.85219400  1
  C  C137  1  0.26620700  0.96754600  0.77162100  1
  C  C138  1  0.56489400  0.86755400  0.89039300  1
  C  C139  1  0.34016700  0.15629300  0.92669300  1
  C  C140  1  0.79851800  0.81740500  0.93111500  1
  C  C141  1  0.65215200  0.11040000  0.97244400  1
  C  C142  1  0.63034400  0.20619100  0.87038600  1
  C  C143  1  0.49714400  0.46204300  0.94824400  1
  C  C144  1  0.80031500  0.40507800  0.00495500  1
  C  C145  1  0.81496300  0.50225800  0.90132800  1
