# generated using pymatgen
data_CuNiC14
_symmetry_space_group_name_H-M   'P 1'
_cell_length_a   9.34917000
_cell_length_b   9.34917000
_cell_length_c   10.85535800
_cell_angle_alpha   90.00000000
_cell_angle_beta   90.00000000
_cell_angle_gamma   90.00000000
_symmetry_Int_Tables_number   1
_chemical_formula_structural   CuNiC14
_chemical_formula_sum   'Cu4 Ni4 C56'
_cell_volume   948.83405622
_cell_formula_units_Z   4
loop_
 _symmetry_equiv_pos_site_id
 _symmetry_equiv_pos_as_xyz
  1  'x, y, z'
loop_
 _atom_site_type_symbol
 _atom_site_label
 _atom_site_symmetry_multiplicity
 _atom_site_fract_x
 _atom_site_fract_y
 _atom_site_fract_z
 _atom_site_occupancy
  C  C0  1  0.70246200  0.00290600  0.92868500  1
  C  C1  1  0.29753800  0.99709400  0.42868500  1
  C  C2  1  0.79753800  0.50290600  0.32131500  1
  C  C3  1  0.20246200  0.49709400  0.82131500  1
  C  C4  1  0.99709400  0.29753800  0.57131500  1
  C  C5  1  0.49709400  0.20246200  0.17868500  1
  C  C6  1  0.00290600  0.70246200  0.07131500  1
  C  C7  1  0.50290600  0.79753800  0.67868500  1
  Ni  Ni8  1  0.86270100  0.13729900  0.25000000  1
  Ni  Ni9  1  0.63729900  0.63729900  0.00000000  1
  Ni  Ni10  1  0.36270100  0.36270100  0.50000000  1
  Ni  Ni11  1  0.13729900  0.86270100  0.75000000  1
  C  C12  1  0.67658100  0.83002700  0.25206100  1
  C  C13  1  0.66997300  0.17658100  0.50206100  1
  C  C14  1  0.82341900  0.33002700  0.99793900  1
  C  C15  1  0.32341900  0.16997300  0.75206100  1
  C  C16  1  0.83002700  0.67658100  0.74793900  1
  C  C17  1  0.16997300  0.32341900  0.24793900  1
  C  C18  1  0.33002700  0.82341900  0.00206100  1
  C  C19  1  0.17658100  0.66997300  0.49793900  1
  Cu  Cu20  1  0.38837600  0.61162400  0.25000000  1
  Cu  Cu21  1  0.61162400  0.38837600  0.75000000  1
  Cu  Cu22  1  0.88837600  0.88837600  0.50000000  1
  Cu  Cu23  1  0.11162400  0.11162400  0.00000000  1
  C  C24  1  0.78278600  0.75918300  0.62830000  1
  C  C25  1  0.00475100  0.95618100  0.61963700  1
  C  C26  1  0.25918300  0.71721400  0.37830000  1
  C  C27  1  0.95618100  0.00475100  0.38036300  1
  C  C28  1  0.21714600  0.48456800  0.22119000  1
  C  C29  1  0.74081700  0.28278600  0.87830000  1
  C  C30  1  0.54381900  0.50475100  0.86963700  1
  C  C31  1  0.23827400  0.75666300  0.60587100  1
  C  C32  1  0.98456800  0.28285400  0.97119000  1
  C  C33  1  0.78285400  0.51543200  0.72119000  1
  C  C34  1  0.31883900  0.00893400  0.73191600  1
  C  C35  1  0.26172600  0.25666300  0.64412900  1
  C  C36  1  0.28285400  0.98456800  0.02881000  1
  C  C37  1  0.49524900  0.45618100  0.63036300  1
  C  C38  1  0.71721400  0.25918300  0.62170000  1
  C  C39  1  0.51543200  0.78285400  0.27881000  1
  C  C40  1  0.49106600  0.81883900  0.98191600  1
  C  C41  1  0.24081700  0.21721400  0.87170000  1
  C  C42  1  0.21721400  0.24081700  0.12830000  1
  C  C43  1  0.45618100  0.49524900  0.36963700  1
  C  C44  1  0.04381900  0.99524900  0.88036300  1
  C  C45  1  0.75666300  0.23827400  0.39412900  1
  C  C46  1  0.18116100  0.50893400  0.51808400  1
  C  C47  1  0.01543200  0.71714600  0.47119000  1
  C  C48  1  0.25666300  0.26172600  0.35587100  1
  C  C49  1  0.00893400  0.31883900  0.26808400  1
  C  C50  1  0.71714600  0.01543200  0.52881000  1
  C  C51  1  0.81883900  0.49106600  0.01808400  1
  C  C52  1  0.68116100  0.99106600  0.23191600  1
  C  C53  1  0.76172600  0.24333700  0.10587100  1
  C  C54  1  0.75918300  0.78278600  0.37170000  1
  C  C55  1  0.28278600  0.74081700  0.12170000  1
  C  C56  1  0.99106600  0.68116100  0.76808400  1
  C  C57  1  0.99524900  0.04381900  0.11963700  1
  C  C58  1  0.24333700  0.76172600  0.89412900  1
  C  C59  1  0.50475100  0.54381900  0.13036300  1
  C  C60  1  0.74333700  0.73827400  0.85587100  1
  C  C61  1  0.73827400  0.74333700  0.14412900  1
  C  C62  1  0.50893400  0.18116100  0.48191600  1
  C  C63  1  0.48456800  0.21714600  0.77881000  1
