# generated using pymatgen
data_Cu8NiC41
_symmetry_space_group_name_H-M   'P 1'
_cell_length_a   5.55392000
_cell_length_b   5.55392000
_cell_length_c   39.36908600
_cell_angle_alpha   90.00000000
_cell_angle_beta   90.00000000
_cell_angle_gamma   90.00000000
_symmetry_Int_Tables_number   1
_chemical_formula_structural   Cu8NiC41
_chemical_formula_sum   'Cu16 Ni2 C82'
_cell_volume   1214.37990415
_cell_formula_units_Z   2
loop_
 _symmetry_equiv_pos_site_id
 _symmetry_equiv_pos_as_xyz
  1  'x, y, z'
loop_
 _atom_site_type_symbol
 _atom_site_label
 _atom_site_symmetry_multiplicity
 _atom_site_fract_x
 _atom_site_fract_y
 _atom_site_fract_z
 _atom_site_occupancy
  Ni  Ni0  1  0.00000000  0.50000000  0.54955900  1
  Ni  Ni1  1  0.50000000  0.00000000  0.45044100  1
  Cu  Cu2  1  0.50000000  0.00000000  0.35068300  1
  Cu  Cu3  1  0.00000000  0.50000000  0.25003500  1
  Cu  Cu4  1  0.00000000  0.50000000  0.35047800  1
  Cu  Cu5  1  0.50000000  0.00000000  0.14999900  1
  Cu  Cu6  1  0.50000000  0.00000000  0.25011000  1
  Cu  Cu7  1  0.00000000  0.50000000  0.04999600  1
  Cu  Cu8  1  0.00000000  0.50000000  0.14999700  1
  Cu  Cu9  1  0.50000000  0.00000000  0.95000400  1
  Cu  Cu10  1  0.50000000  0.00000000  0.04999600  1
  Cu  Cu11  1  0.00000000  0.50000000  0.85000100  1
  Cu  Cu12  1  0.00000000  0.50000000  0.95000400  1
  Cu  Cu13  1  0.50000000  0.00000000  0.74996500  1
  Cu  Cu14  1  0.50000000  0.00000000  0.85000300  1
  Cu  Cu15  1  0.00000000  0.50000000  0.64931700  1
  Cu  Cu16  1  0.00000000  0.50000000  0.74989000  1
  Cu  Cu17  1  0.50000000  0.00000000  0.64952200  1
  C  C18  1  0.50000000  0.00000000  0.54987300  1
  C  C19  1  0.00000000  0.50000000  0.45012700  1
  C  C20  1  0.00000000  0.00000000  0.50000000  1
  C  C21  1  0.50000000  0.50000000  0.40156900  1
  C  C22  1  0.50000000  0.50000000  0.50000000  1
  C  C23  1  0.00000000  0.00000000  0.30043300  1
  C  C24  1  0.00000000  0.00000000  0.40156900  1
  C  C25  1  0.50000000  0.50000000  0.20006700  1
  C  C26  1  0.50000000  0.50000000  0.30043300  1
  C  C27  1  0.00000000  0.00000000  0.10000200  1
  C  C28  1  0.00000000  0.00000000  0.20006700  1
  C  C29  1  0.50000000  0.50000000  0.00000000  1
  C  C30  1  0.50000000  0.50000000  0.10000200  1
  C  C31  1  0.00000000  0.00000000  0.89999800  1
  C  C32  1  0.00000000  0.00000000  0.00000000  1
  C  C33  1  0.50000000  0.50000000  0.79993300  1
  C  C34  1  0.50000000  0.50000000  0.89999800  1
  C  C35  1  0.00000000  0.00000000  0.69956700  1
  C  C36  1  0.00000000  0.00000000  0.79993300  1
  C  C37  1  0.50000000  0.50000000  0.59843100  1
  C  C38  1  0.50000000  0.50000000  0.69956700  1
  C  C39  1  0.00000000  0.00000000  0.59843100  1
  C  C40  1  0.00000000  0.00000000  0.54955600  1
  C  C41  1  0.71935200  0.21935200  0.50152700  1
  C  C42  1  0.21935200  0.28064800  0.49847300  1
  C  C43  1  0.50000000  0.50000000  0.45044400  1
  C  C44  1  0.50000000  0.50000000  0.54955600  1
  C  C45  1  0.22001900  0.72001900  0.40249900  1
  C  C46  1  0.78064800  0.71935200  0.49847300  1
  C  C47  1  0.73565000  0.76435000  0.40096000  1
  C  C48  1  0.28064800  0.78064800  0.50152700  1
  C  C49  1  0.00000000  0.00000000  0.35070200  1
  C  C50  1  0.00000000  0.00000000  0.45044400  1
  C  C51  1  0.73418800  0.23418800  0.30036100  1
  C  C52  1  0.26435000  0.23565000  0.40096000  1
  C  C53  1  0.23477600  0.26522400  0.30011100  1
  C  C54  1  0.77998100  0.27998100  0.40249900  1
  C  C55  1  0.50000000  0.50000000  0.25015300  1
  C  C56  1  0.50000000  0.50000000  0.35070200  1
  C  C57  1  0.23456400  0.73456400  0.20003400  1
  C  C58  1  0.76522400  0.73477600  0.30011100  1
  C  C59  1  0.73462200  0.76537800  0.20001700  1
  C  C60  1  0.26581200  0.76581200  0.30036100  1
  C  C61  1  0.00000000  0.00000000  0.15003700  1
  C  C62  1  0.00000000  0.00000000  0.25015300  1
  C  C63  1  0.73457600  0.23457600  0.10000000  1
  C  C64  1  0.26537800  0.23462200  0.20001700  1
  C  C65  1  0.23460700  0.26539300  0.09999900  1
  C  C66  1  0.76543600  0.26543600  0.20003400  1
  C  C67  1  0.50000000  0.50000000  0.05000600  1
  C  C68  1  0.50000000  0.50000000  0.15003700  1
  C  C69  1  0.23457600  0.73457600  0.00000000  1
  C  C70  1  0.76539300  0.73460700  0.09999900  1
  C  C71  1  0.73457600  0.76542400  0.00000000  1
  C  C72  1  0.26542400  0.76542400  0.10000000  1
  C  C73  1  0.00000000  0.00000000  0.94999400  1
  C  C74  1  0.00000000  0.00000000  0.05000600  1
  C  C75  1  0.73460700  0.23460700  0.90000100  1
  C  C76  1  0.26542400  0.23457600  0.00000000  1
  C  C77  1  0.23457600  0.26542400  0.90000000  1
  C  C78  1  0.76542400  0.26542400  0.00000000  1
  C  C79  1  0.50000000  0.50000000  0.84996300  1
  C  C80  1  0.50000000  0.50000000  0.94999400  1
  C  C81  1  0.23462200  0.73462200  0.79998300  1
  C  C82  1  0.76542400  0.73457600  0.90000000  1
  C  C83  1  0.73456400  0.76543600  0.79996600  1
  C  C84  1  0.26539300  0.76539300  0.90000100  1
  C  C85  1  0.00000000  0.00000000  0.74984700  1
  C  C86  1  0.00000000  0.00000000  0.84996300  1
  C  C87  1  0.73477600  0.23477600  0.69988900  1
  C  C88  1  0.26543600  0.23456400  0.79996600  1
  C  C89  1  0.23418800  0.26581200  0.69963900  1
  C  C90  1  0.76537800  0.26537800  0.79998300  1
  C  C91  1  0.50000000  0.50000000  0.64929800  1
  C  C92  1  0.50000000  0.50000000  0.74984700  1
  C  C93  1  0.23565000  0.73565000  0.59904000  1
  C  C94  1  0.76581200  0.73418800  0.69963900  1
  C  C95  1  0.72001900  0.77998100  0.59750100  1
  C  C96  1  0.26522400  0.76522400  0.69988900  1
  C  C97  1  0.00000000  0.00000000  0.64929800  1
  C  C98  1  0.27998100  0.22001900  0.59750100  1
  C  C99  1  0.76435000  0.26435000  0.59904000  1
