# generated using pymatgen
data_Cu3NiC56
_symmetry_space_group_name_H-M   'P 1'
_cell_length_a   16.67674200
_cell_length_b   5.52132200
_cell_length_c   7.83233625
_cell_angle_alpha   89.41859304
_cell_angle_beta   90.00000000
_cell_angle_gamma   90.00000000
_symmetry_Int_Tables_number   1
_chemical_formula_structural   Cu3NiC56
_chemical_formula_sum   'Cu3 Ni1 C56'
_cell_volume   721.14608344
_cell_formula_units_Z   1
loop_
 _symmetry_equiv_pos_site_id
 _symmetry_equiv_pos_as_xyz
  1  'x, y, z'
loop_
 _atom_site_type_symbol
 _atom_site_label
 _atom_site_symmetry_multiplicity
 _atom_site_fract_x
 _atom_site_fract_y
 _atom_site_fract_z
 _atom_site_occupancy
  Ni  Ni0  1  0.16663300  0.00000000  0.50000000  1
  Cu  Cu1  1  0.83272600  0.00000000  0.00000000  1
  Cu  Cu2  1  0.66756600  0.50000000  0.50000000  1
  Cu  Cu3  1  0.50050900  0.00000000  0.00000000  1
  C  C4  1  0.83376600  0.00000000  0.50000000  1
  C  C5  1  0.33207600  0.50000000  0.50000000  1
  C  C6  1  0.66659000  0.50000000  0.00000000  1
  C  C7  1  0.16576700  0.00000000  0.00000000  1
  C  C8  1  0.50194100  0.00000000  0.50000000  1
  C  C9  1  0.00142400  0.50000000  0.50000000  1
  C  C10  1  0.33203700  0.50000000  0.00000000  1
  C  C11  1  0.99907200  0.50000000  0.00000000  1
  C  C12  1  0.00052500  0.00049900  0.25057000  1
  C  C13  1  0.50016300  0.50064000  0.75071200  1
  C  C14  1  0.83266900  0.50037900  0.24947900  1
  C  C15  1  0.83266900  0.49962100  0.75052100  1
  C  C16  1  0.66670000  0.99988800  0.74992200  1
  C  C17  1  0.66670000  0.00011200  0.25007800  1
  C  C18  1  0.50016300  0.49936000  0.24928800  1
  C  C19  1  0.33292800  0.00045000  0.74938200  1
  C  C20  1  0.33292800  0.99955000  0.25061800  1
  C  C21  1  0.16696300  0.49970500  0.25305700  1
  C  C22  1  0.16696300  0.50029500  0.74694300  1
  C  C23  1  0.00052500  0.99950100  0.74943000  1
  C  C24  1  0.90995500  0.22924000  0.72191200  1
  C  C25  1  0.98734500  0.00000000  0.00000000  1
  C  C26  1  0.90995500  0.77076000  0.27808800  1
  C  C27  1  0.74202500  0.72464000  0.22434800  1
  C  C28  1  0.92540000  0.72305600  0.72498500  1
  C  C29  1  0.82215500  0.50000000  0.50000000  1
  C  C30  1  0.85013600  0.50000000  0.00000000  1
  C  C31  1  0.74202500  0.27536000  0.77565200  1
  C  C32  1  0.92540000  0.27694400  0.27501500  1
  C  C33  1  0.57463500  0.22608600  0.72386300  1
  C  C34  1  0.75721000  0.23016600  0.23119400  1
  C  C35  1  0.65383300  0.00000000  0.00000000  1
  C  C36  1  0.68327800  0.00000000  0.50000000  1
  C  C37  1  0.57463500  0.77391400  0.27613700  1
  C  C38  1  0.75721000  0.76983400  0.76880600  1
  C  C39  1  0.40762300  0.72236700  0.23065700  1
  C  C40  1  0.58937400  0.73019400  0.72977200  1
  C  C41  1  0.48208300  0.50000000  0.50000000  1
  C  C42  1  0.51668600  0.50000000  0.00000000  1
  C  C43  1  0.40762300  0.27763300  0.76934300  1
  C  C44  1  0.58937400  0.26980600  0.27022800  1
  C  C45  1  0.24646900  0.23904300  0.74212000  1
  C  C46  1  0.42297500  0.23138300  0.23289700  1
  C  C47  1  0.31689600  0.00000000  0.00000000  1
  C  C48  1  0.35196400  0.00000000  0.50000000  1
  C  C49  1  0.24646900  0.76095700  0.25788000  1
  C  C50  1  0.42297500  0.76861700  0.76710300  1
  C  C51  1  0.07395200  0.72319800  0.22199000  1
  C  C52  1  0.26132300  0.71867900  0.73629400  1
  C  C53  1  0.14986900  0.50000000  0.50000000  1
  C  C54  1  0.18183900  0.50000000  0.00000000  1
  C  C55  1  0.07395200  0.27680200  0.77801000  1
  C  C56  1  0.26132300  0.28132100  0.26370600  1
  C  C57  1  0.08780000  0.23505000  0.21356200  1
  C  C58  1  0.00642700  0.00000000  0.50000000  1
  C  C59  1  0.08780000  0.76495000  0.78643800  1
