# generated using pymatgen
data_Cu8Ni3C10
_symmetry_space_group_name_H-M   'P 1'
_cell_length_a   10.16800900
_cell_length_b   6.44801700
_cell_length_c   31.94693253
_cell_angle_alpha   86.38052824
_cell_angle_beta   90.00000000
_cell_angle_gamma   90.00000000
_symmetry_Int_Tables_number   1
_chemical_formula_structural   Cu8Ni3C10
_chemical_formula_sum   'Cu32 Ni12 C40'
_cell_volume   2090.37461029
_cell_formula_units_Z   4
loop_
 _symmetry_equiv_pos_site_id
 _symmetry_equiv_pos_as_xyz
  1  'x, y, z'
loop_
 _atom_site_type_symbol
 _atom_site_label
 _atom_site_symmetry_multiplicity
 _atom_site_fract_x
 _atom_site_fract_y
 _atom_site_fract_z
 _atom_site_occupancy
  C  C0  1  0.84002500  0.79526100  0.05897500  1
  C  C1  1  0.65997500  0.29526100  0.55897500  1
  C  C2  1  0.48825900  0.88039700  0.79778500  1
  C  C3  1  0.51174100  0.11960300  0.20221500  1
  C  C4  1  0.98825900  0.61960300  0.70221500  1
  C  C5  1  0.01174100  0.38039700  0.29778500  1
  C  C6  1  0.34002500  0.70473900  0.44102500  1
  C  C7  1  0.15997500  0.20473900  0.94102500  1
  C  C8  1  0.71179600  0.10423300  0.69740900  1
  C  C9  1  0.78820400  0.60423300  0.19740900  1
  C  C10  1  0.27120000  0.14904200  0.53588600  1
  C  C11  1  0.21179600  0.39576700  0.80259100  1
  C  C12  1  0.72880000  0.85095800  0.46411400  1
  C  C13  1  0.28820400  0.89576700  0.30259100  1
  C  C14  1  0.77120000  0.35095800  0.96411400  1
  C  C15  1  0.22880000  0.64904200  0.03588600  1
  Ni  Ni16  1  0.47361200  0.90750500  0.91725100  1
  Ni  Ni17  1  0.46253700  0.60185100  0.63379000  1
  Ni  Ni18  1  0.67783400  0.37863100  0.81505000  1
  Ni  Ni19  1  0.03746300  0.10185100  0.13379000  1
  Ni  Ni20  1  0.52638800  0.09249500  0.08274900  1
  Ni  Ni21  1  0.97361200  0.59249500  0.58274900  1
  Ni  Ni22  1  0.02638800  0.40750500  0.41725100  1
  Ni  Ni23  1  0.53746300  0.39814900  0.36621000  1
  Ni  Ni24  1  0.82216600  0.87863100  0.31505000  1
  Ni  Ni25  1  0.32216600  0.62136900  0.18495000  1
  Ni  Ni26  1  0.96253700  0.89814900  0.86621000  1
  Ni  Ni27  1  0.17783400  0.12136900  0.68495000  1
  Cu  Cu28  1  0.77014300  0.02779900  0.63529900  1
  Cu  Cu29  1  0.50933300  0.01096400  0.70868600  1
  Cu  Cu30  1  0.27496600  0.56354000  0.29536800  1
  Cu  Cu31  1  0.12175500  0.12253000  0.58410000  1
  Cu  Cu32  1  0.37824500  0.62253000  0.08410000  1
  Cu  Cu33  1  0.18112900  0.97281800  0.02238000  1
  Cu  Cu34  1  0.69415800  0.48924200  0.01897500  1
  Cu  Cu35  1  0.16787200  0.05673300  0.25546000  1
  Cu  Cu36  1  0.05139400  0.49334600  0.05878700  1
  Cu  Cu37  1  0.30584200  0.51075800  0.98102500  1
  Cu  Cu38  1  0.87824500  0.87747000  0.41590000  1
  Cu  Cu39  1  0.33212800  0.55673300  0.75546000  1
  Cu  Cu40  1  0.68112900  0.52718200  0.47762000  1
  Cu  Cu41  1  0.81887100  0.02718200  0.97762000  1
  Cu  Cu42  1  0.22985700  0.97220100  0.36470100  1
  Cu  Cu43  1  0.55139400  0.00665400  0.44121300  1
  Cu  Cu44  1  0.62175500  0.37747000  0.91590000  1
  Cu  Cu45  1  0.83212800  0.94326700  0.74454000  1
  Cu  Cu46  1  0.49066700  0.98903600  0.29131400  1
  Cu  Cu47  1  0.77496600  0.93646000  0.20463200  1
  Cu  Cu48  1  0.31887100  0.47281800  0.52238000  1
  Cu  Cu49  1  0.27014300  0.47220100  0.86470100  1
  Cu  Cu50  1  0.44860600  0.99334600  0.55878700  1
  Cu  Cu51  1  0.72985700  0.52779900  0.13529900  1
  Cu  Cu52  1  0.19415800  0.01075800  0.48102500  1
  Cu  Cu53  1  0.22503400  0.06354000  0.79536800  1
  Cu  Cu54  1  0.80584200  0.98924200  0.51897500  1
  Cu  Cu55  1  0.72503400  0.43646000  0.70463200  1
  Cu  Cu56  1  0.00933300  0.48903600  0.79131400  1
  Cu  Cu57  1  0.94860600  0.50665400  0.94121300  1
  Cu  Cu58  1  0.99066700  0.51096400  0.20868600  1
  Cu  Cu59  1  0.66787200  0.44326700  0.24454000  1
  C  C60  1  0.16918500  0.02113200  0.14080300  1
  C  C61  1  0.99127800  0.61683600  0.62723900  1
  C  C62  1  0.08066600  0.28034200  0.69205100  1
  C  C63  1  0.36639500  0.40710600  0.18901900  1
  C  C64  1  0.63360500  0.59289400  0.81098100  1
  C  C65  1  0.91933400  0.71965800  0.30794900  1
  C  C66  1  0.85631200  0.48514900  0.57032000  1
  C  C67  1  0.00872200  0.38316400  0.37276100  1
  C  C68  1  0.45091700  0.51196100  0.39278100  1
  C  C69  1  0.58066600  0.21965800  0.80794900  1
  C  C70  1  0.14368800  0.51485100  0.42968000  1
  C  C71  1  0.13360500  0.90710600  0.68901900  1
  C  C72  1  0.50872200  0.11683600  0.12723900  1
  C  C73  1  0.95091700  0.98803900  0.10721900  1
  C  C74  1  0.41933400  0.78034200  0.19205100  1
  C  C75  1  0.86639500  0.09289400  0.31098100  1
  C  C76  1  0.33081500  0.52113200  0.64080300  1
  C  C77  1  0.83081500  0.97886800  0.85919700  1
  C  C78  1  0.04908300  0.01196100  0.89278100  1
  C  C79  1  0.35631200  0.01485100  0.92968000  1
  C  C80  1  0.54908300  0.48803900  0.60721900  1
  C  C81  1  0.66918500  0.47886800  0.35919700  1
  C  C82  1  0.49127800  0.88316400  0.87276100  1
  C  C83  1  0.64368800  0.98514900  0.07032000  1
