# generated using pymatgen
data_Cu(Ni3C5)5
_symmetry_space_group_name_H-M   'P 1'
_cell_length_a   17.15308432
_cell_length_b   17.15308432
_cell_length_c   17.15308518
_cell_angle_alpha   50.47160449
_cell_angle_beta   50.47160449
_cell_angle_gamma   50.47160481
_symmetry_Int_Tables_number   1
_chemical_formula_structural   Cu(Ni3C5)5
_chemical_formula_sum   'Cu4 Ni60 C100'
_cell_volume   2766.11614003
_cell_formula_units_Z   4
loop_
 _symmetry_equiv_pos_site_id
 _symmetry_equiv_pos_as_xyz
  1  'x, y, z'
loop_
 _atom_site_type_symbol
 _atom_site_label
 _atom_site_symmetry_multiplicity
 _atom_site_fract_x
 _atom_site_fract_y
 _atom_site_fract_z
 _atom_site_occupancy
  Ni  Ni0  1  0.27292900  0.11764300  0.42086600  1
  Ni  Ni1  1  0.20009700  0.02278400  0.72243800  1
  Ni  Ni2  1  0.51603000  0.17340300  0.32106600  1
  Ni  Ni3  1  0.41265100  0.11250700  0.60718900  1
  Ni  Ni4  1  0.20729000  0.07657700  0.90783900  1
  Ni  Ni5  1  0.69619600  0.20098900  0.35341900  1
  Ni  Ni6  1  0.50512300  0.01309000  0.81255000  1
  Ni  Ni7  1  0.47273600  0.31828500  0.61845300  1
  Ni  Ni8  1  0.97653300  0.11230600  0.31760000  1
  Ni  Ni9  1  0.75077600  0.09479900  0.59976900  1
  Ni  Ni10  1  0.40974200  0.20799300  0.91542500  1
  Ni  Ni11  1  0.71765500  0.01746000  0.87078500  1
  Ni  Ni12  1  0.71924400  0.37365800  0.51848900  1
  Ni  Ni13  1  0.99416300  0.15468400  0.50379700  1
  Ni  Ni14  1  0.61258700  0.30883700  0.81682100  1
  Ni  Ni15  1  0.42086600  0.27292900  0.11764300  1
  Ni  Ni16  1  0.92191400  0.09876400  0.79043400  1
  Ni  Ni17  1  0.89764700  0.39348400  0.55632700  1
  Ni  Ni18  1  0.72243800  0.20009700  0.02278400  1
  Ni  Ni19  1  0.67916900  0.51482200  0.81566000  1
  Ni  Ni20  1  0.17340300  0.32106600  0.51603000  1
  Ni  Ni21  1  0.96959400  0.27940300  0.80193800  1
  Ni  Ni22  1  0.60718900  0.41265100  0.11250700  1
  Ni  Ni23  1  0.90783900  0.20729000  0.07657700  1
  Ni  Ni24  1  0.91736100  0.56912200  0.71806100  1
  Ni  Ni25  1  0.20098900  0.35341900  0.69619600  1
  Ni  Ni26  1  0.81255000  0.50512300  0.01309000  1
  Ni  Ni27  1  0.61845300  0.47273600  0.31828500  1
  Ni  Ni28  1  0.11230600  0.31760000  0.97653300  1
  Ni  Ni29  1  0.09479900  0.59976900  0.75077600  1
  Ni  Ni30  1  0.91542500  0.40974200  0.20799300  1
  Ni  Ni31  1  0.87078500  0.71765500  0.01746000  1
  Ni  Ni32  1  0.37365800  0.51848900  0.71924400  1
  Ni  Ni33  1  0.15468400  0.50379700  0.99416300  1
  Ni  Ni34  1  0.81682100  0.61258700  0.30883700  1
  Ni  Ni35  1  0.11764300  0.42086600  0.27292900  1
  Ni  Ni36  1  0.09876400  0.79043400  0.92191400  1
  Ni  Ni37  1  0.39348400  0.55632700  0.89764700  1
  Ni  Ni38  1  0.02278400  0.72243800  0.20009700  1
  Ni  Ni39  1  0.81566000  0.67916900  0.51482200  1
  Ni  Ni40  1  0.32106600  0.51603000  0.17340300  1
  Ni  Ni41  1  0.27940300  0.80193800  0.96959400  1
  Ni  Ni42  1  0.11250700  0.60718900  0.41265100  1
  Ni  Ni43  1  0.07657700  0.90783900  0.20729000  1
  Ni  Ni44  1  0.56912200  0.71806100  0.91736100  1
  Ni  Ni45  1  0.35341900  0.69619600  0.20098900  1
  Ni  Ni46  1  0.01309000  0.81255000  0.50512300  1
  Ni  Ni47  1  0.31828500  0.61845300  0.47273600  1
  Ni  Ni48  1  0.31760000  0.97653300  0.11230600  1
  Ni  Ni49  1  0.59976900  0.75077600  0.09479900  1
  Ni  Ni50  1  0.20799300  0.91542500  0.40974200  1
  Ni  Ni51  1  0.01746000  0.87078500  0.71765500  1
  Ni  Ni52  1  0.51848900  0.71924400  0.37365800  1
  Ni  Ni53  1  0.50379700  0.99416300  0.15468400  1
  Ni  Ni54  1  0.30883700  0.81682100  0.61258700  1
  Ni  Ni55  1  0.79043400  0.92191400  0.09876400  1
  Ni  Ni56  1  0.55632700  0.89764700  0.39348400  1
  Ni  Ni57  1  0.51482200  0.81566000  0.67916900  1
  Ni  Ni58  1  0.80193800  0.96959400  0.27940300  1
  Ni  Ni59  1  0.71806100  0.91736100  0.56912200  1
  Cu  Cu60  1  0.20014300  0.20014300  0.20014300  1
  Cu  Cu61  1  0.40017900  0.40017900  0.40017900  1
  Cu  Cu62  1  0.59998400  0.59998400  0.59998400  1
  Cu  Cu63  1  0.79954400  0.79954400  0.79954400  1
  C  C64  1  0.07453500  0.07453500  0.07453500  1
  C  C65  1  0.16484000  0.16484000  0.16484000  1
  C  C66  1  0.03707000  0.03975800  0.44348200  1
  C  C67  1  0.44348200  0.03707000  0.03975800  1
  C  C68  1  0.26839800  0.09460900  0.27183800  1
  C  C69  1  0.28117400  0.28117400  0.28117400  1
  C  C70  1  0.44551600  0.07047200  0.33046300  1
  C  C71  1  0.27391300  0.16018500  0.51794000  1
  C  C72  1  0.65039900  0.03097100  0.27523100  1
  C  C73  1  0.83813800  0.10800500  0.10831500  1
  C  C74  1  0.10800500  0.10831500  0.83813800  1
  C  C75  1  0.36515100  0.36515100  0.36515100  1
  C  C76  1  0.24384500  0.24389200  0.63430300  1
  C  C77  1  0.63430300  0.24384500  0.24389200  1
  C  C78  1  0.67160700  0.05765900  0.42764600  1
  C  C79  1  0.47046200  0.29510300  0.47016300  1
  C  C80  1  0.86752500  0.12999400  0.24835300  1
  C  C81  1  0.38220800  0.12639600  0.73943700  1
  C  C82  1  0.63734200  0.04190000  0.63852400  1
  C  C83  1  0.32313200  0.07419400  0.95163000  1
  C  C84  1  0.82853300  0.07455100  0.45283600  1
  C  C85  1  0.48036400  0.48036400  0.48036400  1
  C  C86  1  0.64532100  0.26892400  0.53062700  1
  C  C87  1  0.52158500  0.14391100  0.78296100  1
  C  C88  1  0.47171400  0.35820800  0.71771500  1
  C  C89  1  0.85271200  0.22945100  0.47588000  1
  C  C90  1  0.09460900  0.27183800  0.26839800  1
  C  C91  1  0.27183800  0.26839800  0.09460900  1
  C  C92  1  0.92840100  0.04265800  0.67280000  1
  C  C93  1  0.54520200  0.18124200  0.92184600  1
  C  C94  1  0.56493200  0.56493200  0.56493200  1
  C  C95  1  0.43938200  0.43796100  0.84203600  1
  C  C96  1  0.84203600  0.43938200  0.43796100  1
  C  C97  1  0.75573000  0.11646800  0.87400400  1
  C  C98  1  0.87584200  0.25038100  0.62697100  1
  C  C99  1  0.67047900  0.49458000  0.66974600  1
  C  C100  1  0.07047200  0.33046300  0.44551600  1
  C  C101  1  0.58020800  0.32040300  0.94990700  1
  C  C102  1  0.85014500  0.22441800  0.85044700  1
  C  C103  1  0.51794000  0.27391300  0.16018500  1
  C  C104  1  0.03097100  0.27523100  0.65039900  1
  C  C105  1  0.68079100  0.68079100  0.68079100  1
  C  C106  1  0.84977700  0.47052500  0.72979300  1
  C  C107  1  0.72157000  0.34535700  0.98446600  1
  C  C108  1  0.67152400  0.55662900  0.91981700  1
  C  C109  1  0.05765900  0.42764600  0.67160700  1
  C  C110  1  0.29510300  0.47016300  0.47046200  1
  C  C111  1  0.47016300  0.47046200  0.29510300  1
  C  C112  1  0.12999400  0.24835300  0.86752500  1
  C  C113  1  0.73943700  0.38220800  0.12639600  1
  C  C114  1  0.76477900  0.76477900  0.76477900  1
  C  C115  1  0.63852400  0.63734200  0.04190000  1
  C  C116  1  0.04190000  0.63852400  0.63734200  1
  C  C117  1  0.95163000  0.32313200  0.07419400  1
  C  C118  1  0.07455100  0.45283600  0.82853300  1
  C  C119  1  0.87148800  0.69465500  0.86862600  1
  C  C120  1  0.26892400  0.53062700  0.64532100  1
  C  C121  1  0.78296100  0.52158500  0.14391100  1
  C  C122  1  0.03975800  0.44348200  0.03707000  1
  C  C123  1  0.71771500  0.47171400  0.35820800  1
  C  C124  1  0.22945100  0.47588000  0.85271200  1
  C  C125  1  0.87819600  0.87819600  0.87819600  1
  C  C126  1  0.04265800  0.67280000  0.92840100  1
  C  C127  1  0.92184600  0.54520200  0.18124200  1
  C  C128  1  0.87400400  0.75573000  0.11646800  1
  C  C129  1  0.25038100  0.62697100  0.87584200  1
  C  C130  1  0.49458000  0.66974600  0.67047900  1
  C  C131  1  0.66974600  0.67047900  0.49458000  1
  C  C132  1  0.33046300  0.44551600  0.07047200  1
  C  C133  1  0.94990700  0.58020800  0.32040300  1
  C  C134  1  0.94598100  0.94598100  0.94598100  1
  C  C135  1  0.85044700  0.85014500  0.22441800  1
  C  C136  1  0.22441800  0.85044700  0.85014500  1
  C  C137  1  0.16018500  0.51794000  0.27391300  1
  C  C138  1  0.27523100  0.65039900  0.03097100  1
  C  C139  1  0.10831500  0.83813800  0.10800500  1
  C  C140  1  0.47052500  0.72979300  0.84977700  1
  C  C141  1  0.98446600  0.72157000  0.34535700  1
  C  C142  1  0.24389200  0.63430300  0.24384500  1
  C  C143  1  0.91981700  0.67152400  0.55662900  1
  C  C144  1  0.42764600  0.67160700  0.05765900  1
  C  C145  1  0.24835300  0.86752500  0.12999400  1
  C  C146  1  0.12639600  0.73943700  0.38220800  1
  C  C147  1  0.07419400  0.95163000  0.32313200  1
  C  C148  1  0.45283600  0.82853300  0.07455100  1
  C  C149  1  0.69465500  0.86862600  0.87148800  1
  C  C150  1  0.86862600  0.87148800  0.69465500  1
  C  C151  1  0.53062700  0.64532100  0.26892400  1
  C  C152  1  0.14391100  0.78296100  0.52158500  1
  C  C153  1  0.35820800  0.71771500  0.47171400  1
  C  C154  1  0.47588000  0.85271200  0.22945100  1
  C  C155  1  0.67280000  0.92840100  0.04265800  1
  C  C156  1  0.18124200  0.92184600  0.54520200  1
  C  C157  1  0.43796100  0.84203600  0.43938200  1
  C  C158  1  0.11646800  0.87400400  0.75573000  1
  C  C159  1  0.62697100  0.87584200  0.25038100  1
  C  C160  1  0.32040300  0.94990700  0.58020800  1
  C  C161  1  0.72979300  0.84977700  0.47052500  1
  C  C162  1  0.34535700  0.98446600  0.72157000  1
  C  C163  1  0.55662900  0.91981700  0.67152400  1
