# generated using pymatgen
data_Cu5(NiC6)3
_symmetry_space_group_name_H-M   'P 1'
_cell_length_a   7.60124948
_cell_length_b   7.60124948
_cell_length_c   12.98164300
_cell_angle_alpha   90.00000000
_cell_angle_beta   90.00000000
_cell_angle_gamma   119.99999547
_symmetry_Int_Tables_number   1
_chemical_formula_structural   Cu5(NiC6)3
_chemical_formula_sum   'Cu5 Ni3 C18'
_cell_volume   649.57647271
_cell_formula_units_Z   1
loop_
 _symmetry_equiv_pos_site_id
 _symmetry_equiv_pos_as_xyz
  1  'x, y, z'
loop_
 _atom_site_type_symbol
 _atom_site_label
 _atom_site_symmetry_multiplicity
 _atom_site_fract_x
 _atom_site_fract_y
 _atom_site_fract_z
 _atom_site_occupancy
  Ni  Ni0  1  0.00000000  0.00000000  0.50000000  1
  Ni  Ni1  1  0.66666700  0.33333300  0.35832800  1
  Ni  Ni2  1  0.66666700  0.33333300  0.64167200  1
  Cu  Cu3  1  0.00000000  0.00000000  0.83430100  1
  Cu  Cu4  1  0.00000000  0.00000000  0.16569900  1
  Cu  Cu5  1  0.33333300  0.66666700  0.00000000  1
  Cu  Cu6  1  0.33333300  0.66666700  0.33414700  1
  Cu  Cu7  1  0.33333300  0.66666700  0.66585300  1
  C  C8  1  0.97227000  0.24714400  0.00000000  1
  C  C9  1  0.97913100  0.25412600  0.32661200  1
  C  C10  1  0.97913100  0.25412600  0.67338800  1
  C  C11  1  0.75285600  0.72512700  0.00000000  1
  C  C12  1  0.74587400  0.72500500  0.32661200  1
  C  C13  1  0.74587400  0.72500500  0.67338800  1
  C  C14  1  0.05659400  0.63657500  0.83541100  1
  C  C15  1  0.05659400  0.63657500  0.16458900  1
  C  C16  1  0.04638500  0.61354500  0.50000000  1
  C  C17  1  0.27487300  0.02773000  0.00000000  1
  C  C18  1  0.27499500  0.02086900  0.32661200  1
  C  C19  1  0.27499500  0.02086900  0.67338800  1
  C  C20  1  0.57998100  0.94340600  0.83541100  1
  C  C21  1  0.57998100  0.94340600  0.16458900  1
  C  C22  1  0.56716100  0.95361500  0.50000000  1
  C  C23  1  0.36342500  0.42001900  0.83541100  1
  C  C24  1  0.36342500  0.42001900  0.16458900  1
  C  C25  1  0.38645500  0.43283900  0.50000000  1
