# generated using pymatgen
data_Cu8Ni2C3
_symmetry_space_group_name_H-M   'P 1'
_cell_length_a   6.61750148
_cell_length_b   6.61750148
_cell_length_c   8.69985974
_cell_angle_alpha   72.94830647
_cell_angle_beta   72.94830647
_cell_angle_gamma   78.32570231
_symmetry_Int_Tables_number   1
_chemical_formula_structural   Cu8Ni2C3
_chemical_formula_sum   'Cu16 Ni4 C6'
_cell_volume   345.38603247
_cell_formula_units_Z   2
loop_
 _symmetry_equiv_pos_site_id
 _symmetry_equiv_pos_as_xyz
  1  'x, y, z'
loop_
 _atom_site_type_symbol
 _atom_site_label
 _atom_site_symmetry_multiplicity
 _atom_site_fract_x
 _atom_site_fract_y
 _atom_site_fract_z
 _atom_site_occupancy
  C  C0  1  0.58605700  0.69533500  0.56215900  1
  C  C1  1  0.41394300  0.30466500  0.43784100  1
  C  C2  1  0.30466500  0.41394300  0.93784100  1
  C  C3  1  0.69533500  0.58605700  0.06215900  1
  C  C4  1  0.06117300  0.93882700  0.25000000  1
  C  C5  1  0.93882700  0.06117300  0.75000000  1
  Ni  Ni6  1  0.60022500  0.03185500  0.18602700  1
  Ni  Ni7  1  0.39977500  0.96814500  0.81397300  1
  Ni  Ni8  1  0.96814500  0.39977500  0.31397300  1
  Ni  Ni9  1  0.03185500  0.60022500  0.68602700  1
  Cu  Cu10  1  0.48152200  0.73897000  0.86874300  1
  Cu  Cu11  1  0.26103000  0.51847800  0.63125700  1
  Cu  Cu12  1  0.51847800  0.26103000  0.13125700  1
  Cu  Cu13  1  0.73897000  0.48152200  0.36874300  1
  Cu  Cu14  1  0.32606100  0.99983400  0.65990200  1
  Cu  Cu15  1  0.00016600  0.67393900  0.84009800  1
  Cu  Cu16  1  0.67393900  0.00016600  0.34009800  1
  Cu  Cu17  1  0.99983400  0.32606100  0.15990200  1
  Cu  Cu18  1  0.56935700  0.10527900  0.77672800  1
  Cu  Cu19  1  0.89472100  0.43064300  0.72327200  1
  Cu  Cu20  1  0.03666700  0.21159200  0.44075200  1
  Cu  Cu21  1  0.78840800  0.96333300  0.05924800  1
  Cu  Cu22  1  0.96333300  0.78840800  0.55924800  1
  Cu  Cu23  1  0.21159200  0.03666700  0.94075200  1
  Cu  Cu24  1  0.10527900  0.56935700  0.27672800  1
  Cu  Cu25  1  0.43064300  0.89472100  0.22327200  1
