# generated using pymatgen
data_CuNiC3
_symmetry_space_group_name_H-M   'P 1'
_cell_length_a   6.35869100
_cell_length_b   6.80839300
_cell_length_c   9.88712400
_cell_angle_alpha   90.00000000
_cell_angle_beta   90.00000000
_cell_angle_gamma   90.00000000
_symmetry_Int_Tables_number   1
_chemical_formula_structural   CuNiC3
_chemical_formula_sum   'Cu8 Ni8 C24'
_cell_volume   428.03799240
_cell_formula_units_Z   8
loop_
 _symmetry_equiv_pos_site_id
 _symmetry_equiv_pos_as_xyz
  1  'x, y, z'
loop_
 _atom_site_type_symbol
 _atom_site_label
 _atom_site_symmetry_multiplicity
 _atom_site_fract_x
 _atom_site_fract_y
 _atom_site_fract_z
 _atom_site_occupancy
  C  C0  1  0.00000000  0.50000000  0.00000000  1
  C  C1  1  0.00000000  0.00000000  0.00000000  1
  C  C2  1  0.00000000  0.50000000  0.50000000  1
  C  C3  1  0.00000000  0.00000000  0.50000000  1
  C  C4  1  0.34116300  0.50000000  0.75000000  1
  C  C5  1  0.65883700  0.00000000  0.25000000  1
  C  C6  1  0.65883700  0.50000000  0.25000000  1
  C  C7  1  0.34116300  0.00000000  0.75000000  1
  Ni  Ni8  1  0.83844500  0.60648700  0.72412400  1
  Ni  Ni9  1  0.16155500  0.10648700  0.27587600  1
  Ni  Ni10  1  0.83844500  0.39351300  0.77587600  1
  Ni  Ni11  1  0.16155500  0.89351300  0.22412400  1
  Ni  Ni12  1  0.16155500  0.39351300  0.27587600  1
  Ni  Ni13  1  0.83844500  0.89351300  0.72412400  1
  Ni  Ni14  1  0.16155500  0.60648700  0.22412400  1
  Ni  Ni15  1  0.83844500  0.10648700  0.77587600  1
  Cu  Cu16  1  0.57930000  0.75000000  0.52492800  1
  Cu  Cu17  1  0.42070000  0.25000000  0.47507200  1
  Cu  Cu18  1  0.57930000  0.25000000  0.97507200  1
  Cu  Cu19  1  0.42070000  0.75000000  0.02492800  1
  Cu  Cu20  1  0.38983000  0.75000000  0.47548700  1
  Cu  Cu21  1  0.61017000  0.25000000  0.52451300  1
  Cu  Cu22  1  0.38983000  0.25000000  0.02451300  1
  Cu  Cu23  1  0.61017000  0.75000000  0.97548700  1
  C  C24  1  0.73927100  0.75000000  0.43988300  1
  C  C25  1  0.26072900  0.25000000  0.56011700  1
  C  C26  1  0.73927100  0.25000000  0.06011700  1
  C  C27  1  0.26072900  0.75000000  0.93988300  1
  C  C28  1  0.61819900  0.75000000  0.65698300  1
  C  C29  1  0.38180100  0.25000000  0.34301700  1
  C  C30  1  0.61819900  0.25000000  0.84301700  1
  C  C31  1  0.38180100  0.75000000  0.15698300  1
  C  C32  1  0.24077500  0.75000000  0.57156100  1
  C  C33  1  0.75922500  0.25000000  0.42843900  1
  C  C34  1  0.24077500  0.25000000  0.92843900  1
  C  C35  1  0.75922500  0.75000000  0.07156100  1
  C  C36  1  0.93711000  0.50000000  0.75000000  1
  C  C37  1  0.06289000  0.00000000  0.25000000  1
  C  C38  1  0.06289000  0.50000000  0.25000000  1
  C  C39  1  0.93711000  0.00000000  0.75000000  1
