# generated using pymatgen
data_Cu2Ni2C
_symmetry_space_group_name_H-M   'P 1'
_cell_length_a   5.76624000
_cell_length_b   7.55094200
_cell_length_c   33.25757100
_cell_angle_alpha   90.00000000
_cell_angle_beta   90.00000000
_cell_angle_gamma   90.00000000
_symmetry_Int_Tables_number   1
_chemical_formula_structural   Cu2Ni2C
_chemical_formula_sum   'Cu32 Ni32 C16'
_cell_volume   1448.05272674
_cell_formula_units_Z   16
loop_
 _symmetry_equiv_pos_site_id
 _symmetry_equiv_pos_as_xyz
  1  'x, y, z'
loop_
 _atom_site_type_symbol
 _atom_site_label
 _atom_site_symmetry_multiplicity
 _atom_site_fract_x
 _atom_site_fract_y
 _atom_site_fract_z
 _atom_site_occupancy
  C  C0  1  0.89276400  0.75000000  0.39620400  1
  C  C1  1  0.10723600  0.75000000  0.89620400  1
  C  C2  1  0.59263900  0.75000000  0.33748100  1
  C  C3  1  0.10723600  0.25000000  0.60379600  1
  C  C4  1  0.59263900  0.25000000  0.16251900  1
  C  C5  1  0.40736100  0.75000000  0.83748100  1
  C  C6  1  0.89276400  0.25000000  0.10379600  1
  C  C7  1  0.40736100  0.25000000  0.66251900  1
  C  C8  1  0.35584200  0.25000000  0.45503300  1
  C  C9  1  0.64415800  0.25000000  0.95503300  1
  C  C10  1  0.02593000  0.75000000  0.19579300  1
  C  C11  1  0.97407000  0.25000000  0.80420700  1
  C  C12  1  0.64415800  0.75000000  0.54496700  1
  C  C13  1  0.02593000  0.25000000  0.30420700  1
  C  C14  1  0.35584200  0.75000000  0.04496700  1
  C  C15  1  0.97407000  0.75000000  0.69579300  1
  Ni  Ni16  1  0.18985200  0.08098900  0.30770400  1
  Ni  Ni17  1  0.18985200  0.58098900  0.19229600  1
  Ni  Ni18  1  0.73084800  0.75000000  0.49929300  1
  Ni  Ni19  1  0.10899200  0.25000000  0.76244000  1
  Ni  Ni20  1  0.26026000  0.57943700  0.06803100  1
  Ni  Ni21  1  0.73974000  0.42056300  0.93196900  1
  Ni  Ni22  1  0.26026000  0.92056300  0.06803100  1
  Ni  Ni23  1  0.89100800  0.25000000  0.26244000  1
  Ni  Ni24  1  0.81014800  0.58098900  0.69229600  1
  Ni  Ni25  1  0.63013300  0.75000000  0.04326900  1
  Ni  Ni26  1  0.26915200  0.25000000  0.50070700  1
  Ni  Ni27  1  0.26026000  0.07943700  0.43196900  1
  Ni  Ni28  1  0.18985200  0.91901100  0.19229600  1
  Ni  Ni29  1  0.73974000  0.92056300  0.56803100  1
  Ni  Ni30  1  0.36986700  0.75000000  0.54326900  1
  Ni  Ni31  1  0.36986700  0.25000000  0.95673100  1
  Ni  Ni32  1  0.73974000  0.57943700  0.56803100  1
  Ni  Ni33  1  0.73974000  0.07943700  0.93196900  1
  Ni  Ni34  1  0.10899200  0.75000000  0.73756000  1
  Ni  Ni35  1  0.81014800  0.08098900  0.80770400  1
  Ni  Ni36  1  0.63013300  0.25000000  0.45673100  1
  Ni  Ni37  1  0.26026000  0.42056300  0.43196900  1
  Ni  Ni38  1  0.83445400  0.25000000  0.33838900  1
  Ni  Ni39  1  0.16554600  0.25000000  0.83838900  1
  Ni  Ni40  1  0.81014800  0.41901100  0.80770400  1
  Ni  Ni41  1  0.26915200  0.75000000  0.99929300  1
  Ni  Ni42  1  0.89100800  0.75000000  0.23756000  1
  Ni  Ni43  1  0.16554600  0.75000000  0.66161100  1
  Ni  Ni44  1  0.81014800  0.91901100  0.69229600  1
  Ni  Ni45  1  0.18985200  0.41901100  0.30770400  1
  Ni  Ni46  1  0.73084800  0.25000000  0.00070700  1
  Ni  Ni47  1  0.83445400  0.75000000  0.16161100  1
  Cu  Cu48  1  0.16909900  0.25000000  0.96036800  1
  Cu  Cu49  1  0.22422100  0.25000000  0.53473300  1
  Cu  Cu50  1  0.80967000  0.04272500  0.58563600  1
  Cu  Cu51  1  0.77921200  0.25000000  0.23324800  1
  Cu  Cu52  1  0.68545600  0.96050900  0.81071100  1
  Cu  Cu53  1  0.68192900  0.75000000  0.13854500  1
  Cu  Cu54  1  0.80967000  0.45727500  0.58563600  1
  Cu  Cu55  1  0.22422100  0.75000000  0.96526700  1
  Cu  Cu56  1  0.31454400  0.46050900  0.18928900  1
  Cu  Cu57  1  0.19033000  0.54272500  0.41436400  1
  Cu  Cu58  1  0.68545600  0.46050900  0.68928900  1
  Cu  Cu59  1  0.80967000  0.54272500  0.91436400  1
  Cu  Cu60  1  0.68545600  0.53949100  0.81071100  1
  Cu  Cu61  1  0.83090100  0.75000000  0.03963200  1
  Cu  Cu62  1  0.77577900  0.75000000  0.46526700  1
  Cu  Cu63  1  0.80967000  0.95727500  0.91436400  1
  Cu  Cu64  1  0.83090100  0.25000000  0.46036800  1
  Cu  Cu65  1  0.22078800  0.25000000  0.73324800  1
  Cu  Cu66  1  0.31807100  0.75000000  0.63854500  1
  Cu  Cu67  1  0.19033000  0.95727500  0.41436400  1
  Cu  Cu68  1  0.31454400  0.53949100  0.31071100  1
  Cu  Cu69  1  0.22078800  0.75000000  0.76675200  1
  Cu  Cu70  1  0.31454400  0.96050900  0.31071100  1
  Cu  Cu71  1  0.16909900  0.75000000  0.53963200  1
  Cu  Cu72  1  0.19033000  0.45727500  0.08563600  1
  Cu  Cu73  1  0.19033000  0.04272500  0.08563600  1
  Cu  Cu74  1  0.68192900  0.25000000  0.36145500  1
  Cu  Cu75  1  0.77921200  0.75000000  0.26675200  1
  Cu  Cu76  1  0.31807100  0.25000000  0.86145500  1
  Cu  Cu77  1  0.31454400  0.03949100  0.18928900  1
  Cu  Cu78  1  0.77577900  0.25000000  0.03473300  1
  Cu  Cu79  1  0.68545600  0.03949100  0.68928900  1
