# generated using pymatgen
data_Cu16NiC12
_symmetry_space_group_name_H-M   'P 1'
_cell_length_a   10.82985341
_cell_length_b   10.82985341
_cell_length_c   14.65194900
_cell_angle_alpha   90.00000000
_cell_angle_beta   90.00000000
_cell_angle_gamma   119.99999639
_symmetry_Int_Tables_number   1
_chemical_formula_structural   Cu16NiC12
_chemical_formula_sum   'Cu32 Ni2 C24'
_cell_volume   1488.23393108
_cell_formula_units_Z   2
loop_
 _symmetry_equiv_pos_site_id
 _symmetry_equiv_pos_as_xyz
  1  'x, y, z'
loop_
 _atom_site_type_symbol
 _atom_site_label
 _atom_site_symmetry_multiplicity
 _atom_site_fract_x
 _atom_site_fract_y
 _atom_site_fract_z
 _atom_site_occupancy
  C  C0  1  0.10140600  0.49109900  0.75075500  1
  C  C1  1  0.10174100  0.49054700  0.00000000  1
  C  C2  1  0.10140600  0.49109900  0.24924500  1
  C  C3  1  0.10140400  0.49244600  0.50000000  1
  C  C4  1  0.38969200  0.89859400  0.75075500  1
  C  C5  1  0.38880700  0.89825900  0.00000000  1
  C  C6  1  0.39104200  0.89859600  0.50000000  1
  C  C7  1  0.38969200  0.89859400  0.24924500  1
  C  C8  1  0.50890100  0.61030800  0.75075500  1
  C  C9  1  0.50945300  0.61119300  0.00000000  1
  C  C10  1  0.50890100  0.61030800  0.24924500  1
  C  C11  1  0.50755400  0.60895800  0.50000000  1
  C  C12  1  0.48711300  0.38514700  0.87555500  1
  C  C13  1  0.48711300  0.38514700  0.12444500  1
  C  C14  1  0.48552500  0.38427500  0.37504200  1
  C  C15  1  0.48552500  0.38427500  0.62495800  1
  C  C16  1  0.61485300  0.10196500  0.12444500  1
  C  C17  1  0.61485300  0.10196500  0.87555500  1
  C  C18  1  0.61572500  0.10125000  0.37504200  1
  C  C19  1  0.61572500  0.10125000  0.62495800  1
  C  C20  1  0.89803500  0.51288700  0.87555500  1
  C  C21  1  0.89803500  0.51288700  0.12444500  1
  C  C22  1  0.89875000  0.51447500  0.37504200  1
  C  C23  1  0.89875000  0.51447500  0.62495800  1
  Ni  Ni24  1  0.00000000  0.00000000  0.36624400  1
  Ni  Ni25  1  0.00000000  0.00000000  0.63375600  1
  Cu  Cu26  1  0.06622500  0.73038600  0.75112700  1
  Cu  Cu27  1  0.06652800  0.72929900  0.00000000  1
  Cu  Cu28  1  0.06622500  0.73038600  0.24887300  1
  Cu  Cu29  1  0.06619400  0.73307900  0.50000000  1
  Cu  Cu30  1  0.33333300  0.66666700  0.87472900  1
  Cu  Cu31  1  0.33333300  0.66666700  0.12527100  1
  Cu  Cu32  1  0.33333300  0.66666700  0.37529100  1
  Cu  Cu33  1  0.33333300  0.66666700  0.62470900  1
  Cu  Cu34  1  0.26961400  0.33584000  0.75112700  1
  Cu  Cu35  1  0.27070100  0.33722900  0.00000000  1
  Cu  Cu36  1  0.26961400  0.33584000  0.24887300  1
  Cu  Cu37  1  0.26692100  0.33311500  0.50000000  1
  Cu  Cu38  1  0.66416000  0.93377500  0.75112700  1
  Cu  Cu39  1  0.66277100  0.93347200  0.00000000  1
  Cu  Cu40  1  0.66416000  0.93377500  0.24887300  1
  Cu  Cu41  1  0.66688500  0.93380600  0.50000000  1
  Cu  Cu42  1  0.34076900  0.06617500  0.87535800  1
  Cu  Cu43  1  0.34076900  0.06617500  0.12464200  1
  Cu  Cu44  1  0.34234500  0.06565500  0.37495800  1
  Cu  Cu45  1  0.34234500  0.06565500  0.62504200  1
  Cu  Cu46  1  0.72540600  0.65923100  0.12464200  1
  Cu  Cu47  1  0.72540600  0.65923100  0.87535800  1
  Cu  Cu48  1  0.72331100  0.65765500  0.37495800  1
  Cu  Cu49  1  0.72331100  0.65765500  0.62504200  1
  Cu  Cu50  1  0.66666700  0.33333300  0.74934500  1
  Cu  Cu51  1  0.66666700  0.33333300  0.00000000  1
  Cu  Cu52  1  0.66666700  0.33333300  0.50000000  1
  Cu  Cu53  1  0.66666700  0.33333300  0.25065500  1
  Cu  Cu54  1  0.93382500  0.27459400  0.87535800  1
  Cu  Cu55  1  0.93434500  0.27668900  0.37495800  1
  Cu  Cu56  1  0.93434500  0.27668900  0.62504200  1
  Cu  Cu57  1  0.93382500  0.27459400  0.12464200  1
