# generated using pymatgen
data_Cu4Ni8C45
_symmetry_space_group_name_H-M   'P 1'
_cell_length_a   11.48710500
_cell_length_b   10.53047900
_cell_length_c   12.53127884
_cell_angle_alpha   56.69063972
_cell_angle_beta   90.00000000
_cell_angle_gamma   90.00000000
_symmetry_Int_Tables_number   1
_chemical_formula_structural   Cu4Ni8C45
_chemical_formula_sum   'Cu8 Ni16 C90'
_cell_volume   1266.81643606
_cell_formula_units_Z   2
loop_
 _symmetry_equiv_pos_site_id
 _symmetry_equiv_pos_as_xyz
  1  'x, y, z'
loop_
 _atom_site_type_symbol
 _atom_site_label
 _atom_site_symmetry_multiplicity
 _atom_site_fract_x
 _atom_site_fract_y
 _atom_site_fract_z
 _atom_site_occupancy
  C  C0  1  0.50000000  0.00000000  0.50000000  1
  C  C1  1  0.00000000  0.00000000  0.00000000  1
  C  C2  1  0.99654000  0.17042200  0.47439800  1
  C  C3  1  0.41959400  0.60531700  0.36667400  1
  C  C4  1  0.82722200  0.74514600  0.41977000  1
  C  C5  1  0.88675400  0.35714700  0.48473500  1
  C  C6  1  0.38675400  0.64285300  0.01526500  1
  C  C7  1  0.02133500  0.19279100  0.32336400  1
  C  C8  1  0.08416400  0.98653700  0.82207200  1
  C  C9  1  0.49698900  0.58465800  0.72621300  1
  C  C10  1  0.87974500  0.13503800  0.39887800  1
  C  C11  1  0.00301100  0.58465800  0.22621300  1
  C  C12  1  0.82402000  0.51815100  0.34238000  1
  C  C13  1  0.32402000  0.48184900  0.15762000  1
  C  C14  1  0.91210300  0.56075800  0.77276000  1
  C  C15  1  0.61036500  0.80182400  0.36331000  1
  C  C16  1  0.56972100  0.56549800  0.12826700  1
  C  C17  1  0.73667500  0.32951400  0.91401100  1
  C  C18  1  0.67277800  0.74514600  0.91977000  1
  C  C19  1  0.79188600  0.98299800  0.83730100  1
  C  C20  1  0.12025500  0.86496200  0.60112200  1
  C  C21  1  0.37974500  0.86496200  0.10112200  1
  C  C22  1  0.66435500  0.53209800  0.64172900  1
  C  C23  1  0.91959400  0.39468300  0.13332600  1
  C  C24  1  0.47866500  0.19279100  0.82336400  1
  C  C25  1  0.50301100  0.41534200  0.27378700  1
  C  C26  1  0.49654000  0.82957800  0.02560200  1
  C  C27  1  0.76332500  0.32951400  0.41401100  1
  C  C28  1  0.50346000  0.17042200  0.97439800  1
  C  C29  1  0.58416400  0.01346300  0.67792800  1
  C  C30  1  0.11324600  0.64285300  0.51526500  1
  C  C31  1  0.08040600  0.60531700  0.86667400  1
  C  C32  1  0.00346000  0.82957800  0.52560200  1
  C  C33  1  0.97866500  0.80720900  0.67663600  1
  C  C34  1  0.08789700  0.43924200  0.22724000  1
  C  C35  1  0.28397600  0.66208800  0.28229200  1
  C  C36  1  0.93027900  0.56549800  0.62826700  1
  C  C37  1  0.78397600  0.33791200  0.21770800  1
  C  C38  1  0.67598000  0.51815100  0.84238000  1
  C  C39  1  0.33564500  0.46790200  0.35827100  1
  C  C40  1  0.16435500  0.46790200  0.85827100  1
  C  C41  1  0.88963500  0.80182400  0.86331000  1
  C  C42  1  0.83564500  0.53209800  0.14172900  1
  C  C43  1  0.91583600  0.01346300  0.17792800  1
  C  C44  1  0.58040600  0.39468300  0.63332600  1
  C  C45  1  0.26332500  0.67048600  0.08598900  1
  C  C46  1  0.32722200  0.25485400  0.08023000  1
  C  C47  1  0.70811400  0.98299800  0.33730100  1
  C  C48  1  0.11036500  0.19817600  0.13669000  1
  C  C49  1  0.43027900  0.43450200  0.87173300  1
  C  C50  1  0.52133500  0.80720900  0.17663600  1
  C  C51  1  0.71602400  0.33791200  0.71770800  1
  C  C52  1  0.58789700  0.56075800  0.27276000  1
  C  C53  1  0.62025500  0.13503800  0.89887800  1
  C  C54  1  0.20811400  0.01700200  0.16269900  1
  C  C55  1  0.61324600  0.35714700  0.98473500  1
  C  C56  1  0.41583600  0.98653700  0.32207200  1
  C  C57  1  0.21602400  0.66208800  0.78229200  1
  C  C58  1  0.17277800  0.25485400  0.58023000  1
  C  C59  1  0.06972100  0.43450200  0.37173300  1
  C  C60  1  0.23667500  0.67048600  0.58598900  1
  C  C61  1  0.17598000  0.48184900  0.65762000  1
  C  C62  1  0.38963500  0.19817600  0.63669000  1
  C  C63  1  0.29188600  0.01700200  0.66269900  1
  C  C64  1  0.41210300  0.43924200  0.72724000  1
  C  C65  1  0.99698900  0.41534200  0.77378700  1
  Ni  Ni66  1  0.84267100  0.39608400  0.39431100  1
  Ni  Ni67  1  0.04263800  0.79647900  0.61708400  1
  Ni  Ni68  1  0.36003400  0.58814700  0.30751700  1
  Ni  Ni69  1  0.95736200  0.20352100  0.38291600  1
  Ni  Ni70  1  0.65732900  0.39608400  0.89431100  1
  Ni  Ni71  1  0.63996600  0.41185300  0.69248300  1
  Ni  Ni72  1  0.54263800  0.20352100  0.88291600  1
  Ni  Ni73  1  0.13996600  0.58814700  0.80751700  1
  Ni  Ni74  1  0.45736200  0.79647900  0.11708400  1
  Ni  Ni75  1  0.15732900  0.60391600  0.60568900  1
  Ni  Ni76  1  0.34267100  0.60391600  0.10568900  1
  Ni  Ni77  1  0.02888400  0.46452100  0.28186600  1
  Ni  Ni78  1  0.86003400  0.41185300  0.19248300  1
  Ni  Ni79  1  0.97111600  0.53547900  0.71813400  1
  Ni  Ni80  1  0.52888400  0.53547900  0.21813400  1
  Ni  Ni81  1  0.47111600  0.46452100  0.78186600  1
  Cu  Cu82  1  0.18124100  0.07678900  0.76549200  1
  Cu  Cu83  1  0.86833400  0.82787900  0.06764200  1
  Cu  Cu84  1  0.36833400  0.17212100  0.43235800  1
  Cu  Cu85  1  0.63166600  0.82787900  0.56764200  1
  Cu  Cu86  1  0.68124100  0.92321100  0.73450800  1
  Cu  Cu87  1  0.81875900  0.92321100  0.23450800  1
  Cu  Cu88  1  0.13166600  0.17212100  0.93235800  1
  Cu  Cu89  1  0.31875900  0.07678900  0.26549200  1
  C  C90  1  0.42203800  0.63179000  0.18633400  1
  C  C91  1  0.07796200  0.63179000  0.68633400  1
  C  C92  1  0.92203800  0.36821000  0.31366600  1
  C  C93  1  0.57796200  0.36821000  0.81366600  1
  C  C94  1  0.81968700  0.75006900  0.86286300  1
  C  C95  1  0.27905400  0.91436700  0.48676400  1
  C  C96  1  0.31968700  0.24993100  0.63713700  1
  C  C97  1  0.73719800  0.04427600  0.76507600  1
  C  C98  1  0.60584600  0.81115500  0.86690600  1
  C  C99  1  0.18031300  0.24993100  0.13713700  1
  C  C100  1  0.88577300  0.14324000  0.96017900  1
  C  C101  1  0.61422700  0.14324000  0.46017900  1
  C  C102  1  0.26280200  0.95572400  0.23492400  1
  C  C103  1  0.39415400  0.18884500  0.13309400  1
  C  C104  1  0.76280200  0.04427600  0.26507600  1
  C  C105  1  0.23719800  0.95572400  0.73492400  1
  C  C106  1  0.10584600  0.18884500  0.63309400  1
  C  C107  1  0.77905400  0.08563300  0.01323600  1
  C  C108  1  0.11422700  0.85676000  0.03982100  1
  C  C109  1  0.22094600  0.91436700  0.98676400  1
  C  C110  1  0.72094600  0.08563300  0.51323600  1
  C  C111  1  0.38577300  0.85676000  0.53982100  1
  C  C112  1  0.89415400  0.81115500  0.36690600  1
  C  C113  1  0.68031300  0.75006900  0.36286300  1
