# generated using pymatgen
data_Cu2Ni4C3
_symmetry_space_group_name_H-M   'P 1'
_cell_length_a   6.45576300
_cell_length_b   7.60983600
_cell_length_c   8.15147700
_cell_angle_alpha   90.00000000
_cell_angle_beta   90.00000000
_cell_angle_gamma   90.00000000
_symmetry_Int_Tables_number   1
_chemical_formula_structural   Cu2Ni4C3
_chemical_formula_sum   'Cu8 Ni16 C12'
_cell_volume   400.46003715
_cell_formula_units_Z   4
loop_
 _symmetry_equiv_pos_site_id
 _symmetry_equiv_pos_as_xyz
  1  'x, y, z'
loop_
 _atom_site_type_symbol
 _atom_site_label
 _atom_site_symmetry_multiplicity
 _atom_site_fract_x
 _atom_site_fract_y
 _atom_site_fract_z
 _atom_site_occupancy
  Ni  Ni0  1  0.25204300  0.76288200  0.45922800  1
  Ni  Ni1  1  0.25204300  0.73711800  0.95922800  1
  Ni  Ni2  1  0.75204300  0.23711800  0.54077200  1
  Ni  Ni3  1  0.75204300  0.26288200  0.04077200  1
  Ni  Ni4  1  0.94026600  0.68370100  0.75411800  1
  Ni  Ni5  1  0.58478300  0.01413500  0.35832000  1
  Ni  Ni6  1  0.55142900  0.88960800  0.20761900  1
  Ni  Ni7  1  0.44026600  0.31629900  0.24588200  1
  Ni  Ni8  1  0.08478300  0.98586500  0.64168000  1
  Ni  Ni9  1  0.05142900  0.11039200  0.79238100  1
  Ni  Ni10  1  0.08478300  0.51413500  0.14168000  1
  Ni  Ni11  1  0.05142900  0.38960800  0.29238100  1
  Ni  Ni12  1  0.44026600  0.18370100  0.74588200  1
  Ni  Ni13  1  0.58478300  0.48586500  0.85832000  1
  Ni  Ni14  1  0.55142900  0.61039200  0.70761900  1
  Ni  Ni15  1  0.94026600  0.81629900  0.25411800  1
  Cu  Cu16  1  0.23331700  0.25477700  0.95523500  1
  Cu  Cu17  1  0.23331700  0.24522300  0.45523500  1
  Cu  Cu18  1  0.73331700  0.74522300  0.04476500  1
  Cu  Cu19  1  0.73331700  0.75477700  0.54476500  1
  Cu  Cu20  1  0.13959700  0.58346400  0.60276300  1
  Cu  Cu21  1  0.13959700  0.91653600  0.10276300  1
  Cu  Cu22  1  0.63959700  0.41653600  0.39723700  1
  Cu  Cu23  1  0.63959700  0.08346400  0.89723700  1
  C  C24  1  0.19173100  0.75880600  0.57072000  1
  C  C25  1  0.19173100  0.74119400  0.07072000  1
  C  C26  1  0.69173100  0.24119400  0.42928000  1
  C  C27  1  0.69173100  0.25880600  0.92928000  1
  C  C28  1  0.04038600  0.58455000  0.75046300  1
  C  C29  1  0.51459000  0.90639700  0.32350400  1
  C  C30  1  0.54038600  0.41545000  0.24953700  1
  C  C31  1  0.01459000  0.09360300  0.67649600  1
  C  C32  1  0.01459000  0.40639700  0.17649600  1
  C  C33  1  0.54038600  0.08455000  0.74953700  1
  C  C34  1  0.51459000  0.59360300  0.82350400  1
  C  C35  1  0.04038600  0.91545000  0.25046300  1
