# generated using pymatgen
data_Cu2Ni6C5
_symmetry_space_group_name_H-M   'P 1'
_cell_length_a   5.35961000
_cell_length_b   5.35960964
_cell_length_c   8.77953200
_cell_angle_alpha   90.00000000
_cell_angle_beta   90.00000000
_cell_angle_gamma   120.00000221
_symmetry_Int_Tables_number   1
_chemical_formula_structural   Cu2Ni6C5
_chemical_formula_sum   'Cu2 Ni6 C5'
_cell_volume   218.40789670
_cell_formula_units_Z   1
loop_
 _symmetry_equiv_pos_site_id
 _symmetry_equiv_pos_as_xyz
  1  'x, y, z'
loop_
 _atom_site_type_symbol
 _atom_site_label
 _atom_site_symmetry_multiplicity
 _atom_site_fract_x
 _atom_site_fract_y
 _atom_site_fract_z
 _atom_site_occupancy
  C  C0  1  0.00000000  0.00000000  0.00000000  1
  Ni  Ni1  1  0.00000000  0.50000000  0.76450600  1
  Ni  Ni2  1  0.50000000  0.00000000  0.23549400  1
  Ni  Ni3  1  0.50000000  0.50000000  0.23549400  1
  Ni  Ni4  1  0.50000000  0.50000000  0.76450600  1
  Ni  Ni5  1  0.50000000  0.00000000  0.76450600  1
  Ni  Ni6  1  0.00000000  0.50000000  0.23549400  1
  Cu  Cu7  1  0.33333300  0.66666700  0.00000000  1
  Cu  Cu8  1  0.66666700  0.33333300  0.00000000  1
  C  C9  1  0.00000000  0.00000000  0.66850300  1
  C  C10  1  0.00000000  0.00000000  0.33149700  1
  C  C11  1  0.66666700  0.33333300  0.50000000  1
  C  C12  1  0.33333300  0.66666700  0.50000000  1
