# generated using pymatgen
data_Cu4Ni9C2
_symmetry_space_group_name_H-M   'P 1'
_cell_length_a   19.46462101
_cell_length_b   19.46462101
_cell_length_c   19.46462076
_cell_angle_alpha   118.71006726
_cell_angle_beta   118.71006726
_cell_angle_gamma   118.71006675
_symmetry_Int_Tables_number   1
_chemical_formula_structural   Cu4Ni9C2
_chemical_formula_sum   'Cu24 Ni54 C12'
_cell_volume   2162.72514389
_cell_formula_units_Z   6
loop_
 _symmetry_equiv_pos_site_id
 _symmetry_equiv_pos_as_xyz
  1  'x, y, z'
loop_
 _atom_site_type_symbol
 _atom_site_label
 _atom_site_symmetry_multiplicity
 _atom_site_fract_x
 _atom_site_fract_y
 _atom_site_fract_z
 _atom_site_occupancy
  C  C0  1  0.12211600  0.70779600  0.75981000  1
  C  C1  1  0.99325800  0.79380000  0.15311200  1
  C  C2  1  0.84688800  0.00674200  0.20620000  1
  C  C3  1  0.20620000  0.84688800  0.00674200  1
  C  C4  1  0.29220400  0.24019000  0.87788400  1
  C  C5  1  0.75981000  0.12211600  0.70779600  1
  C  C6  1  0.87788400  0.29220400  0.24019000  1
  C  C7  1  0.70779600  0.75981000  0.12211600  1
  C  C8  1  0.79380000  0.15311200  0.99325800  1
  C  C9  1  0.15311200  0.99325800  0.79380000  1
  C  C10  1  0.00674200  0.20620000  0.84688800  1
  C  C11  1  0.24019000  0.87788400  0.29220400  1
  Ni  Ni12  1  0.69108400  0.94809200  0.51897400  1
  Ni  Ni13  1  0.57722100  0.02977100  0.90272000  1
  Ni  Ni14  1  0.58022700  0.09968400  0.45806000  1
  Ni  Ni15  1  0.52151700  0.81889100  0.67611600  1
  Ni  Ni16  1  0.69563500  0.09769000  0.15792400  1
  Ni  Ni17  1  0.81889100  0.67611600  0.52151700  1
  Ni  Ni18  1  0.30436500  0.90231000  0.84207600  1
  Ni  Ni19  1  0.09377000  0.01438200  0.28844200  1
  Ni  Ni20  1  0.45806000  0.58022700  0.09968400  1
  Ni  Ni21  1  0.69659300  0.65442900  0.86309700  1
  Ni  Ni22  1  0.15792400  0.69563500  0.09769000  1
  Ni  Ni23  1  0.09769000  0.15792400  0.69563500  1
  Ni  Ni24  1  0.86309700  0.69659300  0.65442900  1
  Ni  Ni25  1  0.92278900  0.23933900  0.66222200  1
  Ni  Ni26  1  0.33777800  0.07721100  0.76066100  1
  Ni  Ni27  1  0.32388400  0.47848300  0.18110900  1
  Ni  Ni28  1  0.56633000  0.57763900  0.18882400  1
  Ni  Ni29  1  0.23933900  0.66222200  0.92278900  1
  Ni  Ni30  1  0.02977100  0.90272000  0.57722100  1
  Ni  Ni31  1  0.05190800  0.48102600  0.30891600  1
  Ni  Ni32  1  0.01438200  0.28844200  0.09377000  1
  Ni  Ni33  1  0.67611600  0.52151700  0.81889100  1
  Ni  Ni34  1  0.66222200  0.92278900  0.23933900  1
  Ni  Ni35  1  0.43367000  0.42236100  0.81117600  1
  Ni  Ni36  1  0.81117600  0.43367000  0.42236100  1
  Ni  Ni37  1  0.90623000  0.98561800  0.71155800  1
  Ni  Ni38  1  0.47848300  0.18110900  0.32388400  1
  Ni  Ni39  1  0.09728000  0.42277900  0.97022900  1
  Ni  Ni40  1  0.54194000  0.41977300  0.90031600  1
  Ni  Ni41  1  0.57763900  0.18882400  0.56633000  1
  Ni  Ni42  1  0.28844200  0.09377000  0.01438200  1
  Ni  Ni43  1  0.76066100  0.33777800  0.07721100  1
  Ni  Ni44  1  0.18882400  0.56633000  0.57763900  1
  Ni  Ni45  1  0.51897400  0.69108400  0.94809200  1
  Ni  Ni46  1  0.90031600  0.54194000  0.41977300  1
  Ni  Ni47  1  0.42236100  0.81117600  0.43367000  1
  Ni  Ni48  1  0.30340700  0.34557100  0.13690300  1
  Ni  Ni49  1  0.65442900  0.86309700  0.69659300  1
  Ni  Ni50  1  0.94809200  0.51897400  0.69108400  1
  Ni  Ni51  1  0.13690300  0.30340700  0.34557100  1
  Ni  Ni52  1  0.84207600  0.30436500  0.90231000  1
  Ni  Ni53  1  0.97022900  0.09728000  0.42277900  1
  Ni  Ni54  1  0.07721100  0.76066100  0.33777800  1
  Ni  Ni55  1  0.90272000  0.57722100  0.02977100  1
  Ni  Ni56  1  0.90231000  0.84207600  0.30436500  1
  Ni  Ni57  1  0.41977300  0.90031600  0.54194000  1
  Ni  Ni58  1  0.09968400  0.45806000  0.58022700  1
  Ni  Ni59  1  0.18110900  0.32388400  0.47848300  1
  Ni  Ni60  1  0.30891600  0.05190800  0.48102600  1
  Ni  Ni61  1  0.34557100  0.13690300  0.30340700  1
  Ni  Ni62  1  0.42277900  0.97022900  0.09728000  1
  Ni  Ni63  1  0.71155800  0.90623000  0.98561800  1
  Ni  Ni64  1  0.48102600  0.30891600  0.05190800  1
  Ni  Ni65  1  0.98561800  0.71155800  0.90623000  1
  Cu  Cu66  1  0.09068800  0.11239500  0.90241500  1
  Cu  Cu67  1  0.09758500  0.90931200  0.88760500  1
  Cu  Cu68  1  0.08730400  0.42351100  0.88211700  1
  Cu  Cu69  1  0.11239500  0.90241500  0.09068800  1
  Cu  Cu70  1  0.23392100  0.36383600  0.85914700  1
  Cu  Cu71  1  0.98176300  0.50428300  0.26247500  1
  Cu  Cu72  1  0.88760500  0.09758500  0.90931200  1
  Cu  Cu73  1  0.73752500  0.01823700  0.49571700  1
  Cu  Cu74  1  0.91269600  0.57648900  0.11788300  1
  Cu  Cu75  1  0.36383600  0.85914700  0.23392100  1
  Cu  Cu76  1  0.90241500  0.09068800  0.11239500  1
  Cu  Cu77  1  0.26247500  0.98176300  0.50428300  1
  Cu  Cu78  1  0.90931200  0.88760500  0.09758500  1
  Cu  Cu79  1  0.85914700  0.23392100  0.36383600  1
  Cu  Cu80  1  0.11788300  0.91269600  0.57648900  1
  Cu  Cu81  1  0.88211700  0.08730400  0.42351100  1
  Cu  Cu82  1  0.14085300  0.76607900  0.63616400  1
  Cu  Cu83  1  0.50428300  0.26247500  0.98176300  1
  Cu  Cu84  1  0.63616400  0.14085300  0.76607900  1
  Cu  Cu85  1  0.76607900  0.63616400  0.14085300  1
  Cu  Cu86  1  0.42351100  0.88211700  0.08730400  1
  Cu  Cu87  1  0.49571700  0.73752500  0.01823700  1
  Cu  Cu88  1  0.57648900  0.11788300  0.91269600  1
  Cu  Cu89  1  0.01823700  0.49571700  0.73752500  1
