# generated using pymatgen
data_CuNi5C17
_symmetry_space_group_name_H-M   'P 1'
_cell_length_a   11.05647700
_cell_length_b   11.56196900
_cell_length_c   16.90858300
_cell_angle_alpha   90.00000000
_cell_angle_beta   90.00000000
_cell_angle_gamma   90.00000000
_symmetry_Int_Tables_number   1
_chemical_formula_structural   CuNi5C17
_chemical_formula_sum   'Cu8 Ni40 C136'
_cell_volume   2161.50269381
_cell_formula_units_Z   8
loop_
 _symmetry_equiv_pos_site_id
 _symmetry_equiv_pos_as_xyz
  1  'x, y, z'
loop_
 _atom_site_type_symbol
 _atom_site_label
 _atom_site_symmetry_multiplicity
 _atom_site_fract_x
 _atom_site_fract_y
 _atom_site_fract_z
 _atom_site_occupancy
  C  C0  1  0.43643100  0.10727100  0.49283900  1
  C  C1  1  0.43643100  0.39272900  0.99283900  1
  C  C2  1  0.93643100  0.10727100  0.00716100  1
  C  C3  1  0.56356900  0.89272900  0.50716100  1
  C  C4  1  0.93643100  0.39272900  0.50716100  1
  C  C5  1  0.06356900  0.60727100  0.49283900  1
  C  C6  1  0.56356900  0.60727100  0.00716100  1
  C  C7  1  0.06356900  0.89272900  0.99283900  1
  C  C8  1  0.08225800  0.89172600  0.22198300  1
  C  C9  1  0.42676400  0.74428200  0.17662900  1
  C  C10  1  0.18044900  0.95552300  0.69508700  1
  C  C11  1  0.87477400  0.32693100  0.18457300  1
  C  C12  1  0.31955100  0.04447700  0.19508700  1
  C  C13  1  0.70343400  0.16448700  0.82570300  1
  C  C14  1  0.01862000  0.63547300  0.93087000  1
  C  C15  1  0.42676400  0.75571800  0.67662900  1
  C  C16  1  0.62323700  0.44087500  0.42938200  1
  C  C17  1  0.01653900  0.48024300  0.91914600  1
  C  C18  1  0.98346000  0.51975700  0.08085400  1
  C  C19  1  0.29656600  0.83551300  0.17429700  1
  C  C20  1  0.40756900  0.48041100  0.78357000  1
  C  C21  1  0.92676400  0.74428200  0.32337100  1
  C  C22  1  0.41774200  0.39172600  0.22198300  1
  C  C23  1  0.51862000  0.86452700  0.06913000  1
  C  C24  1  0.96829200  0.10510100  0.29639500  1
  C  C25  1  0.29656600  0.66448700  0.67429700  1
  C  C26  1  0.98346000  0.98024300  0.58085400  1
  C  C27  1  0.64374700  0.98015800  0.19947600  1
  C  C28  1  0.07323600  0.24428200  0.17662900  1
  C  C29  1  0.46829200  0.39489900  0.70360500  1
  C  C30  1  0.68044900  0.95552300  0.80491300  1
  C  C31  1  0.12522600  0.67306900  0.81542700  1
  C  C32  1  0.48346100  0.51975700  0.41914600  1
  C  C33  1  0.37676300  0.94087500  0.07061800  1
  C  C34  1  0.87676300  0.94087500  0.42938200  1
  C  C35  1  0.70343400  0.33551300  0.32570300  1
  C  C36  1  0.96829200  0.39489900  0.79639500  1
  C  C37  1  0.37477400  0.17306900  0.81542700  1
  C  C38  1  0.03170800  0.89489900  0.70360500  1
  C  C39  1  0.03170800  0.60510100  0.20360500  1
  C  C40  1  0.62522600  0.67306900  0.68457300  1
  C  C41  1  0.14374700  0.98015800  0.30052400  1
  C  C42  1  0.18044900  0.54447700  0.19508700  1
  C  C43  1  0.46829200  0.10510100  0.20360500  1
  C  C44  1  0.48138000  0.13547300  0.93087000  1
  C  C45  1  0.59243100  0.51958900  0.21643000  1
  C  C46  1  0.01653900  0.01975700  0.41914600  1
  C  C47  1  0.79656600  0.83551300  0.32570300  1
  C  C48  1  0.62522600  0.82693100  0.18457300  1
  C  C49  1  0.87477400  0.17306900  0.68457300  1
  C  C50  1  0.40756900  0.01958900  0.28357000  1
  C  C51  1  0.87796800  0.81474200  0.23353800  1
  C  C52  1  0.92676400  0.75571800  0.82337100  1
  C  C53  1  0.53170800  0.60510100  0.29639500  1
  C  C54  1  0.90756900  0.01958900  0.21643000  1
  C  C55  1  0.14374700  0.51984200  0.80052400  1
  C  C56  1  0.12203200  0.18525800  0.76646200  1
  C  C57  1  0.81955100  0.04447700  0.30491300  1
  C  C58  1  0.09243100  0.98041100  0.78357000  1
  C  C59  1  0.87796800  0.68525800  0.73353800  1
  C  C60  1  0.37477400  0.32693100  0.31542700  1
  C  C61  1  0.12323700  0.05912500  0.57061800  1
  C  C62  1  0.12203200  0.31474200  0.26646200  1
  C  C63  1  0.62323700  0.05912500  0.92938200  1
  C  C64  1  0.62203200  0.31474200  0.23353800  1
  C  C65  1  0.12323700  0.44087500  0.07061800  1
  C  C66  1  0.79656600  0.66448700  0.82570300  1
  C  C67  1  0.51862000  0.63547300  0.56913000  1
  C  C68  1  0.87676300  0.55912500  0.92938200  1
  C  C69  1  0.91774200  0.39172600  0.27801700  1
  C  C70  1  0.37796800  0.68525800  0.76646200  1
  C  C71  1  0.48346100  0.98024300  0.91914600  1
  C  C72  1  0.37676300  0.55912500  0.57061800  1
  C  C73  1  0.35625300  0.48015800  0.30052400  1
  C  C74  1  0.81955100  0.45552300  0.80491300  1
  C  C75  1  0.07323600  0.25571800  0.67662900  1
  C  C76  1  0.20343400  0.16448700  0.67429700  1
  C  C77  1  0.57323600  0.24428200  0.32337100  1
  C  C78  1  0.91774200  0.10827400  0.77801700  1
  C  C79  1  0.98138000  0.13547300  0.56913000  1
  C  C80  1  0.68044900  0.54447700  0.30491300  1
  C  C81  1  0.20343400  0.33551300  0.17429700  1
  C  C82  1  0.53170800  0.89489900  0.79639500  1
  C  C83  1  0.12522600  0.82693100  0.31542700  1
  C  C84  1  0.31955100  0.45552300  0.69508700  1
  C  C85  1  0.58225800  0.60827400  0.77801700  1
  C  C86  1  0.64374700  0.51984200  0.69947600  1
  C  C87  1  0.51654000  0.48024300  0.58085400  1
  C  C88  1  0.01862000  0.86452700  0.43087000  1
  C  C89  1  0.62203200  0.18525800  0.73353800  1
  C  C90  1  0.08225800  0.60827400  0.72198300  1
  C  C91  1  0.35625300  0.01984200  0.80052400  1
  C  C92  1  0.41774200  0.10827400  0.72198300  1
  C  C93  1  0.90756900  0.48041100  0.71643000  1
  C  C94  1  0.85625300  0.01984200  0.69947600  1
  C  C95  1  0.59243100  0.98041100  0.71643000  1
  C  C96  1  0.98138000  0.36452700  0.06913000  1
  C  C97  1  0.58225800  0.89172600  0.27801700  1
  C  C98  1  0.09243100  0.51958900  0.28357000  1
  C  C99  1  0.37796800  0.81474200  0.26646200  1
  C  C100  1  0.57323600  0.25571800  0.82337100  1
  C  C101  1  0.51654000  0.01975700  0.08085400  1
  C  C102  1  0.85625300  0.48015800  0.19947600  1
  C  C103  1  0.48138000  0.36452700  0.43087000  1
  Ni  Ni104  1  0.41075300  0.03124100  0.21924500  1
  Ni  Ni105  1  0.32225600  0.75343000  0.45069300  1
  Ni  Ni106  1  0.17774400  0.24657000  0.95069300  1
  Ni  Ni107  1  0.46930700  0.56147900  0.59387600  1
  Ni  Ni108  1  0.82225600  0.75343000  0.04930700  1
  Ni  Ni109  1  0.88522700  0.67770600  0.79814900  1
  Ni  Ni110  1  0.41185400  0.40425300  0.28626300  1
  Ni  Ni111  1  0.53069300  0.06147900  0.90612400  1
  Ni  Ni112  1  0.58814600  0.90425300  0.21373700  1
  Ni  Ni113  1  0.88522700  0.82229400  0.29814900  1
  Ni  Ni114  1  0.08814600  0.90425300  0.28626300  1
  Ni  Ni115  1  0.11477300  0.17770600  0.70185100  1
  Ni  Ni116  1  0.91075300  0.46875900  0.78075500  1
  Ni  Ni117  1  0.96930700  0.56147900  0.90612400  1
  Ni  Ni118  1  0.38522700  0.67770600  0.70185100  1
  Ni  Ni119  1  0.41075300  0.46875900  0.71924500  1
  Ni  Ni120  1  0.67774400  0.24657000  0.54930700  1
  Ni  Ni121  1  0.61477300  0.32229400  0.29814900  1
  Ni  Ni122  1  0.41185400  0.09574700  0.78626300  1
  Ni  Ni123  1  0.08924700  0.96875900  0.71924500  1
  Ni  Ni124  1  0.17774400  0.25343000  0.45069300  1
  Ni  Ni125  1  0.96930700  0.93852100  0.40612400  1
  Ni  Ni126  1  0.53069300  0.43852100  0.40612400  1
  Ni  Ni127  1  0.08924700  0.53124100  0.21924500  1
  Ni  Ni128  1  0.67774400  0.25343000  0.04930700  1
  Ni  Ni129  1  0.91075300  0.03124100  0.28075500  1
  Ni  Ni130  1  0.91185400  0.09574700  0.71373700  1
  Ni  Ni131  1  0.03069300  0.43852100  0.09387600  1
  Ni  Ni132  1  0.82225600  0.74657000  0.54930700  1
  Ni  Ni133  1  0.03069300  0.06147900  0.59387600  1
  Ni  Ni134  1  0.46930700  0.93852100  0.09387600  1
  Ni  Ni135  1  0.32225600  0.74657000  0.95069300  1
  Ni  Ni136  1  0.08814600  0.59574700  0.78626300  1
  Ni  Ni137  1  0.61477300  0.17770600  0.79814900  1
  Ni  Ni138  1  0.58814600  0.59574700  0.71373700  1
  Ni  Ni139  1  0.11477300  0.32229400  0.20185100  1
  Ni  Ni140  1  0.38522700  0.82229400  0.20185100  1
  Ni  Ni141  1  0.91185400  0.40425300  0.21373700  1
  Ni  Ni142  1  0.58924700  0.96875900  0.78075500  1
  Ni  Ni143  1  0.58924700  0.53124100  0.28075500  1
  C  C144  1  0.53343100  0.27326500  0.08072800  1
  C  C145  1  0.61585200  0.05516900  0.42573400  1
  C  C146  1  0.27501500  0.34652100  0.91017200  1
  C  C147  1  0.38414800  0.55516900  0.07426600  1
  C  C148  1  0.27501500  0.15347900  0.41017200  1
  C  C149  1  0.96656900  0.72673500  0.58072800  1
  C  C150  1  0.24087600  0.17014300  0.02896000  1
  C  C151  1  0.75912400  0.67014300  0.47104000  1
  C  C152  1  0.22498500  0.84652100  0.91017200  1
  C  C153  1  0.25912400  0.82985700  0.52896000  1
  C  C154  1  0.77501500  0.15347900  0.08982800  1
  C  C155  1  0.46656900  0.72673500  0.91927200  1
  C  C156  1  0.88414800  0.55516900  0.42573400  1
  C  C157  1  0.24087600  0.32985700  0.52896000  1
  C  C158  1  0.38414800  0.94483100  0.57426600  1
  C  C159  1  0.11585200  0.05516900  0.07426600  1
  C  C160  1  0.25912400  0.67014300  0.02896000  1
  C  C161  1  0.22498500  0.65347900  0.41017200  1
  C  C162  1  0.74087600  0.17014300  0.47104000  1
  C  C163  1  0.77501500  0.34652100  0.58982800  1
  C  C164  1  0.03343100  0.27326500  0.41927200  1
  C  C165  1  0.74087600  0.32985700  0.97104000  1
  C  C166  1  0.75912400  0.82985700  0.97104000  1
  C  C167  1  0.96656900  0.77326500  0.08072800  1
  C  C168  1  0.53343100  0.22673500  0.58072800  1
  C  C169  1  0.61585200  0.44483100  0.92573400  1
  C  C170  1  0.03343100  0.22673500  0.91927200  1
  C  C171  1  0.72498500  0.84652100  0.58982800  1
  C  C172  1  0.88414800  0.94483100  0.92573400  1
  C  C173  1  0.11585200  0.44483100  0.57426600  1
  C  C174  1  0.46656900  0.77326500  0.41927200  1
  C  C175  1  0.72498500  0.65347900  0.08982800  1
  Cu  Cu176  1  0.46327000  0.57563200  0.68232100  1
  Cu  Cu177  1  0.96327000  0.92436800  0.31767900  1
  Cu  Cu178  1  0.46327000  0.92436800  0.18232100  1
  Cu  Cu179  1  0.53673000  0.07563200  0.81767900  1
  Cu  Cu180  1  0.03673000  0.07563200  0.68232100  1
  Cu  Cu181  1  0.53673000  0.42436800  0.31767900  1
  Cu  Cu182  1  0.03673000  0.42436800  0.18232100  1
  Cu  Cu183  1  0.96327000  0.57563200  0.81767900  1
