# generated using pymatgen
data_Cu(NiC3)2
_symmetry_space_group_name_H-M   'P 1'
_cell_length_a   7.54650300
_cell_length_b   7.56585300
_cell_length_c   7.60782200
_cell_angle_alpha   90.00000000
_cell_angle_beta   90.00000000
_cell_angle_gamma   90.00000000
_symmetry_Int_Tables_number   1
_chemical_formula_structural   Cu(NiC3)2
_chemical_formula_sum   'Cu4 Ni8 C24'
_cell_volume   434.37416877
_cell_formula_units_Z   4
loop_
 _symmetry_equiv_pos_site_id
 _symmetry_equiv_pos_as_xyz
  1  'x, y, z'
loop_
 _atom_site_type_symbol
 _atom_site_label
 _atom_site_symmetry_multiplicity
 _atom_site_fract_x
 _atom_site_fract_y
 _atom_site_fract_z
 _atom_site_occupancy
  Ni  Ni0  1  0.24797200  0.25590100  0.24959400  1
  Ni  Ni1  1  0.24797200  0.25590100  0.75040600  1
  Ni  Ni2  1  0.24797200  0.74409900  0.24959400  1
  Ni  Ni3  1  0.24797200  0.74409900  0.75040600  1
  Ni  Ni4  1  0.75202800  0.25590100  0.24959400  1
  Ni  Ni5  1  0.75202800  0.25590100  0.75040600  1
  Ni  Ni6  1  0.75202800  0.74409900  0.24959400  1
  Ni  Ni7  1  0.75202800  0.74409900  0.75040600  1
  Cu  Cu8  1  0.50000000  0.00000000  0.50000000  1
  Cu  Cu9  1  0.50000000  0.50000000  0.00000000  1
  Cu  Cu10  1  0.00000000  0.00000000  0.00000000  1
  Cu  Cu11  1  0.00000000  0.00000000  0.50000000  1
  C  C12  1  0.50000000  0.81977500  0.68808400  1
  C  C13  1  0.50000000  0.81977500  0.31191600  1
  C  C14  1  0.31994000  0.30785400  0.00000000  1
  C  C15  1  0.31994000  0.69214600  0.00000000  1
  C  C16  1  0.29759900  0.50000000  0.69352200  1
  C  C17  1  0.29759900  0.50000000  0.30647800  1
  C  C18  1  0.19133300  0.00000000  0.82064600  1
  C  C19  1  0.19133300  0.00000000  0.17935400  1
  C  C20  1  0.18513600  0.81226800  0.50000000  1
  C  C21  1  0.18513600  0.18773200  0.50000000  1
  C  C22  1  0.00000000  0.69789900  0.79606400  1
  C  C23  1  0.00000000  0.30210100  0.20393600  1
  C  C24  1  0.00000000  0.30210100  0.79606400  1
  C  C25  1  0.00000000  0.69789900  0.20393600  1
  C  C26  1  0.81486400  0.18773200  0.50000000  1
  C  C27  1  0.81486400  0.81226800  0.50000000  1
  C  C28  1  0.80866700  0.00000000  0.82064600  1
  C  C29  1  0.80866700  0.00000000  0.17935400  1
  C  C30  1  0.70240100  0.50000000  0.69352200  1
  C  C31  1  0.70240100  0.50000000  0.30647800  1
  C  C32  1  0.68006000  0.30785400  0.00000000  1
  C  C33  1  0.68006000  0.69214600  0.00000000  1
  C  C34  1  0.50000000  0.18022500  0.68808400  1
  C  C35  1  0.50000000  0.18022500  0.31191600  1
