# generated using pymatgen
data_CuNi7C6
_symmetry_space_group_name_H-M   'P 1'
_cell_length_a   15.24941300
_cell_length_b   3.59413000
_cell_length_c   9.97853482
_cell_angle_alpha   89.89170764
_cell_angle_beta   90.00000000
_cell_angle_gamma   90.00000000
_symmetry_Int_Tables_number   1
_chemical_formula_structural   CuNi7C6
_chemical_formula_sum   'Cu4 Ni28 C24'
_cell_volume   546.90627919
_cell_formula_units_Z   4
loop_
 _symmetry_equiv_pos_site_id
 _symmetry_equiv_pos_as_xyz
  1  'x, y, z'
loop_
 _atom_site_type_symbol
 _atom_site_label
 _atom_site_symmetry_multiplicity
 _atom_site_fract_x
 _atom_site_fract_y
 _atom_site_fract_z
 _atom_site_occupancy
  Ni  Ni0  1  0.71170000  0.97890500  0.56222400  1
  Ni  Ni1  1  0.27792100  0.41934300  0.90511600  1
  Ni  Ni2  1  0.77792100  0.58065700  0.09488400  1
  Ni  Ni3  1  0.21170000  0.02109500  0.43777600  1
  Ni  Ni4  1  0.94265500  0.00611200  0.84753100  1
  Ni  Ni5  1  0.44265500  0.99388800  0.15246900  1
  Ni  Ni6  1  0.68082900  0.30708800  0.47209000  1
  Ni  Ni7  1  0.56246700  0.94431100  0.54009500  1
  Ni  Ni8  1  0.40347700  0.47193100  0.95800300  1
  Ni  Ni9  1  0.32691400  0.77938200  0.00076100  1
  Ni  Ni10  1  0.90347700  0.52806900  0.04199700  1
  Ni  Ni11  1  0.82691400  0.22061800  0.99923900  1
  Ni  Ni12  1  0.06246700  0.05568900  0.45990500  1
  Ni  Ni13  1  0.18082900  0.69291200  0.52791000  1
  Ni  Ni14  1  0.98930400  0.09813300  0.56284600  1
  Ni  Ni15  1  0.03412800  0.63849000  0.08301000  1
  Ni  Ni16  1  0.03357000  0.55368700  0.92836200  1
  Ni  Ni17  1  0.53412800  0.36151000  0.91699000  1
  Ni  Ni18  1  0.53357000  0.44631300  0.07163800  1
  Ni  Ni19  1  0.48930400  0.90186700  0.43715400  1
  Ni  Ni20  1  0.93330600  0.02131700  0.34495800  1
  Ni  Ni21  1  0.85724900  0.74368000  0.31261500  1
  Ni  Ni22  1  0.11694500  0.60014200  0.29028900  1
  Ni  Ni23  1  0.15034400  0.30331700  0.18761200  1
  Ni  Ni24  1  0.65034400  0.69668300  0.81238800  1
  Ni  Ni25  1  0.61694500  0.39985800  0.70971100  1
  Ni  Ni26  1  0.35724900  0.25632000  0.68738500  1
  Ni  Ni27  1  0.43330600  0.97868300  0.65504200  1
  Cu  Cu28  1  0.84329300  0.90244100  0.72957300  1
  Cu  Cu29  1  0.16946600  0.43207600  0.76917500  1
  Cu  Cu30  1  0.66946600  0.56792400  0.23082500  1
  Cu  Cu31  1  0.34329300  0.09755900  0.27042700  1
  C  C32  1  0.83017600  0.78146200  0.61712600  1
  C  C33  1  0.20168300  0.31580000  0.88366800  1
  C  C34  1  0.70168300  0.68420000  0.11633200  1
  C  C35  1  0.33017600  0.21853800  0.38287400  1
  C  C36  1  0.79135900  0.94007100  0.82210300  1
  C  C37  1  0.22015700  0.48027300  0.67249800  1
  C  C38  1  0.72015700  0.51972700  0.32750200  1
  C  C39  1  0.29135900  0.05992900  0.17789700  1
  C  C40  1  0.93019700  0.02462800  0.74968900  1
  C  C41  1  0.08873600  0.48484400  0.76328400  1
  C  C42  1  0.58873600  0.51515600  0.23671600  1
  C  C43  1  0.43019700  0.97537200  0.25031100  1
  C  C44  1  0.66784600  0.17684900  0.55756600  1
  C  C45  1  0.33769400  0.52748200  0.96866400  1
  C  C46  1  0.83769400  0.47251800  0.03133600  1
  C  C47  1  0.16784600  0.82315100  0.44243400  1
  C  C48  1  0.00773600  0.19539200  0.47624700  1
  C  C49  1  0.99725300  0.66558000  0.99987800  1
  C  C50  1  0.49725300  0.33442000  0.00012200  1
  C  C51  1  0.50773600  0.80460800  0.52375300  1
  C  C52  1  0.88916800  0.95567800  0.27588900  1
  C  C53  1  0.10657100  0.49720900  0.20031200  1
  C  C54  1  0.60657100  0.50279100  0.79968800  1
  C  C55  1  0.38916800  0.04432200  0.72411100  1
