# generated using pymatgen
data_Cu9NiC50
_symmetry_space_group_name_H-M   'P 1'
_cell_length_a   5.64106362
_cell_length_b   5.64106362
_cell_length_c   47.67077800
_cell_angle_alpha   90.00000000
_cell_angle_beta   90.00000000
_cell_angle_gamma   115.37492257
_symmetry_Int_Tables_number   1
_chemical_formula_structural   Cu9NiC50
_chemical_formula_sum   'Cu18 Ni2 C100'
_cell_volume   1370.60849771
_cell_formula_units_Z   2
loop_
 _symmetry_equiv_pos_site_id
 _symmetry_equiv_pos_as_xyz
  1  'x, y, z'
loop_
 _atom_site_type_symbol
 _atom_site_label
 _atom_site_symmetry_multiplicity
 _atom_site_fract_x
 _atom_site_fract_y
 _atom_site_fract_z
 _atom_site_occupancy
  Ni  Ni0  1  0.50000000  0.00000000  0.94976000  1
  Ni  Ni1  1  0.00000000  0.50000000  0.05024000  1
  Cu  Cu2  1  0.50000000  0.00000000  0.15018000  1
  Cu  Cu3  1  0.00000000  0.50000000  0.25000200  1
  Cu  Cu4  1  0.00000000  0.00000000  0.89916200  1
  Cu  Cu5  1  0.50000000  0.00000000  0.35000000  1
  Cu  Cu6  1  0.50000000  0.50000000  0.00000000  1
  Cu  Cu7  1  0.00000000  0.50000000  0.45000000  1
  Cu  Cu8  1  0.00000000  0.00000000  0.10083800  1
  Cu  Cu9  1  0.50000000  0.00000000  0.55000000  1
  Cu  Cu10  1  0.50000000  0.50000000  0.19999700  1
  Cu  Cu11  1  0.00000000  0.50000000  0.65000000  1
  Cu  Cu12  1  0.00000000  0.00000000  0.30000000  1
  Cu  Cu13  1  0.50000000  0.00000000  0.74999800  1
  Cu  Cu14  1  0.50000000  0.50000000  0.40000000  1
  Cu  Cu15  1  0.00000000  0.50000000  0.84982000  1
  Cu  Cu16  1  0.00000000  0.00000000  0.50000000  1
  Cu  Cu17  1  0.50000000  0.50000000  0.60000000  1
  Cu  Cu18  1  0.00000000  0.00000000  0.70000000  1
  Cu  Cu19  1  0.50000000  0.50000000  0.80000300  1
  C  C20  1  0.50000000  0.50000000  0.89913400  1
  C  C21  1  0.00000000  0.00000000  0.00000000  1
  C  C22  1  0.50000000  0.50000000  0.10086600  1
  C  C23  1  0.00000000  0.00000000  0.20004900  1
  C  C24  1  0.00000000  0.50000000  0.14997300  1
  C  C25  1  0.50000000  0.50000000  0.30000100  1
  C  C26  1  0.50000000  0.00000000  0.24999700  1
  C  C27  1  0.00000000  0.00000000  0.40000000  1
  C  C28  1  0.00000000  0.50000000  0.35000000  1
  C  C29  1  0.50000000  0.50000000  0.50000000  1
  C  C30  1  0.50000000  0.00000000  0.45000000  1
  C  C31  1  0.00000000  0.00000000  0.60000000  1
  C  C32  1  0.00000000  0.50000000  0.55000000  1
  C  C33  1  0.50000000  0.50000000  0.69999900  1
  C  C34  1  0.50000000  0.00000000  0.65000000  1
  C  C35  1  0.00000000  0.00000000  0.79995100  1
  C  C36  1  0.00000000  0.50000000  0.75000300  1
  C  C37  1  0.50000000  0.00000000  0.85002700  1
  C  C38  1  0.00000000  0.50000000  0.95008800  1
  C  C39  1  0.50000000  0.00000000  0.04991200  1
  C  C40  1  0.22657900  0.41401200  0.88098100  1
  C  C41  1  0.59922100  0.77202700  0.91696700  1
  C  C42  1  0.40077900  0.22797300  0.91696700  1
  C  C43  1  0.72559400  0.90318200  0.98222200  1
  C  C44  1  0.77342100  0.58598800  0.88098100  1
  C  C45  1  0.09681800  0.27440600  0.01777800  1
  C  C46  1  0.75132400  0.43136800  0.96804200  1
  C  C47  1  0.90318200  0.72559400  0.01777800  1
  C  C48  1  0.22797300  0.40077900  0.08303300  1
  C  C49  1  0.06770700  0.74833200  0.93191300  1
  C  C50  1  0.27440600  0.09681800  0.98222200  1
  C  C51  1  0.93229300  0.25166800  0.93191300  1
  C  C52  1  0.58598800  0.77342100  0.11901900  1
  C  C53  1  0.25166800  0.93229300  0.06808700  1
  C  C54  1  0.41401200  0.22657900  0.11901900  1
  C  C55  1  0.72894300  0.91147100  0.18176200  1
  C  C56  1  0.24867600  0.56863200  0.96804200  1
  C  C57  1  0.56863200  0.24867600  0.03195800  1
  C  C58  1  0.77202700  0.59922100  0.08303300  1
  C  C59  1  0.43136800  0.75132400  0.03195800  1
  C  C60  1  0.08851900  0.27152100  0.21831300  1
  C  C61  1  0.72916900  0.41209200  0.16828100  1
  C  C62  1  0.91148100  0.72847900  0.21831300  1
  C  C63  1  0.22859900  0.41150600  0.28171000  1
  C  C64  1  0.74833200  0.06770700  0.06808700  1
  C  C65  1  0.08840500  0.77152600  0.13170100  1
  C  C66  1  0.27105700  0.08852900  0.18176200  1
  C  C67  1  0.91159500  0.22847400  0.13170100  1
  C  C68  1  0.58849300  0.77141200  0.31829300  1
  C  C69  1  0.22861400  0.91151700  0.26828900  1
  C  C70  1  0.41150700  0.22858800  0.31829300  1
  C  C71  1  0.72859100  0.91150800  0.38170800  1
  C  C72  1  0.27083100  0.58790800  0.16828100  1
  C  C73  1  0.58846700  0.27141200  0.23170100  1
  C  C74  1  0.77140100  0.58849400  0.28171000  1
  C  C75  1  0.41153300  0.72858800  0.23170100  1
  C  C76  1  0.08849100  0.27140700  0.41829100  1
  C  C77  1  0.72859300  0.41150900  0.36829200  1
  C  C78  1  0.91150900  0.72859300  0.41829100  1
  C  C79  1  0.22859200  0.41150800  0.48170800  1
  C  C80  1  0.77138600  0.08848300  0.26828900  1
  C  C81  1  0.08849100  0.77140900  0.33170800  1
  C  C82  1  0.27140900  0.08849200  0.38170800  1
  C  C83  1  0.91150900  0.22859100  0.33170800  1
  C  C84  1  0.58849200  0.77140800  0.51829200  1
  C  C85  1  0.22859200  0.91151000  0.46829200  1
  C  C86  1  0.41150800  0.22859200  0.51829200  1
  C  C87  1  0.72859300  0.91150900  0.58170900  1
  C  C88  1  0.27140700  0.58849100  0.36829200  1
  C  C89  1  0.58849300  0.27140900  0.43170800  1
  C  C90  1  0.77140800  0.58849200  0.48170800  1
  C  C91  1  0.41150700  0.72859100  0.43170800  1
  C  C92  1  0.08849200  0.27140900  0.61829200  1
  C  C93  1  0.72859100  0.41150700  0.56829200  1
  C  C94  1  0.91150800  0.72859100  0.61829200  1
  C  C95  1  0.22858800  0.41150700  0.68170700  1
  C  C96  1  0.77140800  0.08849000  0.46829200  1
  C  C97  1  0.08849000  0.77140800  0.53170800  1
  C  C98  1  0.27140700  0.08849100  0.58170900  1
  C  C99  1  0.91151000  0.22859200  0.53170800  1
  C  C100  1  0.58849400  0.77140100  0.71829000  1
  C  C101  1  0.22859100  0.91150900  0.66829200  1
  C  C102  1  0.41150600  0.22859900  0.71829000  1
  C  C103  1  0.72847900  0.91148100  0.78168700  1
  C  C104  1  0.27140900  0.58849300  0.56829200  1
  C  C105  1  0.58849100  0.27140700  0.63170800  1
  C  C106  1  0.77141200  0.58849300  0.68170700  1
  C  C107  1  0.41150900  0.72859300  0.63170800  1
  C  C108  1  0.08852900  0.27105700  0.81823800  1
  C  C109  1  0.72858800  0.41153300  0.76829900  1
  C  C110  1  0.91147100  0.72894300  0.81823800  1
  C  C111  1  0.77140900  0.08849100  0.66829200  1
  C  C112  1  0.08848300  0.77138600  0.73171100  1
  C  C113  1  0.27152100  0.08851900  0.78168700  1
  C  C114  1  0.91151700  0.22861400  0.73171100  1
  C  C115  1  0.22847400  0.91159500  0.86829900  1
  C  C116  1  0.27141200  0.58846700  0.76829900  1
  C  C117  1  0.58790800  0.27083100  0.83171900  1
  C  C118  1  0.41209200  0.72916900  0.83171900  1
  C  C119  1  0.77152600  0.08840500  0.86829900  1
