# generated using pymatgen
data_CuNiC5
_symmetry_space_group_name_H-M   'P 1'
_cell_length_a   9.15454119
_cell_length_b   9.15454119
_cell_length_c   8.44359400
_cell_angle_alpha   90.00000000
_cell_angle_beta   90.00000000
_cell_angle_gamma   119.99999417
_symmetry_Int_Tables_number   1
_chemical_formula_structural   CuNiC5
_chemical_formula_sum   'Cu6 Ni6 C30'
_cell_volume   612.81751057
_cell_formula_units_Z   6
loop_
 _symmetry_equiv_pos_site_id
 _symmetry_equiv_pos_as_xyz
  1  'x, y, z'
loop_
 _atom_site_type_symbol
 _atom_site_label
 _atom_site_symmetry_multiplicity
 _atom_site_fract_x
 _atom_site_fract_y
 _atom_site_fract_z
 _atom_site_occupancy
  C  C0  1  0.33333300  0.66666700  0.69098300  1
  C  C1  1  0.66666700  0.33333300  0.19098300  1
  C  C2  1  0.00000000  0.00000000  0.18566800  1
  C  C3  1  0.00000000  0.00000000  0.68566800  1
  C  C4  1  0.33333300  0.66666700  0.27150000  1
  C  C5  1  0.66666700  0.33333300  0.77150000  1
  Ni  Ni6  1  0.66282800  0.98517500  0.39386800  1
  Ni  Ni7  1  0.67765300  0.66282800  0.89386800  1
  Ni  Ni8  1  0.98517500  0.32234700  0.89386800  1
  Ni  Ni9  1  0.33717200  0.01482500  0.89386800  1
  Ni  Ni10  1  0.32234700  0.33717200  0.39386800  1
  Ni  Ni11  1  0.01482500  0.67765300  0.39386800  1
  Cu  Cu12  1  0.68342900  0.65602900  0.50308400  1
  Cu  Cu13  1  0.02740100  0.68342900  0.00308400  1
  Cu  Cu14  1  0.65602900  0.97259900  0.00308400  1
  Cu  Cu15  1  0.34397100  0.02740100  0.50308400  1
  Cu  Cu16  1  0.97259900  0.31657100  0.50308400  1
  Cu  Cu17  1  0.31657100  0.34397100  0.00308400  1
  C  C18  1  0.60374700  0.87132900  0.18312100  1
  C  C19  1  0.90047600  0.46818300  0.97886300  1
  C  C20  1  0.56770700  0.09952400  0.97886300  1
  C  C21  1  0.43229300  0.90047600  0.47886300  1
  C  C22  1  0.09952400  0.53181700  0.47886300  1
  C  C23  1  0.53181700  0.43229300  0.97886300  1
  C  C24  1  0.77473600  0.87270100  0.49601700  1
  C  C25  1  0.90203400  0.77473600  0.99601700  1
  C  C26  1  0.87270100  0.09796600  0.99601700  1
  C  C27  1  0.12729900  0.90203400  0.49601700  1
  C  C28  1  0.09796600  0.22526400  0.49601700  1
  C  C29  1  0.22526400  0.12729900  0.99601700  1
  C  C30  1  0.22895000  0.41369300  0.86153100  1
  C  C31  1  0.81525700  0.22895000  0.36153100  1
  C  C32  1  0.73241800  0.60374700  0.68312100  1
  C  C33  1  0.58630700  0.81525700  0.86153100  1
  C  C34  1  0.18474300  0.77105000  0.86153100  1
  C  C35  1  0.77105000  0.58630700  0.36153100  1
  C  C36  1  0.26758200  0.39625300  0.18312100  1
  C  C37  1  0.87132900  0.26758200  0.68312100  1
  C  C38  1  0.39625300  0.12867100  0.68312100  1
  C  C39  1  0.41369300  0.18474300  0.36153100  1
  C  C40  1  0.12867100  0.73241800  0.18312100  1
  C  C41  1  0.46818300  0.56770700  0.47886300  1
