# generated using pymatgen
data_Cu(Ni7C10)2
_symmetry_space_group_name_H-M   'P 1'
_cell_length_a   12.63522743
_cell_length_b   12.63522743
_cell_length_c   12.63522743
_cell_angle_alpha   60.00000000
_cell_angle_beta   60.00000000
_cell_angle_gamma   60.00000000
_symmetry_Int_Tables_number   1
_chemical_formula_structural   Cu(Ni7C10)2
_chemical_formula_sum   'Cu1 Ni14 C20'
_cell_volume   1426.37655876
_cell_formula_units_Z   1
loop_
 _symmetry_equiv_pos_site_id
 _symmetry_equiv_pos_as_xyz
  1  'x, y, z'
loop_
 _atom_site_type_symbol
 _atom_site_label
 _atom_site_symmetry_multiplicity
 _atom_site_fract_x
 _atom_site_fract_y
 _atom_site_fract_z
 _atom_site_occupancy
  C  C0  1  0.89301200  0.32096300  0.89301200  1
  C  C1  1  0.67903700  0.10698800  0.10698800  1
  C  C2  1  0.10698800  0.10698800  0.10698800  1
  C  C3  1  0.10698800  0.10698800  0.67903700  1
  C  C4  1  0.89301200  0.89301200  0.89301200  1
  C  C5  1  0.89301200  0.89301200  0.32096300  1
  C  C6  1  0.32096300  0.89301200  0.89301200  1
  C  C7  1  0.10698800  0.67903700  0.10698800  1
  C  C8  1  0.28623100  0.71376900  0.71376900  1
  C  C9  1  0.71376900  0.28623100  0.71376900  1
  C  C10  1  0.28623100  0.71376900  0.28623100  1
  C  C11  1  0.28623100  0.28623100  0.71376900  1
  C  C12  1  0.71376900  0.71376900  0.28623100  1
  C  C13  1  0.71376900  0.28623100  0.28623100  1
  Ni  Ni14  1  0.67114300  0.98657100  0.67114300  1
  Ni  Ni15  1  0.01342900  0.32885700  0.32885700  1
  Ni  Ni16  1  0.32885700  0.32885700  0.32885700  1
  Ni  Ni17  1  0.32885700  0.32885700  0.01342900  1
  Ni  Ni18  1  0.67114300  0.67114300  0.67114300  1
  Ni  Ni19  1  0.67114300  0.67114300  0.98657100  1
  Ni  Ni20  1  0.98657100  0.67114300  0.67114300  1
  Ni  Ni21  1  0.32885700  0.01342900  0.32885700  1
  Ni  Ni22  1  0.50000000  0.50000000  0.00000000  1
  Ni  Ni23  1  0.00000000  0.00000000  0.50000000  1
  Ni  Ni24  1  0.00000000  0.50000000  0.50000000  1
  Ni  Ni25  1  0.50000000  0.00000000  0.00000000  1
  Ni  Ni26  1  0.50000000  0.00000000  0.50000000  1
  Ni  Ni27  1  0.00000000  0.50000000  0.00000000  1
  Cu  Cu28  1  0.00000000  0.00000000  0.00000000  1
  C  C29  1  0.14469100  0.85530900  0.85530900  1
  C  C30  1  0.85530900  0.14469100  0.85530900  1
  C  C31  1  0.14469100  0.85530900  0.14469100  1
  C  C32  1  0.14469100  0.14469100  0.85530900  1
  C  C33  1  0.85530900  0.85530900  0.14469100  1
  C  C34  1  0.85530900  0.14469100  0.14469100  1
