# generated using pymatgen
data_Cu7NiC16
_symmetry_space_group_name_H-M   'P 1'
_cell_length_a   14.49325100
_cell_length_b   7.28783900
_cell_length_c   12.79156784
_cell_angle_alpha   63.14382552
_cell_angle_beta   90.00000000
_cell_angle_gamma   90.00000000
_symmetry_Int_Tables_number   1
_chemical_formula_structural   Cu7NiC16
_chemical_formula_sum   'Cu28 Ni4 C64'
_cell_volume   1205.37726937
_cell_formula_units_Z   4
loop_
 _symmetry_equiv_pos_site_id
 _symmetry_equiv_pos_as_xyz
  1  'x, y, z'
loop_
 _atom_site_type_symbol
 _atom_site_label
 _atom_site_symmetry_multiplicity
 _atom_site_fract_x
 _atom_site_fract_y
 _atom_site_fract_z
 _atom_site_occupancy
  C  C0  1  0.47071800  0.17549400  0.59281600  1
  C  C1  1  0.52928200  0.82450600  0.40718400  1
  C  C2  1  0.97071800  0.82450600  0.90718400  1
  C  C3  1  0.02928200  0.17549400  0.09281600  1
  C  C4  1  0.89806900  0.74618100  0.31965700  1
  C  C5  1  0.64609600  0.52417200  0.85724000  1
  C  C6  1  0.83971200  0.37080000  0.10971200  1
  C  C7  1  0.59293400  0.38691500  0.16825000  1
  C  C8  1  0.90706600  0.38691500  0.66825000  1
  C  C9  1  0.26500900  0.17609700  0.71050200  1
  C  C10  1  0.40706600  0.61308500  0.83175000  1
  C  C11  1  0.21591700  0.20872300  0.96844500  1
  C  C12  1  0.14609600  0.47582800  0.64276000  1
  C  C13  1  0.31422400  0.55035200  0.76067700  1
  C  C14  1  0.59626500  0.63828300  0.16817300  1
  C  C15  1  0.16028800  0.62920000  0.89028800  1
  C  C16  1  0.29990000  0.78914700  0.42834100  1
  C  C17  1  0.22797000  0.97378400  0.20122900  1
  C  C18  1  0.76500900  0.82390300  0.78949800  1
  C  C19  1  0.90373500  0.63828300  0.66817300  1
  C  C20  1  0.55890000  0.02989000  0.85363000  1
  C  C21  1  0.04059100  0.93838900  0.37229900  1
  C  C22  1  0.73499100  0.82390300  0.28949800  1
  C  C23  1  0.45940900  0.93838900  0.87229900  1
  C  C24  1  0.83974600  0.69550900  0.14944100  1
  C  C25  1  0.35390400  0.47582800  0.14276000  1
  C  C26  1  0.66028800  0.37080000  0.60971200  1
  C  C27  1  0.72797000  0.02621600  0.29877100  1
  C  C28  1  0.44110000  0.97011000  0.14637000  1
  C  C29  1  0.09626500  0.36171700  0.33182700  1
  C  C30  1  0.09293400  0.61308500  0.33175000  1
  C  C31  1  0.10193100  0.25381900  0.68034300  1
  C  C32  1  0.60193100  0.74618100  0.81965700  1
  C  C33  1  0.85390400  0.52417200  0.35724000  1
  C  C34  1  0.33971200  0.62920000  0.39028800  1
  C  C35  1  0.81422400  0.44964800  0.73932300  1
  C  C36  1  0.68577600  0.44964800  0.23932300  1
  C  C37  1  0.79990000  0.21085300  0.07165900  1
  C  C38  1  0.27203000  0.97378400  0.70122900  1
  C  C39  1  0.16025400  0.30449100  0.85055900  1
  C  C40  1  0.39806900  0.25381900  0.18034300  1
  C  C41  1  0.33974600  0.30449100  0.35055900  1
  C  C42  1  0.54059100  0.06161100  0.12770100  1
  C  C43  1  0.77203000  0.02621600  0.79877100  1
  C  C44  1  0.20010000  0.78914700  0.92834100  1
  C  C45  1  0.95940900  0.06161100  0.62770100  1
  C  C46  1  0.05890000  0.97011000  0.64637000  1
  C  C47  1  0.94110000  0.02989000  0.35363000  1
  C  C48  1  0.18577600  0.55035200  0.26067700  1
  C  C49  1  0.78408300  0.79127700  0.03155500  1
  C  C50  1  0.23499100  0.17609700  0.21050200  1
  C  C51  1  0.71591700  0.79127700  0.53155500  1
  C  C52  1  0.40373500  0.36171700  0.83182700  1
  C  C53  1  0.66025400  0.69550900  0.64944100  1
  C  C54  1  0.28408300  0.20872300  0.46844500  1
  C  C55  1  0.70010000  0.21085300  0.57165900  1
  C  C56  1  0.11222500  0.52634900  0.28439200  1
  C  C57  1  0.88777500  0.47365100  0.71560800  1
  C  C58  1  0.61222500  0.47365100  0.21560800  1
  C  C59  1  0.38777500  0.52634900  0.78439200  1
  C  C60  1  0.66749700  0.14511500  0.96325800  1
  C  C61  1  0.83250300  0.14511500  0.46325800  1
  C  C62  1  0.33250300  0.85488500  0.03674200  1
  C  C63  1  0.16749700  0.85488500  0.53674200  1
  Ni  Ni64  1  0.56144300  0.38662000  0.32783200  1
  Ni  Ni65  1  0.06144300  0.61338000  0.17216800  1
  Ni  Ni66  1  0.93855700  0.38662000  0.82783200  1
  Ni  Ni67  1  0.43855700  0.61338000  0.67216800  1
  Cu  Cu68  1  0.48311000  0.04833300  0.17197500  1
  Cu  Cu69  1  0.35139300  0.32999200  0.20185700  1
  Cu  Cu70  1  0.85139300  0.67000800  0.29814300  1
  Cu  Cu71  1  0.31048400  0.08002200  0.70511700  1
  Cu  Cu72  1  0.68951600  0.91997800  0.29488300  1
  Cu  Cu73  1  0.14860700  0.32999200  0.70185700  1
  Cu  Cu74  1  0.34788900  0.77036600  0.37949200  1
  Cu  Cu75  1  0.81048400  0.91997800  0.79488300  1
  Cu  Cu76  1  0.96551300  0.50381100  0.86768200  1
  Cu  Cu77  1  0.82832200  0.68257700  0.07652400  1
  Cu  Cu78  1  0.46551300  0.49618900  0.63231800  1
  Cu  Cu79  1  0.64860700  0.67000800  0.79814300  1
  Cu  Cu80  1  0.15211100  0.77036600  0.87949200  1
  Cu  Cu81  1  0.51689000  0.95166700  0.82802500  1
  Cu  Cu82  1  0.03448700  0.49618900  0.13231800  1
  Cu  Cu83  1  0.67167800  0.68257700  0.57652400  1
  Cu  Cu84  1  0.53448700  0.50381100  0.36768200  1
  Cu  Cu85  1  0.05010700  0.80264800  0.11998400  1
  Cu  Cu86  1  0.17167800  0.31742300  0.92347600  1
  Cu  Cu87  1  0.55010700  0.19735200  0.38001600  1
  Cu  Cu88  1  0.18951600  0.08002200  0.20511700  1
  Cu  Cu89  1  0.44989300  0.80264800  0.61998400  1
  Cu  Cu90  1  0.94989300  0.19735200  0.88001600  1
  Cu  Cu91  1  0.65211100  0.22963400  0.62050800  1
  Cu  Cu92  1  0.01689000  0.04833300  0.67197500  1
  Cu  Cu93  1  0.84788900  0.22963400  0.12050800  1
  Cu  Cu94  1  0.32832200  0.31742300  0.42347600  1
  Cu  Cu95  1  0.98311000  0.95166700  0.32802500  1
