# generated using pymatgen
data_CuNiC3
_symmetry_space_group_name_H-M   'P 1'
_cell_length_a   6.37693289
_cell_length_b   6.37693289
_cell_length_c   4.89492618
_cell_angle_alpha   84.04629231
_cell_angle_beta   84.04629231
_cell_angle_gamma   80.38613500
_symmetry_Int_Tables_number   1
_chemical_formula_structural   CuNiC3
_chemical_formula_sum   'Cu4 Ni4 C12'
_cell_volume   194.44017702
_cell_formula_units_Z   4
loop_
 _symmetry_equiv_pos_site_id
 _symmetry_equiv_pos_as_xyz
  1  'x, y, z'
loop_
 _atom_site_type_symbol
 _atom_site_label
 _atom_site_symmetry_multiplicity
 _atom_site_fract_x
 _atom_site_fract_y
 _atom_site_fract_z
 _atom_site_occupancy
  Ni  Ni0  1  0.11230400  0.88769600  0.25000000  1
  Ni  Ni1  1  0.69282400  0.30717600  0.25000000  1
  Ni  Ni2  1  0.88769600  0.11230400  0.75000000  1
  Ni  Ni3  1  0.30717600  0.69282400  0.75000000  1
  Cu  Cu4  1  0.32673500  0.16724700  0.52773100  1
  Cu  Cu5  1  0.67326500  0.83275300  0.47226900  1
  Cu  Cu6  1  0.83275300  0.67326500  0.97226900  1
  Cu  Cu7  1  0.16724700  0.32673500  0.02773100  1
  C  C8  1  0.93583800  0.80079600  0.63078400  1
  C  C9  1  0.71194000  0.60371300  0.30317400  1
  C  C10  1  0.89512300  0.38503900  0.92535400  1
  C  C11  1  0.80079600  0.93583800  0.13078400  1
  C  C12  1  0.19920400  0.06416200  0.86921600  1
  C  C13  1  0.60371300  0.71194000  0.80317400  1
  C  C14  1  0.10487700  0.61496100  0.07464600  1
  C  C15  1  0.38503900  0.89512300  0.42535400  1
  C  C16  1  0.61496100  0.10487700  0.57464600  1
  C  C17  1  0.39628700  0.28806000  0.19682600  1
  C  C18  1  0.28806000  0.39628700  0.69682600  1
  C  C19  1  0.06416200  0.19920400  0.36921600  1
