# generated using pymatgen
data_Cu5NiC3
_symmetry_space_group_name_H-M   'P 1'
_cell_length_a   6.32079800
_cell_length_b   7.53478700
_cell_length_c   8.70457400
_cell_angle_alpha   90.00000000
_cell_angle_beta   90.00000000
_cell_angle_gamma   90.00000000
_symmetry_Int_Tables_number   1
_chemical_formula_structural   Cu5NiC3
_chemical_formula_sum   'Cu20 Ni4 C12'
_cell_volume   414.56288013
_cell_formula_units_Z   4
loop_
 _symmetry_equiv_pos_site_id
 _symmetry_equiv_pos_as_xyz
  1  'x, y, z'
loop_
 _atom_site_type_symbol
 _atom_site_label
 _atom_site_symmetry_multiplicity
 _atom_site_fract_x
 _atom_site_fract_y
 _atom_site_fract_z
 _atom_site_occupancy
  C  C0  1  0.25000000  0.53746600  0.18157500  1
  C  C1  1  0.25000000  0.96253400  0.68157500  1
  C  C2  1  0.75000000  0.46253400  0.81842500  1
  C  C3  1  0.75000000  0.03746600  0.31842500  1
  C  C4  1  0.25000000  0.73717200  0.75802100  1
  C  C5  1  0.25000000  0.90784900  0.87838000  1
  C  C6  1  0.25000000  0.76282800  0.25802100  1
  C  C7  1  0.25000000  0.59215100  0.37838000  1
  C  C8  1  0.75000000  0.09215100  0.12162000  1
  C  C9  1  0.75000000  0.26282800  0.24197900  1
  C  C10  1  0.75000000  0.40784900  0.62162000  1
  C  C11  1  0.75000000  0.23717200  0.74197900  1
  Ni  Ni12  1  0.25000000  0.31213000  0.94839200  1
  Ni  Ni13  1  0.25000000  0.18787000  0.44839200  1
  Ni  Ni14  1  0.75000000  0.68787000  0.05160800  1
  Ni  Ni15  1  0.75000000  0.81213000  0.55160800  1
  Cu  Cu16  1  0.25000000  0.46237800  0.84461300  1
  Cu  Cu17  1  0.25000000  0.03762200  0.34461300  1
  Cu  Cu18  1  0.75000000  0.53762200  0.15538700  1
  Cu  Cu19  1  0.75000000  0.96237800  0.65538700  1
  Cu  Cu20  1  0.25000000  0.37547700  0.11106800  1
  Cu  Cu21  1  0.25000000  0.12452300  0.61106800  1
  Cu  Cu22  1  0.75000000  0.62452300  0.88893200  1
  Cu  Cu23  1  0.75000000  0.87547700  0.38893200  1
  Cu  Cu24  1  0.06205300  0.20338100  0.92857400  1
  Cu  Cu25  1  0.43794700  0.29661900  0.42857400  1
  Cu  Cu26  1  0.56205300  0.79661900  0.07142600  1
  Cu  Cu27  1  0.93794700  0.70338100  0.57142600  1
  Cu  Cu28  1  0.93794700  0.79661900  0.07142600  1
  Cu  Cu29  1  0.56205300  0.70338100  0.57142600  1
  Cu  Cu30  1  0.43794700  0.20338100  0.92857400  1
  Cu  Cu31  1  0.06205300  0.29661900  0.42857400  1
  Cu  Cu32  1  0.25000000  0.86501800  0.77249800  1
  Cu  Cu33  1  0.25000000  0.63498200  0.27249800  1
  Cu  Cu34  1  0.75000000  0.13498200  0.22750200  1
  Cu  Cu35  1  0.75000000  0.36501800  0.72750200  1
