# generated using pymatgen
data_Cu12Ni2C11
_symmetry_space_group_name_H-M   'P 1'
_cell_length_a   8.78764600
_cell_length_b   8.78764600
_cell_length_c   12.65754600
_cell_angle_alpha   90.00000000
_cell_angle_beta   90.00000000
_cell_angle_gamma   90.00000000
_symmetry_Int_Tables_number   1
_chemical_formula_structural   Cu12Ni2C11
_chemical_formula_sum   'Cu24 Ni4 C22'
_cell_volume   977.45015876
_cell_formula_units_Z   2
loop_
 _symmetry_equiv_pos_site_id
 _symmetry_equiv_pos_as_xyz
  1  'x, y, z'
loop_
 _atom_site_type_symbol
 _atom_site_label
 _atom_site_symmetry_multiplicity
 _atom_site_fract_x
 _atom_site_fract_y
 _atom_site_fract_z
 _atom_site_occupancy
  C  C0  1  0.22869800  0.27295000  0.29456300  1
  C  C1  1  0.77130200  0.72705000  0.29456300  1
  C  C2  1  0.27295000  0.77130200  0.79456300  1
  C  C3  1  0.72705000  0.22869800  0.79456300  1
  C  C4  1  0.22869800  0.72705000  0.29456300  1
  C  C5  1  0.77130200  0.27295000  0.29456300  1
  C  C6  1  0.27295000  0.22869800  0.79456300  1
  C  C7  1  0.72705000  0.77130200  0.79456300  1
  C  C8  1  0.00000000  0.00000000  0.93973000  1
  C  C9  1  0.00000000  0.00000000  0.43973000  1
  C  C10  1  0.50000000  0.50000000  0.54802000  1
  C  C11  1  0.50000000  0.50000000  0.04802000  1
  C  C12  1  0.25631800  0.72477200  0.03666300  1
  C  C13  1  0.74368200  0.27522800  0.03666300  1
  C  C14  1  0.27522800  0.25631800  0.53666300  1
  C  C15  1  0.72477200  0.74368200  0.53666300  1
  C  C16  1  0.27522800  0.74368200  0.53666300  1
  C  C17  1  0.72477200  0.25631800  0.53666300  1
  C  C18  1  0.25631800  0.27522800  0.03666300  1
  C  C19  1  0.74368200  0.72477200  0.03666300  1
  C  C20  1  0.50000000  0.50000000  0.80102800  1
  C  C21  1  0.50000000  0.50000000  0.30102800  1
  Ni  Ni22  1  0.00000000  0.00000000  0.68605100  1
  Ni  Ni23  1  0.00000000  0.00000000  0.18605100  1
  Ni  Ni24  1  0.00000000  0.50000000  0.50407300  1
  Ni  Ni25  1  0.50000000  0.00000000  0.00407300  1
  Cu  Cu26  1  0.00000000  0.69443100  0.41207100  1
  Cu  Cu27  1  0.00000000  0.30556900  0.41207100  1
  Cu  Cu28  1  0.30556900  0.00000000  0.91207100  1
  Cu  Cu29  1  0.69443100  0.00000000  0.91207100  1
  Cu  Cu30  1  0.50000000  0.18984800  0.09705700  1
  Cu  Cu31  1  0.50000000  0.81015200  0.09705700  1
  Cu  Cu32  1  0.18984800  0.50000000  0.59705700  1
  Cu  Cu33  1  0.81015200  0.50000000  0.59705700  1
  Cu  Cu34  1  0.00000000  0.80470800  0.09409600  1
  Cu  Cu35  1  0.00000000  0.19529200  0.09409600  1
  Cu  Cu36  1  0.19529200  0.00000000  0.59409600  1
  Cu  Cu37  1  0.80470800  0.00000000  0.59409600  1
  Cu  Cu38  1  0.50000000  0.29000200  0.40324200  1
  Cu  Cu39  1  0.50000000  0.70999800  0.40324200  1
  Cu  Cu40  1  0.29000200  0.50000000  0.90324200  1
  Cu  Cu41  1  0.70999800  0.50000000  0.90324200  1
  Cu  Cu42  1  0.00000000  0.19195000  0.77706900  1
  Cu  Cu43  1  0.00000000  0.80805000  0.77706900  1
  Cu  Cu44  1  0.80805000  0.00000000  0.27706900  1
  Cu  Cu45  1  0.19195000  0.00000000  0.27706900  1
  Cu  Cu46  1  0.50000000  0.70737800  0.69816600  1
  Cu  Cu47  1  0.50000000  0.29262200  0.69816600  1
  Cu  Cu48  1  0.70737800  0.50000000  0.19816600  1
  Cu  Cu49  1  0.29262200  0.50000000  0.19816600  1
