# generated using pymatgen
data_Cu2Ni5C19
_symmetry_space_group_name_H-M   'P 1'
_cell_length_a   5.84865988
_cell_length_b   5.84865988
_cell_length_c   11.44968500
_cell_angle_alpha   90.00000000
_cell_angle_beta   90.00000000
_cell_angle_gamma   119.99999865
_symmetry_Int_Tables_number   1
_chemical_formula_structural   Cu2Ni5C19
_chemical_formula_sum   'Cu2 Ni5 C19'
_cell_volume   339.18521176
_cell_formula_units_Z   1
loop_
 _symmetry_equiv_pos_site_id
 _symmetry_equiv_pos_as_xyz
  1  'x, y, z'
loop_
 _atom_site_type_symbol
 _atom_site_label
 _atom_site_symmetry_multiplicity
 _atom_site_fract_x
 _atom_site_fract_y
 _atom_site_fract_z
 _atom_site_occupancy
  Ni  Ni0  1  0.00000000  0.50000000  0.50000000  1
  Ni  Ni1  1  0.00000000  0.00000000  0.31021500  1
  Ni  Ni2  1  0.00000000  0.00000000  0.68978500  1
  Ni  Ni3  1  0.50000000  0.50000000  0.50000000  1
  Ni  Ni4  1  0.50000000  0.00000000  0.50000000  1
  Cu  Cu5  1  0.33333300  0.66666700  0.85938800  1
  Cu  Cu6  1  0.66666700  0.33333300  0.14061200  1
  C  C7  1  0.33333300  0.66666700  0.23525600  1
  C  C8  1  0.66666700  0.33333300  0.76474400  1
  C  C9  1  0.00000000  0.00000000  0.00000000  1
  C  C10  1  0.17790300  0.35580600  0.40574900  1
  C  C11  1  0.66666700  0.33333300  0.99305500  1
  C  C12  1  0.16549800  0.83450200  0.81516400  1
  C  C13  1  0.35580600  0.17790300  0.59425100  1
  C  C14  1  0.33333300  0.66666700  0.58482800  1
  C  C15  1  0.16549800  0.33099500  0.81516400  1
  C  C16  1  0.82209700  0.64419400  0.59425100  1
  C  C17  1  0.64419400  0.82209700  0.40574900  1
  C  C18  1  0.82209700  0.17790300  0.59425100  1
  C  C19  1  0.33333300  0.66666700  0.00694500  1
  C  C20  1  0.33099500  0.16549800  0.18483600  1
  C  C21  1  0.17790300  0.82209700  0.40574900  1
  C  C22  1  0.83450200  0.16549800  0.18483600  1
  C  C23  1  0.83450200  0.66900500  0.18483600  1
  C  C24  1  0.66900500  0.83450200  0.81516400  1
  C  C25  1  0.66666700  0.33333300  0.41517200  1
