# generated using pymatgen
data_Cu16Ni
_symmetry_space_group_name_H-M   'P 1'
_cell_length_a   6.91099994
_cell_length_b   6.91099994
_cell_length_c   11.71980100
_cell_angle_alpha   90.00000000
_cell_angle_beta   90.00000000
_cell_angle_gamma   112.08480272
_symmetry_Int_Tables_number   1
_chemical_formula_structural   Cu16Ni
_chemical_formula_sum   'Cu32 Ni2'
_cell_volume   518.68969157
_cell_formula_units_Z   2
loop_
 _symmetry_equiv_pos_site_id
 _symmetry_equiv_pos_as_xyz
  1  'x, y, z'
loop_
 _atom_site_type_symbol
 _atom_site_label
 _atom_site_symmetry_multiplicity
 _atom_site_fract_x
 _atom_site_fract_y
 _atom_site_fract_z
 _atom_site_occupancy
  Ni  Ni0  1  0.04821000  0.95179000  0.25000000  1
  Ni  Ni1  1  0.95179000  0.04821000  0.75000000  1
  Cu  Cu2  1  0.75571300  0.65121100  0.86619500  1
  Cu  Cu3  1  0.35502600  0.98132800  0.43071200  1
  Cu  Cu4  1  0.62011500  0.37988500  0.46808700  1
  Cu  Cu5  1  0.01867200  0.64497400  0.06928800  1
  Cu  Cu6  1  0.19282300  0.48075400  0.75000000  1
  Cu  Cu7  1  0.65121100  0.75571300  0.36619500  1
  Cu  Cu8  1  0.37988500  0.62011500  0.96808700  1
  Cu  Cu9  1  0.34878900  0.24428700  0.63380500  1
  Cu  Cu10  1  0.17588100  0.82411900  0.85969200  1
  Cu  Cu11  1  0.98132800  0.35502600  0.56928800  1
  Cu  Cu12  1  0.24428700  0.34878900  0.36619500  1
  Cu  Cu13  1  0.64497400  0.01867200  0.93071200  1
  Cu  Cu14  1  0.80717700  0.51924600  0.25000000  1
  Cu  Cu15  1  0.24428700  0.34878900  0.13380500  1
  Cu  Cu16  1  0.37988500  0.62011500  0.53191300  1
  Cu  Cu17  1  0.34878900  0.24428700  0.86619500  1
  Cu  Cu18  1  0.75571300  0.65121100  0.63380500  1
  Cu  Cu19  1  0.51924600  0.80717700  0.75000000  1
  Cu  Cu20  1  0.00000000  0.00000000  0.50000000  1
  Cu  Cu21  1  0.62011500  0.37988500  0.03191300  1
  Cu  Cu22  1  0.29003700  0.70996300  0.25000000  1
  Cu  Cu23  1  0.48075400  0.19282300  0.25000000  1
  Cu  Cu24  1  0.64497400  0.01867200  0.56928800  1
  Cu  Cu25  1  0.65121100  0.75571300  0.13380500  1
  Cu  Cu26  1  0.17588100  0.82411900  0.64030800  1
  Cu  Cu27  1  0.01867200  0.64497400  0.43071200  1
  Cu  Cu28  1  0.00000000  0.00000000  0.00000000  1
  Cu  Cu29  1  0.98132800  0.35502600  0.93071200  1
  Cu  Cu30  1  0.35502600  0.98132800  0.06928800  1
  Cu  Cu31  1  0.70996300  0.29003700  0.75000000  1
  Cu  Cu32  1  0.82411900  0.17588100  0.35969200  1
  Cu  Cu33  1  0.82411900  0.17588100  0.14030800  1
