# generated using pymatgen
data_CuNi24C17
_symmetry_space_group_name_H-M   'P 1'
_cell_length_a   9.59093084
_cell_length_b   9.59093084
_cell_length_c   13.83271800
_cell_angle_alpha   90.00000000
_cell_angle_beta   90.00000000
_cell_angle_gamma   120.00000582
_symmetry_Int_Tables_number   1
_chemical_formula_structural   CuNi24C17
_chemical_formula_sum   'Cu2 Ni48 C34'
_cell_volume   1101.94431449
_cell_formula_units_Z   2
loop_
 _symmetry_equiv_pos_site_id
 _symmetry_equiv_pos_as_xyz
  1  'x, y, z'
loop_
 _atom_site_type_symbol
 _atom_site_label
 _atom_site_symmetry_multiplicity
 _atom_site_fract_x
 _atom_site_fract_y
 _atom_site_fract_z
 _atom_site_occupancy
  C  C0  1  0.26089300  0.99440500  0.12518100  1
  C  C1  1  0.24234800  0.99804700  0.62381400  1
  C  C2  1  0.00559500  0.26648800  0.12518100  1
  C  C3  1  0.00195300  0.24430200  0.62381400  1
  C  C4  1  0.33333300  0.66666700  0.99940700  1
  C  C5  1  0.33333300  0.66666700  0.50145100  1
  C  C6  1  0.33333300  0.66666700  0.25008000  1
  C  C7  1  0.33333300  0.66666700  0.74847900  1
  C  C8  1  0.26464700  0.25936200  0.37314600  1
  C  C9  1  0.24653000  0.24419300  0.87354700  1
  C  C10  1  0.73351200  0.73910700  0.12518100  1
  C  C11  1  0.75569800  0.75765200  0.62381400  1
  C  C12  1  0.66666700  0.33333300  0.25026700  1
  C  C13  1  0.66666700  0.33333300  0.75031900  1
  C  C14  1  0.66666700  0.33333300  0.99693400  1
  C  C15  1  0.66666700  0.33333300  0.50116400  1
  C  C16  1  0.99471500  0.73535300  0.37314600  1
  C  C17  1  0.99766300  0.75347000  0.87354700  1
  C  C18  1  0.74063800  0.00528500  0.37314600  1
  C  C19  1  0.75580700  0.00233700  0.87354700  1
  C  C20  1  0.03274700  0.40280900  0.37631000  1
  C  C21  1  0.03041000  0.39956300  0.87484200  1
  C  C22  1  0.37006200  0.96725300  0.37631000  1
  C  C23  1  0.36915300  0.96959000  0.87484200  1
  C  C24  1  0.39970200  0.36738100  0.12479100  1
  C  C25  1  0.40220300  0.37143100  0.62573200  1
  C  C26  1  0.59719100  0.62993800  0.37631000  1
  C  C27  1  0.60043700  0.63084700  0.87484200  1
  C  C28  1  0.63261900  0.03232000  0.12479100  1
  C  C29  1  0.62856900  0.03077200  0.62573200  1
  C  C30  1  0.96768000  0.60029800  0.12479100  1
  C  C31  1  0.96922800  0.59779700  0.62573200  1
  C  C32  1  0.00000000  0.00000000  0.43969700  1
  C  C33  1  0.00000000  0.00000000  0.19381600  1
  Ni  Ni34  1  0.26487800  0.90792100  0.46824000  1
  Ni  Ni35  1  0.25752300  0.91294600  0.96547600  1
  Ni  Ni36  1  0.25801700  0.91254200  0.28610000  1
  Ni  Ni37  1  0.25721500  0.91431600  0.78495800  1
  Ni  Ni38  1  0.15296000  0.66927100  0.12568600  1
  Ni  Ni39  1  0.15445300  0.67012200  0.62591100  1
  Ni  Ni40  1  0.12450100  0.59077900  0.37235000  1
  Ni  Ni41  1  0.12142800  0.58766500  0.87540700  1
  Ni  Ni42  1  0.08745800  0.34547500  0.28610000  1
  Ni  Ni43  1  0.08568400  0.34290000  0.78495800  1
  Ni  Ni44  1  0.09207900  0.35695700  0.46824000  1
  Ni  Ni45  1  0.08705400  0.34457600  0.96547600  1
  Ni  Ni46  1  0.46627700  0.87549900  0.37235000  1
  Ni  Ni47  1  0.46623800  0.87857200  0.87540700  1
  Ni  Ni48  1  0.51631100  0.84704000  0.12568600  1
  Ni  Ni49  1  0.51566900  0.84554700  0.62591100  1
  Ni  Ni50  1  0.33072900  0.48368900  0.12568600  1
  Ni  Ni51  1  0.32987800  0.48433100  0.62591100  1
  Ni  Ni52  1  0.40922100  0.53372300  0.37235000  1
  Ni  Ni53  1  0.41233500  0.53376200  0.87540700  1
  Ni  Ni54  1  0.33475700  0.25112700  0.03681400  1
  Ni  Ni55  1  0.34932500  0.26157800  0.53470100  1
  Ni  Ni56  1  0.35865600  0.26443000  0.21764400  1
  Ni  Ni57  1  0.34514800  0.25863100  0.71570400  1
  Ni  Ni58  1  0.65452500  0.74198300  0.28610000  1
  Ni  Ni59  1  0.64304300  0.73512200  0.46824000  1
  Ni  Ni60  1  0.65710000  0.74278500  0.78495800  1
  Ni  Ni61  1  0.65542400  0.74247700  0.96547600  1
  Ni  Ni62  1  0.58774600  0.46358900  0.11914100  1
  Ni  Ni63  1  0.59007600  0.46839700  0.62686700  1
  Ni  Ni64  1  0.66777700  0.51508300  0.37591200  1
  Ni  Ni65  1  0.67158500  0.51677300  0.87556000  1
  Ni  Ni66  1  0.48491700  0.15269300  0.37591200  1
  Ni  Ni67  1  0.48322700  0.15481200  0.87556000  1
  Ni  Ni68  1  0.53641100  0.12415600  0.11914100  1
  Ni  Ni69  1  0.53160300  0.12167900  0.62686700  1
  Ni  Ni70  1  0.91637000  0.66524300  0.03681400  1
  Ni  Ni71  1  0.90577400  0.64134400  0.21764400  1
  Ni  Ni72  1  0.91225200  0.65067500  0.53470100  1
  Ni  Ni73  1  0.91348300  0.65485200  0.71570400  1
  Ni  Ni74  1  0.87584400  0.41225400  0.11914100  1
  Ni  Ni75  1  0.87832100  0.40992400  0.62686700  1
  Ni  Ni76  1  0.84730700  0.33222300  0.37591200  1
  Ni  Ni77  1  0.84518800  0.32841500  0.87556000  1
  Ni  Ni78  1  0.74887300  0.08363000  0.03681400  1
  Ni  Ni79  1  0.73557000  0.09422600  0.21764400  1
  Ni  Ni80  1  0.74136900  0.08651700  0.71570400  1
  Ni  Ni81  1  0.73842200  0.08774800  0.53470100  1
  Cu  Cu82  1  0.00000000  0.00000000  0.64828400  1
  Cu  Cu83  1  0.00000000  0.00000000  0.87890700  1
