# generated using pymatgen
data_CuNi2C3
_symmetry_space_group_name_H-M   'P 1'
_cell_length_a   8.28275300
_cell_length_b   8.85177600
_cell_length_c   15.51892400
_cell_angle_alpha   90.00000000
_cell_angle_beta   90.00000000
_cell_angle_gamma   90.00000000
_symmetry_Int_Tables_number   1
_chemical_formula_structural   CuNi2C3
_chemical_formula_sum   'Cu8 Ni16 C24'
_cell_volume   1137.80210271
_cell_formula_units_Z   8
loop_
 _symmetry_equiv_pos_site_id
 _symmetry_equiv_pos_as_xyz
  1  'x, y, z'
loop_
 _atom_site_type_symbol
 _atom_site_label
 _atom_site_symmetry_multiplicity
 _atom_site_fract_x
 _atom_site_fract_y
 _atom_site_fract_z
 _atom_site_occupancy
  C  C0  1  0.82053100  0.96433900  0.07811700  1
  C  C1  1  0.32053100  0.03566100  0.42188300  1
  C  C2  1  0.05405300  0.29932100  0.54526100  1
  C  C3  1  0.55405300  0.20067900  0.54526100  1
  C  C4  1  0.05405300  0.79932100  0.95473900  1
  C  C5  1  0.94594700  0.20067900  0.04526100  1
  C  C6  1  0.94594700  0.70067900  0.45473900  1
  C  C7  1  0.55405300  0.70067900  0.95473900  1
  C  C8  1  0.17946900  0.03566100  0.92188300  1
  C  C9  1  0.44594700  0.29932100  0.04526100  1
  C  C10  1  0.67946900  0.96433900  0.57811700  1
  C  C11  1  0.44594700  0.79932100  0.45473900  1
  C  C12  1  0.17946900  0.53566100  0.57811700  1
  C  C13  1  0.82053100  0.46433900  0.42188300  1
  C  C14  1  0.67946900  0.46433900  0.92188300  1
  C  C15  1  0.32053100  0.53566100  0.07811700  1
  C  C16  1  0.51301000  0.40975900  0.21913900  1
  C  C17  1  0.51301000  0.90975900  0.28086100  1
  C  C18  1  0.98699000  0.90975900  0.78086100  1
  C  C19  1  0.48699000  0.09024100  0.71913900  1
  C  C20  1  0.48699000  0.59024100  0.78086100  1
  C  C21  1  0.01301000  0.59024100  0.28086100  1
  C  C22  1  0.01301000  0.09024100  0.21913900  1
  C  C23  1  0.98699000  0.40975900  0.71913900  1
  Ni  Ni24  1  0.54025600  0.28109900  0.15115400  1
  Ni  Ni25  1  0.10101600  0.04038000  0.81215800  1
  Ni  Ni26  1  0.95974400  0.28109900  0.65115400  1
  Ni  Ni27  1  0.39898400  0.54038000  0.18784200  1
  Ni  Ni28  1  0.60101600  0.95962000  0.68784200  1
  Ni  Ni29  1  0.89898400  0.95962000  0.18784200  1
  Ni  Ni30  1  0.95974400  0.78109900  0.84884600  1
  Ni  Ni31  1  0.54025600  0.78109900  0.34884600  1
  Ni  Ni32  1  0.39898400  0.04038000  0.31215800  1
  Ni  Ni33  1  0.60101600  0.45962000  0.81215800  1
  Ni  Ni34  1  0.04025600  0.21890100  0.15115400  1
  Ni  Ni35  1  0.10101600  0.54038000  0.68784200  1
  Ni  Ni36  1  0.45974400  0.71890100  0.84884600  1
  Ni  Ni37  1  0.89898400  0.45962000  0.31215800  1
  Ni  Ni38  1  0.04025600  0.71890100  0.34884600  1
  Ni  Ni39  1  0.45974400  0.21890100  0.65115400  1
  Cu  Cu40  1  0.28098700  0.90422000  0.08448300  1
  Cu  Cu41  1  0.28098700  0.40422000  0.41551700  1
  Cu  Cu42  1  0.78098700  0.59578000  0.08448300  1
  Cu  Cu43  1  0.71901300  0.59578000  0.58448300  1
  Cu  Cu44  1  0.21901300  0.90422000  0.58448300  1
  Cu  Cu45  1  0.21901300  0.40422000  0.91551700  1
  Cu  Cu46  1  0.78098700  0.09578000  0.41551700  1
  Cu  Cu47  1  0.71901300  0.09578000  0.91551700  1
