# generated using pymatgen
data_Cu7NiC5
_symmetry_space_group_name_H-M   'P 1'
_cell_length_a   7.03275443
_cell_length_b   7.03275443
_cell_length_c   7.03275465
_cell_angle_alpha   63.59791621
_cell_angle_beta   63.59791621
_cell_angle_gamma   63.59791594
_symmetry_Int_Tables_number   1
_chemical_formula_structural   Cu7NiC5
_chemical_formula_sum   'Cu14 Ni2 C10'
_cell_volume   265.51178757
_cell_formula_units_Z   2
loop_
 _symmetry_equiv_pos_site_id
 _symmetry_equiv_pos_as_xyz
  1  'x, y, z'
loop_
 _atom_site_type_symbol
 _atom_site_label
 _atom_site_symmetry_multiplicity
 _atom_site_fract_x
 _atom_site_fract_y
 _atom_site_fract_z
 _atom_site_occupancy
  C  C0  1  0.00000000  0.00000000  0.00000000  1
  C  C1  1  0.00000000  0.00000000  0.50000000  1
  C  C2  1  0.50000000  0.00000000  0.00000000  1
  C  C3  1  0.00000000  0.50000000  0.00000000  1
  C  C4  1  0.71710300  0.30588800  0.30588800  1
  C  C5  1  0.28289700  0.69411200  0.69411200  1
  C  C6  1  0.69411200  0.28289700  0.69411200  1
  C  C7  1  0.30588800  0.30588800  0.71710300  1
  C  C8  1  0.69411200  0.69411200  0.28289700  1
  C  C9  1  0.30588800  0.71710300  0.30588800  1
  Ni  Ni10  1  0.68715200  0.68715200  0.68715200  1
  Ni  Ni11  1  0.31284800  0.31284800  0.31284800  1
  Cu  Cu12  1  0.25706300  0.88154300  0.25706300  1
  Cu  Cu13  1  0.17326500  0.17326500  0.50266800  1
  Cu  Cu14  1  0.88154300  0.25706300  0.25706300  1
  Cu  Cu15  1  0.82673500  0.49733200  0.82673500  1
  Cu  Cu16  1  0.74293700  0.11845700  0.74293700  1
  Cu  Cu17  1  0.11845700  0.74293700  0.74293700  1
  Cu  Cu18  1  0.40113400  0.40113400  0.40113400  1
  Cu  Cu19  1  0.49733200  0.82673500  0.82673500  1
  Cu  Cu20  1  0.74293700  0.74293700  0.11845700  1
  Cu  Cu21  1  0.25706300  0.25706300  0.88154300  1
  Cu  Cu22  1  0.59886600  0.59886600  0.59886600  1
  Cu  Cu23  1  0.82673500  0.82673500  0.49733200  1
  Cu  Cu24  1  0.50266800  0.17326500  0.17326500  1
  Cu  Cu25  1  0.17326500  0.50266800  0.17326500  1
