# generated using pymatgen
data_Cu7(NiC8)3
_symmetry_space_group_name_H-M   'P 1'
_cell_length_a   7.55064801
_cell_length_b   7.55064801
_cell_length_c   16.76443600
_cell_angle_alpha   90.00000000
_cell_angle_beta   90.00000000
_cell_angle_gamma   120.00000013
_symmetry_Int_Tables_number   1
_chemical_formula_structural   Cu7(NiC8)3
_chemical_formula_sum   'Cu7 Ni3 C24'
_cell_volume   827.72872922
_cell_formula_units_Z   1
loop_
 _symmetry_equiv_pos_site_id
 _symmetry_equiv_pos_as_xyz
  1  'x, y, z'
loop_
 _atom_site_type_symbol
 _atom_site_label
 _atom_site_symmetry_multiplicity
 _atom_site_fract_x
 _atom_site_fract_y
 _atom_site_fract_z
 _atom_site_occupancy
  Ni  Ni0  1  0.00000000  0.00000000  0.50000000  1
  Ni  Ni1  1  0.66666700  0.33333300  0.38835700  1
  Ni  Ni2  1  0.66666700  0.33333300  0.61164300  1
  Cu  Cu3  1  0.00000000  0.00000000  0.75228200  1
  Cu  Cu4  1  0.00000000  0.00000000  0.00000000  1
  Cu  Cu5  1  0.00000000  0.00000000  0.24771800  1
  Cu  Cu6  1  0.33333300  0.66666700  0.87677500  1
  Cu  Cu7  1  0.33333300  0.66666700  0.12322500  1
  Cu  Cu8  1  0.33333300  0.66666700  0.37440700  1
  Cu  Cu9  1  0.33333300  0.66666700  0.62559300  1
  C  C10  1  0.97173700  0.24498700  0.87670900  1
  C  C11  1  0.97173700  0.24498700  0.12329100  1
  C  C12  1  0.98108900  0.25368800  0.36807800  1
  C  C13  1  0.98108900  0.25368800  0.63192200  1
  C  C14  1  0.75501300  0.72675000  0.87670900  1
  C  C15  1  0.75501300  0.72675000  0.12329100  1
  C  C16  1  0.74631200  0.72740100  0.36807800  1
  C  C17  1  0.74631200  0.72740100  0.63192200  1
  C  C18  1  0.05810300  0.63624700  0.75334500  1
  C  C19  1  0.05955600  0.63729800  0.00000000  1
  C  C20  1  0.05810300  0.63624700  0.24665500  1
  C  C21  1  0.04935400  0.61202000  0.50000000  1
  C  C22  1  0.27325000  0.02826300  0.87670900  1
  C  C23  1  0.27325000  0.02826300  0.12329100  1
  C  C24  1  0.27259900  0.01891100  0.36807800  1
  C  C25  1  0.27259900  0.01891100  0.63192200  1
  C  C26  1  0.57814400  0.94189700  0.75334500  1
  C  C27  1  0.57774100  0.94044400  0.00000000  1
  C  C28  1  0.57814400  0.94189700  0.24665500  1
  C  C29  1  0.56266600  0.95064600  0.50000000  1
  C  C30  1  0.36375300  0.42185600  0.75334500  1
  C  C31  1  0.36270200  0.42225900  0.00000000  1
  C  C32  1  0.36375300  0.42185600  0.24665500  1
  C  C33  1  0.38798000  0.43733400  0.50000000  1
