# generated using pymatgen
data_Cu2(NiC3)5
_symmetry_space_group_name_H-M   'P 1'
_cell_length_a   9.06012300
_cell_length_b   11.71785600
_cell_length_c   22.30699000
_cell_angle_alpha   90.00000000
_cell_angle_beta   90.00000000
_cell_angle_gamma   90.00000000
_symmetry_Int_Tables_number   1
_chemical_formula_structural   Cu2(NiC3)5
_chemical_formula_sum   'Cu16 Ni40 C120'
_cell_volume   2368.22642630
_cell_formula_units_Z   8
loop_
 _symmetry_equiv_pos_site_id
 _symmetry_equiv_pos_as_xyz
  1  'x, y, z'
loop_
 _atom_site_type_symbol
 _atom_site_label
 _atom_site_symmetry_multiplicity
 _atom_site_fract_x
 _atom_site_fract_y
 _atom_site_fract_z
 _atom_site_occupancy
  C  C0  1  0.40716000  0.97395200  0.33737500  1
  C  C1  1  0.59284000  0.47395200  0.16262500  1
  C  C2  1  0.29891900  0.29170000  0.10266300  1
  C  C3  1  0.71061000  0.76994500  0.31722500  1
  C  C4  1  0.65122000  0.51308200  0.88222100  1
  C  C5  1  0.70985700  0.52339000  0.29288100  1
  C  C6  1  0.79014300  0.02339000  0.29288100  1
  C  C7  1  0.04192300  0.16661400  0.81092000  1
  C  C8  1  0.78939000  0.26994500  0.31722500  1
  C  C9  1  0.45807700  0.83338600  0.31092000  1
  C  C10  1  0.34542400  0.85778600  0.14443600  1
  C  C11  1  0.84542400  0.64221400  0.85556400  1
  C  C12  1  0.94913700  0.86408100  0.11007600  1
  C  C13  1  0.84379400  0.05881200  0.75083400  1
  C  C14  1  0.34379400  0.44118800  0.24916600  1
  C  C15  1  0.89766200  0.92794700  0.78555700  1
  C  C16  1  0.34542400  0.64221400  0.64443600  1
  C  C17  1  0.79891900  0.20830000  0.89733700  1
  C  C18  1  0.09284000  0.47395200  0.33737500  1
  C  C19  1  0.70985700  0.97661000  0.79288100  1
  C  C20  1  0.84878000  0.48691800  0.38222100  1
  C  C21  1  0.20108100  0.79170000  0.10266300  1
  C  C22  1  0.05086300  0.13591900  0.88992400  1
  C  C23  1  0.84878000  0.01308200  0.88222100  1
  C  C24  1  0.90716000  0.97395200  0.16262500  1
  C  C25  1  0.15457600  0.35778600  0.14443600  1
  C  C26  1  0.28939000  0.26994500  0.18277500  1
  C  C27  1  0.55086300  0.13591900  0.61007600  1
  C  C28  1  0.95807700  0.66661400  0.68908000  1
  C  C29  1  0.10233800  0.07205300  0.21444300  1
  C  C30  1  0.15620600  0.55881200  0.74916600  1
  C  C31  1  0.10233800  0.42794700  0.71444300  1
  C  C32  1  0.29014300  0.47661000  0.70711900  1
  C  C33  1  0.71061000  0.73005500  0.81722500  1
  C  C34  1  0.44913700  0.86408100  0.38992400  1
  C  C35  1  0.15457600  0.14221400  0.64443600  1
  C  C36  1  0.59284000  0.02604800  0.66262500  1
  C  C37  1  0.94913700  0.63591900  0.61007600  1
  C  C38  1  0.39766200  0.57205300  0.21444300  1
  C  C39  1  0.04192300  0.33338600  0.31092000  1
  C  C40  1  0.65457600  0.35778600  0.35556400  1
  C  C41  1  0.55086300  0.36408100  0.11007600  1
  C  C42  1  0.70108100  0.70830000  0.89733700  1
  C  C43  1  0.21061000  0.73005500  0.68277500  1
  C  C44  1  0.15122000  0.98691800  0.11777900  1
  C  C45  1  0.40716000  0.52604800  0.83737500  1
  C  C46  1  0.29891900  0.20830000  0.60266300  1
  C  C47  1  0.44913700  0.63591900  0.88992400  1
  C  C48  1  0.78939000  0.23005500  0.81722500  1
  C  C49  1  0.05086300  0.36408100  0.38992400  1
  C  C50  1  0.79014300  0.47661000  0.79288100  1
  C  C51  1  0.15122000  0.51308200  0.61777900  1
  C  C52  1  0.34878000  0.48691800  0.11777900  1
  C  C53  1  0.39766200  0.92794700  0.71444300  1
  C  C54  1  0.09284000  0.02604800  0.83737500  1
  C  C55  1  0.34379400  0.05881200  0.74916600  1
  C  C56  1  0.20108100  0.70830000  0.60266300  1
  C  C57  1  0.20985700  0.97661000  0.70711900  1
  C  C58  1  0.65620600  0.55881200  0.75083400  1
  C  C59  1  0.34878000  0.01308200  0.61777900  1
  C  C60  1  0.60233800  0.07205300  0.28555700  1
  C  C61  1  0.65457600  0.14221400  0.85556400  1
  C  C62  1  0.79891900  0.29170000  0.39733700  1
  C  C63  1  0.45807700  0.66661400  0.81092000  1
  C  C64  1  0.15620600  0.94118800  0.24916600  1
  C  C65  1  0.20985700  0.52339000  0.20711900  1
  C  C66  1  0.84542400  0.85778600  0.35556400  1
  C  C67  1  0.28939000  0.23005500  0.68277500  1
  C  C68  1  0.90716000  0.52604800  0.66262500  1
  C  C69  1  0.29014300  0.02339000  0.20711900  1
  C  C70  1  0.54192300  0.33338600  0.18908000  1
  C  C71  1  0.60233800  0.42794700  0.78555700  1
  C  C72  1  0.54192300  0.16661400  0.68908000  1
  C  C73  1  0.65122000  0.98691800  0.38222100  1
  C  C74  1  0.70108100  0.79170000  0.39733700  1
  C  C75  1  0.21061000  0.76994500  0.18277500  1
  C  C76  1  0.95807700  0.83338600  0.18908000  1
  C  C77  1  0.65620600  0.94118800  0.25083400  1
  C  C78  1  0.84379400  0.44118800  0.25083400  1
  C  C79  1  0.89766200  0.57205300  0.28555700  1
  Ni  Ni80  1  0.37809700  0.25598400  0.84244500  1
  Ni  Ni81  1  0.87809700  0.25598400  0.65755500  1
  Ni  Ni82  1  0.37809700  0.24401600  0.34244500  1
  Ni  Ni83  1  0.02464000  0.39833000  0.34548300  1
  Ni  Ni84  1  0.94743500  0.57310600  0.10342100  1
  Ni  Ni85  1  0.17444900  0.99708200  0.21057400  1
  Ni  Ni86  1  0.02464000  0.10167000  0.84548300  1
  Ni  Ni87  1  0.05256500  0.42689400  0.89657900  1
  Ni  Ni88  1  0.82555100  0.49708200  0.28942600  1
  Ni  Ni89  1  0.62190300  0.74401600  0.15755500  1
  Ni  Ni90  1  0.97536000  0.89833000  0.15451700  1
  Ni  Ni91  1  0.26991600  0.32993800  0.14592900  1
  Ni  Ni92  1  0.67444900  0.99708200  0.28942600  1
  Ni  Ni93  1  0.52464000  0.39833000  0.15451700  1
  Ni  Ni94  1  0.47536000  0.60167000  0.84548300  1
  Ni  Ni95  1  0.23008400  0.67006200  0.64592900  1
  Ni  Ni96  1  0.82555100  0.00291800  0.78942600  1
  Ni  Ni97  1  0.97536000  0.60167000  0.65451700  1
  Ni  Ni98  1  0.62190300  0.75598400  0.65755500  1
  Ni  Ni99  1  0.26991600  0.17006200  0.64592900  1
  Ni  Ni100  1  0.94743500  0.92689400  0.60342100  1
  Ni  Ni101  1  0.52464000  0.10167000  0.65451700  1
  Ni  Ni102  1  0.67444900  0.50291800  0.78942600  1
  Ni  Ni103  1  0.32555100  0.00291800  0.71057400  1
  Ni  Ni104  1  0.23008400  0.82993800  0.14592900  1
  Ni  Ni105  1  0.05256500  0.07310600  0.39657900  1
  Ni  Ni106  1  0.47536000  0.89833000  0.34548300  1
  Ni  Ni107  1  0.76991600  0.32993800  0.35407100  1
  Ni  Ni108  1  0.17444900  0.50291800  0.71057400  1
  Ni  Ni109  1  0.55256500  0.07310600  0.10342100  1
  Ni  Ni110  1  0.87809700  0.24401600  0.15755500  1
  Ni  Ni111  1  0.12190300  0.75598400  0.84244500  1
  Ni  Ni112  1  0.76991600  0.17006200  0.85407100  1
  Ni  Ni113  1  0.73008400  0.67006200  0.85407100  1
  Ni  Ni114  1  0.32555100  0.49708200  0.21057400  1
  Ni  Ni115  1  0.12190300  0.74401600  0.34244500  1
  Ni  Ni116  1  0.55256500  0.42689400  0.60342100  1
  Ni  Ni117  1  0.44743500  0.57310600  0.39657900  1
  Ni  Ni118  1  0.73008400  0.82993800  0.35407100  1
  Ni  Ni119  1  0.44743500  0.92689400  0.89657900  1
  C  C120  1  0.33972500  0.12010700  0.46405500  1
  C  C121  1  0.33972500  0.37989300  0.96405500  1
  C  C122  1  0.83972500  0.12010700  0.03594500  1
  C  C123  1  0.83972500  0.37989300  0.53594500  1
  C  C124  1  0.66027500  0.87989300  0.53594500  1
  C  C125  1  0.66027500  0.62010700  0.03594500  1
  C  C126  1  0.16027500  0.87989300  0.96405500  1
  C  C127  1  0.16027500  0.62010700  0.46405500  1
  Cu  Cu128  1  0.12835000  0.78961600  0.41325500  1
  Cu  Cu129  1  0.08665500  0.12803500  0.46417700  1
  Cu  Cu130  1  0.58665500  0.37196500  0.53582300  1
  Cu  Cu131  1  0.91334500  0.87196500  0.53582300  1
  Cu  Cu132  1  0.12835000  0.71038400  0.91325500  1
  Cu  Cu133  1  0.87165000  0.28961600  0.08674500  1
  Cu  Cu134  1  0.08665500  0.37196500  0.96417700  1
  Cu  Cu135  1  0.41334500  0.87196500  0.96417700  1
  Cu  Cu136  1  0.37165000  0.28961600  0.41325500  1
  Cu  Cu137  1  0.58665500  0.12803500  0.03582300  1
  Cu  Cu138  1  0.91334500  0.62803500  0.03582300  1
  Cu  Cu139  1  0.41334500  0.62803500  0.46417700  1
  Cu  Cu140  1  0.62835000  0.78961600  0.08674500  1
  Cu  Cu141  1  0.37165000  0.21038400  0.91325500  1
  Cu  Cu142  1  0.62835000  0.71038400  0.58674500  1
  Cu  Cu143  1  0.87165000  0.21038400  0.58674500  1
  C  C144  1  0.36566800  0.06772200  0.65507700  1
  C  C145  1  0.52615600  0.46392000  0.65127700  1
  C  C146  1  0.61687600  0.78395400  0.70834400  1
  C  C147  1  0.38312400  0.21604600  0.29165600  1
  C  C148  1  0.02615600  0.46392000  0.84872300  1
  C  C149  1  0.63433200  0.93227800  0.34492300  1
  C  C150  1  0.36566800  0.43227800  0.15507700  1
  C  C151  1  0.02615600  0.03608000  0.34872300  1
  C  C152  1  0.52615600  0.03608000  0.15127700  1
  C  C153  1  0.38312400  0.28395400  0.79165600  1
  C  C154  1  0.86566800  0.43227800  0.34492300  1
  C  C155  1  0.13433200  0.56772200  0.65507700  1
  C  C156  1  0.63433200  0.56772200  0.84492300  1
  C  C157  1  0.88312400  0.28395400  0.70834400  1
  C  C158  1  0.88312400  0.21604600  0.20834400  1
  C  C159  1  0.11687600  0.78395400  0.79165600  1
  C  C160  1  0.61687600  0.71604600  0.20834400  1
  C  C161  1  0.97384400  0.53608000  0.15127700  1
  C  C162  1  0.47384400  0.96392000  0.84872300  1
  C  C163  1  0.47384400  0.53608000  0.34872300  1
  C  C164  1  0.11687600  0.71604600  0.29165600  1
  C  C165  1  0.13433200  0.93227800  0.15507700  1
  C  C166  1  0.86566800  0.06772200  0.84492300  1
  C  C167  1  0.97384400  0.96392000  0.65127700  1
  C  C168  1  0.82610100  0.58926100  0.45956200  1
  C  C169  1  0.17389900  0.41073900  0.54043800  1
  C  C170  1  0.82610100  0.91073900  0.95956200  1
  C  C171  1  0.17389900  0.08926100  0.04043800  1
  C  C172  1  0.32610100  0.91073900  0.54043800  1
  C  C173  1  0.67389900  0.41073900  0.95956200  1
  C  C174  1  0.32610100  0.58926100  0.04043800  1
  C  C175  1  0.67389900  0.08926100  0.45956200  1
