# generated using pymatgen
data_Cu3Ni9C5
_symmetry_space_group_name_H-M   'P 1'
_cell_length_a   11.70548100
_cell_length_b   11.43066800
_cell_length_c   13.66133301
_cell_angle_alpha   66.37151754
_cell_angle_beta   90.00000000
_cell_angle_gamma   90.00000000
_symmetry_Int_Tables_number   1
_chemical_formula_structural   Cu3Ni9C5
_chemical_formula_sum   'Cu24 Ni72 C40'
_cell_volume   1674.66130294
_cell_formula_units_Z   8
loop_
 _symmetry_equiv_pos_site_id
 _symmetry_equiv_pos_as_xyz
  1  'x, y, z'
loop_
 _atom_site_type_symbol
 _atom_site_label
 _atom_site_symmetry_multiplicity
 _atom_site_fract_x
 _atom_site_fract_y
 _atom_site_fract_z
 _atom_site_occupancy
  C  C0  1  0.76640000  0.73198300  0.81733800  1
  C  C1  1  0.29122000  0.94732200  0.33356200  1
  C  C2  1  0.20878000  0.44732200  0.33356200  1
  C  C3  1  0.23360000  0.26801700  0.18266200  1
  C  C4  1  0.73360000  0.23198300  0.81733800  1
  C  C5  1  0.26640000  0.76801700  0.18266200  1
  C  C6  1  0.70878000  0.05267800  0.66643800  1
  C  C7  1  0.79122000  0.55267800  0.66643800  1
  C  C8  1  0.53210000  0.74528000  0.02148600  1
  C  C9  1  0.42781500  0.21198900  0.54085000  1
  C  C10  1  0.46790000  0.25472000  0.97851400  1
  C  C11  1  0.03210000  0.75472000  0.97851400  1
  C  C12  1  0.96790000  0.24528000  0.02148600  1
  C  C13  1  0.92781500  0.28801100  0.45915000  1
  C  C14  1  0.07218500  0.71198900  0.54085000  1
  C  C15  1  0.57218500  0.78801100  0.45915000  1
  Ni  Ni16  1  0.39671500  0.77300100  0.59415800  1
  Ni  Ni17  1  0.21617700  0.11234100  0.60288500  1
  Ni  Ni18  1  0.48051100  0.16111700  0.36842500  1
  Ni  Ni19  1  0.56796700  0.07697700  0.15480600  1
  Ni  Ni20  1  0.44298900  0.77610500  0.82880200  1
  Ni  Ni21  1  0.79352200  0.48732500  0.44671600  1
  Ni  Ni22  1  0.70647800  0.98732500  0.44671600  1
  Ni  Ni23  1  0.82112700  0.49735600  0.31465800  1
  Ni  Ni24  1  0.91053300  0.19158200  0.30736800  1
  Ni  Ni25  1  0.20160000  0.57822300  0.01744400  1
  Ni  Ni26  1  0.78382300  0.88765900  0.39711500  1
  Ni  Ni27  1  0.98051100  0.33888300  0.63157500  1
  Ni  Ni28  1  0.06796700  0.42302300  0.84519400  1
  Ni  Ni29  1  0.06245200  0.93574800  0.56585500  1
  Ni  Ni30  1  0.48952600  0.32986700  0.33178600  1
  Ni  Ni31  1  0.55211800  0.33463100  0.63947600  1
  Ni  Ni32  1  0.70160000  0.92177700  0.98255600  1
  Ni  Ni33  1  0.20647800  0.51267500  0.55328400  1
  Ni  Ni34  1  0.44788200  0.66536900  0.36052400  1
  Ni  Ni35  1  0.17887300  0.50264400  0.68534200  1
  Ni  Ni36  1  0.41053300  0.30841800  0.69263200  1
  Ni  Ni37  1  0.32112700  0.00264400  0.68534200  1
  Ni  Ni38  1  0.33195900  0.79751200  0.91113000  1
  Ni  Ni39  1  0.93754800  0.06425200  0.43414500  1
  Ni  Ni40  1  0.89784800  0.02973600  0.18662000  1
  Ni  Ni41  1  0.66804100  0.20248800  0.08887000  1
  Ni  Ni42  1  0.80413400  0.32534100  0.12294800  1
  Ni  Ni43  1  0.30413400  0.17465900  0.87705200  1
  Ni  Ni44  1  0.01047400  0.82986700  0.33178600  1
  Ni  Ni45  1  0.95529100  0.98776800  0.84205400  1
  Ni  Ni46  1  0.93376100  0.99147600  0.07563300  1
  Ni  Ni47  1  0.94788200  0.83463100  0.63947600  1
  Ni  Ni48  1  0.39784800  0.47026400  0.81338000  1
  Ni  Ni49  1  0.71617700  0.38765900  0.39711500  1
  Ni  Ni50  1  0.89671500  0.72699900  0.40584200  1
  Ni  Ni51  1  0.10328500  0.27300100  0.59415800  1
  Ni  Ni52  1  0.43203300  0.92302300  0.84519400  1
  Ni  Ni53  1  0.06623900  0.00852400  0.92436700  1
  Ni  Ni54  1  0.51047400  0.67013300  0.66821400  1
  Ni  Ni55  1  0.29352200  0.01267500  0.55328400  1
  Ni  Ni56  1  0.94298900  0.72389500  0.17119800  1
  Ni  Ni57  1  0.04470900  0.01223200  0.15794600  1
  Ni  Ni58  1  0.79840000  0.42177700  0.98255600  1
  Ni  Ni59  1  0.56623900  0.49147600  0.07563300  1
  Ni  Ni60  1  0.56245200  0.56425200  0.43414500  1
  Ni  Ni61  1  0.60215200  0.52973600  0.18662000  1
  Ni  Ni62  1  0.93203300  0.57697700  0.15480600  1
  Ni  Ni63  1  0.16804100  0.29751200  0.91113000  1
  Ni  Ni64  1  0.10215200  0.97026400  0.81338000  1
  Ni  Ni65  1  0.40603100  0.04992300  0.93657100  1
  Ni  Ni66  1  0.28382300  0.61234100  0.60288500  1
  Ni  Ni67  1  0.45529100  0.51223200  0.15794600  1
  Ni  Ni68  1  0.90603100  0.45007700  0.06342900  1
  Ni  Ni69  1  0.01948900  0.66111700  0.36842500  1
  Ni  Ni70  1  0.59396900  0.95007700  0.06342900  1
  Ni  Ni71  1  0.43376100  0.50852400  0.92436700  1
  Ni  Ni72  1  0.69586600  0.82534100  0.12294800  1
  Ni  Ni73  1  0.09396900  0.54992300  0.93657100  1
  Ni  Ni74  1  0.98952600  0.17013300  0.66821400  1
  Ni  Ni75  1  0.05211800  0.16536900  0.36052400  1
  Ni  Ni76  1  0.55701100  0.22389500  0.17119800  1
  Ni  Ni77  1  0.43754800  0.43574800  0.56585500  1
  Ni  Ni78  1  0.83195900  0.70248800  0.08887000  1
  Ni  Ni79  1  0.51948900  0.83888300  0.63157500  1
  Ni  Ni80  1  0.54470900  0.48776800  0.84205400  1
  Ni  Ni81  1  0.58946700  0.69158200  0.30736800  1
  Ni  Ni82  1  0.19586600  0.67465900  0.87705200  1
  Ni  Ni83  1  0.60328500  0.22699900  0.40584200  1
  Ni  Ni84  1  0.05701100  0.27610500  0.82880200  1
  Ni  Ni85  1  0.67887300  0.99735600  0.31465800  1
  Ni  Ni86  1  0.08946700  0.80841800  0.69263200  1
  Ni  Ni87  1  0.29840000  0.07822300  0.01744400  1
  Cu  Cu88  1  0.96032000  0.04475700  0.12287000  1
  Cu  Cu89  1  0.51063900  0.23581300  0.39338800  1
  Cu  Cu90  1  0.79875600  0.43300900  0.39648100  1
  Cu  Cu91  1  0.29875600  0.06699100  0.60351900  1
  Cu  Cu92  1  0.70124400  0.93300900  0.39648100  1
  Cu  Cu93  1  0.46032000  0.45524300  0.87713000  1
  Cu  Cu94  1  0.20124400  0.56699100  0.60351900  1
  Cu  Cu95  1  0.53968000  0.54475700  0.12287000  1
  Cu  Cu96  1  0.64474700  0.87659600  0.05122500  1
  Cu  Cu97  1  0.98936100  0.73581300  0.39338800  1
  Cu  Cu98  1  0.42069500  0.81930000  0.88483800  1
  Cu  Cu99  1  0.03968000  0.95524300  0.87713000  1
  Cu  Cu100  1  0.03867400  0.83836900  0.61922300  1
  Cu  Cu101  1  0.48936100  0.76418700  0.60661200  1
  Cu  Cu102  1  0.07930500  0.31930000  0.88483800  1
  Cu  Cu103  1  0.92069500  0.68070000  0.11516200  1
  Cu  Cu104  1  0.46132600  0.33836900  0.61922300  1
  Cu  Cu105  1  0.35525300  0.12340400  0.94877500  1
  Cu  Cu106  1  0.85525300  0.37659600  0.05122500  1
  Cu  Cu107  1  0.57930500  0.18070000  0.11516200  1
  Cu  Cu108  1  0.14474700  0.62340400  0.94877500  1
  Cu  Cu109  1  0.01063900  0.26418700  0.60661200  1
  Cu  Cu110  1  0.96132600  0.16163100  0.38077700  1
  Cu  Cu111  1  0.53867400  0.66163100  0.38077700  1
  C  C112  1  0.66873800  0.71192600  0.91230200  1
  C  C113  1  0.21753800  0.85857400  0.44344500  1
  C  C114  1  0.28246200  0.35857400  0.44344500  1
  C  C115  1  0.78246200  0.14142600  0.55655500  1
  C  C116  1  0.74741300  0.10355200  0.77101200  1
  C  C117  1  0.75258700  0.60355200  0.77101200  1
  C  C118  1  0.16873800  0.78807400  0.08769800  1
  C  C119  1  0.93269600  0.57572000  0.64022200  1
  C  C120  1  0.06730400  0.42428000  0.35977800  1
  C  C121  1  0.39785200  0.77116000  0.13147700  1
  C  C122  1  0.89785200  0.72884000  0.86852300  1
  C  C123  1  0.43269600  0.92428000  0.35977800  1
  C  C124  1  0.25258700  0.89644800  0.22898800  1
  C  C125  1  0.83126200  0.21192600  0.91230200  1
  C  C126  1  0.33126200  0.28807400  0.08769800  1
  C  C127  1  0.56730400  0.07572000  0.64022200  1
  C  C128  1  0.25529100  0.11564200  0.29271900  1
  C  C129  1  0.24470900  0.61564200  0.29271900  1
  C  C130  1  0.10214800  0.27116000  0.13147700  1
  C  C131  1  0.71753800  0.64142600  0.55655500  1
  C  C132  1  0.74470900  0.88435800  0.70728100  1
  C  C133  1  0.24741300  0.39644800  0.22898800  1
  C  C134  1  0.60214800  0.22884000  0.86852300  1
  C  C135  1  0.75529100  0.38435800  0.70728100  1
