# generated using pymatgen
data_Cu4NiC7
_symmetry_space_group_name_H-M   'P 1'
_cell_length_a   7.38175000
_cell_length_b   7.38175000
_cell_length_c   4.84948400
_cell_angle_alpha   90.00000000
_cell_angle_beta   90.00000000
_cell_angle_gamma   90.00000000
_symmetry_Int_Tables_number   1
_chemical_formula_structural   Cu4NiC7
_chemical_formula_sum   'Cu8 Ni2 C14'
_cell_volume   264.24951339
_cell_formula_units_Z   2
loop_
 _symmetry_equiv_pos_site_id
 _symmetry_equiv_pos_as_xyz
  1  'x, y, z'
loop_
 _atom_site_type_symbol
 _atom_site_label
 _atom_site_symmetry_multiplicity
 _atom_site_fract_x
 _atom_site_fract_y
 _atom_site_fract_z
 _atom_site_occupancy
  C  C0  1  0.25000000  0.75000000  0.50000000  1
  C  C1  1  0.25000000  0.25000000  0.50000000  1
  C  C2  1  0.75000000  0.75000000  0.50000000  1
  C  C3  1  0.75000000  0.25000000  0.50000000  1
  C  C4  1  0.00000000  0.00000000  0.00000000  1
  C  C5  1  0.50000000  0.50000000  0.00000000  1
  C  C6  1  0.50000000  0.76642900  0.93552300  1
  C  C7  1  0.50000000  0.23357100  0.93552300  1
  C  C8  1  0.26642900  0.00000000  0.93552300  1
  C  C9  1  0.73357100  0.00000000  0.93552300  1
  C  C10  1  0.00000000  0.73357100  0.06447700  1
  C  C11  1  0.00000000  0.26642900  0.06447700  1
  C  C12  1  0.23357100  0.50000000  0.06447700  1
  C  C13  1  0.76642900  0.50000000  0.06447700  1
  Ni  Ni14  1  0.50000000  0.00000000  0.26044000  1
  Ni  Ni15  1  0.00000000  0.50000000  0.73956000  1
  Cu  Cu16  1  0.50000000  0.66098300  0.81228300  1
  Cu  Cu17  1  0.50000000  0.33901700  0.81228300  1
  Cu  Cu18  1  0.16098300  0.00000000  0.81228300  1
  Cu  Cu19  1  0.83901700  0.00000000  0.81228300  1
  Cu  Cu20  1  0.00000000  0.83901700  0.18771700  1
  Cu  Cu21  1  0.00000000  0.16098300  0.18771700  1
  Cu  Cu22  1  0.33901700  0.50000000  0.18771700  1
  Cu  Cu23  1  0.66098300  0.50000000  0.18771700  1
