# generated using pymatgen
data_Cu2NiC9
_symmetry_space_group_name_H-M   'P 1'
_cell_length_a   7.64243800
_cell_length_b   7.64243800
_cell_length_c   9.71566900
_cell_angle_alpha   90.00000000
_cell_angle_beta   90.00000000
_cell_angle_gamma   90.00000000
_symmetry_Int_Tables_number   1
_chemical_formula_structural   Cu2NiC9
_chemical_formula_sum   'Cu8 Ni4 C36'
_cell_volume   567.46170533
_cell_formula_units_Z   4
loop_
 _symmetry_equiv_pos_site_id
 _symmetry_equiv_pos_as_xyz
  1  'x, y, z'
loop_
 _atom_site_type_symbol
 _atom_site_label
 _atom_site_symmetry_multiplicity
 _atom_site_fract_x
 _atom_site_fract_y
 _atom_site_fract_z
 _atom_site_occupancy
  C  C0  1  0.35985600  0.14014400  0.48087100  1
  C  C1  1  0.64014400  0.85985600  0.48087100  1
  C  C2  1  0.14014400  0.64014400  0.51912900  1
  C  C3  1  0.85985600  0.35985600  0.51912900  1
  C  C4  1  0.86190500  0.36190500  0.02784400  1
  C  C5  1  0.13809500  0.63809500  0.02784400  1
  C  C6  1  0.36190500  0.13809500  0.97215600  1
  C  C7  1  0.63809500  0.86190500  0.97215600  1
  Ni  Ni8  1  0.00000000  0.00000000  0.00000000  1
  Ni  Ni9  1  0.50000000  0.50000000  0.00000000  1
  Ni  Ni10  1  0.00000000  0.00000000  0.50000000  1
  Ni  Ni11  1  0.50000000  0.50000000  0.50000000  1
  Cu  Cu12  1  0.64893300  0.14893300  0.68548700  1
  Cu  Cu13  1  0.35106700  0.85106700  0.68548700  1
  Cu  Cu14  1  0.14911300  0.35088700  0.80151300  1
  Cu  Cu15  1  0.85088700  0.64911300  0.80151300  1
  Cu  Cu16  1  0.64911300  0.14911300  0.19848700  1
  Cu  Cu17  1  0.35088700  0.85088700  0.19848700  1
  Cu  Cu18  1  0.14893300  0.35106700  0.31451300  1
  Cu  Cu19  1  0.85106700  0.64893300  0.31451300  1
  C  C20  1  0.50000000  0.00000000  0.14726000  1
  C  C21  1  0.17768000  0.92143300  0.10399200  1
  C  C22  1  0.42143300  0.67768000  0.10399200  1
  C  C23  1  0.82232000  0.07856700  0.10399200  1
  C  C24  1  0.57856700  0.32232000  0.10399200  1
  C  C25  1  0.14829500  0.35170500  0.14673200  1
  C  C26  1  0.85170500  0.64829500  0.14673200  1
  C  C27  1  0.66280200  0.16280200  0.35723400  1
  C  C28  1  0.33719800  0.83719800  0.35723400  1
  C  C29  1  0.91699000  0.83242200  0.38688200  1
  C  C30  1  0.66757800  0.58301000  0.38688200  1
  C  C31  1  0.33242200  0.41699000  0.38688200  1
  C  C32  1  0.08301000  0.16757800  0.38688200  1
  C  C33  1  0.00000000  0.50000000  0.35798900  1
  C  C34  1  0.50000000  0.00000000  0.64201100  1
  C  C35  1  0.16757800  0.91699000  0.61311800  1
  C  C36  1  0.41699000  0.66757800  0.61311800  1
  C  C37  1  0.83242200  0.08301000  0.61311800  1
  C  C38  1  0.58301000  0.33242200  0.61311800  1
  C  C39  1  0.16280200  0.33719800  0.64276600  1
  C  C40  1  0.83719800  0.66280200  0.64276600  1
  C  C41  1  0.64829500  0.14829500  0.85326800  1
  C  C42  1  0.35170500  0.85170500  0.85326800  1
  C  C43  1  0.92143300  0.82232000  0.89600800  1
  C  C44  1  0.67768000  0.57856700  0.89600800  1
  C  C45  1  0.32232000  0.42143300  0.89600800  1
  C  C46  1  0.07856700  0.17768000  0.89600800  1
  C  C47  1  0.00000000  0.50000000  0.85274000  1
