# generated using pymatgen
data_Cu6Ni2C3
_symmetry_space_group_name_H-M   'P 1'
_cell_length_a   6.24704537
_cell_length_b   6.24704537
_cell_length_c   6.24704528
_cell_angle_alpha   47.16290763
_cell_angle_beta   47.16290763
_cell_angle_gamma   47.16289868
_symmetry_Int_Tables_number   1
_chemical_formula_structural   Cu6Ni2C3
_chemical_formula_sum   'Cu6 Ni2 C3'
_cell_volume   119.87489584
_cell_formula_units_Z   1
loop_
 _symmetry_equiv_pos_site_id
 _symmetry_equiv_pos_as_xyz
  1  'x, y, z'
loop_
 _atom_site_type_symbol
 _atom_site_label
 _atom_site_symmetry_multiplicity
 _atom_site_fract_x
 _atom_site_fract_y
 _atom_site_fract_z
 _atom_site_occupancy
  C  C0  1  0.20107500  0.20107500  0.20107500  1
  C  C1  1  0.79892500  0.79892500  0.79892500  1
  C  C2  1  0.00000000  0.00000000  0.00000000  1
  Ni  Ni3  1  0.59096400  0.59096400  0.59096400  1
  Ni  Ni4  1  0.40903600  0.40903600  0.40903600  1
  Cu  Cu5  1  0.69986300  0.19665000  0.33444500  1
  Cu  Cu6  1  0.33444500  0.69986300  0.19665000  1
  Cu  Cu7  1  0.19665000  0.33444500  0.69986300  1
  Cu  Cu8  1  0.30013700  0.80335000  0.66555500  1
  Cu  Cu9  1  0.80335000  0.66555500  0.30013700  1
  Cu  Cu10  1  0.66555500  0.30013700  0.80335000  1
