# generated using pymatgen
data_Cu2Ni2C17
_symmetry_space_group_name_H-M   'P 1'
_cell_length_a   7.70994100
_cell_length_b   7.72399396
_cell_length_c   7.98881603
_cell_angle_alpha   89.48068138
_cell_angle_beta   89.64539977
_cell_angle_gamma   88.67382151
_symmetry_Int_Tables_number   1
_chemical_formula_structural   Cu2Ni2C17
_chemical_formula_sum   'Cu4 Ni4 C34'
_cell_volume   475.59080199
_cell_formula_units_Z   2
loop_
 _symmetry_equiv_pos_site_id
 _symmetry_equiv_pos_as_xyz
  1  'x, y, z'
loop_
 _atom_site_type_symbol
 _atom_site_label
 _atom_site_symmetry_multiplicity
 _atom_site_fract_x
 _atom_site_fract_y
 _atom_site_fract_z
 _atom_site_occupancy
  C  C0  1  0.99193800  0.00321000  0.00094800  1
  C  C1  1  0.51296200  0.48729600  0.50018500  1
  C  C2  1  0.92164800  0.07840900  0.67682200  1
  C  C3  1  0.92430300  0.07769100  0.32230500  1
  C  C4  1  0.89842300  0.53777700  0.70164900  1
  C  C5  1  0.89803200  0.53691200  0.30008000  1
  C  C6  1  0.60245800  0.08329800  0.24163900  1
  C  C7  1  0.58955500  0.94818700  0.79448800  1
  C  C8  1  0.55002900  0.89522300  0.15153800  1
  C  C9  1  0.57461000  0.57196100  0.82069200  1
  C  C10  1  0.57540400  0.57095000  0.17578500  1
  C  C11  1  0.49998100  0.09595800  0.65812500  1
  C  C12  1  0.43002900  0.42460400  0.82277800  1
  C  C13  1  0.42992100  0.42470700  0.18097700  1
  C  C14  1  0.40441000  0.06478200  0.15835200  1
  C  C15  1  0.40406000  0.06280100  0.84391400  1
  C  C16  1  0.39984900  0.90647600  0.69597500  1
  C  C17  1  0.45605600  0.95407000  0.33695700  1
  C  C18  1  0.05276400  0.40511100  0.79487800  1
  C  C19  1  0.05303100  0.40499700  0.20740500  1
  C  C20  1  0.10924500  0.56277200  0.65554800  1
  C  C21  1  0.10877600  0.56042700  0.34398600  1
  C  C22  1  0.07111000  0.92960400  0.67977500  1
  C  C23  1  0.07457500  0.92893100  0.32181500  1
  C  C24  1  0.03953900  0.61570000  0.84413900  1
  C  C25  1  0.04062500  0.61658700  0.15555300  1
  Ni  Ni26  1  0.02293100  0.52735700  0.74907300  1
  Ni  Ni27  1  0.02266500  0.52723000  0.25142600  1
  Ni  Ni28  1  0.47495900  0.00245200  0.74861700  1
  Ni  Ni29  1  0.50242300  0.99853000  0.22323100  1
  C  C30  1  0.78633800  0.21320100  0.00033700  1
  C  C31  1  0.78347100  0.21776300  0.49750900  1
  C  C32  1  0.71024700  0.72070000  0.99445500  1
  C  C33  1  0.71400900  0.69704400  0.49750600  1
  C  C34  1  0.30080200  0.29368400  0.50107700  1
  C  C35  1  0.27748700  0.27920500  0.00192100  1
  C  C36  1  0.22932400  0.78708300  0.49948800  1
  C  C37  1  0.20342700  0.79251200  0.99895200  1
  Cu  Cu38  1  0.99653200  0.00514800  0.75178500  1
  Cu  Cu39  1  0.99804800  0.00216900  0.24890000  1
  Cu  Cu40  1  0.49450200  0.50563000  0.74967200  1
  Cu  Cu41  1  0.49640000  0.50535200  0.25034000  1
