# generated using pymatgen
data_Cu12NiC35
_symmetry_space_group_name_H-M   'P 1'
_cell_length_a   10.47966448
_cell_length_b   10.47966448
_cell_length_c   14.09466300
_cell_angle_alpha   90.00000000
_cell_angle_beta   90.00000000
_cell_angle_gamma   119.96705842
_symmetry_Int_Tables_number   1
_chemical_formula_structural   Cu12NiC35
_chemical_formula_sum   'Cu24 Ni2 C70'
_cell_volume   1340.98570981
_cell_formula_units_Z   2
loop_
 _symmetry_equiv_pos_site_id
 _symmetry_equiv_pos_as_xyz
  1  'x, y, z'
loop_
 _atom_site_type_symbol
 _atom_site_label
 _atom_site_symmetry_multiplicity
 _atom_site_fract_x
 _atom_site_fract_y
 _atom_site_fract_z
 _atom_site_occupancy
  C  C0  1  0.00000000  0.00000000  0.75018000  1
  C  C1  1  0.00000000  0.00000000  0.25018000  1
  C  C2  1  0.32534900  0.64992300  0.24985800  1
  C  C3  1  0.35007700  0.67465100  0.74985800  1
  C  C4  1  0.67465100  0.35007700  0.24985800  1
  C  C5  1  0.64992300  0.32534900  0.74985800  1
  C  C6  1  0.50000000  0.00000000  0.74935700  1
  C  C7  1  0.00000000  0.50000000  0.24935700  1
  C  C8  1  0.50000000  0.50000000  0.25030300  1
  C  C9  1  0.50000000  0.50000000  0.75030300  1
  Ni  Ni10  1  0.50000000  0.00000000  0.25032800  1
  Ni  Ni11  1  0.00000000  0.50000000  0.75032800  1
  Cu  Cu12  1  0.25949600  0.34345300  0.61159500  1
  Cu  Cu13  1  0.25486700  0.33774700  0.38918600  1
  Cu  Cu14  1  0.08212500  0.33485000  0.89194600  1
  Cu  Cu15  1  0.08215600  0.33476100  0.11285600  1
  Cu  Cu16  1  0.65654700  0.74050400  0.11159500  1
  Cu  Cu17  1  0.66225300  0.74513300  0.88918600  1
  Cu  Cu18  1  0.66515000  0.91787500  0.39194600  1
  Cu  Cu19  1  0.66523900  0.91784400  0.61285600  1
  Cu  Cu20  1  0.74566800  0.08221700  0.10779900  1
  Cu  Cu21  1  0.74108200  0.08331300  0.88657800  1
  Cu  Cu22  1  0.08221700  0.74566800  0.60779900  1
  Cu  Cu23  1  0.08331300  0.74108200  0.38657800  1
  Cu  Cu24  1  0.91778300  0.25433200  0.60779900  1
  Cu  Cu25  1  0.91668700  0.25891800  0.38657800  1
  Cu  Cu26  1  0.25433200  0.91778300  0.10779900  1
  Cu  Cu27  1  0.25891800  0.91668700  0.88657800  1
  Cu  Cu28  1  0.33485000  0.08212500  0.39194600  1
  Cu  Cu29  1  0.33476100  0.08215600  0.61285600  1
  Cu  Cu30  1  0.34345300  0.25949600  0.11159500  1
  Cu  Cu31  1  0.33774700  0.25486700  0.88918600  1
  Cu  Cu32  1  0.91784400  0.66523900  0.11285600  1
  Cu  Cu33  1  0.91787500  0.66515000  0.89194600  1
  Cu  Cu34  1  0.74050400  0.65654700  0.61159500  1
  Cu  Cu35  1  0.74513300  0.66225300  0.38918600  1
  C  C36  1  0.19677900  0.27379100  0.13214200  1
  C  C37  1  0.19022800  0.26853500  0.87043000  1
  C  C38  1  0.29313300  0.39009100  0.49979300  1
  C  C39  1  0.08447200  0.28886300  0.63199200  1
  C  C40  1  0.07918700  0.27656700  0.36887900  1
  C  C41  1  0.35857100  0.46904600  0.31818200  1
  C  C42  1  0.36197000  0.47685600  0.68174000  1
  C  C43  1  0.09528700  0.38611300  0.00191100  1
  C  C44  1  0.52314400  0.63803000  0.18174000  1
  C  C45  1  0.53095400  0.64142900  0.81818200  1
  C  C46  1  0.60990900  0.70686700  0.99979300  1
  C  C47  1  0.12304600  0.47523300  0.82298500  1
  C  C48  1  0.11006800  0.46754400  0.18240000  1
  C  C49  1  0.72620900  0.80322100  0.63214200  1
  C  C50  1  0.73146500  0.80977200  0.37043000  1
  C  C51  1  0.71113700  0.91552800  0.13199200  1
  C  C52  1  0.72343300  0.92081300  0.86887900  1
  C  C53  1  0.11508100  0.63863400  0.31712100  1
  C  C54  1  0.61388700  0.90471300  0.50191100  1
  C  C55  1  0.12364400  0.64741100  0.67766800  1
  C  C56  1  0.52476700  0.87695400  0.32298500  1
  C  C57  1  0.53245600  0.88993200  0.68240000  1
  C  C58  1  0.79881400  0.08341100  0.36581200  1
  C  C59  1  0.81235100  0.07956000  0.63072700  1
  C  C60  1  0.10003500  0.70879700  0.49831200  1
  C  C61  1  0.35258900  0.87635600  0.17766800  1
  C  C62  1  0.36136600  0.88491900  0.81712100  1
  C  C63  1  0.70879700  0.10003500  0.99831200  1
  C  C64  1  0.92044000  0.18764900  0.13072700  1
  C  C65  1  0.91658900  0.20118600  0.86581200  1
  C  C66  1  0.08341100  0.79881400  0.86581200  1
  C  C67  1  0.07956000  0.81235100  0.13072700  1
  C  C68  1  0.29120300  0.89996500  0.99831200  1
  C  C69  1  0.64741100  0.12364400  0.17766800  1
  C  C70  1  0.63863400  0.11508100  0.81712100  1
  C  C71  1  0.89996500  0.29120300  0.49831200  1
  C  C72  1  0.20118600  0.91658900  0.36581200  1
  C  C73  1  0.18764900  0.92044000  0.63072700  1
  C  C74  1  0.47523300  0.12304600  0.32298500  1
  C  C75  1  0.46754400  0.11006800  0.68240000  1
  C  C76  1  0.88491900  0.36136600  0.31712100  1
  C  C77  1  0.38611300  0.09528700  0.50191100  1
  C  C78  1  0.87635600  0.35258900  0.67766800  1
  C  C79  1  0.28886300  0.08447200  0.13199200  1
  C  C80  1  0.27656700  0.07918700  0.86887900  1
  C  C81  1  0.26853500  0.19022800  0.37043000  1
  C  C82  1  0.27379100  0.19677900  0.63214200  1
  C  C83  1  0.88993200  0.53245600  0.18240000  1
  C  C84  1  0.87695400  0.52476700  0.82298500  1
  C  C85  1  0.39009100  0.29313300  0.99979300  1
  C  C86  1  0.47685600  0.36197000  0.18174000  1
  C  C87  1  0.46904600  0.35857100  0.81818200  1
  C  C88  1  0.90471300  0.61388700  0.00191100  1
  C  C89  1  0.64142900  0.53095400  0.31818200  1
  C  C90  1  0.63803000  0.52314400  0.68174000  1
  C  C91  1  0.91552800  0.71113700  0.63199200  1
  C  C92  1  0.92081300  0.72343300  0.36887900  1
  C  C93  1  0.70686700  0.60990900  0.49979300  1
  C  C94  1  0.80322100  0.72620900  0.13214200  1
  C  C95  1  0.80977200  0.73146500  0.87043000  1
