# generated using pymatgen
data_Cu23(Ni2C11)2
_symmetry_space_group_name_H-M   'P 1'
_cell_length_a   7.74878100
_cell_length_b   7.91794964
_cell_length_c   9.93595857
_cell_angle_alpha   83.72368114
_cell_angle_beta   84.39348530
_cell_angle_gamma   80.58496171
_symmetry_Int_Tables_number   1
_chemical_formula_structural   Cu23(Ni2C11)2
_chemical_formula_sum   'Cu23 Ni4 C22'
_cell_volume   595.81540379
_cell_formula_units_Z   1
loop_
 _symmetry_equiv_pos_site_id
 _symmetry_equiv_pos_as_xyz
  1  'x, y, z'
loop_
 _atom_site_type_symbol
 _atom_site_label
 _atom_site_symmetry_multiplicity
 _atom_site_fract_x
 _atom_site_fract_y
 _atom_site_fract_z
 _atom_site_occupancy
  C  C0  1  0.38655600  0.92107700  0.72147900  1
  C  C1  1  0.91247800  0.41892600  0.71969200  1
  C  C2  1  0.08058900  0.60911100  0.29527900  1
  C  C3  1  0.58368800  0.10057000  0.24241700  1
  C  C4  1  0.99759900  0.99639100  0.94904200  1
  C  C5  1  0.51256700  0.50624900  0.49950500  1
  C  C6  1  0.91338700  0.92636800  0.27091000  1
  C  C7  1  0.97256700  0.89093600  0.68959700  1
  C  C8  1  0.34280200  0.82531900  0.38099100  1
  C  C9  1  0.32440400  0.79277900  0.02217900  1
  C  C10  1  0.45076600  0.72838400  0.26300900  1
  C  C11  1  0.20824500  0.66760600  0.97259400  1
  C  C12  1  0.18258300  0.65440500  0.62079500  1
  C  C13  1  0.28624600  0.55230300  0.73778300  1
  C  C14  1  0.72612000  0.44560800  0.25942600  1
  C  C15  1  0.82498100  0.34252600  0.37998100  1
  C  C16  1  0.79885200  0.32630300  0.02068400  1
  C  C17  1  0.54952400  0.26663200  0.74294300  1
  C  C18  1  0.66511700  0.22223100  0.96570700  1
  C  C19  1  0.66215600  0.18565800  0.61988700  1
  C  C20  1  0.04056200  0.06601300  0.27373900  1
  C  C21  1  0.05386600  0.07056900  0.68309400  1
  Ni  Ni22  1  0.74343600  0.76923300  0.61033300  1
  Ni  Ni23  1  0.72888800  0.73650400  0.10296700  1
  Ni  Ni24  1  0.26076800  0.26265700  0.89493400  1
  Ni  Ni25  1  0.24270500  0.24575500  0.40425700  1
  Cu  Cu26  1  0.99502600  0.99108200  0.74645500  1
  Cu  Cu27  1  0.82402700  0.83408600  0.99117100  1
  Cu  Cu28  1  0.77120600  0.78741700  0.23470600  1
  Cu  Cu29  1  0.94872700  0.75195400  0.61225200  1
  Cu  Cu30  1  0.53446300  0.78280300  0.09562400  1
  Cu  Cu31  1  0.20806700  0.78786600  0.99023700  1
  Cu  Cu32  1  0.67661600  0.71318000  0.75345900  1
  Cu  Cu33  1  0.72088700  0.62268800  0.52568300  1
  Cu  Cu34  1  0.39167600  0.70852400  0.35602600  1
  Cu  Cu35  1  0.30408600  0.62057400  0.64914500  1
  Cu  Cu36  1  0.78441700  0.54736500  0.09941100  1
  Cu  Cu37  1  0.21234500  0.44991300  0.90883500  1
  Cu  Cu38  1  0.70581700  0.37399000  0.34713400  1
  Cu  Cu39  1  0.61926700  0.29629600  0.65581800  1
  Cu  Cu40  1  0.78709800  0.21357600  0.99217200  1
  Cu  Cu41  1  0.33773400  0.35448000  0.47602100  1
  Cu  Cu42  1  0.27462500  0.29025200  0.25525500  1
  Cu  Cu43  1  0.45430600  0.20673100  0.90473400  1
  Cu  Cu44  1  0.05141300  0.28692700  0.44593000  1
  Cu  Cu45  1  0.21731900  0.22774300  0.75911000  1
  Cu  Cu46  1  0.15917800  0.15745500  0.99975600  1
  Cu  Cu47  1  0.31231400  0.06071700  0.44155100  1
  Cu  Cu48  1  0.00803400  0.95837100  0.31718900  1
