# generated using pymatgen
data_Cu7NiC7
_symmetry_space_group_name_H-M   'P 1'
_cell_length_a   11.93009900
_cell_length_b   12.24767342
_cell_length_c   15.93007815
_cell_angle_alpha   74.67968403
_cell_angle_beta   75.01496685
_cell_angle_gamma   72.67391352
_symmetry_Int_Tables_number   1
_chemical_formula_structural   Cu7NiC7
_chemical_formula_sum   'Cu42 Ni6 C42'
_cell_volume   2101.76122426
_cell_formula_units_Z   6
loop_
 _symmetry_equiv_pos_site_id
 _symmetry_equiv_pos_as_xyz
  1  'x, y, z'
loop_
 _atom_site_type_symbol
 _atom_site_label
 _atom_site_symmetry_multiplicity
 _atom_site_fract_x
 _atom_site_fract_y
 _atom_site_fract_z
 _atom_site_occupancy
  Ni  Ni0  1  0.26060500  0.77348400  0.00765300  1
  Ni  Ni1  1  0.58033700  0.12472700  0.63548500  1
  Ni  Ni2  1  0.41966300  0.87527300  0.36451500  1
  Ni  Ni3  1  0.06092100  0.65357200  0.67066900  1
  Ni  Ni4  1  0.73939500  0.22651600  0.99234700  1
  Ni  Ni5  1  0.93907900  0.34642800  0.32933100  1
  Cu  Cu6  1  0.73588600  0.58865000  0.53180500  1
  Cu  Cu7  1  0.38797700  0.19024000  0.04193900  1
  Cu  Cu8  1  0.23519900  0.43510800  0.90455500  1
  Cu  Cu9  1  0.02354100  0.70436400  0.28366000  1
  Cu  Cu10  1  0.48294400  0.44606600  0.18510800  1
  Cu  Cu11  1  0.12634100  0.13047100  0.05806400  1
  Cu  Cu12  1  0.46994600  0.25759200  0.22850300  1
  Cu  Cu13  1  0.63790300  0.46680600  0.61078200  1
  Cu  Cu14  1  0.06049400  0.38461700  0.92564500  1
  Cu  Cu15  1  0.66444000  0.46376100  0.76044500  1
  Cu  Cu16  1  0.02949400  0.88188600  0.40830700  1
  Cu  Cu17  1  0.53005400  0.74240800  0.77149700  1
  Cu  Cu18  1  0.87365900  0.86952900  0.94193600  1
  Cu  Cu19  1  0.97794400  0.30243700  0.59166200  1
  Cu  Cu20  1  0.93950600  0.61538300  0.07435500  1
  Cu  Cu21  1  0.25707300  0.10597100  0.12367800  1
  Cu  Cu22  1  0.14451500  0.95146000  0.75365300  1
  Cu  Cu23  1  0.03136200  0.31291400  0.05209600  1
  Cu  Cu24  1  0.33556000  0.53623900  0.23955500  1
  Cu  Cu25  1  0.27586500  0.39864200  0.01829000  1
  Cu  Cu26  1  0.94493700  0.04327300  0.71317800  1
  Cu  Cu27  1  0.85548500  0.04854000  0.24634700  1
  Cu  Cu28  1  0.72413500  0.60135800  0.98171000  1
  Cu  Cu29  1  0.02205600  0.69756300  0.40833800  1
  Cu  Cu30  1  0.16279400  0.22556100  0.72661900  1
  Cu  Cu31  1  0.61202300  0.80976000  0.95806100  1
  Cu  Cu32  1  0.97645900  0.29563600  0.71634000  1
  Cu  Cu33  1  0.83279900  0.92492100  0.18562000  1
  Cu  Cu34  1  0.65438700  0.74558000  0.56164600  1
  Cu  Cu35  1  0.51705600  0.55393400  0.81489200  1
  Cu  Cu36  1  0.83720600  0.77443900  0.27338100  1
  Cu  Cu37  1  0.05506300  0.95672700  0.28682200  1
  Cu  Cu38  1  0.16720100  0.07507900  0.81438000  1
  Cu  Cu39  1  0.34561300  0.25442000  0.43835400  1
  Cu  Cu40  1  0.31318400  0.26547000  0.30879100  1
  Cu  Cu41  1  0.76480100  0.56489200  0.09544500  1
  Cu  Cu42  1  0.68681600  0.73453000  0.69120900  1
  Cu  Cu43  1  0.26411400  0.41135000  0.46819500  1
  Cu  Cu44  1  0.36209700  0.53319400  0.38921800  1
  Cu  Cu45  1  0.97050600  0.11811400  0.59169300  1
  Cu  Cu46  1  0.74292700  0.89402900  0.87632200  1
  Cu  Cu47  1  0.96863800  0.68708600  0.94790400  1
  C  C48  1  0.43041100  0.55302900  0.62417100  1
  C  C49  1  0.57336300  0.84121700  0.10391800  1
  C  C50  1  0.56958900  0.44697100  0.37582900  1
  C  C51  1  0.42663700  0.15878300  0.89608200  1
  C  C52  1  0.26465400  0.96268600  0.61052100  1
  C  C53  1  0.73534600  0.03731400  0.38947900  1
  C  C54  1  0.73080800  0.27044900  0.09246700  1
  C  C55  1  0.44991700  0.95458700  0.43243800  1
  C  C56  1  0.93707200  0.65007800  0.75977900  1
  C  C57  1  0.67425900  0.10955500  0.05540200  1
  C  C58  1  0.74690200  0.18228200  0.89316800  1
  C  C59  1  0.49727200  0.95436600  0.26684400  1
  C  C60  1  0.25309800  0.81771800  0.10683200  1
  C  C61  1  0.44414000  0.23110000  0.62398500  1
  C  C62  1  0.00881400  0.20413400  0.37992200  1
  C  C63  1  0.65693200  0.20323800  0.53900500  1
  C  C64  1  0.99750100  0.59336700  0.60975900  1
  C  C65  1  0.50272800  0.04563400  0.73315600  1
  C  C66  1  0.81068100  0.34477400  0.41774100  1
  C  C67  1  0.86449500  0.49077500  0.28035900  1
  C  C68  1  0.12850600  0.71161400  0.73080500  1
  C  C69  1  0.80360200  0.34435000  0.92914300  1
  C  C70  1  0.55586000  0.76890000  0.37601500  1
  C  C71  1  0.55008300  0.04541300  0.56756200  1
  C  C72  1  0.00249900  0.40663300  0.39024100  1
  C  C73  1  0.61167400  0.20358200  0.70225600  1
  C  C74  1  0.13550500  0.50922500  0.71964100  1
  C  C75  1  0.18931900  0.65522600  0.58225900  1
  C  C76  1  0.71464200  0.01569200  0.64850800  1
  C  C77  1  0.26919200  0.72955100  0.90753300  1
  C  C78  1  0.28535800  0.98430800  0.35149200  1
  C  C79  1  0.88462500  0.13494900  0.00127000  1
  C  C80  1  0.40627800  0.68119300  0.01490400  1
  C  C81  1  0.32574100  0.89044500  0.94459800  1
  C  C82  1  0.59372200  0.31880700  0.98509600  1
  C  C83  1  0.19639800  0.65565000  0.07085700  1
  C  C84  1  0.11537500  0.86505100  0.99873000  1
  C  C85  1  0.87149400  0.28838600  0.26919500  1
  C  C86  1  0.34306800  0.79676200  0.46099500  1
  C  C87  1  0.38832600  0.79641800  0.29774400  1
  C  C88  1  0.06292800  0.34992200  0.24022100  1
  C  C89  1  0.99118600  0.79586600  0.62007800  1
