# generated using pymatgen
data_Cu3NiC3
_symmetry_space_group_name_H-M   'P 1'
_cell_length_a   8.13861757
_cell_length_b   8.13861757
_cell_length_c   11.57185662
_cell_angle_alpha   76.12206123
_cell_angle_beta   76.12206123
_cell_angle_gamma   67.91942906
_symmetry_Int_Tables_number   1
_chemical_formula_structural   Cu3NiC3
_chemical_formula_sum   'Cu12 Ni4 C12'
_cell_volume   679.92282166
_cell_formula_units_Z   4
loop_
 _symmetry_equiv_pos_site_id
 _symmetry_equiv_pos_as_xyz
  1  'x, y, z'
loop_
 _atom_site_type_symbol
 _atom_site_label
 _atom_site_symmetry_multiplicity
 _atom_site_fract_x
 _atom_site_fract_y
 _atom_site_fract_z
 _atom_site_occupancy
  C  C0  1  0.30103600  0.69896400  0.00000000  1
  C  C1  1  0.35728000  0.35728000  0.23115600  1
  C  C2  1  0.64272000  0.64272000  0.76884400  1
  C  C3  1  0.69896400  0.30103600  0.00000000  1
  C  C4  1  0.74876000  0.19240500  0.68584900  1
  C  C5  1  0.25124000  0.80759500  0.31415100  1
  C  C6  1  0.19240500  0.74876000  0.68584900  1
  C  C7  1  0.50000000  0.00000000  0.50000000  1
  C  C8  1  0.80759500  0.25124000  0.31415100  1
  C  C9  1  0.00000000  0.50000000  0.00000000  1
  C  C10  1  0.50000000  0.00000000  0.00000000  1
  C  C11  1  0.00000000  0.50000000  0.50000000  1
  Ni  Ni12  1  0.69751500  0.69751500  0.26744400  1
  Ni  Ni13  1  0.09014100  0.09014100  0.88219000  1
  Ni  Ni14  1  0.90985900  0.90985900  0.11781000  1
  Ni  Ni15  1  0.30248500  0.30248500  0.73255600  1
  Cu  Cu16  1  0.02104400  0.61272200  0.22853400  1
  Cu  Cu17  1  0.59070000  0.59070000  0.13662000  1
  Cu  Cu18  1  0.97895600  0.38727800  0.77146600  1
  Cu  Cu19  1  0.08717500  0.08717500  0.48649200  1
  Cu  Cu20  1  0.58643500  0.58643500  0.48789300  1
  Cu  Cu21  1  0.90983000  0.90983000  0.90585100  1
  Cu  Cu22  1  0.09017000  0.09017000  0.09414900  1
  Cu  Cu23  1  0.40930000  0.40930000  0.86338000  1
  Cu  Cu24  1  0.61272200  0.02104400  0.22853400  1
  Cu  Cu25  1  0.91282500  0.91282500  0.51350800  1
  Cu  Cu26  1  0.38727800  0.97895600  0.77146600  1
  Cu  Cu27  1  0.41356500  0.41356500  0.51210700  1
