# generated using pymatgen
data_Cu2Ni4C25
_symmetry_space_group_name_H-M   'P 1'
_cell_length_a   11.22400918
_cell_length_b   11.22400918
_cell_length_c   11.22400918
_cell_angle_alpha   60.00000000
_cell_angle_beta   60.00000000
_cell_angle_gamma   60.00000000
_symmetry_Int_Tables_number   1
_chemical_formula_structural   Cu2Ni4C25
_chemical_formula_sum   'Cu4 Ni8 C50'
_cell_volume   999.83662492
_cell_formula_units_Z   2
loop_
 _symmetry_equiv_pos_site_id
 _symmetry_equiv_pos_as_xyz
  1  'x, y, z'
loop_
 _atom_site_type_symbol
 _atom_site_label
 _atom_site_symmetry_multiplicity
 _atom_site_fract_x
 _atom_site_fract_y
 _atom_site_fract_z
 _atom_site_occupancy
  Ni  Ni0  1  0.17113900  0.48658200  0.17113900  1
  Ni  Ni1  1  0.17113900  0.17113900  0.17113900  1
  Ni  Ni2  1  0.07886100  0.07886100  0.76341800  1
  Ni  Ni3  1  0.76341800  0.07886100  0.07886100  1
  Ni  Ni4  1  0.07886100  0.76341800  0.07886100  1
  Ni  Ni5  1  0.17113900  0.17113900  0.48658200  1
  Ni  Ni6  1  0.07886100  0.07886100  0.07886100  1
  Ni  Ni7  1  0.48658200  0.17113900  0.17113900  1
  Cu  Cu8  1  0.62500000  0.12500000  0.62500000  1
  Cu  Cu9  1  0.12500000  0.62500000  0.62500000  1
  Cu  Cu10  1  0.62500000  0.62500000  0.12500000  1
  Cu  Cu11  1  0.62500000  0.62500000  0.62500000  1
  C  C12  1  0.25957200  0.25957200  0.74042800  1
  C  C13  1  0.99042800  0.99042800  0.50957200  1
  C  C14  1  0.50957200  0.99042800  0.50957200  1
  C  C15  1  0.99042800  0.50957200  0.99042800  1
  C  C16  1  0.50957200  0.50957200  0.99042800  1
  C  C17  1  0.25957200  0.74042800  0.74042800  1
  C  C18  1  0.50957200  0.99042800  0.99042800  1
  C  C19  1  0.74042800  0.74042800  0.25957200  1
  C  C20  1  0.74042800  0.25957200  0.74042800  1
  C  C21  1  0.99042800  0.50957200  0.50957200  1
  C  C22  1  0.74042800  0.25957200  0.25957200  1
  C  C23  1  0.25957200  0.74042800  0.25957200  1
  C  C24  1  0.12189100  0.77996600  0.31817700  1
  C  C25  1  0.12189100  0.77996600  0.77996600  1
  C  C26  1  0.65978600  0.34021400  0.34021400  1
  C  C27  1  0.47003400  0.93182300  0.12810900  1
  C  C28  1  0.77996600  0.77996600  0.31817700  1
  C  C29  1  0.77996600  0.12189100  0.77996600  1
  C  C30  1  0.93182300  0.12810900  0.47003400  1
  C  C31  1  0.47003400  0.12810900  0.47003400  1
  C  C32  1  0.59021400  0.90978600  0.59021400  1
  C  C33  1  0.34021400  0.65978600  0.34021400  1
  C  C34  1  0.34021400  0.34021400  0.65978600  1
  C  C35  1  0.47003400  0.47003400  0.93182300  1
  C  C36  1  0.31817700  0.77996600  0.77996600  1
  C  C37  1  0.34021400  0.65978600  0.65978600  1
  C  C38  1  0.65978600  0.34021400  0.65978600  1
  C  C39  1  0.47003400  0.93182300  0.47003400  1
  C  C40  1  0.77996600  0.31817700  0.12189100  1
  C  C41  1  0.90978600  0.59021400  0.59021400  1
  C  C42  1  0.12810900  0.47003400  0.47003400  1
  C  C43  1  0.12189100  0.31817700  0.77996600  1
  C  C44  1  0.93182300  0.47003400  0.12810900  1
  C  C45  1  0.47003400  0.47003400  0.12810900  1
  C  C46  1  0.12810900  0.93182300  0.47003400  1
  C  C47  1  0.12810900  0.47003400  0.93182300  1
  C  C48  1  0.59021400  0.59021400  0.90978600  1
  C  C49  1  0.59021400  0.90978600  0.90978600  1
  C  C50  1  0.25000000  0.25000000  0.25000000  1
  C  C51  1  0.65978600  0.65978600  0.34021400  1
  C  C52  1  0.90978600  0.59021400  0.90978600  1
  C  C53  1  0.93182300  0.47003400  0.47003400  1
  C  C54  1  0.47003400  0.12810900  0.93182300  1
  C  C55  1  0.31817700  0.77996600  0.12189100  1
  C  C56  1  0.00000000  0.00000000  0.00000000  1
  C  C57  1  0.77996600  0.31817700  0.77996600  1
  C  C58  1  0.31817700  0.12189100  0.77996600  1
  C  C59  1  0.77996600  0.12189100  0.31817700  1
  C  C60  1  0.77996600  0.77996600  0.12189100  1
  C  C61  1  0.90978600  0.90978600  0.59021400  1
