# generated using pymatgen
data_Cu17Ni54
_symmetry_space_group_name_H-M   'P 1'
_cell_length_a   12.44401349
_cell_length_b   12.44401350
_cell_length_c   12.44401350
_cell_angle_alpha   107.63696600
_cell_angle_beta   110.18673898
_cell_angle_gamma   110.60566619
_symmetry_Int_Tables_number   1
_chemical_formula_structural   Cu17Ni54
_chemical_formula_sum   'Cu17 Ni54'
_cell_volume   1482.24805565
_cell_formula_units_Z   1
loop_
 _symmetry_equiv_pos_site_id
 _symmetry_equiv_pos_as_xyz
  1  'x, y, z'
loop_
 _atom_site_type_symbol
 _atom_site_label
 _atom_site_symmetry_multiplicity
 _atom_site_fract_x
 _atom_site_fract_y
 _atom_site_fract_z
 _atom_site_occupancy
  Ni  Ni0  1  0.47968496  0.87342500  0.60625996  1
  Ni  Ni1  1  0.26716503  0.87342500  0.39374004  1
  Ni  Ni2  1  0.73283497  0.12657500  0.60625996  1
  Ni  Ni3  1  0.52031504  0.12657500  0.39374004  1
  Ni  Ni4  1  0.56683524  0.67498291  0.89185233  1
  Ni  Ni5  1  0.78313058  0.67498291  0.10814767  1
  Ni  Ni6  1  0.21686942  0.32501709  0.89185233  1
  Ni  Ni7  1  0.43316476  0.32501709  0.10814767  1
  Ni  Ni8  1  0.81658263  0.09846277  0.91504540  1
  Ni  Ni9  1  0.18341737  0.90153723  0.08495460  1
  Ni  Ni10  1  0.81658263  0.90153723  0.71811985  1
  Ni  Ni11  1  0.18341737  0.09846277  0.28188015  1
  Ni  Ni12  1  0.67908322  0.39675304  0.07583625  1
  Ni  Ni13  1  0.32091678  0.60324696  0.92416375  1
  Ni  Ni14  1  0.67908322  0.60324696  0.28233018  1
  Ni  Ni15  1  0.32091678  0.39675304  0.71766982  1
  Ni  Ni16  1  0.61096332  0.77961955  0.16865623  1
  Ni  Ni17  1  0.88459318  0.50000000  0.38459318  1
  Ni  Ni18  1  0.11540682  0.50000000  0.61540682  1
  Ni  Ni19  1  0.37895060  0.58007972  0.58169072  1
  Ni  Ni20  1  0.99838900  0.79725988  0.41830928  1
  Ni  Ni21  1  0.00161100  0.41992028  0.79887089  1
  Ni  Ni22  1  0.62104940  0.20274012  0.20112911  1
  Ni  Ni23  1  0.62104940  0.41992028  0.41830928  1
  Ni  Ni24  1  0.00161100  0.20274012  0.58169072  1
  Ni  Ni25  1  0.99838900  0.58007972  0.20112911  1
  Ni  Ni26  1  0.37895060  0.79725988  0.79887089  1
  Ni  Ni27  1  0.30623125  0.37170839  0.29261004  1
  Ni  Ni28  1  0.07909836  0.01362122  0.70738996  1
  Ni  Ni29  1  0.92090164  0.62829161  0.93452286  1
  Ni  Ni30  1  0.69376875  0.98637878  0.06547714  1
  Ni  Ni31  1  0.69376875  0.62829161  0.70738996  1
  Ni  Ni32  1  0.92090164  0.98637878  0.29261004  1
  Ni  Ni33  1  0.07909836  0.37170839  0.06547714  1
  Ni  Ni34  1  0.30623125  0.01362122  0.93452286  1
  Ni  Ni35  1  0.43702227  0.33261248  0.53256409  1
  Ni  Ni36  1  0.80004839  0.90445818  0.46743591  1
  Ni  Ni37  1  0.19995161  0.66738752  0.10440979  1
  Ni  Ni38  1  0.56297773  0.09554182  0.89559021  1
  Ni  Ni39  1  0.56297773  0.66738752  0.46743591  1
  Ni  Ni40  1  0.19995161  0.09554182  0.53256409  1
  Ni  Ni41  1  0.80004839  0.33261248  0.89559021  1
  Ni  Ni42  1  0.43702227  0.90445818  0.10440979  1
  Ni  Ni43  1  0.11402841  0.11402841  0.00000000  1
  Ni  Ni44  1  0.88597159  0.88597159  0.00000000  1
  Ni  Ni45  1  0.50000000  0.14536209  0.64536209  1
  Ni  Ni46  1  0.50000000  0.85463791  0.35463791  1
  Ni  Ni47  1  0.10215635  0.43775595  0.33559960  1
  Ni  Ni48  1  0.10215635  0.76655675  0.66440040  1
  Ni  Ni49  1  0.89784365  0.56224405  0.66440040  1
  Ni  Ni50  1  0.89784365  0.23344325  0.33559960  1
  Ni  Ni51  1  0.38903668  0.55769291  0.16865623  1
  Ni  Ni52  1  0.38903668  0.22038045  0.83134377  1
  Ni  Ni53  1  0.61096332  0.44230709  0.83134377  1
  Cu  Cu54  1  0.62456557  0.83209705  0.79246852  1
  Cu  Cu55  1  0.03962852  0.83209705  0.20753148  1
  Cu  Cu56  1  0.96037148  0.16790295  0.79246852  1
  Cu  Cu57  1  0.37543443  0.16790295  0.20753148  1
  Cu  Cu58  1  0.83253006  0.29012190  0.12265196  1
  Cu  Cu59  1  0.16746994  0.70987810  0.87734804  1
  Cu  Cu60  1  0.83253006  0.70987810  0.54240816  1
  Cu  Cu61  1  0.16746994  0.29012190  0.45759184  1
  Cu  Cu62  1  0.70082761  0.03414076  0.33331315  1
  Cu  Cu63  1  0.70082761  0.36751446  0.66668685  1
  Cu  Cu64  1  0.29917239  0.96585924  0.66668685  1
  Cu  Cu65  1  0.29917239  0.63248554  0.33331315  1
  Cu  Cu66  1  0.00000000  0.83128145  0.83128145  1
  Cu  Cu67  1  0.00000000  0.16871855  0.16871855  1
  Cu  Cu68  1  0.81089019  0.31089019  0.50000000  1
  Cu  Cu69  1  0.18910981  0.68910981  0.50000000  1
  Cu  Cu70  1  0.50000000  0.50000000  0.00000000  1
