# generated using pymatgen
data_Cu3Ni5C7
_symmetry_space_group_name_H-M   'P 1'
_cell_length_a   2.82277500
_cell_length_b   11.46564300
_cell_length_c   12.24320100
_cell_angle_alpha   90.00000000
_cell_angle_beta   90.00000000
_cell_angle_gamma   90.00000000
_symmetry_Int_Tables_number   1
_chemical_formula_structural   Cu3Ni5C7
_chemical_formula_sum   'Cu6 Ni10 C14'
_cell_volume   396.25034847
_cell_formula_units_Z   2
loop_
 _symmetry_equiv_pos_site_id
 _symmetry_equiv_pos_as_xyz
  1  'x, y, z'
loop_
 _atom_site_type_symbol
 _atom_site_label
 _atom_site_symmetry_multiplicity
 _atom_site_fract_x
 _atom_site_fract_y
 _atom_site_fract_z
 _atom_site_occupancy
  Ni  Ni0  1  0.50000000  0.93681000  0.15726300  1
  Ni  Ni1  1  0.50000000  0.56319000  0.15726300  1
  Ni  Ni2  1  0.50000000  0.36569300  0.63927000  1
  Ni  Ni3  1  0.50000000  0.13430700  0.63927000  1
  Ni  Ni4  1  0.50000000  0.06319000  0.84273700  1
  Ni  Ni5  1  0.50000000  0.43681000  0.84273700  1
  Ni  Ni6  1  0.50000000  0.75000000  0.03426600  1
  Ni  Ni7  1  0.50000000  0.86569300  0.36073000  1
  Ni  Ni8  1  0.50000000  0.63430700  0.36073000  1
  Ni  Ni9  1  0.50000000  0.25000000  0.96573400  1
  Cu  Cu10  1  0.50000000  0.88081000  0.58887800  1
  Cu  Cu11  1  0.50000000  0.38081000  0.41112200  1
  Cu  Cu12  1  0.50000000  0.25000000  0.22629700  1
  Cu  Cu13  1  0.50000000  0.11919000  0.41112200  1
  Cu  Cu14  1  0.50000000  0.61919000  0.58887800  1
  Cu  Cu15  1  0.50000000  0.75000000  0.77370300  1
  C  C16  1  0.00000000  0.59349100  0.94246200  1
  C  C17  1  0.00000000  0.88681800  0.72424000  1
  C  C18  1  0.00000000  0.90650900  0.94246200  1
  C  C19  1  0.00000000  0.25000000  0.47541600  1
  C  C20  1  0.00000000  0.25000000  0.78436300  1
  C  C21  1  0.00000000  0.40650900  0.05753800  1
  C  C22  1  0.00000000  0.61318200  0.72424000  1
  C  C23  1  0.00000000  0.11318200  0.27576000  1
  C  C24  1  0.00000000  0.38681800  0.27576000  1
  C  C25  1  0.00000000  0.00000000  0.50000000  1
  C  C26  1  0.00000000  0.75000000  0.52458400  1
  C  C27  1  0.00000000  0.75000000  0.21563700  1
  C  C28  1  0.00000000  0.09349100  0.05753800  1
  C  C29  1  0.00000000  0.50000000  0.50000000  1
