# generated using pymatgen
data_Cu(NiC4)2
_symmetry_space_group_name_H-M   'P 1'
_cell_length_a   23.83950500
_cell_length_b   4.15034000
_cell_length_c   6.65081299
_cell_angle_alpha   89.51022238
_cell_angle_beta   90.00000000
_cell_angle_gamma   90.00000000
_symmetry_Int_Tables_number   1
_chemical_formula_structural   Cu(NiC4)2
_chemical_formula_sum   'Cu4 Ni8 C32'
_cell_volume   658.02103733
_cell_formula_units_Z   4
loop_
 _symmetry_equiv_pos_site_id
 _symmetry_equiv_pos_as_xyz
  1  'x, y, z'
loop_
 _atom_site_type_symbol
 _atom_site_label
 _atom_site_symmetry_multiplicity
 _atom_site_fract_x
 _atom_site_fract_y
 _atom_site_fract_z
 _atom_site_occupancy
  Ni  Ni0  1  0.87969700  0.49276600  0.69618000  1
  Ni  Ni1  1  0.28722900  0.50151000  0.33234300  1
  Ni  Ni2  1  0.78722900  0.49849000  0.16765700  1
  Ni  Ni3  1  0.62030300  0.49276600  0.19618000  1
  Ni  Ni4  1  0.71277100  0.49849000  0.66765700  1
  Ni  Ni5  1  0.37969700  0.50723400  0.80382000  1
  Ni  Ni6  1  0.21277100  0.50151000  0.83234300  1
  Ni  Ni7  1  0.12030300  0.50723400  0.30382000  1
  Cu  Cu8  1  0.45237500  0.41385500  0.33409000  1
  Cu  Cu9  1  0.95237500  0.58614500  0.16591000  1
  Cu  Cu10  1  0.04762500  0.41385500  0.83409000  1
  Cu  Cu11  1  0.54762500  0.58614500  0.66591000  1
  C  C12  1  0.70828000  0.49780800  0.34199500  1
  C  C13  1  0.43150500  0.50775900  0.04653600  1
  C  C14  1  0.06849500  0.50775900  0.54653600  1
  C  C15  1  0.45501100  0.99408100  0.31841900  1
  C  C16  1  0.18720900  0.50120200  0.53415100  1
  C  C17  1  0.29172000  0.50219200  0.65800500  1
  C  C18  1  0.20828000  0.50219200  0.15800500  1
  C  C19  1  0.21486900  0.00119200  0.83448500  1
  C  C20  1  0.37428400  0.50902600  0.41737400  1
  C  C21  1  0.12230700  0.00462500  0.29059200  1
  C  C22  1  0.95501100  0.00591900  0.18158100  1
  C  C23  1  0.96360900  0.50809000  0.86226300  1
  C  C24  1  0.46360900  0.49191000  0.63773700  1
  C  C25  1  0.68720900  0.49879800  0.96584900  1
  C  C26  1  0.28513100  0.00119200  0.33448500  1
  C  C27  1  0.87769300  0.99537500  0.70940800  1
  C  C28  1  0.37769300  0.00462500  0.79059200  1
  C  C29  1  0.31279100  0.50120200  0.03415100  1
  C  C30  1  0.12571600  0.50902600  0.91737400  1
  C  C31  1  0.56849500  0.49224100  0.95346400  1
  C  C32  1  0.78513100  0.99880800  0.16551500  1
  C  C33  1  0.04498900  0.99408100  0.81841900  1
  C  C34  1  0.79172000  0.49780800  0.84199500  1
  C  C35  1  0.62230700  0.99537500  0.20940800  1
  C  C36  1  0.81279100  0.49879800  0.46584900  1
  C  C37  1  0.53639100  0.50809000  0.36226300  1
  C  C38  1  0.93150500  0.49224100  0.45346400  1
  C  C39  1  0.87428400  0.49097400  0.08262600  1
  C  C40  1  0.54498900  0.00591900  0.68158100  1
  C  C41  1  0.03639100  0.49191000  0.13773700  1
  C  C42  1  0.62571600  0.49097400  0.58262600  1
  C  C43  1  0.71486900  0.99880800  0.66551500  1
