# generated using pymatgen
data_Cu6Ni44C31
_symmetry_space_group_name_H-M   'P 1'
_cell_length_a   10.31113432
_cell_length_b   14.15526049
_cell_length_c   22.44107206
_cell_angle_alpha   90.00000000
_cell_angle_beta   90.00000000
_cell_angle_gamma   90.00000000
_symmetry_Int_Tables_number   1
_chemical_formula_structural   Cu6Ni44C31
_chemical_formula_sum   'Cu12 Ni88 C62'
_cell_volume   3275.42689246
_cell_formula_units_Z   2
loop_
 _symmetry_equiv_pos_site_id
 _symmetry_equiv_pos_as_xyz
  1  'x, y, z'
loop_
 _atom_site_type_symbol
 _atom_site_label
 _atom_site_symmetry_multiplicity
 _atom_site_fract_x
 _atom_site_fract_y
 _atom_site_fract_z
 _atom_site_occupancy
  C  C0  1  0.66894846  0.94568821  0.46926176  1
  C  C1  1  0.38141990  0.75000000  0.53188976  1
  C  C2  1  0.95111330  0.04019173  0.16074093  1
  C  C3  1  0.93364034  0.75000000  0.96874874  1
  C  C4  1  0.63630650  0.53681388  0.83512284  1
  C  C5  1  0.06635966  0.25000000  0.46874874  1
  C  C6  1  0.36369350  0.03681388  0.16487716  1
  C  C7  1  0.63227393  0.25000000  0.66042281  1
  C  C8  1  0.63630650  0.96318612  0.66487716  1
  C  C9  1  0.95557055  0.75000000  0.34106736  1
  C  C10  1  0.61858010  0.25000000  0.46811024  1
  C  C11  1  0.95111330  0.45980827  0.33925907  1
  C  C12  1  0.63630650  0.96318612  0.83512284  1
  C  C13  1  0.63227393  0.25000000  0.83957719  1
  C  C14  1  0.61858010  0.25000000  0.03188976  1
  C  C15  1  0.63630650  0.53681388  0.66487716  1
  C  C16  1  0.36369350  0.46318612  0.33512284  1
  C  C17  1  0.93364034  0.75000000  0.53125126  1
  C  C18  1  0.38141990  0.75000000  0.96811024  1
  C  C19  1  0.36772607  0.75000000  0.16042281  1
  C  C20  1  0.66894846  0.94568821  0.03073824  1
  C  C21  1  0.06635966  0.25000000  0.03125126  1
  C  C22  1  0.33105154  0.05431179  0.53073824  1
  C  C23  1  0.04888670  0.54019173  0.83925907  1
  C  C24  1  0.66894846  0.55431179  0.46926176  1
  C  C25  1  0.33105154  0.44568821  0.96926176  1
  C  C26  1  0.04442945  0.25000000  0.84106736  1
  C  C27  1  0.95111330  0.04019173  0.33925907  1
  C  C28  1  0.36772607  0.75000000  0.33957719  1
  C  C29  1  0.04888670  0.95980827  0.66074093  1
  C  C30  1  0.04888670  0.95980827  0.83925907  1
  C  C31  1  0.95111330  0.45980827  0.16074093  1
  C  C32  1  0.36369350  0.46318612  0.16487716  1
  C  C33  1  0.95557055  0.75000000  0.15893264  1
  C  C34  1  0.04442945  0.25000000  0.65893264  1
  C  C35  1  0.33105154  0.44568821  0.53073824  1
  C  C36  1  0.36369350  0.03681388  0.33512284  1
  C  C37  1  0.04888670  0.54019173  0.66074093  1
  C  C38  1  0.66894846  0.55431179  0.03073824  1
  C  C39  1  0.33105154  0.05431179  0.96926176  1
  C  C40  1  0.33367693  0.13397386  0.75000000  1
  C  C41  1  0.84535143  0.11637079  0.56223728  1
  C  C42  1  0.33763758  0.90174564  0.75000000  1
  C  C43  1  0.15464857  0.88362921  0.43776272  1
  C  C44  1  0.15464857  0.61637079  0.43776272  1
  C  C45  1  0.86058609  0.25000000  0.25000000  1
  C  C46  1  0.84535143  0.11637079  0.93776272  1
  C  C47  1  0.66236242  0.40174564  0.25000000  1
  C  C48  1  0.66236242  0.09825436  0.25000000  1
  C  C49  1  0.13941391  0.75000000  0.75000000  1
  C  C50  1  0.54143648  0.75000000  0.75000000  1
  C  C51  1  0.33763758  0.59825436  0.75000000  1
  C  C52  1  0.45856352  0.25000000  0.25000000  1
  C  C53  1  0.84535143  0.38362921  0.93776272  1
  C  C54  1  0.33367693  0.36602614  0.75000000  1
  C  C55  1  0.83909709  0.75000000  0.75000000  1
  C  C56  1  0.15464857  0.61637079  0.06223728  1
  C  C57  1  0.16090291  0.25000000  0.25000000  1
  C  C58  1  0.66632307  0.63397386  0.25000000  1
  C  C59  1  0.84535143  0.38362921  0.56223728  1
  C  C60  1  0.66632307  0.86602614  0.25000000  1
  C  C61  1  0.15464857  0.88362921  0.06223728  1
  Ni  Ni62  1  0.57107611  0.11562834  0.75000000  1
  Ni  Ni63  1  0.32087806  0.25000000  0.33331467  1
  Ni  Ni64  1  0.50253402  0.90988156  0.93419646  1
  Ni  Ni65  1  0.91617593  0.61362342  0.42883904  1
  Ni  Ni66  1  0.39677170  0.87948140  0.43064638  1
  Ni  Ni67  1  0.16355008  0.43624122  0.42459327  1
  Ni  Ni68  1  0.49746598  0.40988156  0.06580354  1
  Ni  Ni69  1  0.91617593  0.61362342  0.07116096  1
  Ni  Ni70  1  0.16081891  0.61829854  0.17116468  1
  Ni  Ni71  1  0.83641150  0.38091263  0.04770883  1
  Ni  Ni72  1  0.16081891  0.88170146  0.32883532  1
  Ni  Ni73  1  0.91617593  0.88637658  0.42883904  1
  Ni  Ni74  1  0.66191145  0.25000000  0.31880203  1
  Ni  Ni75  1  0.15575397  0.42276123  0.25000000  1
  Ni  Ni76  1  0.39677170  0.62051860  0.06935362  1
  Ni  Ni77  1  0.89936152  0.88468167  0.25000000  1
  Ni  Ni78  1  0.83644992  0.93624122  0.92459327  1
  Ni  Ni79  1  0.83641150  0.38091263  0.45229117  1
  Ni  Ni80  1  0.39677170  0.62051860  0.43064638  1
  Ni  Ni81  1  0.16081891  0.61829854  0.32883532  1
  Ni  Ni82  1  0.50253402  0.59011844  0.93419646  1
  Ni  Ni83  1  0.33341319  0.49054713  0.66856058  1
  Ni  Ni84  1  0.32767866  0.25000000  0.50964967  1
  Ni  Ni85  1  0.16358850  0.88091263  0.95229117  1
  Ni  Ni86  1  0.83918109  0.11829854  0.82883532  1
  Ni  Ni87  1  0.66658681  0.99054713  0.16856058  1
  Ni  Ni88  1  0.83641150  0.11908737  0.04770883  1
  Ni  Ni89  1  0.49746598  0.09011844  0.06580354  1
  Ni  Ni90  1  0.67232134  0.75000000  0.49035033  1
  Ni  Ni91  1  0.10063848  0.38468167  0.75000000  1
  Ni  Ni92  1  0.66658681  0.50945287  0.33143942  1
  Ni  Ni93  1  0.00338411  0.25000000  0.33551034  1
  Ni  Ni94  1  0.33341319  0.49054713  0.83143942  1
  Ni  Ni95  1  0.50253402  0.59011844  0.56580354  1
  Ni  Ni96  1  0.08382407  0.38637658  0.57116096  1
  Ni  Ni97  1  0.83644992  0.93624122  0.57540673  1
  Ni  Ni98  1  0.16355008  0.06375878  0.42459327  1
  Ni  Ni99  1  0.57107611  0.38437166  0.75000000  1
  Ni  Ni100  1  0.16355008  0.43624122  0.07540673  1
  Ni  Ni101  1  0.10063848  0.11531833  0.75000000  1
  Ni  Ni102  1  0.89936152  0.61531833  0.25000000  1
  Ni  Ni103  1  0.50253402  0.90988156  0.56580354  1
  Ni  Ni104  1  0.60322830  0.37948140  0.93064638  1
  Ni  Ni105  1  0.33779924  0.25000000  0.67037054  1
  Ni  Ni106  1  0.16081891  0.88170146  0.17116468  1
  Ni  Ni107  1  0.83918109  0.38170146  0.82883532  1
  Ni  Ni108  1  0.33341319  0.00945287  0.83143942  1
  Ni  Ni109  1  0.83641150  0.11908737  0.45229117  1
  Ni  Ni110  1  0.16358850  0.88091263  0.54770883  1
  Ni  Ni111  1  0.49746598  0.09011844  0.43419646  1
  Ni  Ni112  1  0.83644992  0.56375878  0.92459327  1
  Ni  Ni113  1  0.60322830  0.12051860  0.93064638  1
  Ni  Ni114  1  0.67912194  0.75000000  0.83331467  1
  Ni  Ni115  1  0.39677170  0.87948140  0.06935362  1
  Ni  Ni116  1  0.33808855  0.75000000  0.68119797  1
  Ni  Ni117  1  0.08382407  0.38637658  0.92883904  1
  Ni  Ni118  1  0.16358850  0.61908737  0.54770883  1
  Ni  Ni119  1  0.15575397  0.07723877  0.25000000  1
  Ni  Ni120  1  0.83918109  0.11829854  0.67116468  1
  Ni  Ni121  1  0.66220076  0.75000000  0.17037054  1
  Ni  Ni122  1  0.84424603  0.57723877  0.75000000  1
  Ni  Ni123  1  0.08382407  0.11362342  0.92883904  1
  Ni  Ni124  1  0.91617593  0.88637658  0.07116096  1
  Ni  Ni125  1  0.66191145  0.25000000  0.18119797  1
  Ni  Ni126  1  0.99661589  0.75000000  0.83551034  1
  Ni  Ni127  1  0.00338411  0.25000000  0.16448966  1
  Ni  Ni128  1  0.66658681  0.99054713  0.33143942  1
  Ni  Ni129  1  0.42892389  0.61562834  0.25000000  1
  Ni  Ni130  1  0.33341319  0.00945287  0.66856058  1
  Ni  Ni131  1  0.32087806  0.25000000  0.16668533  1
  Ni  Ni132  1  0.99661589  0.75000000  0.66448966  1
  Ni  Ni133  1  0.08382407  0.11362342  0.57116096  1
  Ni  Ni134  1  0.67232134  0.75000000  0.00964967  1
  Ni  Ni135  1  0.32767866  0.25000000  0.99035033  1
  Ni  Ni136  1  0.16358850  0.61908737  0.95229117  1
  Ni  Ni137  1  0.33808855  0.75000000  0.81880203  1
  Ni  Ni138  1  0.67912194  0.75000000  0.66668533  1
  Ni  Ni139  1  0.42892389  0.88437166  0.25000000  1
  Ni  Ni140  1  0.60322830  0.12051860  0.56935362  1
  Ni  Ni141  1  0.66658681  0.50945287  0.16856058  1
  Ni  Ni142  1  0.83644992  0.56375878  0.57540673  1
  Ni  Ni143  1  0.66220076  0.75000000  0.32962946  1
  Ni  Ni144  1  0.49746598  0.40988156  0.43419646  1
  Ni  Ni145  1  0.60322830  0.37948140  0.56935362  1
  Ni  Ni146  1  0.83918109  0.38170146  0.67116468  1
  Ni  Ni147  1  0.84424603  0.92276123  0.75000000  1
  Ni  Ni148  1  0.33779924  0.25000000  0.82962946  1
  Ni  Ni149  1  0.16355008  0.06375878  0.07540673  1
  Cu  Cu150  1  0.14238947  0.75000000  0.43808457  1
  Cu  Cu151  1  0.85410745  0.10933459  0.25000000  1
  Cu  Cu152  1  0.53029611  0.60848004  0.75000000  1
  Cu  Cu153  1  0.46970389  0.10848004  0.25000000  1
  Cu  Cu154  1  0.85761053  0.25000000  0.93808457  1
  Cu  Cu155  1  0.53029611  0.89151996  0.75000000  1
  Cu  Cu156  1  0.14238947  0.75000000  0.06191543  1
  Cu  Cu157  1  0.14589255  0.89066541  0.75000000  1
  Cu  Cu158  1  0.85410745  0.39066541  0.25000000  1
  Cu  Cu159  1  0.85761053  0.25000000  0.56191543  1
  Cu  Cu160  1  0.14589255  0.60933459  0.75000000  1
  Cu  Cu161  1  0.46970389  0.39151996  0.25000000  1
