# generated using pymatgen
data_Cu12Ni3C4
_symmetry_space_group_name_H-M   'P 1'
_cell_length_a   10.07214000
_cell_length_b   10.07214000
_cell_length_c   10.07214000
_cell_angle_alpha   90.00000000
_cell_angle_beta   90.00000000
_cell_angle_gamma   90.00000000
_symmetry_Int_Tables_number   1
_chemical_formula_structural   Cu12Ni3C4
_chemical_formula_sum   'Cu48 Ni12 C16'
_cell_volume   1021.79850082
_cell_formula_units_Z   4
loop_
 _symmetry_equiv_pos_site_id
 _symmetry_equiv_pos_as_xyz
  1  'x, y, z'
loop_
 _atom_site_type_symbol
 _atom_site_label
 _atom_site_symmetry_multiplicity
 _atom_site_fract_x
 _atom_site_fract_y
 _atom_site_fract_z
 _atom_site_occupancy
  C  C0  1  0.20060700  0.29939300  0.70060700  1
  C  C1  1  0.29939300  0.70060700  0.20060700  1
  C  C2  1  0.70060700  0.20060700  0.29939300  1
  C  C3  1  0.79939300  0.79939300  0.79939300  1
  C  C4  1  0.43311700  0.06688300  0.93311700  1
  C  C5  1  0.06688300  0.93311700  0.43311700  1
  C  C6  1  0.93311700  0.43311700  0.06688300  1
  C  C7  1  0.56688300  0.56688300  0.56688300  1
  C  C8  1  0.15097100  0.65097100  0.84902900  1
  C  C9  1  0.08557600  0.08557600  0.08557600  1
  C  C10  1  0.41442400  0.91442400  0.58557600  1
  C  C11  1  0.58557600  0.41442400  0.91442400  1
  C  C12  1  0.91442400  0.58557600  0.41442400  1
  C  C13  1  0.34902900  0.34902900  0.34902900  1
  C  C14  1  0.84902900  0.15097100  0.65097100  1
  C  C15  1  0.65097100  0.84902900  0.15097100  1
  Ni  Ni16  1  0.46624100  0.73100000  0.87395800  1
  Ni  Ni17  1  0.26900000  0.37395800  0.03375900  1
  Ni  Ni18  1  0.37395800  0.03375900  0.26900000  1
  Ni  Ni19  1  0.03375900  0.26900000  0.37395800  1
  Ni  Ni20  1  0.87395800  0.46624100  0.73100000  1
  Ni  Ni21  1  0.73100000  0.87395800  0.46624100  1
  Ni  Ni22  1  0.23100000  0.62604200  0.53375900  1
  Ni  Ni23  1  0.12604200  0.96624100  0.76900000  1
  Ni  Ni24  1  0.62604200  0.53375900  0.23100000  1
  Ni  Ni25  1  0.76900000  0.12604200  0.96624100  1
  Ni  Ni26  1  0.96624100  0.76900000  0.12604200  1
  Ni  Ni27  1  0.53375900  0.23100000  0.62604200  1
  Cu  Cu28  1  0.50375200  0.59138300  0.84836200  1
  Cu  Cu29  1  0.00375200  0.90861700  0.15163800  1
  Cu  Cu30  1  0.49624800  0.09138300  0.65163800  1
  Cu  Cu31  1  0.90861700  0.15163800  0.00375200  1
  Cu  Cu32  1  0.65163800  0.49624800  0.09138300  1
  Cu  Cu33  1  0.15163800  0.00375200  0.90861700  1
  Cu  Cu34  1  0.59138300  0.84836200  0.50375200  1
  Cu  Cu35  1  0.84836200  0.50375200  0.59138300  1
  Cu  Cu36  1  0.09138300  0.65163800  0.49624800  1
  Cu  Cu37  1  0.40861700  0.34836200  0.99624800  1
  Cu  Cu38  1  0.34836200  0.99624800  0.40861700  1
  Cu  Cu39  1  0.99624800  0.40861700  0.34836200  1
  Cu  Cu40  1  0.47527800  0.94590600  0.20768500  1
  Cu  Cu41  1  0.97527800  0.55409400  0.79231500  1
  Cu  Cu42  1  0.52472200  0.44590600  0.29231500  1
  Cu  Cu43  1  0.55409400  0.79231500  0.97527800  1
  Cu  Cu44  1  0.29231500  0.52472200  0.44590600  1
  Cu  Cu45  1  0.79231500  0.97527800  0.55409400  1
  Cu  Cu46  1  0.57924400  0.67395700  0.23943900  1
  Cu  Cu47  1  0.94590600  0.20768500  0.47527800  1
  Cu  Cu48  1  0.44590600  0.29231500  0.52472200  1
  Cu  Cu49  1  0.05409400  0.70768500  0.02472200  1
  Cu  Cu50  1  0.70768500  0.02472200  0.05409400  1
  Cu  Cu51  1  0.02472200  0.05409400  0.70768500  1
  Cu  Cu52  1  0.32604300  0.73943900  0.92075600  1
  Cu  Cu53  1  0.82604300  0.76056100  0.07924400  1
  Cu  Cu54  1  0.67395700  0.23943900  0.57924400  1
  Cu  Cu55  1  0.76056100  0.07924400  0.82604300  1
  Cu  Cu56  1  0.01568100  0.19255100  0.24895300  1
  Cu  Cu57  1  0.24895300  0.01568100  0.19255100  1
  Cu  Cu58  1  0.19255100  0.24895300  0.01568100  1
  Cu  Cu59  1  0.30744900  0.75104700  0.51568100  1
  Cu  Cu60  1  0.74895300  0.48431900  0.80744900  1
  Cu  Cu61  1  0.80744900  0.74895300  0.48431900  1
  Cu  Cu62  1  0.25104700  0.98431900  0.69255100  1
  Cu  Cu63  1  0.75104700  0.51568100  0.30744900  1
  Cu  Cu64  1  0.69255100  0.25104700  0.98431900  1
  Cu  Cu65  1  0.51568100  0.30744900  0.75104700  1
  Cu  Cu66  1  0.98431900  0.69255100  0.25104700  1
  Cu  Cu67  1  0.48431900  0.80744900  0.74895300  1
  Cu  Cu68  1  0.17395700  0.26056100  0.42075600  1
  Cu  Cu69  1  0.42075600  0.17395700  0.26056100  1
  Cu  Cu70  1  0.26056100  0.42075600  0.17395700  1
  Cu  Cu71  1  0.23943900  0.57924400  0.67395700  1
  Cu  Cu72  1  0.92075600  0.32604300  0.73943900  1
  Cu  Cu73  1  0.73943900  0.92075600  0.32604300  1
  Cu  Cu74  1  0.07924400  0.82604300  0.76056100  1
  Cu  Cu75  1  0.20768500  0.47527800  0.94590600  1
