# generated using pymatgen
data_Cu6NiC9
_symmetry_space_group_name_H-M   'P 1'
_cell_length_a   5.15984625
_cell_length_b   5.15984625
_cell_length_c   14.28458300
_cell_angle_alpha   90.00000000
_cell_angle_beta   90.00000000
_cell_angle_gamma   120.00000316
_symmetry_Int_Tables_number   1
_chemical_formula_structural   Cu6NiC9
_chemical_formula_sum   'Cu12 Ni2 C18'
_cell_volume   329.36064618
_cell_formula_units_Z   2
loop_
 _symmetry_equiv_pos_site_id
 _symmetry_equiv_pos_as_xyz
  1  'x, y, z'
loop_
 _atom_site_type_symbol
 _atom_site_label
 _atom_site_symmetry_multiplicity
 _atom_site_fract_x
 _atom_site_fract_y
 _atom_site_fract_z
 _atom_site_occupancy
  C  C0  1  0.00000000  0.00000000  0.50000000  1
  C  C1  1  0.00000000  0.00000000  0.00000000  1
  C  C2  1  0.66666700  0.33333300  0.50000000  1
  C  C3  1  0.33333300  0.66666700  0.50000000  1
  C  C4  1  0.33333300  0.66666700  0.00000000  1
  C  C5  1  0.66666700  0.33333300  0.00000000  1
  C  C6  1  0.31134200  0.00000000  0.86671000  1
  C  C7  1  0.00000000  0.31134200  0.86671000  1
  C  C8  1  0.68865800  0.68865800  0.86671000  1
  C  C9  1  0.68865800  0.00000000  0.13329000  1
  C  C10  1  0.00000000  0.68865800  0.13329000  1
  C  C11  1  0.31134200  0.31134200  0.13329000  1
  C  C12  1  0.68865800  0.00000000  0.36671000  1
  C  C13  1  0.00000000  0.68865800  0.36671000  1
  C  C14  1  0.31134200  0.31134200  0.36671000  1
  C  C15  1  0.31134200  0.00000000  0.63329000  1
  C  C16  1  0.00000000  0.31134200  0.63329000  1
  C  C17  1  0.68865800  0.68865800  0.63329000  1
  Ni  Ni18  1  0.00000000  0.00000000  0.25000000  1
  Ni  Ni19  1  0.00000000  0.00000000  0.75000000  1
  Cu  Cu20  1  0.36793600  0.00000000  0.93223000  1
  Cu  Cu21  1  0.00000000  0.36793600  0.93223000  1
  Cu  Cu22  1  0.63206400  0.63206400  0.93223000  1
  Cu  Cu23  1  0.63206400  0.00000000  0.06777000  1
  Cu  Cu24  1  0.00000000  0.63206400  0.06777000  1
  Cu  Cu25  1  0.36793600  0.36793600  0.06777000  1
  Cu  Cu26  1  0.63206400  0.00000000  0.43223000  1
  Cu  Cu27  1  0.00000000  0.63206400  0.43223000  1
  Cu  Cu28  1  0.36793600  0.36793600  0.43223000  1
  Cu  Cu29  1  0.36793600  0.00000000  0.56777000  1
  Cu  Cu30  1  0.00000000  0.36793600  0.56777000  1
  Cu  Cu31  1  0.63206400  0.63206400  0.56777000  1
