# generated using pymatgen
data_Cu5(NiC18)2
_symmetry_space_group_name_H-M   'P 1'
_cell_length_a   13.62075400
_cell_length_b   13.53942800
_cell_length_c   13.55608430
_cell_angle_alpha   89.68543995
_cell_angle_beta   90.00000000
_cell_angle_gamma   90.00000000
_symmetry_Int_Tables_number   1
_chemical_formula_structural   Cu5(NiC18)2
_chemical_formula_sum   'Cu10 Ni4 C72'
_cell_volume   2499.93767834
_cell_formula_units_Z   2
loop_
 _symmetry_equiv_pos_site_id
 _symmetry_equiv_pos_as_xyz
  1  'x, y, z'
loop_
 _atom_site_type_symbol
 _atom_site_label
 _atom_site_symmetry_multiplicity
 _atom_site_fract_x
 _atom_site_fract_y
 _atom_site_fract_z
 _atom_site_occupancy
  C  C0  1  0.52804500  0.22628400  0.28134900  1
  C  C1  1  0.47195500  0.22628400  0.78134900  1
  C  C2  1  0.60064500  0.94860400  0.43884200  1
  C  C3  1  0.39935500  0.94860400  0.93884200  1
  C  C4  1  0.70967600  0.93235200  0.65179500  1
  C  C5  1  0.29032400  0.93235200  0.15179500  1
  C  C6  1  0.81603600  0.84475500  0.45458500  1
  C  C7  1  0.18396400  0.84475500  0.95458500  1
  C  C8  1  0.31053700  0.65448900  0.45469500  1
  C  C9  1  0.68946300  0.65448900  0.95469500  1
  C  C10  1  0.20189100  0.56401600  0.65299400  1
  C  C11  1  0.79810900  0.56401600  0.15299400  1
  C  C12  1  0.09542100  0.54837400  0.43738300  1
  C  C13  1  0.90457900  0.54837400  0.93738300  1
  C  C14  1  0.60220500  0.46093900  0.06437300  1
  C  C15  1  0.39779500  0.46093900  0.56437300  1
  C  C16  1  0.70975100  0.44133800  0.84920000  1
  C  C17  1  0.29024900  0.44133800  0.34920000  1
  C  C18  1  0.81717400  0.35021800  0.04437300  1
  C  C19  1  0.18282600  0.35021800  0.54437300  1
  C  C20  1  0.69273100  0.14885700  0.54393000  1
  C  C21  1  0.30726900  0.14885700  0.04393000  1
  C  C22  1  0.19571100  0.06092800  0.84759600  1
  C  C23  1  0.80428900  0.06092800  0.34759600  1
  C  C24  1  0.09607800  0.04343300  0.06399000  1
  C  C25  1  0.90392200  0.04343300  0.56399000  1
  Ni  Ni26  1  0.24644600  0.99624300  0.99873000  1
  Ni  Ni27  1  0.75355400  0.99624300  0.49873000  1
  Ni  Ni28  1  0.24574400  0.50321800  0.50099600  1
  Ni  Ni29  1  0.75425600  0.50321800  0.00099600  1
  Cu  Cu30  1  0.38129900  0.87049500  0.37236500  1
  Cu  Cu31  1  0.61870100  0.87049500  0.87236500  1
  Cu  Cu32  1  0.87989800  0.62925000  0.37047500  1
  Cu  Cu33  1  0.12010200  0.62925000  0.87047500  1
  Cu  Cu34  1  0.61632400  0.36517000  0.63432600  1
  Cu  Cu35  1  0.38367600  0.36517000  0.13432600  1
  Cu  Cu36  1  0.88386800  0.13069600  0.13194100  1
  Cu  Cu37  1  0.11613200  0.13069600  0.63194100  1
  Cu  Cu38  1  0.62982100  0.01271800  0.23221500  1
  Cu  Cu39  1  0.37017900  0.01271800  0.73221500  1
  C  C40  1  0.13186700  0.97940600  0.23815300  1
  C  C41  1  0.86813300  0.97940600  0.73815300  1
  C  C42  1  0.87416800  0.90051700  0.28523100  1
  C  C43  1  0.12583200  0.90051700  0.78523100  1
  C  C44  1  0.54074400  0.87445700  0.59822000  1
  C  C45  1  0.45925600  0.87445700  0.09822000  1
  C  C46  1  0.01213100  0.88126400  0.02131200  1
  C  C47  1  0.98786900  0.88126400  0.52131200  1
  C  C48  1  0.34575400  0.78086800  0.88272500  1
  C  C49  1  0.65424600  0.78086800  0.38272500  1
  C  C50  1  0.22732300  0.76025900  0.11767400  1
  C  C51  1  0.77267700  0.76025900  0.61767400  1
  C  C52  1  0.72964400  0.73699000  0.11881700  1
  C  C53  1  0.27035600  0.73699000  0.61881700  1
  C  C54  1  0.15144800  0.71802300  0.37970400  1
  C  C55  1  0.84855200  0.71802300  0.87970400  1
  C  C56  1  0.48462100  0.61896000  0.51963200  1
  C  C57  1  0.51537900  0.61896000  0.01963200  1
  C  C58  1  0.96715500  0.61983800  0.09884800  1
  C  C59  1  0.03284500  0.61983800  0.59884800  1
  C  C60  1  0.63085400  0.59833300  0.78464200  1
  C  C61  1  0.36914600  0.59833300  0.28464200  1
  C  C62  1  0.63452600  0.51825000  0.23857500  1
  C  C63  1  0.36547400  0.51825000  0.73857500  1
  C  C64  1  0.13046800  0.48090200  0.26406700  1
  C  C65  1  0.86953200  0.48090200  0.76406700  1
  C  C66  1  0.13165600  0.40034900  0.71637700  1
  C  C67  1  0.86834400  0.40034900  0.21637700  1
  C  C68  1  0.53191900  0.38807100  0.90272400  1
  C  C69  1  0.46808100  0.38807100  0.40272400  1
  C  C70  1  0.98780100  0.38341500  0.97857300  1
  C  C71  1  0.01219900  0.38341500  0.47857300  1
  C  C72  1  0.65050800  0.28161900  0.11386500  1
  C  C73  1  0.34949200  0.28161900  0.61386500  1
  C  C74  1  0.23325800  0.26404700  0.38355100  1
  C  C75  1  0.76674200  0.26404700  0.88355100  1
  C  C76  1  0.72869700  0.23812400  0.37861300  1
  C  C77  1  0.27130300  0.23812400  0.87861300  1
  C  C78  1  0.84807000  0.21547200  0.61760700  1
  C  C79  1  0.15193000  0.21547200  0.11760700  1
  C  C80  1  0.48588400  0.11809400  0.97786400  1
  C  C81  1  0.51411600  0.11809400  0.47786400  1
  C  C82  1  0.03154400  0.12088100  0.90432900  1
  C  C83  1  0.96845600  0.12088100  0.40432900  1
  C  C84  1  0.36361800  0.09818600  0.21814400  1
  C  C85  1  0.63638200  0.09818600  0.71814400  1
