# generated using pymatgen
data_Cu(Ni4C9)2
_symmetry_space_group_name_H-M   'P 1'
_cell_length_a   9.19828903
_cell_length_b   9.19828903
_cell_length_c   9.19828912
_cell_angle_alpha   38.11314659
_cell_angle_beta   38.11314659
_cell_angle_gamma   38.11314649
_symmetry_Int_Tables_number   1
_chemical_formula_structural   Cu(Ni4C9)2
_chemical_formula_sum   'Cu1 Ni8 C18'
_cell_volume   266.18965542
_cell_formula_units_Z   1
loop_
 _symmetry_equiv_pos_site_id
 _symmetry_equiv_pos_as_xyz
  1  'x, y, z'
loop_
 _atom_site_type_symbol
 _atom_site_label
 _atom_site_symmetry_multiplicity
 _atom_site_fract_x
 _atom_site_fract_y
 _atom_site_fract_z
 _atom_site_occupancy
  C  C0  1  0.58279600  0.58279600  0.58279600  1
  C  C1  1  0.41720400  0.41720400  0.41720400  1
  C  C2  1  0.92228500  0.92228500  0.92228500  1
  C  C3  1  0.07771500  0.07771500  0.07771500  1
  C  C4  1  0.31671500  0.66764500  0.94433600  1
  C  C5  1  0.94433600  0.31671500  0.66764500  1
  C  C6  1  0.66764500  0.94433600  0.31671500  1
  C  C7  1  0.68328500  0.33235500  0.05566400  1
  C  C8  1  0.05566400  0.68328500  0.33235500  1
  C  C9  1  0.33235500  0.05566400  0.68328500  1
  C  C10  1  0.16843300  0.82731500  0.57907200  1
  C  C11  1  0.17268500  0.42092800  0.83156700  1
  C  C12  1  0.42092800  0.83156700  0.17268500  1
  C  C13  1  0.83156700  0.17268500  0.42092800  1
  C  C14  1  0.82731500  0.57907200  0.16843300  1
  C  C15  1  0.57907200  0.16843300  0.82731500  1
  C  C16  1  0.24937500  0.24937500  0.24937500  1
  C  C17  1  0.75062500  0.75062500  0.75062500  1
  Ni  Ni18  1  0.32670800  0.32670800  0.32670800  1
  Ni  Ni19  1  0.67329200  0.67329200  0.67329200  1
  Ni  Ni20  1  0.91173700  0.22582300  0.53603600  1
  Ni  Ni21  1  0.53603600  0.91173700  0.22582300  1
  Ni  Ni22  1  0.22582300  0.53603600  0.91173700  1
  Ni  Ni23  1  0.08826300  0.77417700  0.46396400  1
  Ni  Ni24  1  0.46396400  0.08826300  0.77417700  1
  Ni  Ni25  1  0.77417700  0.46396400  0.08826300  1
  Cu  Cu26  1  0.00000000  0.00000000  0.00000000  1
