# generated using pymatgen
data_CuNi7C22
_symmetry_space_group_name_H-M   'P 1'
_cell_length_a   8.20720739
_cell_length_b   8.20720739
_cell_length_c   8.20720739
_cell_angle_alpha   60.00000000
_cell_angle_beta   60.00000000
_cell_angle_gamma   60.00000000
_symmetry_Int_Tables_number   1
_chemical_formula_structural   CuNi7C22
_chemical_formula_sum   'Cu1 Ni7 C22'
_cell_volume   390.90500025
_cell_formula_units_Z   1
loop_
 _symmetry_equiv_pos_site_id
 _symmetry_equiv_pos_as_xyz
  1  'x, y, z'
loop_
 _atom_site_type_symbol
 _atom_site_label
 _atom_site_symmetry_multiplicity
 _atom_site_fract_x
 _atom_site_fract_y
 _atom_site_fract_z
 _atom_site_occupancy
  C  C0  1  0.21432200  0.21432200  0.78567800  1
  C  C1  1  0.78567800  0.21432200  0.78567800  1
  C  C2  1  0.78567800  0.78567800  0.21432200  1
  C  C3  1  0.78567800  0.21432200  0.21432200  1
  C  C4  1  0.21432200  0.78567800  0.78567800  1
  C  C5  1  0.21432200  0.78567800  0.21432200  1
  C  C6  1  0.37750500  0.86748500  0.37750500  1
  C  C7  1  0.82510600  0.82510600  0.82510600  1
  C  C8  1  0.52468200  0.82510600  0.82510600  1
  C  C9  1  0.47531800  0.17489400  0.17489400  1
  C  C10  1  0.82510600  0.52468200  0.82510600  1
  C  C11  1  0.82510600  0.82510600  0.52468200  1
  C  C12  1  0.17489400  0.17489400  0.47531800  1
  C  C13  1  0.13251500  0.62249500  0.62249500  1
  C  C14  1  0.17489400  0.47531800  0.17489400  1
  C  C15  1  0.62249500  0.62249500  0.62249500  1
  C  C16  1  0.86748500  0.37750500  0.37750500  1
  C  C17  1  0.62249500  0.13251500  0.62249500  1
  C  C18  1  0.62249500  0.62249500  0.13251500  1
  C  C19  1  0.17489400  0.17489400  0.17489400  1
  C  C20  1  0.37750500  0.37750500  0.37750500  1
  C  C21  1  0.37750500  0.37750500  0.86748500  1
  Ni  Ni22  1  0.50000000  0.50000000  0.00000000  1
  Ni  Ni23  1  0.50000000  0.50000000  0.50000000  1
  Ni  Ni24  1  0.50000000  0.00000000  0.50000000  1
  Ni  Ni25  1  0.00000000  0.00000000  0.50000000  1
  Ni  Ni26  1  0.00000000  0.50000000  0.50000000  1
  Ni  Ni27  1  0.00000000  0.50000000  0.00000000  1
  Ni  Ni28  1  0.50000000  0.00000000  0.00000000  1
  Cu  Cu29  1  0.00000000  0.00000000  0.00000000  1
