# generated using pymatgen
data_Cu7Ni7C3
_symmetry_space_group_name_H-M   'P 1'
_cell_length_a   13.32806873
_cell_length_b   13.32806873
_cell_length_c   13.32806866
_cell_angle_alpha   46.94157305
_cell_angle_beta   46.94157305
_cell_angle_gamma   46.94156992
_symmetry_Int_Tables_number   1
_chemical_formula_structural   Cu7Ni7C3
_chemical_formula_sum   'Cu14 Ni14 C6'
_cell_volume   1155.23971748
_cell_formula_units_Z   2
loop_
 _symmetry_equiv_pos_site_id
 _symmetry_equiv_pos_as_xyz
  1  'x, y, z'
loop_
 _atom_site_type_symbol
 _atom_site_label
 _atom_site_symmetry_multiplicity
 _atom_site_fract_x
 _atom_site_fract_y
 _atom_site_fract_z
 _atom_site_occupancy
  C  C0  1  0.87269500  0.16551600  0.05651800  1
  C  C1  1  0.83448400  0.94348200  0.12730500  1
  C  C2  1  0.12730500  0.83448400  0.94348200  1
  C  C3  1  0.16551600  0.05651800  0.87269500  1
  C  C4  1  0.94348200  0.12730500  0.83448400  1
  C  C5  1  0.05651800  0.87269500  0.16551600  1
  Ni  Ni6  1  0.34837200  0.76278000  0.98196500  1
  Ni  Ni7  1  0.68859200  0.40014600  0.13299400  1
  Ni  Ni8  1  0.23722000  0.01803500  0.65162800  1
  Ni  Ni9  1  0.13299400  0.68859200  0.40014600  1
  Ni  Ni10  1  0.98196500  0.34837200  0.76278000  1
  Ni  Ni11  1  0.31140800  0.59985400  0.86700600  1
  Ni  Ni12  1  0.86700600  0.31140800  0.59985400  1
  Ni  Ni13  1  0.90638900  0.90638900  0.90638900  1
  Ni  Ni14  1  0.59985400  0.86700600  0.31140800  1
  Ni  Ni15  1  0.65162800  0.23722000  0.01803500  1
  Ni  Ni16  1  0.40014600  0.13299400  0.68859200  1
  Ni  Ni17  1  0.01803500  0.65162800  0.23722000  1
  Ni  Ni18  1  0.09361100  0.09361100  0.09361100  1
  Ni  Ni19  1  0.76278000  0.98196500  0.34837200  1
  Cu  Cu20  1  0.63226600  0.29306600  0.69825900  1
  Cu  Cu21  1  0.36773400  0.70693400  0.30174100  1
  Cu  Cu22  1  0.54951300  0.96410200  0.84942500  1
  Cu  Cu23  1  0.63698800  0.63698800  0.63698800  1
  Cu  Cu24  1  0.84942500  0.54951300  0.96410200  1
  Cu  Cu25  1  0.15057500  0.45048700  0.03589800  1
  Cu  Cu26  1  0.36301200  0.36301200  0.36301200  1
  Cu  Cu27  1  0.96410200  0.84942500  0.54951300  1
  Cu  Cu28  1  0.03589800  0.15057500  0.45048700  1
  Cu  Cu29  1  0.69825900  0.63226600  0.29306600  1
  Cu  Cu30  1  0.30174100  0.36773400  0.70693400  1
  Cu  Cu31  1  0.70693400  0.30174100  0.36773400  1
  Cu  Cu32  1  0.29306600  0.69825900  0.63226600  1
  Cu  Cu33  1  0.45048700  0.03589800  0.15057500  1
