# generated using pymatgen
data_Cu3(NiC2)2
_symmetry_space_group_name_H-M   'P 1'
_cell_length_a   6.84534900
_cell_length_b   8.37404400
_cell_length_c   8.72801800
_cell_angle_alpha   90.00000000
_cell_angle_beta   90.00000000
_cell_angle_gamma   90.00000000
_symmetry_Int_Tables_number   1
_chemical_formula_structural   Cu3(NiC2)2
_chemical_formula_sum   'Cu12 Ni8 C16'
_cell_volume   500.31839030
_cell_formula_units_Z   4
loop_
 _symmetry_equiv_pos_site_id
 _symmetry_equiv_pos_as_xyz
  1  'x, y, z'
loop_
 _atom_site_type_symbol
 _atom_site_label
 _atom_site_symmetry_multiplicity
 _atom_site_fract_x
 _atom_site_fract_y
 _atom_site_fract_z
 _atom_site_occupancy
  C  C0  1  0.98568300  0.43812900  0.23118700  1
  C  C1  1  0.47742300  0.93912200  0.84412200  1
  C  C2  1  0.59215800  0.09144200  0.87707200  1
  C  C3  1  0.48568300  0.56187100  0.76881300  1
  C  C4  1  0.97742300  0.06087800  0.15587800  1
  C  C5  1  0.09215800  0.90855800  0.12292800  1
  C  C6  1  0.97742300  0.43912200  0.65587800  1
  C  C7  1  0.09215800  0.59144200  0.62292800  1
  C  C8  1  0.48568300  0.93812900  0.26881300  1
  C  C9  1  0.47742300  0.56087800  0.34412200  1
  C  C10  1  0.59215800  0.40855800  0.37707200  1
  C  C11  1  0.98568300  0.06187100  0.73118700  1
  C  C12  1  0.19763300  0.94419600  0.44819500  1
  C  C13  1  0.19763300  0.55580400  0.94819500  1
  C  C14  1  0.69763300  0.05580400  0.55180500  1
  C  C15  1  0.69763300  0.44419600  0.05180500  1
  Ni  Ni16  1  0.15613100  0.28890200  0.33044100  1
  Ni  Ni17  1  0.15613100  0.21109800  0.83044100  1
  Ni  Ni18  1  0.65613100  0.71109800  0.66955900  1
  Ni  Ni19  1  0.65613100  0.78890200  0.16955900  1
  Ni  Ni20  1  0.74031600  0.17342500  0.52790200  1
  Ni  Ni21  1  0.74031600  0.32657500  0.02790200  1
  Ni  Ni22  1  0.24031600  0.82657500  0.47209800  1
  Ni  Ni23  1  0.24031600  0.67342500  0.97209800  1
  Cu  Cu24  1  0.01961400  0.42139300  0.33930800  1
  Cu  Cu25  1  0.52851900  0.03414400  0.79363300  1
  Cu  Cu26  1  0.51961400  0.57860700  0.66069200  1
  Cu  Cu27  1  0.02851900  0.96585600  0.20636700  1
  Cu  Cu28  1  0.02851900  0.53414400  0.70636700  1
  Cu  Cu29  1  0.51961400  0.92139300  0.16069200  1
  Cu  Cu30  1  0.52851900  0.46585600  0.29363300  1
  Cu  Cu31  1  0.01961400  0.07860700  0.83930800  1
  Cu  Cu32  1  0.20546700  0.24902100  0.45526500  1
  Cu  Cu33  1  0.20546700  0.25097900  0.95526500  1
  Cu  Cu34  1  0.70546700  0.75097900  0.54473500  1
  Cu  Cu35  1  0.70546700  0.74902100  0.04473500  1
