# generated using pymatgen
data_Cu15NiC21
_symmetry_space_group_name_H-M   'P 1'
_cell_length_a   10.02429800
_cell_length_b   16.60801940
_cell_length_c   16.90686987
_cell_angle_alpha   108.89658893
_cell_angle_beta   100.67398523
_cell_angle_gamma   102.66045182
_symmetry_Int_Tables_number   1
_chemical_formula_structural   Cu15NiC21
_chemical_formula_sum   'Cu60 Ni4 C84'
_cell_volume   2496.19100716
_cell_formula_units_Z   4
loop_
 _symmetry_equiv_pos_site_id
 _symmetry_equiv_pos_as_xyz
  1  'x, y, z'
loop_
 _atom_site_type_symbol
 _atom_site_label
 _atom_site_symmetry_multiplicity
 _atom_site_fract_x
 _atom_site_fract_y
 _atom_site_fract_z
 _atom_site_occupancy
  Ni  Ni0  1  0.21923000  0.53984400  0.74191800  1
  Ni  Ni1  1  0.78077000  0.46015600  0.25808200  1
  Ni  Ni2  1  0.19658400  0.95084400  0.20553800  1
  Ni  Ni3  1  0.80341600  0.04915600  0.79446200  1
  C  C4  1  0.18055300  0.58223000  0.88462200  1
  C  C5  1  0.89695800  0.60632700  0.36282100  1
  C  C6  1  0.81944700  0.41777000  0.11537800  1
  C  C7  1  0.39362200  0.01301000  0.16239500  1
  C  C8  1  0.22642900  0.40146100  0.81068500  1
  C  C9  1  0.94361500  0.95567400  0.73644600  1
  C  C10  1  0.05638500  0.04432600  0.26355400  1
  C  C11  1  0.77357100  0.59853900  0.18931500  1
  C  C12  1  0.37466400  0.12603400  0.33080500  1
  C  C13  1  0.39939400  0.94510100  0.29788800  1
  C  C14  1  0.60637800  0.98699000  0.83760500  1
  C  C15  1  0.40427300  0.47660900  0.71709100  1
  C  C16  1  0.60060600  0.05489900  0.70211200  1
  C  C17  1  0.62533600  0.87396600  0.66919500  1
  C  C18  1  0.10304200  0.39367300  0.63717900  1
  C  C19  1  0.59572700  0.52339100  0.28290900  1
  Cu  Cu20  1  0.40137600  0.83079100  0.23002700  1
  Cu  Cu21  1  0.37247600  0.08397500  0.42678700  1
  Cu  Cu22  1  0.58636700  0.09591600  0.90676900  1
  Cu  Cu23  1  0.20542300  0.63298700  0.70119600  1
  Cu  Cu24  1  0.37729700  0.16589300  0.23094200  1
  Cu  Cu25  1  0.09263000  0.60973300  0.39211400  1
  Cu  Cu26  1  0.00501100  0.14784200  0.32960400  1
  Cu  Cu27  1  0.80722000  0.60221400  0.08200700  1
  Cu  Cu28  1  0.33145600  0.89849700  0.37718300  1
  Cu  Cu29  1  0.41363300  0.90408400  0.09323100  1
  Cu  Cu30  1  0.90153900  0.72937100  0.42178500  1
  Cu  Cu31  1  0.67320100  0.77008000  0.60800000  1
  Cu  Cu32  1  0.06300200  0.99881000  0.35744000  1
  Cu  Cu33  1  0.59341500  0.07168400  0.18074800  1
  Cu  Cu34  1  0.46590800  0.37134000  0.67067600  1
  Cu  Cu35  1  0.93053000  0.16004100  0.87783200  1
  Cu  Cu36  1  0.40658500  0.92831600  0.81925200  1
  Cu  Cu37  1  0.59862400  0.16920900  0.76997300  1
  Cu  Cu38  1  0.38786300  0.63044100  0.93554300  1
  Cu  Cu39  1  0.42263900  0.43403900  0.20839900  1
  Cu  Cu40  1  0.06947000  0.83995900  0.12216800  1
  Cu  Cu41  1  0.56699300  0.48399500  0.37267200  1
  Cu  Cu42  1  0.97738600  0.52194100  0.82591100  1
  Cu  Cu43  1  0.57597800  0.17656000  0.37678000  1
  Cu  Cu44  1  0.79457700  0.36701300  0.29880400  1
  Cu  Cu45  1  0.62752400  0.91602500  0.57321300  1
  Cu  Cu46  1  0.87245200  0.57942200  0.46071900  1
  Cu  Cu47  1  0.69603000  0.96900800  0.93800400  1
  Cu  Cu48  1  0.06161700  0.08869000  0.16971600  1
  Cu  Cu49  1  0.24995300  0.28632700  0.76545400  1
  Cu  Cu50  1  0.62270300  0.83410700  0.76905800  1
  Cu  Cu51  1  0.43300700  0.51600500  0.62732800  1
  Cu  Cu52  1  0.01821100  0.34559300  0.74781600  1
  Cu  Cu53  1  0.75004700  0.71367300  0.23454600  1
  Cu  Cu54  1  0.32679900  0.22992000  0.39200000  1
  Cu  Cu55  1  0.42402200  0.82344000  0.62322000  1
  Cu  Cu56  1  0.99498900  0.85215800  0.67039600  1
  Cu  Cu57  1  0.93838300  0.91131000  0.83028400  1
  Cu  Cu58  1  0.84455900  0.30339200  0.10519600  1
  Cu  Cu59  1  0.30397000  0.03099200  0.06199600  1
  Cu  Cu60  1  0.84218300  0.41698500  0.00295900  1
  Cu  Cu61  1  0.15544100  0.69660800  0.89480400  1
  Cu  Cu62  1  0.43537200  0.45010400  0.86066200  1
  Cu  Cu63  1  0.86891100  0.96254400  0.20176600  1
  Cu  Cu64  1  0.56462800  0.54989600  0.13933800  1
  Cu  Cu65  1  0.39453400  0.01499900  0.65308600  1
  Cu  Cu66  1  0.02261400  0.47805900  0.17408900  1
  Cu  Cu67  1  0.90737000  0.39026700  0.60788600  1
  Cu  Cu68  1  0.61213700  0.36955900  0.06445700  1
  Cu  Cu69  1  0.53409200  0.62866000  0.32932400  1
  Cu  Cu70  1  0.66854400  0.10150300  0.62281700  1
  Cu  Cu71  1  0.60546600  0.98500100  0.34691400  1
  Cu  Cu72  1  0.98178900  0.65440700  0.25218400  1
  Cu  Cu73  1  0.15781700  0.58301500  0.99704100  1
  Cu  Cu74  1  0.12754800  0.42057800  0.53928100  1
  Cu  Cu75  1  0.13108900  0.03745600  0.79823400  1
  Cu  Cu76  1  0.57736100  0.56596100  0.79160100  1
  Cu  Cu77  1  0.19278000  0.39778600  0.91799300  1
  Cu  Cu78  1  0.93699800  0.00119000  0.64256000  1
  Cu  Cu79  1  0.09846100  0.27062900  0.57821500  1
  C  C80  1  0.97275400  0.20879400  0.36680400  1
  C  C81  1  0.09896500  0.19807900  0.54279600  1
  C  C82  1  0.86542000  0.56598500  0.52319700  1
  C  C83  1  0.14319100  0.58506400  0.06376300  1
  C  C84  1  0.73771200  0.78456000  0.26095600  1
  C  C85  1  0.05710400  0.96908800  0.41005000  1
  C  C86  1  0.31535800  0.38022000  0.16635600  1
  C  C87  1  0.26228800  0.21544000  0.73904400  1
  C  C88  1  0.09699400  0.69694400  0.26037800  1
  C  C89  1  0.50054900  0.30846800  0.64143200  1
  C  C90  1  0.21077400  0.61230000  0.41327800  1
  C  C91  1  0.59625500  0.24055900  0.80865700  1
  C  C92  1  0.69694700  0.20942900  0.40898200  1
  C  C93  1  0.49945100  0.69153200  0.35856800  1
  C  C94  1  0.85713800  0.49070700  0.79163000  1
  C  C95  1  0.02724600  0.79120600  0.63319600  1
  C  C96  1  0.24389800  0.08639000  0.83474400  1
  C  C97  1  0.61837100  0.78135500  0.80133800  1
  C  C98  1  0.75610200  0.91361000  0.16525600  1
  C  C99  1  0.50837000  0.66234800  0.96868200  1
  C  C100  1  0.17143600  0.38921200  0.98026300  1
  C  C101  1  0.94308000  0.88665000  0.88682900  1
  C  C102  1  0.14286200  0.50929300  0.20837000  1
  C  C103  1  0.25355000  0.03751900  0.99765700  1
  C  C104  1  0.30789300  0.29510000  0.43298300  1
  C  C105  1  0.86181100  0.23574800  0.10087200  1
  C  C106  1  0.40374500  0.75944100  0.19134300  1
  C  C107  1  0.85680900  0.41493600  0.93623700  1
  C  C108  1  0.82856400  0.61078800  0.01973700  1
  C  C109  1  0.90300600  0.30305600  0.73962200  1
  C  C110  1  0.45422000  0.53741600  0.09216200  1
  C  C111  1  0.13818900  0.76425200  0.89912800  1
  C  C112  1  0.90103500  0.80192100  0.45720400  1
  C  C113  1  0.42945500  0.84022800  0.04657100  1
  C  C114  1  0.71255900  0.10444100  0.18905500  1
  C  C115  1  0.78922600  0.38770000  0.58672200  1
  C  C116  1  0.29365600  0.86854800  0.42534500  1
  C  C117  1  0.37550400  0.08492800  0.49637900  1
  C  C118  1  0.13458000  0.43401500  0.47680300  1
  C  C119  1  0.38162900  0.21864500  0.19866200  1
  C  C120  1  0.54578000  0.46258400  0.90783800  1
  C  C121  1  0.30305300  0.79057100  0.59101800  1
  C  C122  1  0.57054500  0.15977200  0.95342900  1
  C  C123  1  0.70634400  0.13145200  0.57465500  1
  C  C124  1  0.94289600  0.03091200  0.58995000  1
  C  C125  1  0.74645000  0.96248100  0.00234300  1
  C  C126  1  0.27159800  0.99382300  0.62707600  1
  C  C127  1  0.49163000  0.33765200  0.03131800  1
  C  C128  1  0.68464200  0.61978000  0.83364400  1
  C  C129  1  0.62449600  0.91507200  0.50362100  1
  C  C130  1  0.54116200  0.45561500  0.42421500  1
  C  C131  1  0.72840200  0.00617700  0.37292400  1
  C  C132  1  0.05692000  0.11335000  0.11317100  1
  C  C133  1  0.69210700  0.70490000  0.56701700  1
  C  C134  1  0.28744100  0.89555900  0.81094500  1
  C  C135  1  0.45883800  0.54438500  0.57578500  1
  C  C136  1  0.13782600  0.77961400  0.08849300  1
  C  C137  1  0.69092100  0.28838100  0.24602700  1
  C  C138  1  0.98878300  0.85019100  0.05369600  1
  C  C139  1  0.01121700  0.14980900  0.94630400  1
  C  C140  1  0.97635900  0.80073400  0.15885900  1
  C  C141  1  0.86217400  0.22038600  0.91150700  1
  C  C142  1  0.02364100  0.19926600  0.84114100  1
  C  C143  1  0.78120600  0.38511900  0.38119400  1
  C  C144  1  0.07733900  0.64935100  0.70097500  1
  C  C145  1  0.21879400  0.61488100  0.61880600  1
  C  C146  1  0.30907900  0.71161900  0.75397300  1
  C  C147  1  0.92266100  0.35064900  0.29902500  1
