# generated using pymatgen
data_Cu12Ni2C11
_symmetry_space_group_name_H-M   'P 1'
_cell_length_a   12.12568836
_cell_length_b   12.12568836
_cell_length_c   11.88054042
_cell_angle_alpha   65.53479051
_cell_angle_beta   65.53479051
_cell_angle_gamma   46.92003554
_symmetry_Int_Tables_number   1
_chemical_formula_structural   Cu12Ni2C11
_chemical_formula_sum   'Cu48 Ni8 C44'
_cell_volume   1138.45892743
_cell_formula_units_Z   4
loop_
 _symmetry_equiv_pos_site_id
 _symmetry_equiv_pos_as_xyz
  1  'x, y, z'
loop_
 _atom_site_type_symbol
 _atom_site_label
 _atom_site_symmetry_multiplicity
 _atom_site_fract_x
 _atom_site_fract_y
 _atom_site_fract_z
 _atom_site_occupancy
  C  C0  1  0.13900000  0.10487000  0.79615600  1
  C  C1  1  0.10487000  0.13900000  0.29615600  1
  C  C2  1  0.86100000  0.89513000  0.20384400  1
  C  C3  1  0.89513000  0.86100000  0.70384400  1
  C  C4  1  0.36086000  0.38155000  0.71008400  1
  C  C5  1  0.38155000  0.36086000  0.21008400  1
  C  C6  1  0.63914000  0.61845000  0.28991600  1
  C  C7  1  0.61845000  0.63914000  0.78991600  1
  C  C8  1  0.74860600  0.25139400  0.75000000  1
  C  C9  1  0.25139400  0.74860600  0.25000000  1
  C  C10  1  0.00000000  0.50000000  0.00000000  1
  C  C11  1  0.50000000  0.00000000  0.50000000  1
  C  C12  1  0.21562500  0.17749900  0.47194100  1
  C  C13  1  0.17749900  0.21562500  0.97194100  1
  C  C14  1  0.78437500  0.82250100  0.52805900  1
  C  C15  1  0.82250100  0.78437500  0.02805900  1
  C  C16  1  0.25330700  0.01518200  0.53243100  1
  C  C17  1  0.01518200  0.25330700  0.03243100  1
  C  C18  1  0.74669300  0.98481800  0.46756900  1
  C  C19  1  0.98481800  0.74669300  0.96756900  1
  C  C20  1  0.69238800  0.70119100  0.47774400  1
  C  C21  1  0.70119100  0.69238800  0.97774400  1
  C  C22  1  0.30761200  0.29880900  0.52225600  1
  C  C23  1  0.29880900  0.30761200  0.02225600  1
  C  C24  1  0.52417800  0.74919500  0.52996300  1
  C  C25  1  0.74919500  0.52417800  0.02996300  1
  C  C26  1  0.47582200  0.25080500  0.47003700  1
  C  C27  1  0.25080500  0.47582200  0.97003700  1
  C  C28  1  0.04753400  0.99155800  0.67363700  1
  C  C29  1  0.99155800  0.04753400  0.17363700  1
  C  C30  1  0.95246600  0.00844200  0.32636300  1
  C  C31  1  0.00844200  0.95246600  0.82636300  1
  C  C32  1  0.48861100  0.54940900  0.67380600  1
  C  C33  1  0.54940900  0.48861100  0.17380600  1
  C  C34  1  0.51138900  0.45059100  0.32619400  1
  C  C35  1  0.45059100  0.51138900  0.82619400  1
  C  C36  1  0.86029000  0.40532200  0.54104500  1
  C  C37  1  0.40532200  0.86029000  0.04104500  1
  C  C38  1  0.13971000  0.59467800  0.45895500  1
  C  C39  1  0.59467800  0.13971000  0.95895500  1
  C  C40  1  0.89424500  0.37917100  0.66749700  1
  C  C41  1  0.37917100  0.89424500  0.16749700  1
  C  C42  1  0.10575500  0.62082900  0.33250300  1
  C  C43  1  0.62082900  0.10575500  0.83250300  1
  Ni  Ni44  1  0.27289500  0.77236700  0.52201300  1
  Ni  Ni45  1  0.77236700  0.27289500  0.02201300  1
  Ni  Ni46  1  0.72710500  0.22763300  0.47798700  1
  Ni  Ni47  1  0.22763300  0.72710500  0.97798700  1
  Ni  Ni48  1  0.00087900  0.48011600  0.29957000  1
  Ni  Ni49  1  0.48011600  0.00087900  0.79957000  1
  Ni  Ni50  1  0.99912100  0.51988400  0.70043000  1
  Ni  Ni51  1  0.51988400  0.99912100  0.20043000  1
  Cu  Cu52  1  0.06516300  0.82053800  0.96313000  1
  Cu  Cu53  1  0.82053800  0.06516300  0.46313000  1
  Cu  Cu54  1  0.93483700  0.17946200  0.03687000  1
  Cu  Cu55  1  0.17946200  0.93483700  0.53687000  1
  Cu  Cu56  1  0.43494800  0.68240600  0.53582000  1
  Cu  Cu57  1  0.68240600  0.43494800  0.03582000  1
  Cu  Cu58  1  0.56505200  0.31759400  0.46418000  1
  Cu  Cu59  1  0.31759400  0.56505200  0.96418000  1
  Cu  Cu60  1  0.85796400  0.53920400  0.40055500  1
  Cu  Cu61  1  0.53920400  0.85796400  0.90055500  1
  Cu  Cu62  1  0.14203600  0.46079600  0.59944500  1
  Cu  Cu63  1  0.46079600  0.14203600  0.09944500  1
  Cu  Cu64  1  0.13160600  0.32307700  0.35009500  1
  Cu  Cu65  1  0.32307700  0.13160600  0.85009500  1
  Cu  Cu66  1  0.86839400  0.67692300  0.64990500  1
  Cu  Cu67  1  0.67692300  0.86839400  0.14990500  1
  Cu  Cu68  1  0.72316000  0.22003900  0.60759900  1
  Cu  Cu69  1  0.22003900  0.72316000  0.10759900  1
  Cu  Cu70  1  0.27684000  0.77996100  0.39240100  1
  Cu  Cu71  1  0.77996100  0.27684000  0.89240100  1
  Cu  Cu72  1  0.20499200  0.69838000  0.61823100  1
  Cu  Cu73  1  0.69838000  0.20499200  0.11823100  1
  Cu  Cu74  1  0.79500800  0.30162000  0.38176900  1
  Cu  Cu75  1  0.30162000  0.79500800  0.88176900  1
  Cu  Cu76  1  0.03151900  0.52870800  0.80383400  1
  Cu  Cu77  1  0.52870800  0.03151900  0.30383400  1
  Cu  Cu78  1  0.96848100  0.47129200  0.19616600  1
  Cu  Cu79  1  0.47129200  0.96848100  0.69616600  1
  Cu  Cu80  1  0.58376500  0.04345300  0.74999000  1
  Cu  Cu81  1  0.04345300  0.58376500  0.24999000  1
  Cu  Cu82  1  0.41623500  0.95654700  0.25001000  1
  Cu  Cu83  1  0.95654700  0.41623500  0.75001000  1
  Cu  Cu84  1  0.27264600  0.08216000  0.53475700  1
  Cu  Cu85  1  0.08216000  0.27264600  0.03475700  1
  Cu  Cu86  1  0.72735400  0.91784000  0.46524300  1
  Cu  Cu87  1  0.91784000  0.72735400  0.96524300  1
  Cu  Cu88  1  0.59105900  0.77053700  0.52894700  1
  Cu  Cu89  1  0.77053700  0.59105900  0.02894700  1
  Cu  Cu90  1  0.40894100  0.22946300  0.47105300  1
  Cu  Cu91  1  0.22946300  0.40894100  0.97105300  1
  Cu  Cu92  1  0.96785500  0.03214500  0.75000000  1
  Cu  Cu93  1  0.03214500  0.96785500  0.25000000  1
  Cu  Cu94  1  0.52999900  0.47000100  0.75000000  1
  Cu  Cu95  1  0.47000100  0.52999900  0.25000000  1
  Cu  Cu96  1  0.85635300  0.35281900  0.63086400  1
  Cu  Cu97  1  0.35281900  0.85635300  0.13086400  1
  Cu  Cu98  1  0.14364700  0.64718100  0.36913600  1
  Cu  Cu99  1  0.64718100  0.14364700  0.86913600  1
