# generated using pymatgen
data_Cu4NiC15
_symmetry_space_group_name_H-M   'P 1'
_cell_length_a   14.07799984
_cell_length_b   14.07799984
_cell_length_c   14.07799984
_cell_angle_alpha   109.47122063
_cell_angle_beta   109.47122063
_cell_angle_gamma   109.47122063
_symmetry_Int_Tables_number   1
_chemical_formula_structural   Cu4NiC15
_chemical_formula_sum   'Cu32 Ni8 C120'
_cell_volume   2147.83530832
_cell_formula_units_Z   8
loop_
 _symmetry_equiv_pos_site_id
 _symmetry_equiv_pos_as_xyz
  1  'x, y, z'
loop_
 _atom_site_type_symbol
 _atom_site_label
 _atom_site_symmetry_multiplicity
 _atom_site_fract_x
 _atom_site_fract_y
 _atom_site_fract_z
 _atom_site_occupancy
  Ni  Ni0  1  0.50000000  0.50000000  0.00000000  1
  Ni  Ni1  1  0.00000000  0.00000000  0.00000000  1
  Ni  Ni2  1  0.50000000  0.00000000  0.50000000  1
  Ni  Ni3  1  0.50000000  0.00000000  0.00000000  1
  Ni  Ni4  1  0.00000000  0.50000000  0.00000000  1
  Ni  Ni5  1  0.00000000  0.50000000  0.50000000  1
  Ni  Ni6  1  0.50000000  0.50000000  0.50000000  1
  Ni  Ni7  1  0.00000000  0.00000000  0.50000000  1
  Cu  Cu8  1  0.25189600  0.25189600  0.25189600  1
  Cu  Cu9  1  0.52446200  0.25000000  0.77446200  1
  Cu  Cu10  1  0.00000000  0.75189600  0.50000000  1
  Cu  Cu11  1  0.74810400  0.74810400  0.74810400  1
  Cu  Cu12  1  0.47553800  0.75000000  0.22553800  1
  Cu  Cu13  1  0.25000000  0.50446000  0.25446000  1
  Cu  Cu14  1  0.00000000  0.24810400  0.50000000  1
  Cu  Cu15  1  0.50000000  0.00000000  0.75189600  1
  Cu  Cu16  1  0.25000000  0.00446000  0.75446000  1
  Cu  Cu17  1  0.00446000  0.75446000  0.25000000  1
  Cu  Cu18  1  0.02446200  0.25000000  0.27446200  1
  Cu  Cu19  1  0.75000000  0.99554000  0.24554000  1
  Cu  Cu20  1  0.22553800  0.47553800  0.75000000  1
  Cu  Cu21  1  0.74554000  0.75000000  0.49554000  1
  Cu  Cu22  1  0.72553800  0.97553800  0.75000000  1
  Cu  Cu23  1  0.25000000  0.27446200  0.02446200  1
  Cu  Cu24  1  0.27446200  0.02446200  0.25000000  1
  Cu  Cu25  1  0.50000000  0.00000000  0.24810400  1
  Cu  Cu26  1  0.24554000  0.75000000  0.99554000  1
  Cu  Cu27  1  0.99554000  0.24554000  0.75000000  1
  Cu  Cu28  1  0.50446000  0.25446000  0.25000000  1
  Cu  Cu29  1  0.49554000  0.74554000  0.75000000  1
  Cu  Cu30  1  0.75000000  0.22553800  0.47553800  1
  Cu  Cu31  1  0.24810400  0.50000000  0.00000000  1
  Cu  Cu32  1  0.75189600  0.50000000  0.00000000  1
  Cu  Cu33  1  0.75446000  0.25000000  0.00446000  1
  Cu  Cu34  1  0.77446200  0.52446200  0.25000000  1
  Cu  Cu35  1  0.25000000  0.77446200  0.52446200  1
  Cu  Cu36  1  0.25446000  0.25000000  0.50446000  1
  Cu  Cu37  1  0.75000000  0.72553800  0.97553800  1
  Cu  Cu38  1  0.97553800  0.75000000  0.72553800  1
  Cu  Cu39  1  0.75000000  0.49554000  0.74554000  1
  C  C40  1  0.24991100  0.50114500  0.50141900  1
  C  C41  1  0.24849200  0.74876600  0.74991100  1
  C  C42  1  0.50141900  0.24991100  0.50114500  1
  C  C43  1  0.75150800  0.25123400  0.25008900  1
  C  C44  1  0.00027300  0.99885500  0.24876600  1
  C  C45  1  0.75008900  0.49885500  0.49858100  1
  C  C46  1  0.00114500  0.75123400  0.99972700  1
  C  C47  1  0.99885500  0.24876600  0.00027300  1
  C  C48  1  0.49972700  0.74849200  0.99858100  1
  C  C49  1  0.75123400  0.99972700  0.00114500  1
  C  C50  1  0.74849200  0.99858100  0.49972700  1
  C  C51  1  0.50027300  0.25150800  0.00141900  1
  C  C52  1  0.00141900  0.50027300  0.25150800  1
  C  C53  1  0.24876600  0.00027300  0.99885500  1
  C  C54  1  0.74991100  0.24849200  0.74876600  1
  C  C55  1  0.99858100  0.49972700  0.74849200  1
  C  C56  1  0.50114500  0.50141900  0.24991100  1
  C  C57  1  0.49885500  0.49858100  0.75008900  1
  C  C58  1  0.49858100  0.75008900  0.49885500  1
  C  C59  1  0.99972700  0.00114500  0.75123400  1
  C  C60  1  0.25008900  0.75150800  0.25123400  1
  C  C61  1  0.25150800  0.00141900  0.50027300  1
  C  C62  1  0.74876600  0.74991100  0.24849200  1
  C  C63  1  0.25123400  0.25008900  0.75150800  1
  C  C64  1  0.05183200  0.13876700  0.39212700  1
  C  C65  1  0.36123300  0.41306400  0.25336000  1
  C  C66  1  0.13876700  0.39212700  0.05183200  1
  C  C67  1  0.89565700  0.26225200  0.34775900  1
  C  C68  1  0.54818400  0.65438500  0.41676700  1
  C  C69  1  0.65970500  0.10787300  0.24664000  1
  C  C70  1  0.39565700  0.04789800  0.63340400  1
  C  C71  1  0.65918200  0.91622100  0.55476400  1
  C  C72  1  0.44523600  0.34081800  0.08377900  1
  C  C73  1  0.76238200  0.84561500  0.39379900  1
  C  C74  1  0.75703900  0.36145700  0.41622100  1
  C  C75  1  0.08323300  0.73761800  0.13141700  1
  C  C76  1  0.58377900  0.24296100  0.63854300  1
  C  C77  1  0.55183200  0.15970500  0.91306400  1
  C  C78  1  0.73774800  0.65224100  0.10434300  1
  C  C79  1  0.65224100  0.10434300  0.73774800  1
  C  C80  1  0.55476400  0.65918200  0.91622100  1
  C  C81  1  0.86858300  0.91676700  0.26238200  1
  C  C82  1  0.73761800  0.13141700  0.08323300  1
  C  C83  1  0.39212700  0.05183200  0.13876700  1
  C  C84  1  0.13854300  0.89558200  0.05476400  1
  C  C85  1  0.60787300  0.94816800  0.86123300  1
  C  C86  1  0.34081800  0.08377900  0.44523600  1
  C  C87  1  0.58550600  0.45210200  0.84775900  1
  C  C88  1  0.60434300  0.95210200  0.36659600  1
  C  C89  1  0.54789800  0.15224100  0.41449400  1
  C  C90  1  0.84775900  0.58550600  0.45210200  1
  C  C91  1  0.89212700  0.75336000  0.34029500  1
  C  C92  1  0.86659600  0.91449400  0.76225200  1
  C  C93  1  0.25336000  0.36123300  0.41306400  1
  C  C94  1  0.05476400  0.13854300  0.89558200  1
  C  C95  1  0.10441800  0.94523600  0.86145700  1
  C  C96  1  0.65438500  0.41676700  0.54818400  1
  C  C97  1  0.36145700  0.41622100  0.75703900  1
  C  C98  1  0.15970500  0.91306400  0.55183200  1
  C  C99  1  0.41676700  0.54818400  0.65438500  1
  C  C100  1  0.13141700  0.08323300  0.73761800  1
  C  C101  1  0.15918200  0.60441800  0.74296100  1
  C  C102  1  0.76225200  0.86659600  0.91449400  1
  C  C103  1  0.41306400  0.25336000  0.36123300  1
  C  C104  1  0.86145700  0.10441800  0.94523600  1
  C  C105  1  0.84029500  0.08693600  0.44816800  1
  C  C106  1  0.84081800  0.39558200  0.25703900  1
  C  C107  1  0.60620100  0.23761800  0.15438500  1
  C  C108  1  0.08550600  0.23774800  0.13340400  1
  C  C109  1  0.10620100  0.95181600  0.36858300  1
  C  C110  1  0.10434300  0.73774800  0.65224100  1
  C  C111  1  0.04818400  0.63141700  0.89379900  1
  C  C112  1  0.24296100  0.63854300  0.58377900  1
  C  C113  1  0.45210200  0.84775900  0.58550600  1
  C  C114  1  0.08377900  0.44523600  0.34081800  1
  C  C115  1  0.10787300  0.24664000  0.65970500  1
  C  C116  1  0.04789800  0.63340400  0.39565700  1
  C  C117  1  0.23761800  0.15438500  0.60620100  1
  C  C118  1  0.26225200  0.34775900  0.89565700  1
  C  C119  1  0.91306400  0.55183200  0.15970500  1
  C  C120  1  0.25703900  0.84081800  0.39558200  1
  C  C121  1  0.63876700  0.58693600  0.74664000  1
  C  C122  1  0.15438500  0.60620100  0.23761800  1
  C  C123  1  0.94816800  0.86123300  0.60787300  1
  C  C124  1  0.75336000  0.34029500  0.89212700  1
  C  C125  1  0.58323300  0.45181600  0.34561500  1
  C  C126  1  0.63854300  0.58377900  0.24296100  1
  C  C127  1  0.08693600  0.44816800  0.84029500  1
  C  C128  1  0.34561500  0.58323300  0.45181600  1
  C  C129  1  0.39558200  0.25703900  0.84081800  1
  C  C130  1  0.91449400  0.76225200  0.86659600  1
  C  C131  1  0.36858300  0.10620100  0.95181600  1
  C  C132  1  0.94523600  0.86145700  0.10441800  1
  C  C133  1  0.95210200  0.36659600  0.60434300  1
  C  C134  1  0.89558200  0.05476400  0.13854300  1
  C  C135  1  0.58693600  0.74664000  0.63876700  1
  C  C136  1  0.34775900  0.89565700  0.26225200  1
  C  C137  1  0.24664000  0.65970500  0.10787300  1
  C  C138  1  0.45181600  0.34561500  0.58323300  1
  C  C139  1  0.91676700  0.26238200  0.86858300  1
  C  C140  1  0.34029500  0.89212700  0.75336000  1
  C  C141  1  0.84561500  0.39379900  0.76238200  1
  C  C142  1  0.13340400  0.08550600  0.23774800  1
  C  C143  1  0.89379900  0.04818400  0.63141700  1
  C  C144  1  0.15224100  0.41449400  0.54789800  1
  C  C145  1  0.36659600  0.60434300  0.95210200  1
  C  C146  1  0.74296100  0.15918200  0.60441800  1
  C  C147  1  0.95181600  0.36858300  0.10620100  1
  C  C148  1  0.74664000  0.63876700  0.58693600  1
  C  C149  1  0.41449400  0.54789800  0.15224100  1
  C  C150  1  0.63141700  0.89379900  0.04818400  1
  C  C151  1  0.60441800  0.74296100  0.15918200  1
  C  C152  1  0.86123300  0.60787300  0.94816800  1
  C  C153  1  0.39379900  0.76238200  0.84561500  1
  C  C154  1  0.63340400  0.39565700  0.04789800  1
  C  C155  1  0.26238200  0.86858300  0.91676700  1
  C  C156  1  0.91622100  0.55476400  0.65918200  1
  C  C157  1  0.41622100  0.75703900  0.36145700  1
  C  C158  1  0.44816800  0.84029500  0.08693600  1
  C  C159  1  0.23774800  0.13340400  0.08550600  1
