# generated using pymatgen
data_Cu7(Ni2C5)2
_symmetry_space_group_name_H-M   'P 1'
_cell_length_a   18.41375500
_cell_length_b   8.26254200
_cell_length_c   15.12845326
_cell_angle_alpha   57.11030764
_cell_angle_beta   90.00000000
_cell_angle_gamma   90.00000000
_symmetry_Int_Tables_number   1
_chemical_formula_structural   Cu7(Ni2C5)2
_chemical_formula_sum   'Cu28 Ni16 C40'
_cell_volume   1932.78616560
_cell_formula_units_Z   4
loop_
 _symmetry_equiv_pos_site_id
 _symmetry_equiv_pos_as_xyz
  1  'x, y, z'
loop_
 _atom_site_type_symbol
 _atom_site_label
 _atom_site_symmetry_multiplicity
 _atom_site_fract_x
 _atom_site_fract_y
 _atom_site_fract_z
 _atom_site_occupancy
  C  C0  1  0.54869500  0.98117800  0.89921100  1
  C  C1  1  0.96713300  0.48317700  0.38684700  1
  C  C2  1  0.03286700  0.51682300  0.61315300  1
  C  C3  1  0.95130500  0.98117800  0.39921100  1
  C  C4  1  0.04869500  0.01882200  0.60078900  1
  C  C5  1  0.53286700  0.48317700  0.88684700  1
  C  C6  1  0.46713300  0.51682300  0.11315300  1
  C  C7  1  0.45130500  0.01882200  0.10078900  1
  C  C8  1  0.08565400  0.88080800  0.99042000  1
  C  C9  1  0.39340900  0.36471200  0.76128700  1
  C  C10  1  0.58965000  0.66073800  0.46347200  1
  C  C11  1  0.20459400  0.59749600  0.77398600  1
  C  C12  1  0.10659100  0.36471200  0.26128700  1
  C  C13  1  0.75533300  0.37367000  0.49844900  1
  C  C14  1  0.70459400  0.40250400  0.72601400  1
  C  C15  1  0.24466700  0.62633000  0.50155100  1
  C  C16  1  0.77108500  0.88374200  0.24555000  1
  C  C17  1  0.22891500  0.11625800  0.75445000  1
  C  C18  1  0.29540600  0.59749600  0.27398600  1
  C  C19  1  0.25336200  0.11405800  0.00168200  1
  C  C20  1  0.41434600  0.88080800  0.49042000  1
  C  C21  1  0.10591500  0.85998100  0.25891300  1
  C  C22  1  0.91035000  0.66073800  0.96347200  1
  C  C23  1  0.72891500  0.88374200  0.74555000  1
  C  C24  1  0.60591500  0.14001900  0.24108700  1
  C  C25  1  0.74466700  0.37367000  0.99844900  1
  C  C26  1  0.08965000  0.33926200  0.03652800  1
  C  C27  1  0.75336200  0.88594200  0.49831800  1
  C  C28  1  0.58565400  0.11919200  0.50958000  1
  C  C29  1  0.74663800  0.88594200  0.99831800  1
  C  C30  1  0.27108500  0.11625800  0.25445000  1
  C  C31  1  0.25533300  0.62633000  0.00155100  1
  C  C32  1  0.41035000  0.33926200  0.53652800  1
  C  C33  1  0.89340900  0.63528800  0.73871300  1
  C  C34  1  0.60659100  0.63528800  0.23871300  1
  C  C35  1  0.91434600  0.11919200  0.00958000  1
  C  C36  1  0.24663800  0.11405800  0.50168200  1
  C  C37  1  0.89408500  0.14001900  0.74108700  1
  C  C38  1  0.39408500  0.85998100  0.75891300  1
  C  C39  1  0.79540600  0.40250400  0.22601400  1
  Ni  Ni40  1  0.08945400  0.37937900  0.50106000  1
  Ni  Ni41  1  0.06941700  0.33357900  0.80241000  1
  Ni  Ni42  1  0.41245300  0.87911900  0.98757300  1
  Ni  Ni43  1  0.43175100  0.81368800  0.29500100  1
  Ni  Ni44  1  0.56824900  0.18631200  0.70499900  1
  Ni  Ni45  1  0.56941700  0.66642100  0.69759000  1
  Ni  Ni46  1  0.43058300  0.33357900  0.30241000  1
  Ni  Ni47  1  0.93175100  0.18631200  0.20499900  1
  Ni  Ni48  1  0.08754700  0.87911900  0.48757300  1
  Ni  Ni49  1  0.91054600  0.62062100  0.49894000  1
  Ni  Ni50  1  0.06824900  0.81368800  0.79500100  1
  Ni  Ni51  1  0.58945400  0.62062100  0.99894000  1
  Ni  Ni52  1  0.58754700  0.12088100  0.01242700  1
  Ni  Ni53  1  0.91245300  0.12088100  0.51242700  1
  Ni  Ni54  1  0.41054600  0.37937900  0.00106000  1
  Ni  Ni55  1  0.93058300  0.66642100  0.19759000  1
  Cu  Cu56  1  0.86821700  0.99098500  0.91849900  1
  Cu  Cu57  1  0.70458600  0.06099000  0.56915900  1
  Cu  Cu58  1  0.22565300  0.32063200  0.31542400  1
  Cu  Cu59  1  0.30122100  0.42075400  0.45310800  1
  Cu  Cu60  1  0.77617600  0.20884300  0.68536700  1
  Cu  Cu61  1  0.29541400  0.93901000  0.43084100  1
  Cu  Cu62  1  0.22382400  0.79115700  0.31463300  1
  Cu  Cu63  1  0.86189600  0.84011500  0.78781000  1
  Cu  Cu64  1  0.69877900  0.57924600  0.54689200  1
  Cu  Cu65  1  0.79541400  0.06099000  0.06915900  1
  Cu  Cu66  1  0.77434700  0.67936800  0.68457600  1
  Cu  Cu67  1  0.20458600  0.93901000  0.93084100  1
  Cu  Cu68  1  0.72565300  0.67936800  0.18457600  1
  Cu  Cu69  1  0.36189600  0.15988500  0.71219000  1
  Cu  Cu70  1  0.80122100  0.57924600  0.04689200  1
  Cu  Cu71  1  0.13810400  0.15988500  0.21219000  1
  Cu  Cu72  1  0.72382400  0.20884300  0.18536700  1
  Cu  Cu73  1  0.27434700  0.32063200  0.81542400  1
  Cu  Cu74  1  0.63178300  0.99098500  0.41849900  1
  Cu  Cu75  1  0.36772800  0.57118400  0.58493900  1
  Cu  Cu76  1  0.63227200  0.42881600  0.41506100  1
  Cu  Cu77  1  0.13178300  0.00901500  0.08150100  1
  Cu  Cu78  1  0.63810400  0.84011500  0.28781000  1
  Cu  Cu79  1  0.36821700  0.00901500  0.58150100  1
  Cu  Cu80  1  0.86772800  0.42881600  0.91506100  1
  Cu  Cu81  1  0.27617600  0.79115700  0.81463300  1
  Cu  Cu82  1  0.13227200  0.57118400  0.08493900  1
  Cu  Cu83  1  0.19877900  0.42075400  0.95310800  1
