# generated using pymatgen
data_Cu7(Ni3C2)3
_symmetry_space_group_name_H-M   'P 1'
_cell_length_a   9.00926700
_cell_length_b   11.20359600
_cell_length_c   12.43384400
_cell_angle_alpha   90.00000000
_cell_angle_beta   90.00000000
_cell_angle_gamma   90.00000000
_symmetry_Int_Tables_number   1
_chemical_formula_structural   Cu7(Ni3C2)3
_chemical_formula_sum   'Cu28 Ni36 C24'
_cell_volume   1255.02481212
_cell_formula_units_Z   4
loop_
 _symmetry_equiv_pos_site_id
 _symmetry_equiv_pos_as_xyz
  1  'x, y, z'
loop_
 _atom_site_type_symbol
 _atom_site_label
 _atom_site_symmetry_multiplicity
 _atom_site_fract_x
 _atom_site_fract_y
 _atom_site_fract_z
 _atom_site_occupancy
  C  C0  1  0.82912500  0.25000000  0.08261000  1
  C  C1  1  0.67087500  0.75000000  0.58261000  1
  C  C2  1  0.17087500  0.75000000  0.91739000  1
  C  C3  1  0.35088400  0.75000000  0.07058800  1
  C  C4  1  0.85088400  0.75000000  0.42941200  1
  C  C5  1  0.64911600  0.25000000  0.92941200  1
  C  C6  1  0.14911600  0.25000000  0.57058800  1
  C  C7  1  0.32912500  0.25000000  0.41739000  1
  Ni  Ni8  1  0.72200600  0.75000000  0.72236300  1
  Ni  Ni9  1  0.37430400  0.25000000  0.57221000  1
  Ni  Ni10  1  0.94926700  0.25000000  0.56397200  1
  Ni  Ni11  1  0.03945000  0.87194700  0.90231400  1
  Ni  Ni12  1  0.55073300  0.75000000  0.06397200  1
  Ni  Ni13  1  0.83813000  0.86657600  0.55139300  1
  Ni  Ni14  1  0.66300900  0.12958400  0.83156600  1
  Ni  Ni15  1  0.33813000  0.86657600  0.94860700  1
  Ni  Ni16  1  0.46055000  0.12805300  0.40231400  1
  Ni  Ni17  1  0.66300900  0.37041600  0.83156600  1
  Ni  Ni18  1  0.87430400  0.25000000  0.92779000  1
  Ni  Ni19  1  0.83699100  0.87041600  0.33156600  1
  Ni  Ni20  1  0.66187000  0.36657600  0.05139300  1
  Ni  Ni21  1  0.27799400  0.25000000  0.27763700  1
  Ni  Ni22  1  0.83699100  0.62958400  0.33156600  1
  Ni  Ni23  1  0.66187000  0.13342400  0.05139300  1
  Ni  Ni24  1  0.46055000  0.37194700  0.40231400  1
  Ni  Ni25  1  0.16187000  0.36657600  0.44860700  1
  Ni  Ni26  1  0.16187000  0.13342400  0.44860700  1
  Ni  Ni27  1  0.05073300  0.75000000  0.43602800  1
  Ni  Ni28  1  0.77799400  0.25000000  0.22236300  1
  Ni  Ni29  1  0.12569600  0.75000000  0.07221000  1
  Ni  Ni30  1  0.03945000  0.62805300  0.90231400  1
  Ni  Ni31  1  0.96055000  0.37194700  0.09768600  1
  Ni  Ni32  1  0.16300900  0.12958400  0.66843400  1
  Ni  Ni33  1  0.53945000  0.87194700  0.59768600  1
  Ni  Ni34  1  0.16300900  0.37041600  0.66843400  1
  Ni  Ni35  1  0.22200600  0.75000000  0.77763700  1
  Ni  Ni36  1  0.83813000  0.63342400  0.55139300  1
  Ni  Ni37  1  0.33699100  0.62958400  0.16843400  1
  Ni  Ni38  1  0.33699100  0.87041600  0.16843400  1
  Ni  Ni39  1  0.33813000  0.63342400  0.94860700  1
  Ni  Ni40  1  0.96055000  0.12805300  0.09768600  1
  Ni  Ni41  1  0.44926700  0.25000000  0.93602800  1
  Ni  Ni42  1  0.62569600  0.75000000  0.42779000  1
  Ni  Ni43  1  0.53945000  0.62805300  0.59768600  1
  Cu  Cu44  1  0.45743500  0.94991200  0.60997100  1
  Cu  Cu45  1  0.52850200  0.75000000  0.36459800  1
  Cu  Cu46  1  0.54256500  0.44991200  0.39002900  1
  Cu  Cu47  1  0.25255900  0.75000000  0.68746200  1
  Cu  Cu48  1  0.82615100  0.55367300  0.26930800  1
  Cu  Cu49  1  0.04256500  0.44991200  0.10997100  1
  Cu  Cu50  1  0.95743500  0.94991200  0.89002900  1
  Cu  Cu51  1  0.54256500  0.05008800  0.39002900  1
  Cu  Cu52  1  0.95743500  0.55008800  0.89002900  1
  Cu  Cu53  1  0.67886200  0.75000000  0.06186900  1
  Cu  Cu54  1  0.74744100  0.25000000  0.31253800  1
  Cu  Cu55  1  0.82113800  0.25000000  0.56186900  1
  Cu  Cu56  1  0.47149800  0.25000000  0.63540200  1
  Cu  Cu57  1  0.75255900  0.75000000  0.81253800  1
  Cu  Cu58  1  0.04256500  0.05008800  0.10997100  1
  Cu  Cu59  1  0.17886200  0.75000000  0.43813100  1
  Cu  Cu60  1  0.32615100  0.55367300  0.23069200  1
  Cu  Cu61  1  0.32113800  0.25000000  0.93813100  1
  Cu  Cu62  1  0.97149800  0.25000000  0.86459800  1
  Cu  Cu63  1  0.24744100  0.25000000  0.18746200  1
  Cu  Cu64  1  0.32615100  0.94632700  0.23069200  1
  Cu  Cu65  1  0.82615100  0.94632700  0.26930800  1
  Cu  Cu66  1  0.67384900  0.44632700  0.76930800  1
  Cu  Cu67  1  0.02850200  0.75000000  0.13540200  1
  Cu  Cu68  1  0.45743500  0.55008800  0.60997100  1
  Cu  Cu69  1  0.17384900  0.44632700  0.73069200  1
  Cu  Cu70  1  0.17384900  0.05367300  0.73069200  1
  Cu  Cu71  1  0.67384900  0.05367300  0.76930800  1
  C  C72  1  0.45245000  0.62511000  0.87609500  1
  C  C73  1  0.80249300  0.98299600  0.52934300  1
  C  C74  1  0.04755000  0.12511000  0.37609500  1
  C  C75  1  0.95245000  0.62511000  0.62390500  1
  C  C76  1  0.30249300  0.98299600  0.97065700  1
  C  C77  1  0.19750700  0.48299600  0.47065700  1
  C  C78  1  0.45245000  0.87489000  0.87609500  1
  C  C79  1  0.69750700  0.01700400  0.02934300  1
  C  C80  1  0.19750700  0.01700400  0.47065700  1
  C  C81  1  0.54755000  0.37489000  0.12390500  1
  C  C82  1  0.95245000  0.87489000  0.62390500  1
  C  C83  1  0.80249300  0.51700400  0.52934300  1
  C  C84  1  0.69750700  0.48299600  0.02934300  1
  C  C85  1  0.30249300  0.51700400  0.97065700  1
  C  C86  1  0.54755000  0.12511000  0.12390500  1
  C  C87  1  0.04755000  0.37489000  0.37609500  1
