# generated using pymatgen
data_Cu6NiC29
_symmetry_space_group_name_H-M   'P 1'
_cell_length_a   8.91176228
_cell_length_b   8.91176228
_cell_length_c   8.91176215
_cell_angle_alpha   58.22929467
_cell_angle_beta   58.22929467
_cell_angle_gamma   58.22929728
_symmetry_Int_Tables_number   1
_chemical_formula_structural   Cu6NiC29
_chemical_formula_sum   'Cu6 Ni1 C29'
_cell_volume   480.16476758
_cell_formula_units_Z   1
loop_
 _symmetry_equiv_pos_site_id
 _symmetry_equiv_pos_as_xyz
  1  'x, y, z'
loop_
 _atom_site_type_symbol
 _atom_site_label
 _atom_site_symmetry_multiplicity
 _atom_site_fract_x
 _atom_site_fract_y
 _atom_site_fract_z
 _atom_site_occupancy
  C  C0  1  0.00566800  0.00566800  0.00566800  1
  C  C1  1  0.49988500  0.49988500  0.49988500  1
  C  C2  1  0.64725000  0.64725000  0.64725000  1
  C  C3  1  0.35190500  0.35190500  0.35190500  1
  C  C4  1  0.14852700  0.14852700  0.14852700  1
  Ni  Ni5  1  0.85319800  0.85319800  0.85319800  1
  Cu  Cu6  1  0.53763800  0.95798200  0.25224500  1
  Cu  Cu7  1  0.25224500  0.53763800  0.95798200  1
  Cu  Cu8  1  0.95798200  0.25224500  0.53763800  1
  Cu  Cu9  1  0.04210100  0.74775200  0.45569400  1
  Cu  Cu10  1  0.74775200  0.45569400  0.04210100  1
  Cu  Cu11  1  0.45569400  0.04210100  0.74775200  1
  C  C12  1  0.49343800  0.87608500  0.70890600  1
  C  C13  1  0.87608500  0.70890600  0.49343800  1
  C  C14  1  0.73106300  0.93791800  0.07526100  1
  C  C15  1  0.70890600  0.49343800  0.87608500  1
  C  C16  1  0.37951200  0.98997400  0.20502000  1
  C  C17  1  0.56569000  0.77013800  0.41550200  1
  C  C18  1  0.07526100  0.73106300  0.93791800  1
  C  C19  1  0.41550200  0.56569000  0.77013800  1
  C  C20  1  0.77013800  0.41550200  0.56569000  1
  C  C21  1  0.01544500  0.78777800  0.62372400  1
  C  C22  1  0.06075300  0.91977800  0.27395700  1
  C  C23  1  0.78777800  0.62372400  0.01544500  1
  C  C24  1  0.20502000  0.37951200  0.98997400  1
  C  C25  1  0.93791800  0.07526100  0.73106300  1
  C  C26  1  0.98997400  0.20502000  0.37951200  1
  C  C27  1  0.22808300  0.57986400  0.44044300  1
  C  C28  1  0.57986400  0.44044300  0.22808300  1
  C  C29  1  0.91977800  0.27395700  0.06075300  1
  C  C30  1  0.44044300  0.22808300  0.57986400  1
  C  C31  1  0.62372400  0.01544500  0.78777800  1
  C  C32  1  0.28439400  0.51483500  0.12259400  1
  C  C33  1  0.27395700  0.06075300  0.91977800  1
  C  C34  1  0.12259400  0.28439400  0.51483500  1
  C  C35  1  0.51483500  0.12259400  0.28439400  1
