# generated using pymatgen
data_Cu2NiC8
_symmetry_space_group_name_H-M   'P 1'
_cell_length_a   7.37117260
_cell_length_b   7.37117260
_cell_length_c   12.49447374
_cell_angle_alpha   89.78626985
_cell_angle_beta   89.78626985
_cell_angle_gamma   122.24559332
_symmetry_Int_Tables_number   1
_chemical_formula_structural   Cu2NiC8
_chemical_formula_sum   'Cu8 Ni4 C32'
_cell_volume   574.15594266
_cell_formula_units_Z   4
loop_
 _symmetry_equiv_pos_site_id
 _symmetry_equiv_pos_as_xyz
  1  'x, y, z'
loop_
 _atom_site_type_symbol
 _atom_site_label
 _atom_site_symmetry_multiplicity
 _atom_site_fract_x
 _atom_site_fract_y
 _atom_site_fract_z
 _atom_site_occupancy
  C  C0  1  0.25832000  0.71721100  0.01052800  1
  C  C1  1  0.29201300  0.72005900  0.74629000  1
  C  C2  1  0.72005900  0.29201300  0.24629000  1
  C  C3  1  0.71721100  0.25832000  0.51052800  1
  Ni  Ni4  1  0.34349200  0.34213400  0.62168500  1
  Ni  Ni5  1  0.34213400  0.34349200  0.12168500  1
  Ni  Ni6  1  0.64548800  0.62605000  0.87680300  1
  Ni  Ni7  1  0.62605000  0.64548800  0.37680300  1
  Cu  Cu8  1  0.10048900  0.34208400  0.35372200  1
  Cu  Cu9  1  0.92195000  0.73267900  0.11233300  1
  Cu  Cu10  1  0.90329500  0.65988200  0.64702500  1
  Cu  Cu11  1  0.65988200  0.90329500  0.14702500  1
  Cu  Cu12  1  0.26825000  0.07071700  0.38791800  1
  Cu  Cu13  1  0.07071700  0.26825000  0.88791800  1
  Cu  Cu14  1  0.73267900  0.92195000  0.61233300  1
  Cu  Cu15  1  0.34208400  0.10048900  0.85372200  1
  C  C16  1  0.24620200  0.44371600  0.80882900  1
  C  C17  1  0.10731800  0.67122800  0.62446600  1
  C  C18  1  0.50693100  0.70736900  0.07393700  1
  C  C19  1  0.84048800  0.60509100  0.76721900  1
  C  C20  1  0.11016100  0.06820300  0.87990500  1
  C  C21  1  0.56333900  0.75625700  0.69318900  1
  C  C22  1  0.36848000  0.14157300  0.50118600  1
  C  C23  1  0.15445300  0.81253800  0.12566000  1
  C  C24  1  0.75625700  0.56333900  0.19318900  1
  C  C25  1  0.06820300  0.11016100  0.37990500  1
  C  C26  1  0.39182600  0.15470100  0.73376200  1
  C  C27  1  0.67122800  0.10731800  0.12446600  1
  C  C28  1  0.70736900  0.50693100  0.57393700  1
  C  C29  1  0.60509100  0.84048800  0.26721900  1
  C  C30  1  0.85645800  0.65383900  0.99529200  1
  C  C31  1  0.14157300  0.36848000  0.00118600  1
  C  C32  1  0.83995700  0.17136200  0.86360000  1
  C  C33  1  0.15470100  0.39182600  0.23376200  1
  C  C34  1  0.81253800  0.15445300  0.62566000  1
  C  C35  1  0.49771300  0.29896400  0.92411600  1
  C  C36  1  0.32526400  0.89325300  0.88132300  1
  C  C37  1  0.65383900  0.85645800  0.49529200  1
  C  C38  1  0.29896400  0.49771300  0.42411600  1
  C  C39  1  0.93864600  0.89616500  0.62644100  1
  C  C40  1  0.89616500  0.93864600  0.12644100  1
  C  C41  1  0.89325300  0.32526400  0.38132300  1
  C  C42  1  0.17136200  0.83995700  0.36360000  1
  C  C43  1  0.44371600  0.24620200  0.30882900  1
