# generated using pymatgen
data_Cu2Ni2C7
_symmetry_space_group_name_H-M   'P 1'
_cell_length_a   3.67429700
_cell_length_b   7.67588500
_cell_length_c   10.99859600
_cell_angle_alpha   90.00000000
_cell_angle_beta   90.00000000
_cell_angle_gamma   90.00000000
_symmetry_Int_Tables_number   1
_chemical_formula_structural   Cu2Ni2C7
_chemical_formula_sum   'Cu4 Ni4 C14'
_cell_volume   310.19869582
_cell_formula_units_Z   2
loop_
 _symmetry_equiv_pos_site_id
 _symmetry_equiv_pos_as_xyz
  1  'x, y, z'
loop_
 _atom_site_type_symbol
 _atom_site_label
 _atom_site_symmetry_multiplicity
 _atom_site_fract_x
 _atom_site_fract_y
 _atom_site_fract_z
 _atom_site_occupancy
  Ni  Ni0  1  0.50000000  0.50000000  0.50000000  1
  Ni  Ni1  1  0.00000000  0.75000000  0.22231000  1
  Ni  Ni2  1  0.50000000  0.00000000  0.50000000  1
  Ni  Ni3  1  0.00000000  0.25000000  0.77769000  1
  Cu  Cu4  1  0.00000000  0.25000000  0.23880500  1
  Cu  Cu5  1  0.00000000  0.75000000  0.76119500  1
  Cu  Cu6  1  0.50000000  0.00000000  0.00000000  1
  Cu  Cu7  1  0.50000000  0.50000000  0.00000000  1
  C  C8  1  0.00000000  0.46145300  0.63341100  1
  C  C9  1  0.50000000  0.75000000  0.86688600  1
  C  C10  1  0.00000000  0.52504300  0.88566600  1
  C  C11  1  0.00000000  0.47495700  0.11433400  1
  C  C12  1  0.00000000  0.02504300  0.11433400  1
  C  C13  1  0.50000000  0.75000000  0.10071700  1
  C  C14  1  0.50000000  0.25000000  0.36987600  1
  C  C15  1  0.00000000  0.53854700  0.36658900  1
  C  C16  1  0.00000000  0.96145300  0.36658900  1
  C  C17  1  0.00000000  0.03854700  0.63341100  1
  C  C18  1  0.50000000  0.75000000  0.63012400  1
  C  C19  1  0.50000000  0.25000000  0.89928300  1
  C  C20  1  0.00000000  0.97495700  0.88566600  1
  C  C21  1  0.50000000  0.25000000  0.13311400  1
