# generated using pymatgen
data_Cu3Ni3C2
_symmetry_space_group_name_H-M   'P 1'
_cell_length_a   10.48832300
_cell_length_b   7.14759400
_cell_length_c   8.43398516
_cell_angle_alpha   72.60520836
_cell_angle_beta   90.00000000
_cell_angle_gamma   90.00000000
_symmetry_Int_Tables_number   1
_chemical_formula_structural   Cu3Ni3C2
_chemical_formula_sum   'Cu12 Ni12 C8'
_cell_volume   603.34941816
_cell_formula_units_Z   4
loop_
 _symmetry_equiv_pos_site_id
 _symmetry_equiv_pos_as_xyz
  1  'x, y, z'
loop_
 _atom_site_type_symbol
 _atom_site_label
 _atom_site_symmetry_multiplicity
 _atom_site_fract_x
 _atom_site_fract_y
 _atom_site_fract_z
 _atom_site_occupancy
  C  C0  1  0.22020700  0.50179400  0.87545800  1
  C  C1  1  0.72020700  0.49820600  0.62454200  1
  C  C2  1  0.50000000  0.00000000  0.50000000  1
  C  C3  1  0.00000000  0.00000000  0.00000000  1
  C  C4  1  0.27979300  0.50179400  0.37545800  1
  C  C5  1  0.77979300  0.49820600  0.12454200  1
  C  C6  1  0.50000000  0.00000000  0.00000000  1
  C  C7  1  0.00000000  0.00000000  0.50000000  1
  Ni  Ni8  1  0.66091600  0.11927900  0.97410600  1
  Ni  Ni9  1  0.83908400  0.11927900  0.47410600  1
  Ni  Ni10  1  0.33908400  0.88072100  0.02589400  1
  Ni  Ni11  1  0.16091600  0.88072100  0.52589400  1
  Ni  Ni12  1  0.94353000  0.82379800  0.38799000  1
  Ni  Ni13  1  0.44353000  0.17620200  0.11201000  1
  Ni  Ni14  1  0.05647000  0.17620200  0.61201000  1
  Ni  Ni15  1  0.55647000  0.82379800  0.88799000  1
  Ni  Ni16  1  0.45038200  0.17938000  0.79716300  1
  Ni  Ni17  1  0.95038200  0.82062000  0.70283700  1
  Ni  Ni18  1  0.54961800  0.82062000  0.20283700  1
  Ni  Ni19  1  0.04961800  0.17938000  0.29716300  1
  Cu  Cu20  1  0.59155300  0.71577100  0.81582400  1
  Cu  Cu21  1  0.09155300  0.28422900  0.68417600  1
  Cu  Cu22  1  0.40844700  0.28422900  0.18417600  1
  Cu  Cu23  1  0.90844700  0.71577100  0.31582400  1
  Cu  Cu24  1  0.73964800  0.19911100  0.45478200  1
  Cu  Cu25  1  0.76035200  0.19911100  0.95478200  1
  Cu  Cu26  1  0.26035200  0.80088900  0.54521800  1
  Cu  Cu27  1  0.23964800  0.80088900  0.04521800  1
  Cu  Cu28  1  0.42150300  0.29052500  0.66857100  1
  Cu  Cu29  1  0.92150300  0.70947500  0.83142900  1
  Cu  Cu30  1  0.57849700  0.70947500  0.33142900  1
  Cu  Cu31  1  0.07849700  0.29052500  0.16857100  1
