# generated using pymatgen
data_Cu(NiC5)2
_symmetry_space_group_name_H-M   'P 1'
_cell_length_a   3.83476200
_cell_length_b   3.93312500
_cell_length_c   11.78876900
_cell_angle_alpha   90.00000000
_cell_angle_beta   90.00000000
_cell_angle_gamma   90.00000000
_symmetry_Int_Tables_number   1
_chemical_formula_structural   Cu(NiC5)2
_chemical_formula_sum   'Cu1 Ni2 C10'
_cell_volume   177.80526718
_cell_formula_units_Z   1
loop_
 _symmetry_equiv_pos_site_id
 _symmetry_equiv_pos_as_xyz
  1  'x, y, z'
loop_
 _atom_site_type_symbol
 _atom_site_label
 _atom_site_symmetry_multiplicity
 _atom_site_fract_x
 _atom_site_fract_y
 _atom_site_fract_z
 _atom_site_occupancy
  Ni  Ni0  1  0.00000000  0.50000000  0.31823300  1
  Ni  Ni1  1  0.00000000  0.50000000  0.68176700  1
  Cu  Cu2  1  0.00000000  0.50000000  0.00000000  1
  C  C3  1  0.50000000  0.00000000  0.14435600  1
  C  C4  1  0.50000000  0.00000000  0.85564400  1
  C  C5  1  0.50000000  0.00000000  0.50000000  1
  C  C6  1  0.50000000  0.50000000  0.12012100  1
  C  C7  1  0.50000000  0.50000000  0.87987900  1
  C  C8  1  0.50000000  0.00000000  0.66031600  1
  C  C9  1  0.00000000  0.00000000  0.11797400  1
  C  C10  1  0.50000000  0.50000000  0.50000000  1
  C  C11  1  0.00000000  0.00000000  0.88202600  1
  C  C12  1  0.50000000  0.00000000  0.33968400  1
