# generated using pymatgen
data_CuNiC7
_symmetry_space_group_name_H-M   'P 1'
_cell_length_a   7.26461700
_cell_length_b   7.88550300
_cell_length_c   10.54797000
_cell_angle_alpha   90.00000000
_cell_angle_beta   90.00000000
_cell_angle_gamma   90.00000000
_symmetry_Int_Tables_number   1
_chemical_formula_structural   CuNiC7
_chemical_formula_sum   'Cu4 Ni4 C28'
_cell_volume   604.24214013
_cell_formula_units_Z   4
loop_
 _symmetry_equiv_pos_site_id
 _symmetry_equiv_pos_as_xyz
  1  'x, y, z'
loop_
 _atom_site_type_symbol
 _atom_site_label
 _atom_site_symmetry_multiplicity
 _atom_site_fract_x
 _atom_site_fract_y
 _atom_site_fract_z
 _atom_site_occupancy
  Ni  Ni0  1  0.25000000  0.13634600  0.24363100  1
  Ni  Ni1  1  0.75000000  0.86365400  0.75636900  1
  Ni  Ni2  1  0.75000000  0.36365400  0.74363100  1
  Ni  Ni3  1  0.25000000  0.63634600  0.25636900  1
  Cu  Cu4  1  0.25000000  0.29871600  0.55848300  1
  Cu  Cu5  1  0.75000000  0.70128400  0.44151700  1
  Cu  Cu6  1  0.25000000  0.79871600  0.94151700  1
  Cu  Cu7  1  0.75000000  0.20128400  0.05848300  1
  C  C8  1  0.75000000  0.41737700  0.13211400  1
  C  C9  1  0.56831500  0.27305900  0.93756100  1
  C  C10  1  0.93112500  0.12279400  0.17728300  1
  C  C11  1  0.75000000  0.98034800  0.98402200  1
  C  C12  1  0.06831500  0.72694100  0.06243900  1
  C  C13  1  0.06887500  0.87720600  0.82271700  1
  C  C14  1  0.43112500  0.87720600  0.82271700  1
  C  C15  1  0.25000000  0.51965200  0.48402200  1
  C  C16  1  0.93168500  0.77305900  0.56243900  1
  C  C17  1  0.43168500  0.22694100  0.43756100  1
  C  C18  1  0.25000000  0.88895500  0.30969200  1
  C  C19  1  0.75000000  0.91737700  0.36788600  1
  C  C20  1  0.75000000  0.48034800  0.51597800  1
  C  C21  1  0.56831500  0.77305900  0.56243900  1
  C  C22  1  0.25000000  0.58262300  0.86788600  1
  C  C23  1  0.56887500  0.62279400  0.32271700  1
  C  C24  1  0.75000000  0.61104500  0.80969200  1
  C  C25  1  0.25000000  0.01965200  0.01597800  1
  C  C26  1  0.06887500  0.37720600  0.67728300  1
  C  C27  1  0.25000000  0.38895500  0.19030800  1
  C  C28  1  0.93112500  0.62279400  0.32271700  1
  C  C29  1  0.43112500  0.37720600  0.67728300  1
  C  C30  1  0.93168500  0.27305900  0.93756100  1
  C  C31  1  0.06831500  0.22694100  0.43756100  1
  C  C32  1  0.56887500  0.12279400  0.17728300  1
  C  C33  1  0.43168500  0.72694100  0.06243900  1
  C  C34  1  0.75000000  0.11104500  0.69030800  1
  C  C35  1  0.25000000  0.08262300  0.63211400  1
