# generated using pymatgen
data_Cu2Ni2C9
_symmetry_space_group_name_H-M   'P 1'
_cell_length_a   17.66883400
_cell_length_b   6.89560700
_cell_length_c   9.34575355
_cell_angle_alpha   72.53956310
_cell_angle_beta   90.00000000
_cell_angle_gamma   90.00000000
_symmetry_Int_Tables_number   1
_chemical_formula_structural   Cu2Ni2C9
_chemical_formula_sum   'Cu12 Ni12 C54'
_cell_volume   1086.19714610
_cell_formula_units_Z   6
loop_
 _symmetry_equiv_pos_site_id
 _symmetry_equiv_pos_as_xyz
  1  'x, y, z'
loop_
 _atom_site_type_symbol
 _atom_site_label
 _atom_site_symmetry_multiplicity
 _atom_site_fract_x
 _atom_site_fract_y
 _atom_site_fract_z
 _atom_site_occupancy
  C  C0  1  0.95204800  0.77093100  0.40245500  1
  C  C1  1  0.45204800  0.22906900  0.59754500  1
  C  C2  1  0.04795200  0.22906900  0.59754500  1
  C  C3  1  0.54795200  0.77093100  0.40245500  1
  C  C4  1  0.08418200  0.63186400  0.84015400  1
  C  C5  1  0.58418200  0.36813600  0.15984600  1
  C  C6  1  0.91581800  0.36813600  0.15984600  1
  C  C7  1  0.41581800  0.63186400  0.84015400  1
  C  C8  1  0.75000000  0.73541600  0.43886600  1
  C  C9  1  0.25000000  0.26458400  0.56113400  1
  C  C10  1  0.25000000  0.62808400  0.15973600  1
  C  C11  1  0.75000000  0.37191600  0.84026400  1
  Ni  Ni12  1  0.33710800  0.11036700  0.96017200  1
  Ni  Ni13  1  0.83710800  0.88963300  0.03982800  1
  Ni  Ni14  1  0.66289200  0.88963300  0.03982800  1
  Ni  Ni15  1  0.16289200  0.11036700  0.96017200  1
  Ni  Ni16  1  0.38387900  0.16203400  0.25779700  1
  Ni  Ni17  1  0.88387900  0.83796600  0.74220300  1
  Ni  Ni18  1  0.61612100  0.83796600  0.74220300  1
  Ni  Ni19  1  0.11612100  0.16203400  0.25779700  1
  Ni  Ni20  1  0.33510100  0.79605200  0.48606500  1
  Ni  Ni21  1  0.83510100  0.20394800  0.51393500  1
  Ni  Ni22  1  0.66489900  0.20394800  0.51393500  1
  Ni  Ni23  1  0.16489900  0.79605200  0.48606500  1
  Cu  Cu24  1  0.05617800  0.75075200  0.12847300  1
  Cu  Cu25  1  0.55617800  0.24924800  0.87152700  1
  Cu  Cu26  1  0.94382200  0.24924800  0.87152700  1
  Cu  Cu27  1  0.44382200  0.75075200  0.12847300  1
  Cu  Cu28  1  0.06966500  0.53984600  0.24713900  1
  Cu  Cu29  1  0.56966500  0.46015400  0.75286100  1
  Cu  Cu30  1  0.93033500  0.46015400  0.75286100  1
  Cu  Cu31  1  0.43033500  0.53984600  0.24713900  1
  Cu  Cu32  1  0.25000000  0.50131800  0.83021300  1
  Cu  Cu33  1  0.75000000  0.49868200  0.16978700  1
  Cu  Cu34  1  0.25000000  0.73990600  0.78300300  1
  Cu  Cu35  1  0.75000000  0.26009400  0.21699700  1
  C  C36  1  0.25000000  0.05812300  0.01693600  1
  C  C37  1  0.75000000  0.94187700  0.98306400  1
  C  C38  1  0.36742200  0.22754200  0.07767800  1
  C  C39  1  0.86742200  0.77245800  0.92232200  1
  C  C40  1  0.63257800  0.77245800  0.92232200  1
  C  C41  1  0.13257800  0.22754200  0.07767800  1
  C  C42  1  0.33944000  0.26392700  0.80837000  1
  C  C43  1  0.83944000  0.73607300  0.19163000  1
  C  C44  1  0.66056000  0.73607300  0.19163000  1
  C  C45  1  0.16056000  0.26392700  0.80837000  1
  C  C46  1  0.37613900  0.90855800  0.98927100  1
  C  C47  1  0.87613900  0.09144200  0.01072900  1
  C  C48  1  0.62386100  0.09144200  0.01072900  1
  C  C49  1  0.12386100  0.90855800  0.98927100  1
  C  C50  1  0.46625400  0.11864200  0.28977500  1
  C  C51  1  0.96625400  0.88135800  0.71022500  1
  C  C52  1  0.53374600  0.88135800  0.71022500  1
  C  C53  1  0.03374600  0.11864200  0.28977500  1
  C  C54  1  0.34819300  0.32426000  0.31383200  1
  C  C55  1  0.84819300  0.67574000  0.68616800  1
  C  C56  1  0.65180700  0.67574000  0.68616800  1
  C  C57  1  0.15180700  0.32426000  0.31383200  1
  C  C58  1  0.33618400  0.94990100  0.31409000  1
  C  C59  1  0.83618400  0.05009900  0.68591000  1
  C  C60  1  0.66381600  0.05009900  0.68591000  1
  C  C61  1  0.16381600  0.94990100  0.31409000  1
  C  C62  1  0.33771900  0.91644000  0.59598800  1
  C  C63  1  0.83771900  0.08356000  0.40401200  1
  C  C64  1  0.66228100  0.08356000  0.40401200  1
  C  C65  1  0.16228100  0.91644000  0.59598800  1
  C  C66  1  0.39034300  0.62695900  0.50110400  1
  C  C67  1  0.89034300  0.37304100  0.49889600  1
  C  C68  1  0.60965700  0.37304100  0.49889600  1
  C  C69  1  0.10965700  0.62695900  0.50110400  1
  C  C70  1  0.25000000  0.69785700  0.48296300  1
  C  C71  1  0.75000000  0.30214300  0.51703700  1
  C  C72  1  0.02990900  0.62465100  0.18506800  1
  C  C73  1  0.52990900  0.37534900  0.81493200  1
  C  C74  1  0.97009100  0.37534900  0.81493200  1
  C  C75  1  0.47009100  0.62465100  0.18506800  1
  C  C76  1  0.25000000  0.61796600  0.87012300  1
  C  C77  1  0.75000000  0.38203400  0.12987700  1
