# generated using pymatgen
data_Cu2(NiC)3
_symmetry_space_group_name_H-M   'P 1'
_cell_length_a   8.34917235
_cell_length_b   8.34917235
_cell_length_c   11.11300829
_cell_angle_alpha   82.98687481
_cell_angle_beta   82.98687481
_cell_angle_gamma   114.29307084
_symmetry_Int_Tables_number   1
_chemical_formula_structural   Cu2(NiC)3
_chemical_formula_sum   'Cu8 Ni12 C12'
_cell_volume   687.96265429
_cell_formula_units_Z   4
loop_
 _symmetry_equiv_pos_site_id
 _symmetry_equiv_pos_as_xyz
  1  'x, y, z'
loop_
 _atom_site_type_symbol
 _atom_site_label
 _atom_site_symmetry_multiplicity
 _atom_site_fract_x
 _atom_site_fract_y
 _atom_site_fract_z
 _atom_site_occupancy
  C  C0  1  0.26489600  0.42516900  0.63246600  1
  C  C1  1  0.73510400  0.57483100  0.36753400  1
  C  C2  1  0.57483100  0.73510400  0.86753400  1
  C  C3  1  0.42516900  0.26489600  0.13246600  1
  C  C4  1  0.69990700  0.30009300  0.75000000  1
  C  C5  1  0.81268100  0.07124100  0.48091200  1
  C  C6  1  0.92875900  0.18731900  0.01908800  1
  C  C7  1  0.07124100  0.81268100  0.98091200  1
  C  C8  1  0.18731900  0.92875900  0.51908800  1
  C  C9  1  0.30009300  0.69990700  0.25000000  1
  C  C10  1  0.92201600  0.07798400  0.75000000  1
  C  C11  1  0.07798400  0.92201600  0.25000000  1
  Ni  Ni12  1  0.51983000  0.22183000  0.54649000  1
  Ni  Ni13  1  0.48017000  0.77817000  0.45351000  1
  Ni  Ni14  1  0.74612400  0.25387600  0.25000000  1
  Ni  Ni15  1  0.70357200  0.64211400  0.64113100  1
  Ni  Ni16  1  0.25387600  0.74612400  0.75000000  1
  Ni  Ni17  1  0.64211400  0.70357200  0.14113100  1
  Ni  Ni18  1  0.77817000  0.48017000  0.95351000  1
  Ni  Ni19  1  0.22183000  0.51983000  0.04649000  1
  Ni  Ni20  1  0.50000000  0.00000000  0.00000000  1
  Ni  Ni21  1  0.35788600  0.29642800  0.85886900  1
  Ni  Ni22  1  0.29642800  0.35788600  0.35886900  1
  Ni  Ni23  1  0.00000000  0.50000000  0.50000000  1
  Cu  Cu24  1  0.06255700  0.10036900  0.62489400  1
  Cu  Cu25  1  0.10036900  0.06255700  0.12489400  1
  Cu  Cu26  1  0.97962700  0.27715200  0.78849100  1
  Cu  Cu27  1  0.89963100  0.93744300  0.87510600  1
  Cu  Cu28  1  0.02037300  0.72284800  0.21150900  1
  Cu  Cu29  1  0.72284800  0.02037300  0.71150900  1
  Cu  Cu30  1  0.27715200  0.97962700  0.28849100  1
  Cu  Cu31  1  0.93744300  0.89963100  0.37510600  1
