# generated using pymatgen
data_Cu3NiC16
_symmetry_space_group_name_H-M   'P 1'
_cell_length_a   6.22966900
_cell_length_b   9.79101600
_cell_length_c   16.82079500
_cell_angle_alpha   90.00000000
_cell_angle_beta   90.00000000
_cell_angle_gamma   90.00000000
_symmetry_Int_Tables_number   1
_chemical_formula_structural   Cu3NiC16
_chemical_formula_sum   'Cu12 Ni4 C64'
_cell_volume   1025.98083938
_cell_formula_units_Z   4
loop_
 _symmetry_equiv_pos_site_id
 _symmetry_equiv_pos_as_xyz
  1  'x, y, z'
loop_
 _atom_site_type_symbol
 _atom_site_label
 _atom_site_symmetry_multiplicity
 _atom_site_fract_x
 _atom_site_fract_y
 _atom_site_fract_z
 _atom_site_occupancy
  C  C0  1  0.50000000  0.20475500  0.53501300  1
  C  C1  1  0.00000000  0.29524500  0.03501300  1
  C  C2  1  0.50000000  0.79524500  0.46498700  1
  C  C3  1  0.00000000  0.70475500  0.96498700  1
  Ni  Ni4  1  0.00000000  0.01234300  0.63922000  1
  Ni  Ni5  1  0.00000000  0.98765700  0.36078000  1
  Ni  Ni6  1  0.50000000  0.48765700  0.13922000  1
  Ni  Ni7  1  0.50000000  0.51234300  0.86078000  1
  Cu  Cu8  1  0.50000000  0.03428400  0.09079500  1
  Cu  Cu9  1  0.25096100  0.74893500  0.70212200  1
  Cu  Cu10  1  0.25096100  0.25106500  0.29787800  1
  Cu  Cu11  1  0.75096100  0.24893500  0.79787800  1
  Cu  Cu12  1  0.24903900  0.75106500  0.20212200  1
  Cu  Cu13  1  0.50000000  0.96571600  0.90920500  1
  Cu  Cu14  1  0.00000000  0.53428400  0.40920500  1
  Cu  Cu15  1  0.74903900  0.25106500  0.29787800  1
  Cu  Cu16  1  0.00000000  0.46571600  0.59079500  1
  Cu  Cu17  1  0.75096100  0.75106500  0.20212200  1
  Cu  Cu18  1  0.24903900  0.24893500  0.79787800  1
  Cu  Cu19  1  0.74903900  0.74893500  0.70212200  1
  C  C20  1  0.00000000  0.21078300  0.46323300  1
  C  C21  1  0.00000000  0.45674900  0.21746100  1
  C  C22  1  0.00000000  0.95760100  0.83454800  1
  C  C23  1  0.50000000  0.54239900  0.33454800  1
  C  C24  1  0.00000000  0.54325100  0.78253900  1
  C  C25  1  0.50000000  0.45760100  0.66545200  1
  C  C26  1  0.50000000  0.71078300  0.03676700  1
  C  C27  1  0.50000000  0.04325100  0.71746100  1
  C  C28  1  0.00000000  0.04239900  0.16545200  1
  C  C29  1  0.50000000  0.28921700  0.96323300  1
  C  C30  1  0.00000000  0.78921700  0.53676700  1
  C  C31  1  0.50000000  0.95674900  0.28253900  1
  C  C32  1  0.69789700  0.33376400  0.91148900  1
  C  C33  1  0.20195600  0.08707100  0.12068300  1
  C  C34  1  0.79481700  0.40139400  0.17820500  1
  C  C35  1  0.80210300  0.16623600  0.41148900  1
  C  C36  1  0.50000000  0.35900600  0.04371700  1
  C  C37  1  0.50000000  0.61676000  0.67732800  1
  C  C38  1  0.50000000  0.89176800  0.19573500  1
  C  C39  1  0.00000000  0.85900600  0.45628300  1
  C  C40  1  0.69789700  0.66623600  0.08851100  1
  C  C41  1  0.30210300  0.33376400  0.91148900  1
  C  C42  1  0.00000000  0.38405500  0.77571300  1
  C  C43  1  0.29481700  0.90139400  0.32179500  1
  C  C44  1  0.00000000  0.61594500  0.22428700  1
  C  C45  1  0.29804400  0.58707100  0.37931700  1
  C  C46  1  0.30210300  0.66623600  0.08851100  1
  C  C47  1  0.50000000  0.11594500  0.27571300  1
  C  C48  1  0.00000000  0.36811600  0.47855800  1
  C  C49  1  0.50000000  0.38541600  0.75122400  1
  C  C50  1  0.50000000  0.86811600  0.02144200  1
  C  C51  1  0.70518300  0.90139400  0.32179500  1
  C  C52  1  0.29481700  0.09860600  0.67820500  1
  C  C53  1  0.50000000  0.64099400  0.95628300  1
  C  C54  1  0.19789700  0.83376400  0.58851100  1
  C  C55  1  0.70195600  0.58707100  0.37931700  1
  C  C56  1  0.80210300  0.83376400  0.58851100  1
  C  C57  1  0.00000000  0.88324000  0.17732800  1
  C  C58  1  0.00000000  0.88541600  0.74877600  1
  C  C59  1  0.50000000  0.88405500  0.72428700  1
  C  C60  1  0.20518300  0.59860600  0.82179500  1
  C  C61  1  0.79481700  0.59860600  0.82179500  1
  C  C62  1  0.00000000  0.11676000  0.82267200  1
  C  C63  1  0.70195600  0.41292900  0.62068300  1
  C  C64  1  0.50000000  0.38324000  0.32267200  1
  C  C65  1  0.20195600  0.91292900  0.87931700  1
  C  C66  1  0.29804400  0.41292900  0.62068300  1
  C  C67  1  0.79804400  0.08707100  0.12068300  1
  C  C68  1  0.50000000  0.61458400  0.24877600  1
  C  C69  1  0.00000000  0.11458400  0.25122400  1
  C  C70  1  0.00000000  0.14099400  0.54371700  1
  C  C71  1  0.00000000  0.39176800  0.30426500  1
  C  C72  1  0.00000000  0.63188400  0.52144200  1
  C  C73  1  0.19789700  0.16623600  0.41148900  1
  C  C74  1  0.20518300  0.40139400  0.17820500  1
  C  C75  1  0.50000000  0.13188400  0.97855800  1
  C  C76  1  0.50000000  0.10823200  0.80426500  1
  C  C77  1  0.00000000  0.60823200  0.69573500  1
  C  C78  1  0.79804400  0.91292900  0.87931700  1
  C  C79  1  0.70518300  0.09860600  0.67820500  1
