# generated using pymatgen
data_Cu3Ni6C5
_symmetry_space_group_name_H-M   'P 1'
_cell_length_a   6.23672800
_cell_length_b   7.14510396
_cell_length_c   8.36450335
_cell_angle_alpha   96.18442755
_cell_angle_beta   90.00000000
_cell_angle_gamma   115.87655617
_symmetry_Int_Tables_number   1
_chemical_formula_structural   Cu3Ni6C5
_chemical_formula_sum   'Cu6 Ni12 C10'
_cell_volume   332.95474701
_cell_formula_units_Z   2
loop_
 _symmetry_equiv_pos_site_id
 _symmetry_equiv_pos_as_xyz
  1  'x, y, z'
loop_
 _atom_site_type_symbol
 _atom_site_label
 _atom_site_symmetry_multiplicity
 _atom_site_fract_x
 _atom_site_fract_y
 _atom_site_fract_z
 _atom_site_occupancy
  C  C0  1  0.78622200  0.35604900  0.17983500  1
  C  C1  1  0.21377800  0.64395100  0.82016500  1
  C  C2  1  0.10367400  0.00000000  0.25000000  1
  C  C3  1  0.89632600  0.00000000  0.75000000  1
  C  C4  1  0.43017200  0.64395100  0.32016500  1
  C  C5  1  0.56982800  0.35604900  0.67983500  1
  C  C6  1  0.27168300  0.36152400  0.02140500  1
  C  C7  1  0.72831700  0.63847600  0.97859500  1
  C  C8  1  0.08984100  0.36152400  0.52140500  1
  C  C9  1  0.91015900  0.63847600  0.47859500  1
  Ni  Ni10  1  0.68445100  0.47811300  0.42508100  1
  Ni  Ni11  1  0.94873400  0.70097000  0.64317800  1
  Ni  Ni12  1  0.20633900  0.52188700  0.07491900  1
  Ni  Ni13  1  0.08212600  0.70116800  0.36613500  1
  Ni  Ni14  1  0.24776400  0.29903000  0.85682200  1
  Ni  Ni15  1  0.38095800  0.29883200  0.13386500  1
  Ni  Ni16  1  0.61904200  0.70116800  0.86613500  1
  Ni  Ni17  1  0.79366100  0.47811300  0.92508100  1
  Ni  Ni18  1  0.31554900  0.52188700  0.57491900  1
  Ni  Ni19  1  0.91787400  0.29883200  0.63386500  1
  Ni  Ni20  1  0.75223600  0.70097000  0.14317800  1
  Ni  Ni21  1  0.05126600  0.29903000  0.35682200  1
  Cu  Cu22  1  0.12705600  0.89521900  0.95857900  1
  Cu  Cu23  1  0.87294400  0.10478100  0.04142100  1
  Cu  Cu24  1  0.76816300  0.89521900  0.45857900  1
  Cu  Cu25  1  0.47824000  0.00000000  0.25000000  1
  Cu  Cu26  1  0.23183700  0.10478100  0.54142100  1
  Cu  Cu27  1  0.52176000  0.00000000  0.75000000  1
