# generated using pymatgen
data_CuNi2C15
_symmetry_space_group_name_H-M   'P 1'
_cell_length_a   14.87434300
_cell_length_b   4.46781400
_cell_length_c   6.77672064
_cell_angle_alpha   75.77540141
_cell_angle_beta   90.00000000
_cell_angle_gamma   90.00000000
_symmetry_Int_Tables_number   1
_chemical_formula_structural   CuNi2C15
_chemical_formula_sum   'Cu2 Ni4 C30'
_cell_volume   436.54454777
_cell_formula_units_Z   2
loop_
 _symmetry_equiv_pos_site_id
 _symmetry_equiv_pos_as_xyz
  1  'x, y, z'
loop_
 _atom_site_type_symbol
 _atom_site_label
 _atom_site_symmetry_multiplicity
 _atom_site_fract_x
 _atom_site_fract_y
 _atom_site_fract_z
 _atom_site_occupancy
  Ni  Ni0  1  0.91302300  0.33387800  0.80184900  1
  Ni  Ni1  1  0.41302300  0.66612200  0.19815100  1
  Ni  Ni2  1  0.08697700  0.66612200  0.19815100  1
  Ni  Ni3  1  0.58697700  0.33387800  0.80184900  1
  Cu  Cu4  1  0.75000000  0.99096100  0.52100600  1
  Cu  Cu5  1  0.25000000  0.00903900  0.47899400  1
  C  C6  1  0.16461800  0.43792700  0.68022300  1
  C  C7  1  0.66461800  0.56207300  0.31977700  1
  C  C8  1  0.83538200  0.56207300  0.31977700  1
  C  C9  1  0.33538200  0.43792700  0.68022300  1
  C  C10  1  0.75000000  0.77159400  0.99488900  1
  C  C11  1  0.25000000  0.22840600  0.00511100  1
  C  C12  1  0.91915100  0.05041700  0.31968200  1
  C  C13  1  0.41915100  0.94958300  0.68031800  1
  C  C14  1  0.08084900  0.94958300  0.68031800  1
  C  C15  1  0.58084900  0.05041700  0.31968200  1
  C  C16  1  0.91093600  0.72531200  0.39369300  1
  C  C17  1  0.41093600  0.27468800  0.60630700  1
  C  C18  1  0.08906400  0.27468800  0.60630700  1
  C  C19  1  0.58906400  0.72531200  0.39369300  1
  C  C20  1  0.75000000  0.62257500  0.41248300  1
  C  C21  1  0.25000000  0.37742500  0.58751700  1
  C  C22  1  0.75000000  0.96082700  0.80609500  1
  C  C23  1  0.25000000  0.03917300  0.19390500  1
  C  C24  1  0.51384400  0.17000700  0.19103300  1
  C  C25  1  0.01384400  0.82999300  0.80896700  1
  C  C26  1  0.48615600  0.82999300  0.80896700  1
  C  C27  1  0.98615600  0.17000700  0.19103300  1
  C  C28  1  0.64555200  0.22367400  0.39117800  1
  C  C29  1  0.14555200  0.77632600  0.60882200  1
  C  C30  1  0.35444800  0.77632600  0.60882200  1
  C  C31  1  0.85444800  0.22367400  0.39117800  1
  C  C32  1  0.66876300  0.66823600  0.09347700  1
  C  C33  1  0.16876300  0.33176400  0.90652300  1
  C  C34  1  0.33123700  0.33176400  0.90652300  1
  C  C35  1  0.83123700  0.66823600  0.09347700  1
