# generated using pymatgen
data_Cu(Ni2C11)2
_symmetry_space_group_name_H-M   'P 1'
_cell_length_a   3.97274900
_cell_length_b   5.55709900
_cell_length_c   31.47044900
_cell_angle_alpha   90.00000000
_cell_angle_beta   90.00000000
_cell_angle_gamma   90.00000000
_symmetry_Int_Tables_number   1
_chemical_formula_structural   Cu(Ni2C11)2
_chemical_formula_sum   'Cu2 Ni8 C44'
_cell_volume   694.77182787
_cell_formula_units_Z   2
loop_
 _symmetry_equiv_pos_site_id
 _symmetry_equiv_pos_as_xyz
  1  'x, y, z'
loop_
 _atom_site_type_symbol
 _atom_site_label
 _atom_site_symmetry_multiplicity
 _atom_site_fract_x
 _atom_site_fract_y
 _atom_site_fract_z
 _atom_site_occupancy
  C  C0  1  0.50000000  0.51971600  0.90953700  1
  C  C1  1  0.00000000  0.54824000  0.28676500  1
  C  C2  1  0.00000000  0.45176000  0.71323500  1
  C  C3  1  0.50000000  0.48028400  0.09046300  1
  C  C4  1  0.50000000  0.04824000  0.21323500  1
  C  C5  1  0.00000000  0.50000000  0.50000000  1
  C  C6  1  0.50000000  0.95176000  0.78676500  1
  C  C7  1  0.50000000  0.00000000  0.00000000  1
  C  C8  1  0.00000000  0.01971600  0.59046300  1
  C  C9  1  0.00000000  0.98028400  0.40953700  1
  Ni  Ni10  1  0.50000000  0.01468500  0.32217900  1
  Ni  Ni11  1  0.50000000  0.49501000  0.40817900  1
  Ni  Ni12  1  0.50000000  0.50499000  0.59182100  1
  Ni  Ni13  1  0.50000000  0.98531500  0.67782100  1
  Ni  Ni14  1  0.00000000  0.99501000  0.09182100  1
  Ni  Ni15  1  0.00000000  0.00499000  0.90817900  1
  Ni  Ni16  1  0.00000000  0.48531500  0.82217900  1
  Ni  Ni17  1  0.00000000  0.51468500  0.17782100  1
  Cu  Cu18  1  0.00000000  0.50000000  0.00000000  1
  Cu  Cu19  1  0.50000000  0.00000000  0.50000000  1
  C  C20  1  0.50000000  0.20715700  0.55396400  1
  C  C21  1  0.00000000  0.00000000  0.50000000  1
  C  C22  1  0.50000000  0.00642700  0.91578400  1
  C  C23  1  0.00000000  0.21951600  0.78742600  1
  C  C24  1  0.00000000  0.29443000  0.22400800  1
  C  C25  1  0.00000000  0.70715700  0.94603600  1
  C  C26  1  0.00000000  0.01068000  0.67159900  1
  C  C27  1  0.00000000  0.80397300  0.03530300  1
  C  C28  1  0.00000000  0.78048400  0.21257400  1
  C  C29  1  0.50000000  0.29759500  0.63776800  1
  C  C30  1  0.00000000  0.49357300  0.41578400  1
  C  C31  1  0.50000000  0.69602700  0.53530300  1
  C  C32  1  0.50000000  0.50000000  0.00000000  1
  C  C33  1  0.00000000  0.20240500  0.13776800  1
  C  C34  1  0.50000000  0.30397300  0.46469700  1
  C  C35  1  0.00000000  0.29284300  0.05396400  1
  C  C36  1  0.50000000  0.81005400  0.62126800  1
  C  C37  1  0.50000000  0.70240500  0.36223200  1
  C  C38  1  0.00000000  0.79759500  0.86223200  1
  C  C39  1  0.00000000  0.19602700  0.96469700  1
  C  C40  1  0.50000000  0.48932000  0.17159900  1
  C  C41  1  0.50000000  0.28048400  0.28742600  1
  C  C42  1  0.50000000  0.18994600  0.37873200  1
  C  C43  1  0.50000000  0.99357300  0.08421600  1
  C  C44  1  0.00000000  0.68994600  0.12126800  1
  C  C45  1  0.00000000  0.70557000  0.77599200  1
  C  C46  1  0.00000000  0.50642700  0.58421600  1
  C  C47  1  0.50000000  0.79443000  0.27599200  1
  C  C48  1  0.50000000  0.71951600  0.71257400  1
  C  C49  1  0.50000000  0.51068000  0.82840100  1
  C  C50  1  0.00000000  0.31005400  0.87873200  1
  C  C51  1  0.50000000  0.20557000  0.72400800  1
  C  C52  1  0.00000000  0.98932000  0.32840100  1
  C  C53  1  0.50000000  0.79284300  0.44603600  1
