# generated using pymatgen
data_CuNiC8
_symmetry_space_group_name_H-M   'P 1'
_cell_length_a   9.63873100
_cell_length_b   12.68036300
_cell_length_c   15.10997100
_cell_angle_alpha   90.00000000
_cell_angle_beta   90.00000000
_cell_angle_gamma   90.00000000
_symmetry_Int_Tables_number   1
_chemical_formula_structural   CuNiC8
_chemical_formula_sum   'Cu8 Ni8 C64'
_cell_volume   1846.78006151
_cell_formula_units_Z   8
loop_
 _symmetry_equiv_pos_site_id
 _symmetry_equiv_pos_as_xyz
  1  'x, y, z'
loop_
 _atom_site_type_symbol
 _atom_site_label
 _atom_site_symmetry_multiplicity
 _atom_site_fract_x
 _atom_site_fract_y
 _atom_site_fract_z
 _atom_site_occupancy
  Ni  Ni0  1  0.75976700  0.45142000  0.11636200  1
  Ni  Ni1  1  0.74023300  0.54858000  0.61636200  1
  Ni  Ni2  1  0.90097900  0.25953200  0.86134900  1
  Ni  Ni3  1  0.40097900  0.24046800  0.13865100  1
  Ni  Ni4  1  0.59902100  0.74046800  0.36134900  1
  Ni  Ni5  1  0.25976700  0.04858000  0.88363800  1
  Ni  Ni6  1  0.24023300  0.95142000  0.38363800  1
  Ni  Ni7  1  0.09902100  0.75953200  0.63865100  1
  Cu  Cu8  1  0.60678600  0.09380000  0.04826900  1
  Cu  Cu9  1  0.39321400  0.59380000  0.45173100  1
  Cu  Cu10  1  0.82035100  0.99997400  0.19290600  1
  Cu  Cu11  1  0.32035100  0.50002600  0.80709400  1
  Cu  Cu12  1  0.89321400  0.90620000  0.54826900  1
  Cu  Cu13  1  0.17964900  0.49997400  0.30709400  1
  Cu  Cu14  1  0.67964900  0.00002600  0.69290600  1
  Cu  Cu15  1  0.10678600  0.40620000  0.95173100  1
  C  C16  1  0.32766900  0.32881400  0.32524100  1
  C  C17  1  0.15875100  0.10426900  0.16007000  1
  C  C18  1  0.47379000  0.89710500  0.09636300  1
  C  C19  1  0.43533200  0.39673500  0.54803100  1
  C  C20  1  0.06466800  0.60326500  0.04803100  1
  C  C21  1  0.67233100  0.82881400  0.17475900  1
  C  C22  1  0.84124900  0.60426900  0.33993000  1
  C  C23  1  0.17233100  0.67118600  0.82524100  1
  C  C24  1  0.65875100  0.39573100  0.83993000  1
  C  C25  1  0.52621000  0.39710500  0.40363700  1
  C  C26  1  0.56466800  0.89673500  0.95196900  1
  C  C27  1  0.93533200  0.10326500  0.45196900  1
  C  C28  1  0.02621000  0.10289500  0.59636300  1
  C  C29  1  0.82766900  0.17118600  0.67475900  1
  C  C30  1  0.34124900  0.89573100  0.66007000  1
  C  C31  1  0.97379000  0.60289500  0.90363700  1
  C  C32  1  0.45121500  0.59668900  0.75069700  1
  C  C33  1  0.75156900  0.79309400  0.51328000  1
  C  C34  1  0.72765300  0.48526300  0.25111300  1
  C  C35  1  0.45750300  0.25777800  0.57682700  1
  C  C36  1  0.54878500  0.09668900  0.74930300  1
  C  C37  1  0.90027200  0.65408600  0.23354100  1
  C  C38  1  0.76073300  0.56707100  0.47457200  1
  C  C39  1  0.99796600  0.33110300  0.76410500  1
  C  C40  1  0.90299300  0.95585600  0.07843300  1
  C  C41  1  0.00203400  0.83110300  0.73589500  1
  C  C42  1  0.44659800  0.79632800  0.60737200  1
  C  C43  1  0.77234700  0.51473700  0.75111300  1
  C  C44  1  0.26073300  0.93292900  0.52542800  1
  C  C45  1  0.04249700  0.74222200  0.07682700  1
  C  C46  1  0.24843100  0.29309400  0.98672000  1
  C  C47  1  0.05340200  0.20367200  0.10737200  1
  C  C48  1  0.09972800  0.15408600  0.26645900  1
  C  C49  1  0.76237100  0.99031700  0.81551700  1
  C  C50  1  0.41298500  0.86118400  0.37013100  1
  C  C51  1  0.94659800  0.70367200  0.39262800  1
  C  C52  1  0.23762900  0.49031700  0.68448300  1
  C  C53  1  0.23926700  0.06707100  0.02542800  1
  C  C54  1  0.26237100  0.50968300  0.18448300  1
  C  C55  1  0.04878500  0.40331100  0.25069700  1
  C  C56  1  0.27234700  0.98526300  0.24888700  1
  C  C57  1  0.73762900  0.00968300  0.31551700  1
  C  C58  1  0.59972800  0.34591400  0.73354100  1
  C  C59  1  0.22765300  0.01473700  0.74888700  1
  C  C60  1  0.58701500  0.36118400  0.12986900  1
  C  C61  1  0.55340200  0.29632800  0.89262800  1
  C  C62  1  0.40027200  0.84591400  0.76645900  1
  C  C63  1  0.95121500  0.90331100  0.24930300  1
  C  C64  1  0.91298500  0.63881600  0.62986900  1
  C  C65  1  0.65877500  0.57818200  0.09542200  1
  C  C66  1  0.40299300  0.54414400  0.92156700  1
  C  C67  1  0.15877500  0.92181800  0.90457800  1
  C  C68  1  0.59700700  0.04414400  0.57843300  1
  C  C69  1  0.25156900  0.70690600  0.48672000  1
  C  C70  1  0.74843100  0.20690600  0.01328000  1
  C  C71  1  0.73926700  0.43292900  0.97457200  1
  C  C72  1  0.08701500  0.13881600  0.87013100  1
  C  C73  1  0.09700700  0.45585600  0.42156700  1
  C  C74  1  0.95750300  0.24222200  0.42317300  1
  C  C75  1  0.54249700  0.75777800  0.92317300  1
  C  C76  1  0.84122500  0.42181800  0.59542200  1
  C  C77  1  0.50203400  0.66889700  0.26410500  1
  C  C78  1  0.49796600  0.16889700  0.23589500  1
  C  C79  1  0.34122500  0.07818200  0.40457800  1
