# generated using pymatgen
data_Cu15Ni2C23
_symmetry_space_group_name_H-M   'P 1'
_cell_length_a   10.45790569
_cell_length_b   10.45790569
_cell_length_c   29.98481362
_cell_angle_alpha   83.94538831
_cell_angle_beta   83.94538831
_cell_angle_gamma   56.60356204
_symmetry_Int_Tables_number   1
_chemical_formula_structural   Cu15Ni2C23
_chemical_formula_sum   'Cu60 Ni8 C92'
_cell_volume   2718.17262988
_cell_formula_units_Z   4
loop_
 _symmetry_equiv_pos_site_id
 _symmetry_equiv_pos_as_xyz
  1  'x, y, z'
loop_
 _atom_site_type_symbol
 _atom_site_label
 _atom_site_symmetry_multiplicity
 _atom_site_fract_x
 _atom_site_fract_y
 _atom_site_fract_z
 _atom_site_occupancy
  Ni  Ni0  1  0.50132200  0.20328900  0.34983300  1
  Ni  Ni1  1  0.20328900  0.50132200  0.84983300  1
  Ni  Ni2  1  0.68560400  0.76655700  0.08566600  1
  Ni  Ni3  1  0.23344300  0.31439600  0.41433400  1
  Ni  Ni4  1  0.31439600  0.23344300  0.91433400  1
  Ni  Ni5  1  0.76655700  0.68560400  0.58566600  1
  Ni  Ni6  1  0.49867800  0.79671100  0.65016700  1
  Ni  Ni7  1  0.79671100  0.49867800  0.15016700  1
  C  C8  1  0.34146500  0.23078500  0.83264700  1
  C  C9  1  0.94093100  0.59551700  0.10855400  1
  C  C10  1  0.76921500  0.65853500  0.66735300  1
  C  C11  1  0.75407600  0.46427100  0.60253900  1
  C  C12  1  0.53572900  0.24592400  0.89746100  1
  C  C13  1  0.41304600  0.65494500  0.61584200  1
  C  C14  1  0.24592400  0.53572900  0.39746100  1
  C  C15  1  0.65853500  0.76921500  0.16735300  1
  C  C16  1  0.58695400  0.34505500  0.38415800  1
  C  C17  1  0.23078500  0.34146500  0.33264700  1
  C  C18  1  0.40448300  0.05906900  0.39144600  1
  C  C19  1  0.59551700  0.94093100  0.60855400  1
  C  C20  1  0.65494500  0.41304600  0.11584200  1
  C  C21  1  0.05906900  0.40448300  0.89144600  1
  C  C22  1  0.46427100  0.75407600  0.10253900  1
  C  C23  1  0.34505500  0.58695400  0.88415800  1
  Cu  Cu24  1  0.65595100  0.95096000  0.05451200  1
  Cu  Cu25  1  0.50170300  0.22173500  0.79276400  1
  Cu  Cu26  1  0.95096000  0.65595100  0.55451200  1
  Cu  Cu27  1  0.35022700  0.91213600  0.69705400  1
  Cu  Cu28  1  0.49829700  0.77826500  0.20723600  1
  Cu  Cu29  1  0.34404900  0.04904000  0.94548800  1
  Cu  Cu30  1  0.44987100  0.05226900  0.56442100  1
  Cu  Cu31  1  0.64977300  0.08786400  0.30294600  1
  Cu  Cu32  1  0.02907400  0.67168100  0.39987900  1
  Cu  Cu33  1  0.49509400  0.10313000  0.65005900  1
  Cu  Cu34  1  0.49954600  0.40230700  0.08945800  1
  Cu  Cu35  1  0.05226900  0.44987100  0.06442100  1
  Cu  Cu36  1  0.94773100  0.55012900  0.93557900  1
  Cu  Cu37  1  0.31422000  0.73517200  0.14015500  1
  Cu  Cu38  1  0.19783300  0.80753200  0.62621700  1
  Cu  Cu39  1  0.79633100  0.73648800  0.21120500  1
  Cu  Cu40  1  0.44930500  0.57305100  0.82454900  1
  Cu  Cu41  1  0.73961000  0.43224100  0.05586500  1
  Cu  Cu42  1  0.80753200  0.19783300  0.12621700  1
  Cu  Cu43  1  0.72544900  0.41102000  0.54784400  1
  Cu  Cu44  1  0.59769300  0.50045400  0.41054200  1
  Cu  Cu45  1  0.27353100  0.98995500  0.41739600  1
  Cu  Cu46  1  0.42943600  0.01264000  0.83453400  1
  Cu  Cu47  1  0.20366900  0.26351200  0.78879500  1
  Cu  Cu48  1  0.01004500  0.72646900  0.08260400  1
  Cu  Cu49  1  0.73648800  0.79633100  0.71120500  1
  Cu  Cu50  1  0.58898000  0.27455100  0.95215600  1
  Cu  Cu51  1  0.56775900  0.26039000  0.44413500  1
  Cu  Cu52  1  0.08786400  0.64977300  0.80294600  1
  Cu  Cu53  1  0.73517200  0.31422000  0.64015500  1
  Cu  Cu54  1  0.98995500  0.27353100  0.91739600  1
  Cu  Cu55  1  0.50490600  0.89687000  0.34994100  1
  Cu  Cu56  1  0.04904000  0.34404900  0.44548800  1
  Cu  Cu57  1  0.72646900  0.01004500  0.58260400  1
  Cu  Cu58  1  0.26039000  0.56775900  0.94413500  1
  Cu  Cu59  1  0.27455100  0.58898000  0.45215600  1
  Cu  Cu60  1  0.40230700  0.49954600  0.58945800  1
  Cu  Cu61  1  0.01264000  0.42943600  0.33453400  1
  Cu  Cu62  1  0.57056400  0.98736000  0.16546600  1
  Cu  Cu63  1  0.41102000  0.72544900  0.04784400  1
  Cu  Cu64  1  0.10313000  0.49509400  0.15005900  1
  Cu  Cu65  1  0.26351200  0.20366900  0.28879500  1
  Cu  Cu66  1  0.77826500  0.49829700  0.70723600  1
  Cu  Cu67  1  0.50045400  0.59769300  0.91054200  1
  Cu  Cu68  1  0.42694900  0.55069500  0.67545100  1
  Cu  Cu69  1  0.67168100  0.02907400  0.89987900  1
  Cu  Cu70  1  0.19246800  0.80216700  0.87378300  1
  Cu  Cu71  1  0.32831900  0.97092600  0.10012100  1
  Cu  Cu72  1  0.57305100  0.44930500  0.32454900  1
  Cu  Cu73  1  0.68578000  0.26482800  0.85984500  1
  Cu  Cu74  1  0.22173500  0.50170300  0.29276400  1
  Cu  Cu75  1  0.98736000  0.57056400  0.66546600  1
  Cu  Cu76  1  0.26482800  0.68578000  0.35984500  1
  Cu  Cu77  1  0.97092600  0.32831900  0.60012100  1
  Cu  Cu78  1  0.89687000  0.50490600  0.84994100  1
  Cu  Cu79  1  0.91213600  0.35022700  0.19705400  1
  Cu  Cu80  1  0.43224100  0.73961000  0.55586500  1
  Cu  Cu81  1  0.55012900  0.94773100  0.43557900  1
  Cu  Cu82  1  0.55069500  0.42694900  0.17545100  1
  Cu  Cu83  1  0.80216700  0.19246800  0.37378300  1
  C  C84  1  0.11706000  0.36324600  0.03640600  1
  C  C85  1  0.76543700  0.89870400  0.90009600  1
  C  C86  1  0.48875400  0.43098000  0.20998200  1
  C  C87  1  0.43633300  0.20208300  0.67441400  1
  C  C88  1  0.88294000  0.63675400  0.96359400  1
  C  C89  1  0.21292600  0.59813300  0.26753900  1
  C  C90  1  0.20208300  0.43633300  0.17441400  1
  C  C91  1  0.43788900  0.79028300  0.52004500  1
  C  C92  1  0.37927300  0.71048100  0.01347700  1
  C  C93  1  0.89856000  0.06852400  0.13310300  1
  C  C94  1  0.23456300  0.10129600  0.09990400  1
  C  C95  1  0.79732600  0.05908100  0.56598300  1
  C  C96  1  0.93147600  0.10144000  0.36689700  1
  C  C97  1  0.59755600  0.59873600  0.42517800  1
  C  C98  1  0.26902700  0.78162500  0.33761100  1
  C  C99  1  0.12616800  0.27919900  0.76093200  1
  C  C100  1  0.79791700  0.56366700  0.82558600  1
  C  C101  1  0.72080100  0.87383200  0.73906800  1
  C  C102  1  0.20267400  0.94091900  0.43401700  1
  C  C103  1  0.28951900  0.62072700  0.48652300  1
  C  C104  1  0.05908100  0.79732600  0.06598300  1
  C  C105  1  0.62072700  0.28951900  0.98652300  1
  C  C106  1  0.87383200  0.72080100  0.23906800  1
  C  C107  1  0.88204200  0.48019900  0.33382100  1
  C  C108  1  0.40186700  0.78707400  0.23246100  1
  C  C109  1  0.94091900  0.20267400  0.93401700  1
  C  C110  1  0.10129600  0.23456300  0.59990400  1
  C  C111  1  0.59813300  0.21292600  0.76753900  1
  C  C112  1  0.27919900  0.12616800  0.26093200  1
  C  C113  1  0.78707400  0.40186700  0.73246100  1
  C  C114  1  0.48019900  0.88204200  0.83382100  1
  C  C115  1  0.20971700  0.56211100  0.97995500  1
  C  C116  1  0.51124600  0.56902000  0.79001800  1
  C  C117  1  0.89870400  0.76543700  0.40009600  1
  C  C118  1  0.21837500  0.73097300  0.16238900  1
  C  C119  1  0.78162500  0.26902700  0.83761100  1
  C  C120  1  0.43098000  0.48875400  0.70998200  1
  C  C121  1  0.56902000  0.51124600  0.29001800  1
  C  C122  1  0.40244400  0.40126400  0.57482200  1
  C  C123  1  0.40126400  0.40244400  0.07482200  1
  C  C124  1  0.36324600  0.11706000  0.53640600  1
  C  C125  1  0.56366700  0.79791700  0.32558600  1
  C  C126  1  0.71048100  0.37927300  0.51347700  1
  C  C127  1  0.11795800  0.51980100  0.66617900  1
  C  C128  1  0.63675400  0.88294000  0.46359400  1
  C  C129  1  0.06852400  0.89856000  0.63310300  1
  C  C130  1  0.56211100  0.20971700  0.47995500  1
  C  C131  1  0.79028300  0.43788900  0.02004500  1
  C  C132  1  0.59873600  0.59755600  0.92517800  1
  C  C133  1  0.73097300  0.21837500  0.66238900  1
  C  C134  1  0.10144000  0.93147600  0.86689700  1
  C  C135  1  0.51980100  0.11795800  0.16617900  1
  C  C136  1  0.06419200  0.50499800  0.55104300  1
  C  C137  1  0.27871600  0.98829600  0.92570000  1
  C  C138  1  0.69204400  0.17552400  0.27659200  1
  C  C139  1  0.08142700  0.27850000  0.48798200  1
  C  C140  1  0.72128400  0.01170400  0.07430000  1
  C  C141  1  0.17552400  0.69204400  0.77659200  1
  C  C142  1  0.96446300  0.40504500  0.22507500  1
  C  C143  1  0.03661900  0.21940900  0.18025300  1
  C  C144  1  0.82447600  0.30795600  0.22340800  1
  C  C145  1  0.78059100  0.96338100  0.31974700  1
  C  C146  1  0.21940900  0.03661900  0.68025300  1
  C  C147  1  0.93580800  0.49500200  0.44895700  1
  C  C148  1  0.01170400  0.72128400  0.57430000  1
  C  C149  1  0.30795600  0.82447600  0.72340800  1
  C  C150  1  0.03553700  0.59495500  0.77492500  1
  C  C151  1  0.59495500  0.03553700  0.27492500  1
  C  C152  1  0.98829600  0.27871600  0.42570000  1
  C  C153  1  0.27850000  0.08142700  0.98798200  1
  C  C154  1  0.40504500  0.96446300  0.72507500  1
  C  C155  1  0.72150000  0.91857300  0.01201800  1
  C  C156  1  0.91857300  0.72150000  0.51201800  1
  C  C157  1  0.49500200  0.93580800  0.94895700  1
  C  C158  1  0.96338100  0.78059100  0.81974700  1
  C  C159  1  0.50499800  0.06419200  0.05104300  1
