# generated using pymatgen
data_Cu3Ni
_symmetry_space_group_name_H-M   'P 1'
_cell_length_a   22.90630600
_cell_length_b   5.91854200
_cell_length_c   13.49461968
_cell_angle_alpha   89.91842496
_cell_angle_beta   90.00000000
_cell_angle_gamma   90.00000000
_symmetry_Int_Tables_number   1
_chemical_formula_structural   Cu3Ni
_chemical_formula_sum   'Cu48 Ni16'
_cell_volume   1829.48983569
_cell_formula_units_Z   16
loop_
 _symmetry_equiv_pos_site_id
 _symmetry_equiv_pos_as_xyz
  1  'x, y, z'
loop_
 _atom_site_type_symbol
 _atom_site_label
 _atom_site_symmetry_multiplicity
 _atom_site_fract_x
 _atom_site_fract_y
 _atom_site_fract_z
 _atom_site_occupancy
  Ni  Ni0  1  0.64532500  0.55035500  0.45610200  1
  Ni  Ni1  1  0.14532500  0.44964500  0.04389800  1
  Ni  Ni2  1  0.35467500  0.44964500  0.54389800  1
  Ni  Ni3  1  0.85467500  0.55035500  0.95610200  1
  Ni  Ni4  1  0.48543300  0.06217600  0.28052100  1
  Ni  Ni5  1  0.98543300  0.93782400  0.21947900  1
  Ni  Ni6  1  0.51456700  0.93782400  0.71947900  1
  Ni  Ni7  1  0.01456700  0.06217600  0.78052100  1
  Ni  Ni8  1  0.60449500  0.51878100  0.04408700  1
  Ni  Ni9  1  0.10449500  0.48121900  0.45591300  1
  Ni  Ni10  1  0.39550500  0.48121900  0.95591300  1
  Ni  Ni11  1  0.89550500  0.51878100  0.54408700  1
  Ni  Ni12  1  0.76292800  0.07998500  0.21747300  1
  Ni  Ni13  1  0.26292800  0.92001500  0.28252700  1
  Ni  Ni14  1  0.23707200  0.92001500  0.78252700  1
  Ni  Ni15  1  0.73707200  0.07998500  0.71747300  1
  Cu  Cu16  1  0.58543200  0.66201200  0.50742600  1
  Cu  Cu17  1  0.08543200  0.33798800  0.99257400  1
  Cu  Cu18  1  0.41456800  0.33798800  0.49257400  1
  Cu  Cu19  1  0.91456800  0.66201200  0.00742600  1
  Cu  Cu20  1  0.66754900  0.29590200  0.49377300  1
  Cu  Cu21  1  0.16754900  0.70409800  0.00622700  1
  Cu  Cu22  1  0.33245100  0.70409800  0.50622700  1
  Cu  Cu23  1  0.83245100  0.29590200  0.99377300  1
  Cu  Cu24  1  0.68073900  0.69542800  0.36845500  1
  Cu  Cu25  1  0.18073900  0.30457200  0.13154500  1
  Cu  Cu26  1  0.31926100  0.30457200  0.63154500  1
  Cu  Cu27  1  0.81926100  0.69542800  0.86845500  1
  Cu  Cu28  1  0.54559800  0.17984500  0.32788600  1
  Cu  Cu29  1  0.04559800  0.82015500  0.17211400  1
  Cu  Cu30  1  0.45440200  0.82015500  0.67211400  1
  Cu  Cu31  1  0.95440200  0.17984500  0.82788600  1
  Cu  Cu32  1  0.44957500  0.19014100  0.18846000  1
  Cu  Cu33  1  0.94957500  0.80985900  0.31154000  1
  Cu  Cu34  1  0.55042500  0.80985900  0.81154000  1
  Cu  Cu35  1  0.05042500  0.19014100  0.68846000  1
  Cu  Cu36  1  0.46137900  0.81777900  0.32686100  1
  Cu  Cu37  1  0.96137900  0.18222100  0.17313900  1
  Cu  Cu38  1  0.53862100  0.18222100  0.67313900  1
  Cu  Cu39  1  0.03862100  0.81777900  0.82686100  1
  Cu  Cu40  1  0.66185300  0.64506000  0.99117600  1
  Cu  Cu41  1  0.16185300  0.35494000  0.50882400  1
  Cu  Cu42  1  0.33814700  0.35494000  0.00882400  1
  Cu  Cu43  1  0.83814700  0.64506000  0.49117600  1
  Cu  Cu44  1  0.58257800  0.26884600  0.00055100  1
  Cu  Cu45  1  0.08257800  0.73115400  0.49944900  1
  Cu  Cu46  1  0.41742200  0.73115400  0.99944900  1
  Cu  Cu47  1  0.91742200  0.26884600  0.50055100  1
  Cu  Cu48  1  0.56995500  0.64090700  0.13902000  1
  Cu  Cu49  1  0.06995500  0.35909300  0.36098000  1
  Cu  Cu50  1  0.43004500  0.35909300  0.86098000  1
  Cu  Cu51  1  0.93004500  0.64090700  0.63902000  1
  Cu  Cu52  1  0.79634300  0.24078100  0.30149100  1
  Cu  Cu53  1  0.29634300  0.75921900  0.19850900  1
  Cu  Cu54  1  0.20365700  0.75921900  0.69850900  1
  Cu  Cu55  1  0.70365700  0.24078100  0.80149100  1
  Cu  Cu56  1  0.69771900  0.15521900  0.17300900  1
  Cu  Cu57  1  0.19771900  0.84478100  0.32699100  1
  Cu  Cu58  1  0.30228100  0.84478100  0.82699100  1
  Cu  Cu59  1  0.80228100  0.15521900  0.67300900  1
  Cu  Cu60  1  0.79390900  0.84173300  0.17733400  1
  Cu  Cu61  1  0.29390900  0.15826700  0.32266600  1
  Cu  Cu62  1  0.20609100  0.15826700  0.82266600  1
  Cu  Cu63  1  0.70609100  0.84173300  0.67733400  1
