# generated using pymatgen
data_Cu4NiC7
_symmetry_space_group_name_H-M   'P 1'
_cell_length_a   6.72078640
_cell_length_b   6.72078640
_cell_length_c   6.72078640
_cell_angle_alpha   110.80195787
_cell_angle_beta   110.80195787
_cell_angle_gamma   106.84132451
_symmetry_Int_Tables_number   1
_chemical_formula_structural   Cu4NiC7
_chemical_formula_sum   'Cu8 Ni2 C14'
_cell_volume   233.32193889
_cell_formula_units_Z   2
loop_
 _symmetry_equiv_pos_site_id
 _symmetry_equiv_pos_as_xyz
  1  'x, y, z'
loop_
 _atom_site_type_symbol
 _atom_site_label
 _atom_site_symmetry_multiplicity
 _atom_site_fract_x
 _atom_site_fract_y
 _atom_site_fract_z
 _atom_site_occupancy
  C  C0  1  0.75000000  0.25000000  0.50000000  1
  C  C1  1  0.00000000  0.00000000  0.00000000  1
  C  C2  1  0.21158100  0.80748900  0.37306300  1
  C  C3  1  0.31557500  0.44251100  0.90409200  1
  C  C4  1  0.43442500  0.83851700  0.62693700  1
  C  C5  1  0.53841900  0.41148300  0.09590800  1
  C  C6  1  0.16148300  0.78841900  0.59590800  1
  C  C7  1  0.55748900  0.46158100  0.87306300  1
  C  C8  1  0.19251100  0.56557500  0.40409200  1
  C  C9  1  0.58851700  0.68442500  0.12693700  1
  C  C10  1  0.71782700  0.12500000  0.09282700  1
  C  C11  1  0.03217300  0.62500000  0.90717300  1
  C  C12  1  0.37500000  0.28217300  0.40717300  1
  C  C13  1  0.87500000  0.96782700  0.59282700  1
  Ni  Ni14  1  0.25000000  0.75000000  0.50000000  1
  Ni  Ni15  1  0.50000000  0.50000000  0.00000000  1
  Cu  Cu16  1  0.70493300  0.27793900  0.24429500  1
  Cu  Cu17  1  0.71635500  0.97206100  0.92699400  1
  Cu  Cu18  1  0.03364500  0.46063800  0.75570500  1
  Cu  Cu19  1  0.04506700  0.78936200  0.07300600  1
  Cu  Cu20  1  0.53936200  0.29506700  0.57300600  1
  Cu  Cu21  1  0.02793900  0.95493300  0.74429500  1
  Cu  Cu22  1  0.72206100  0.96635500  0.42699400  1
  Cu  Cu23  1  0.21063800  0.28364500  0.25570500  1
