# generated using pymatgen
data_Cu7NiC12
_symmetry_space_group_name_H-M   'P 1'
_cell_length_a   9.27008723
_cell_length_b   9.27008723
_cell_length_c   9.27008723
_cell_angle_alpha   109.47996139
_cell_angle_beta   109.47308824
_cell_angle_gamma   109.46061287
_symmetry_Int_Tables_number   1
_chemical_formula_structural   Cu7NiC12
_chemical_formula_sum   'Cu14 Ni2 C24'
_cell_volume   613.23870715
_cell_formula_units_Z   2
loop_
 _symmetry_equiv_pos_site_id
 _symmetry_equiv_pos_as_xyz
  1  'x, y, z'
loop_
 _atom_site_type_symbol
 _atom_site_label
 _atom_site_symmetry_multiplicity
 _atom_site_fract_x
 _atom_site_fract_y
 _atom_site_fract_z
 _atom_site_occupancy
  Ni  Ni0  1  0.28275800  0.03275800  0.25000000  1
  Ni  Ni1  1  0.21724200  0.46724200  0.75000000  1
  Cu  Cu2  1  0.78266800  0.53266800  0.25000000  1
  Cu  Cu3  1  0.00002900  0.50007500  0.99997900  1
  Cu  Cu4  1  0.25000000  0.78268500  0.53268500  1
  Cu  Cu5  1  0.75000000  0.71731500  0.96731500  1
  Cu  Cu6  1  0.96740800  0.25000000  0.21740800  1
  Cu  Cu7  1  0.46725700  0.25000000  0.71725700  1
  Cu  Cu8  1  0.49997100  0.49995000  0.50004600  1
  Cu  Cu9  1  0.49990400  0.99992500  0.99995400  1
  Cu  Cu10  1  0.00009600  0.00005000  0.50002100  1
  Cu  Cu11  1  0.71733200  0.96733200  0.75000000  1
  Cu  Cu12  1  0.53259200  0.75000000  0.28259200  1
  Cu  Cu13  1  0.03274300  0.75000000  0.78274300  1
  Cu  Cu14  1  0.75000000  0.21738500  0.46738500  1
  Cu  Cu15  1  0.25000000  0.28261500  0.03261500  1
  C  C16  1  0.51112000  0.04274100  0.77197800  1
  C  C17  1  0.72923700  0.45725900  0.96838000  1
  C  C18  1  0.95755500  0.46843000  0.72925100  1
  C  C19  1  0.76080300  0.77197700  0.22922000  1
  C  C20  1  0.54244500  0.27169600  0.51087500  1
  C  C21  1  0.73919700  0.96841800  0.01117500  1
  C  C22  1  0.77076300  0.73914300  0.72802200  1
  C  C23  1  0.98888000  0.76085700  0.53162000  1
  C  C24  1  0.22807200  0.98887400  0.45693100  1
  C  C25  1  0.96841400  0.22923600  0.95729200  1
  C  C26  1  0.72805600  0.27076400  0.23917900  1
  C  C27  1  0.46805600  0.51112600  0.73919800  1
  C  C28  1  0.53158600  0.48887800  0.26082100  1
  C  C29  1  0.77194400  0.01112200  0.54270800  1
  C  C30  1  0.27192800  0.72885900  0.76080200  1
  C  C31  1  0.03194400  0.77114100  0.04306900  1
  C  C32  1  0.01154600  0.23967400  0.46899400  1
  C  C33  1  0.22932100  0.26032600  0.27187200  1
  C  C34  1  0.45724300  0.72802300  0.48882500  1
  C  C35  1  0.26082100  0.03157000  0.98912500  1
  C  C36  1  0.04275700  0.53158200  0.27078000  1
  C  C37  1  0.23917900  0.22830400  0.77074900  1
  C  C38  1  0.48845400  0.95744800  0.22812800  1
  C  C39  1  0.27067900  0.54255200  0.03100600  1
