# generated using pymatgen
data_CuNi2C21
_symmetry_space_group_name_H-M   'P 1'
_cell_length_a   13.95492600
_cell_length_b   5.23293800
_cell_length_c   9.13395563
_cell_angle_alpha   75.23648735
_cell_angle_beta   90.00000000
_cell_angle_gamma   90.00000000
_symmetry_Int_Tables_number   1
_chemical_formula_structural   CuNi2C21
_chemical_formula_sum   'Cu2 Ni4 C42'
_cell_volume   644.98876712
_cell_formula_units_Z   2
loop_
 _symmetry_equiv_pos_site_id
 _symmetry_equiv_pos_as_xyz
  1  'x, y, z'
loop_
 _atom_site_type_symbol
 _atom_site_label
 _atom_site_symmetry_multiplicity
 _atom_site_fract_x
 _atom_site_fract_y
 _atom_site_fract_z
 _atom_site_occupancy
  Ni  Ni0  1  0.90116700  0.41057200  0.14489500  1
  Ni  Ni1  1  0.59883300  0.41057200  0.14489500  1
  Ni  Ni2  1  0.40116700  0.58942800  0.85510500  1
  Ni  Ni3  1  0.09883300  0.58942800  0.85510500  1
  Cu  Cu4  1  0.25000000  0.47384600  0.16972700  1
  Cu  Cu5  1  0.75000000  0.52615400  0.83027300  1
  C  C6  1  0.00000000  0.00000000  0.50000000  1
  C  C7  1  0.50000000  0.00000000  0.50000000  1
  C  C8  1  0.35597500  0.49024300  0.48848400  1
  C  C9  1  0.14402500  0.49024300  0.48848400  1
  C  C10  1  0.92203100  0.14784300  0.81381000  1
  C  C11  1  0.57796900  0.14784300  0.81381000  1
  C  C12  1  0.25000000  0.03853400  0.99828100  1
  C  C13  1  0.75000000  0.96146600  0.00171900  1
  C  C14  1  0.42203100  0.85215700  0.18619000  1
  C  C15  1  0.07796900  0.85215700  0.18619000  1
  C  C16  1  0.64402500  0.50975700  0.51151600  1
  C  C17  1  0.85597500  0.50975700  0.51151600  1
  C  C18  1  0.75000000  0.44408800  0.46395000  1
  C  C19  1  0.95918400  0.29519400  0.92203400  1
  C  C20  1  0.54081600  0.29519400  0.92203400  1
  C  C21  1  0.25000000  0.28124800  0.87139100  1
  C  C22  1  0.85343300  0.35587300  0.69315100  1
  C  C23  1  0.64656700  0.35587300  0.69315100  1
  C  C24  1  0.57795100  0.37801300  0.42341300  1
  C  C25  1  0.92204900  0.37801300  0.42341300  1
  C  C26  1  0.36565600  0.20319700  0.49425600  1
  C  C27  1  0.13434400  0.20319700  0.49425600  1
  C  C28  1  0.98896400  0.00399400  0.73471800  1
  C  C29  1  0.51103600  0.00399400  0.73471800  1
  C  C30  1  0.83983000  0.93000000  0.89138200  1
  C  C31  1  0.66017000  0.93000000  0.89138200  1
  C  C32  1  0.75000000  0.23998500  0.02130900  1
  C  C33  1  0.25000000  0.76001500  0.97869100  1
  C  C34  1  0.33983000  0.07000000  0.10861800  1
  C  C35  1  0.16017000  0.07000000  0.10861800  1
  C  C36  1  0.48896400  0.99600600  0.26528200  1
  C  C37  1  0.01103600  0.99600600  0.26528200  1
  C  C38  1  0.86565600  0.79680300  0.50574400  1
  C  C39  1  0.63434400  0.79680300  0.50574400  1
  C  C40  1  0.42204900  0.62198700  0.57658700  1
  C  C41  1  0.07795100  0.62198700  0.57658700  1
  C  C42  1  0.35343300  0.64412700  0.30684900  1
  C  C43  1  0.14656700  0.64412700  0.30684900  1
  C  C44  1  0.75000000  0.71875200  0.12860900  1
  C  C45  1  0.45918400  0.70480600  0.07796600  1
  C  C46  1  0.04081600  0.70480600  0.07796600  1
  C  C47  1  0.25000000  0.55591200  0.53605000  1
