# generated using pymatgen
data_Cu3NiC5
_symmetry_space_group_name_H-M   'P 1'
_cell_length_a   10.51352200
_cell_length_b   6.88488300
_cell_length_c   13.58158079
_cell_angle_alpha   63.57358249
_cell_angle_beta   90.00000000
_cell_angle_gamma   90.00000000
_symmetry_Int_Tables_number   1
_chemical_formula_structural   Cu3NiC5
_chemical_formula_sum   'Cu24 Ni8 C40'
_cell_volume   880.36735863
_cell_formula_units_Z   8
loop_
 _symmetry_equiv_pos_site_id
 _symmetry_equiv_pos_as_xyz
  1  'x, y, z'
loop_
 _atom_site_type_symbol
 _atom_site_label
 _atom_site_symmetry_multiplicity
 _atom_site_fract_x
 _atom_site_fract_y
 _atom_site_fract_z
 _atom_site_occupancy
  C  C0  1  0.82258400  0.81340500  0.71203000  1
  C  C1  1  0.32258400  0.18659500  0.78797000  1
  C  C2  1  0.17741600  0.18659500  0.28797000  1
  C  C3  1  0.67741600  0.81340500  0.21203000  1
  C  C4  1  0.83636000  0.31697100  0.43077000  1
  C  C5  1  0.33636000  0.68302900  0.06923000  1
  C  C6  1  0.16364000  0.68302900  0.56923000  1
  C  C7  1  0.66364000  0.31697100  0.93077000  1
  C  C8  1  0.02710600  0.74986100  0.18321300  1
  C  C9  1  0.52710600  0.25013900  0.31678700  1
  C  C10  1  0.97289400  0.25013900  0.81678700  1
  C  C11  1  0.47289400  0.74986100  0.68321300  1
  C  C12  1  0.12370900  0.20494800  0.02109400  1
  C  C13  1  0.62370900  0.79505200  0.47890600  1
  C  C14  1  0.87629100  0.79505200  0.97890600  1
  C  C15  1  0.37629100  0.20494800  0.52109400  1
  C  C16  1  0.96047700  0.42937300  0.92486300  1
  C  C17  1  0.46047700  0.57062700  0.57513700  1
  C  C18  1  0.03952300  0.57062700  0.07513700  1
  C  C19  1  0.53952300  0.42937300  0.42486300  1
  C  C20  1  0.95730700  0.08958800  0.14373800  1
  C  C21  1  0.45730700  0.91041200  0.35626200  1
  C  C22  1  0.04269300  0.91041200  0.85626200  1
  C  C23  1  0.54269300  0.08958800  0.64373800  1
  C  C24  1  0.11002100  0.13290200  0.55034700  1
  C  C25  1  0.61002100  0.86709800  0.94965300  1
  C  C26  1  0.88997900  0.86709800  0.44965300  1
  C  C27  1  0.38997900  0.13290200  0.05034700  1
  C  C28  1  0.04127800  0.18353900  0.63849600  1
  C  C29  1  0.54127800  0.81646100  0.86150400  1
  C  C30  1  0.95872200  0.81646100  0.36150400  1
  C  C31  1  0.45872200  0.18353900  0.13849600  1
  C  C32  1  0.18482400  0.63144600  0.91672400  1
  C  C33  1  0.68482400  0.36855400  0.58327600  1
  C  C34  1  0.81517600  0.36855400  0.08327600  1
  C  C35  1  0.31517600  0.63144600  0.41672400  1
  C  C36  1  0.25758000  0.72429100  0.80469900  1
  C  C37  1  0.75758000  0.27570900  0.69530100  1
  C  C38  1  0.74242000  0.27570900  0.19530100  1
  C  C39  1  0.24242000  0.72429100  0.30469900  1
  Ni  Ni40  1  0.02010100  0.31750000  0.91611400  1
  Ni  Ni41  1  0.52010100  0.68250000  0.58388600  1
  Ni  Ni42  1  0.97989900  0.68250000  0.08388600  1
  Ni  Ni43  1  0.47989900  0.31750000  0.41611400  1
  Ni  Ni44  1  0.03907000  0.02308800  0.12930900  1
  Ni  Ni45  1  0.53907000  0.97691200  0.37069100  1
  Ni  Ni46  1  0.96093000  0.97691200  0.87069100  1
  Ni  Ni47  1  0.46093000  0.02308800  0.62930900  1
  Cu  Cu48  1  0.15531100  0.63977600  0.22018700  1
  Cu  Cu49  1  0.65531100  0.36022400  0.27981300  1
  Cu  Cu50  1  0.84468900  0.36022400  0.77981300  1
  Cu  Cu51  1  0.34468900  0.63977600  0.72018700  1
  Cu  Cu52  1  0.92512900  0.69570600  0.27100700  1
  Cu  Cu53  1  0.42512900  0.30429400  0.22899300  1
  Cu  Cu54  1  0.07487100  0.30429400  0.72899300  1
  Cu  Cu55  1  0.57487100  0.69570600  0.77100700  1
  Cu  Cu56  1  0.23013500  0.08763700  0.99507200  1
  Cu  Cu57  1  0.73013500  0.91236300  0.50492800  1
  Cu  Cu58  1  0.76986500  0.91236300  0.00492800  1
  Cu  Cu59  1  0.26986500  0.08763700  0.49507200  1
  Cu  Cu60  1  0.15933600  0.38898900  0.04959000  1
  Cu  Cu61  1  0.65933600  0.61101100  0.45041000  1
  Cu  Cu62  1  0.84066400  0.61101100  0.95041000  1
  Cu  Cu63  1  0.34066400  0.38898900  0.54959000  1
  Cu  Cu64  1  0.02571400  0.12902400  0.58278900  1
  Cu  Cu65  1  0.52571400  0.87097600  0.91721100  1
  Cu  Cu66  1  0.97428600  0.87097600  0.41721100  1
  Cu  Cu67  1  0.47428600  0.12902400  0.08278900  1
  Cu  Cu68  1  0.21357000  0.76972700  0.85609800  1
  Cu  Cu69  1  0.71357000  0.23027300  0.64390200  1
  Cu  Cu70  1  0.78643000  0.23027300  0.14390200  1
  Cu  Cu71  1  0.28643000  0.76972700  0.35609800  1
