# generated using pymatgen
data_Cu2NiC2
_symmetry_space_group_name_H-M   'P 1'
_cell_length_a   8.90951400
_cell_length_b   8.83524541
_cell_length_c   8.92245245
_cell_angle_alpha   109.41352108
_cell_angle_beta   109.55191219
_cell_angle_gamma   109.19499049
_symmetry_Int_Tables_number   1
_chemical_formula_structural   Cu2NiC2
_chemical_formula_sum   'Cu16 Ni8 C16'
_cell_volume   542.35254277
_cell_formula_units_Z   8
loop_
 _symmetry_equiv_pos_site_id
 _symmetry_equiv_pos_as_xyz
  1  'x, y, z'
loop_
 _atom_site_type_symbol
 _atom_site_label
 _atom_site_symmetry_multiplicity
 _atom_site_fract_x
 _atom_site_fract_y
 _atom_site_fract_z
 _atom_site_occupancy
  C  C0  1  0.71954200  0.18206700  0.04542200  1
  C  C1  1  0.96045900  0.95557300  0.03874800  1
  C  C2  1  0.53544500  0.02893500  0.49133400  1
  C  C3  1  0.49041700  0.51747900  0.99676800  1
  C  C4  1  0.99553700  0.75055900  0.26353100  1
  C  C5  1  0.45810400  0.70574400  0.75008500  1
  C  C6  1  0.36094300  0.08734800  0.68873400  1
  C  C7  1  0.28846400  0.49768100  0.23165900  1
  C  C8  1  0.26502400  0.21699400  0.50255600  1
  C  C9  1  0.76977700  0.80183100  0.47418100  1
  C  C10  1  0.64928400  0.42871400  0.80793500  1
  C  C11  1  0.68577200  0.98028400  0.26915500  1
  C  C12  1  0.01240700  0.55116600  0.48245700  1
  C  C13  1  0.52911000  0.28066000  0.24830500  1
  C  C14  1  0.93933800  0.19110400  0.76473000  1
  C  C15  1  0.28329300  0.81375600  0.97893600  1
  Ni  Ni16  1  0.78736600  0.04196100  0.47854400  1
  Ni  Ni17  1  0.19589600  0.95171700  0.04377100  1
  Ni  Ni18  1  0.46218400  0.00847500  0.26851400  1
  Ni  Ni19  1  0.55883600  0.29612400  0.46396100  1
  Ni  Ni20  1  0.99504000  0.22098800  0.02363600  1
  Ni  Ni21  1  0.77169700  0.55423700  0.49173300  1
  Ni  Ni22  1  0.45416300  0.72724900  0.00898300  1
  Ni  Ni23  1  0.48725100  0.48535600  0.26673500  1
  Cu  Cu24  1  0.23575400  0.69697900  0.26137100  1
  Cu  Cu25  1  0.30055500  0.24199700  0.22790400  1
  Cu  Cu26  1  0.00077000  0.05705500  0.21913800  1
  Cu  Cu27  1  0.16876500  0.69362800  0.77932400  1
  Cu  Cu28  1  0.51128800  0.47885900  0.73313400  1
  Cu  Cu29  1  0.56543800  0.30368500  0.99057300  1
  Cu  Cu30  1  0.22538100  0.44926500  0.50158900  1
  Cu  Cu31  1  0.81441900  0.30630400  0.23268900  1
  Cu  Cu32  1  0.99391200  0.95864100  0.77769900  1
  Cu  Cu33  1  0.04722600  0.80228800  0.95445500  1
  Cu  Cu34  1  0.40358800  0.67297200  0.54375600  1
  Cu  Cu35  1  0.71607500  0.75616500  0.75541200  1
  Cu  Cu36  1  0.55310500  0.00320200  0.73099800  1
  Cu  Cu37  1  0.84477200  0.09106700  0.94005700  1
  Cu  Cu38  1  0.16025400  0.87279400  0.55726300  1
  Cu  Cu39  1  0.80334900  0.33909700  0.71422300  1
