# generated using pymatgen
data_Cu2Ni3C23
_symmetry_space_group_name_H-M   'P 1'
_cell_length_a   5.90760436
_cell_length_b   5.90760436
_cell_length_c   9.65178665
_cell_angle_alpha   89.83414023
_cell_angle_beta   89.83414023
_cell_angle_gamma   59.49062151
_symmetry_Int_Tables_number   1
_chemical_formula_structural   Cu2Ni3C23
_chemical_formula_sum   'Cu2 Ni3 C23'
_cell_volume   290.20614915
_cell_formula_units_Z   1
loop_
 _symmetry_equiv_pos_site_id
 _symmetry_equiv_pos_as_xyz
  1  'x, y, z'
loop_
 _atom_site_type_symbol
 _atom_site_label
 _atom_site_symmetry_multiplicity
 _atom_site_fract_x
 _atom_site_fract_y
 _atom_site_fract_z
 _atom_site_occupancy
  C  C0  1  0.82673800  0.33503200  0.20747900  1
  C  C1  1  0.67390300  0.67390300  0.90315300  1
  C  C2  1  0.99304600  0.99304600  0.99768500  1
  C  C3  1  0.99821900  0.99821900  0.48416000  1
  C  C4  1  0.33503200  0.82673800  0.20747900  1
  C  C5  1  0.17062600  0.17062600  0.71517000  1
  C  C6  1  0.33379100  0.33379100  0.40841100  1
  Ni  Ni7  1  0.82114100  0.82114100  0.23285700  1
  Ni  Ni8  1  0.66009400  0.16333300  0.71660200  1
  Ni  Ni9  1  0.16333300  0.66009400  0.71660200  1
  Cu  Cu10  1  0.64683900  0.64683900  0.48495900  1
  Cu  Cu11  1  0.32859100  0.32859100  0.99237700  1
  C  C12  1  0.82795600  0.33760900  0.59016000  1
  C  C13  1  0.51722500  0.51722500  0.35632000  1
  C  C14  1  0.69233800  0.69233800  0.11200800  1
  C  C15  1  0.98338300  0.98338300  0.29223900  1
  C  C16  1  0.99295500  0.99295500  0.80520800  1
  C  C17  1  0.33760900  0.82795600  0.59016000  1
  C  C18  1  0.96143500  0.53804900  0.35560600  1
  C  C19  1  0.53804900  0.96143500  0.35560600  1
  C  C20  1  0.16907200  0.16907200  0.07331000  1
  C  C21  1  0.83480500  0.83480500  0.60323200  1
  C  C22  1  0.50141800  0.04340300  0.84228300  1
  C  C23  1  0.04340300  0.50141800  0.84228300  1
  C  C24  1  0.34482800  0.34482800  0.61208600  1
  C  C25  1  0.64925700  0.17166800  0.08863200  1
  C  C26  1  0.48345000  0.48345000  0.83312300  1
  C  C27  1  0.17166800  0.64925700  0.08863200  1
