# generated using pymatgen
data_Cu3Ni13C8
_symmetry_space_group_name_H-M   'P 1'
_cell_length_a   5.97357800
_cell_length_b   4.52668400
_cell_length_c   9.34988514
_cell_angle_alpha   85.87592186
_cell_angle_beta   90.00000000
_cell_angle_gamma   90.00000000
_symmetry_Int_Tables_number   1
_chemical_formula_structural   Cu3Ni13C8
_chemical_formula_sum   'Cu3 Ni13 C8'
_cell_volume   252.17091442
_cell_formula_units_Z   1
loop_
 _symmetry_equiv_pos_site_id
 _symmetry_equiv_pos_as_xyz
  1  'x, y, z'
loop_
 _atom_site_type_symbol
 _atom_site_label
 _atom_site_symmetry_multiplicity
 _atom_site_fract_x
 _atom_site_fract_y
 _atom_site_fract_z
 _atom_site_occupancy
  C  C0  1  0.00000000  0.00348500  0.00071800  1
  C  C1  1  0.75069100  0.53919900  0.26436300  1
  C  C2  1  0.50000000  0.97005000  0.98667400  1
  C  C3  1  0.00000000  0.01007900  0.50493900  1
  C  C4  1  0.74266800  0.47283900  0.73970200  1
  C  C5  1  0.24930900  0.53919900  0.26436300  1
  C  C6  1  0.50000000  0.00327800  0.50090400  1
  C  C7  1  0.25733200  0.47283900  0.73970200  1
  Ni  Ni8  1  0.75103200  0.78352900  0.08988500  1
  Ni  Ni9  1  0.74806800  0.20592900  0.90766400  1
  Ni  Ni10  1  0.00000000  0.74082200  0.34002600  1
  Ni  Ni11  1  0.25193200  0.20592900  0.90766400  1
  Ni  Ni12  1  0.75135600  0.22375300  0.41564900  1
  Ni  Ni13  1  0.50000000  0.73700500  0.34347000  1
  Ni  Ni14  1  0.24896800  0.78352900  0.08988500  1
  Ni  Ni15  1  0.75036800  0.77925100  0.58338500  1
  Ni  Ni16  1  0.00000000  0.26840300  0.66140600  1
  Ni  Ni17  1  0.24963200  0.77925100  0.58338500  1
  Ni  Ni18  1  0.50000000  0.27210500  0.66116200  1
  Ni  Ni19  1  0.24864400  0.22375300  0.41564900  1
  Ni  Ni20  1  0.50000000  0.67542200  0.82345600  1
  Cu  Cu21  1  0.00000000  0.30827000  0.17193000  1
  Cu  Cu22  1  0.00000000  0.68513600  0.82813900  1
  Cu  Cu23  1  0.50000000  0.31694700  0.17588000  1
