# generated using pymatgen
data_Cu4NiC14
_symmetry_space_group_name_H-M   'P 1'
_cell_length_a   12.76626000
_cell_length_b   7.71606100
_cell_length_c   11.48594408
_cell_angle_alpha   62.97494648
_cell_angle_beta   90.00000000
_cell_angle_gamma   90.00000000
_symmetry_Int_Tables_number   1
_chemical_formula_structural   Cu4NiC14
_chemical_formula_sum   'Cu16 Ni4 C56'
_cell_volume   1007.88296870
_cell_formula_units_Z   4
loop_
 _symmetry_equiv_pos_site_id
 _symmetry_equiv_pos_as_xyz
  1  'x, y, z'
loop_
 _atom_site_type_symbol
 _atom_site_label
 _atom_site_symmetry_multiplicity
 _atom_site_fract_x
 _atom_site_fract_y
 _atom_site_fract_z
 _atom_site_occupancy
  C  C0  1  0.06286200  0.55563500  0.59445800  1
  C  C1  1  0.71068500  0.00689300  0.11843200  1
  C  C2  1  0.56286200  0.44436500  0.90554200  1
  C  C3  1  0.21068500  0.99310700  0.38156800  1
  C  C4  1  0.78931500  0.00689300  0.61843200  1
  C  C5  1  0.43713800  0.55563500  0.09445800  1
  C  C6  1  0.28931500  0.99310700  0.88156800  1
  C  C7  1  0.93713800  0.44436500  0.40554200  1
  Ni  Ni8  1  0.14634100  0.25053700  0.98781500  1
  Ni  Ni9  1  0.64634100  0.74946300  0.51218500  1
  Ni  Ni10  1  0.35365900  0.25053700  0.48781500  1
  Ni  Ni11  1  0.85365900  0.74946300  0.01218500  1
  Cu  Cu12  1  0.81249900  0.39754500  0.68037000  1
  Cu  Cu13  1  0.41674500  0.54912900  0.60860700  1
  Cu  Cu14  1  0.33556800  0.90839700  0.15389400  1
  Cu  Cu15  1  0.91674500  0.45087100  0.89139300  1
  Cu  Cu16  1  0.93912600  0.07007000  0.12889600  1
  Cu  Cu17  1  0.31249900  0.60245500  0.81963000  1
  Cu  Cu18  1  0.43912600  0.92993000  0.37110400  1
  Cu  Cu19  1  0.83556800  0.09160300  0.34610600  1
  Cu  Cu20  1  0.16443200  0.90839700  0.65389400  1
  Cu  Cu21  1  0.56087400  0.07007000  0.62889600  1
  Cu  Cu22  1  0.68750100  0.39754500  0.18037000  1
  Cu  Cu23  1  0.06087400  0.92993000  0.87110400  1
  Cu  Cu24  1  0.08325500  0.54912900  0.10860700  1
  Cu  Cu25  1  0.66443200  0.09160300  0.84610600  1
  Cu  Cu26  1  0.58325500  0.45087100  0.39139300  1
  Cu  Cu27  1  0.18750100  0.60245500  0.31963000  1
  C  C28  1  0.63496700  0.21517800  0.91136200  1
  C  C29  1  0.36365800  0.36730300  0.62214100  1
  C  C30  1  0.90492200  0.40624400  0.59602100  1
  C  C31  1  0.84600800  0.34847200  0.82516300  1
  C  C32  1  0.25115200  0.80693800  0.27767100  1
  C  C33  1  0.85598500  0.93121600  0.12903000  1
  C  C34  1  0.52769900  0.54885000  0.65119900  1
  C  C35  1  0.73870000  0.56529500  0.63758600  1
  C  C36  1  0.23870000  0.43470500  0.86241400  1
  C  C37  1  0.02769900  0.45115000  0.84880100  1
  C  C38  1  0.40104600  0.71086200  0.45986800  1
  C  C39  1  0.34600800  0.65152800  0.67483700  1
  C  C40  1  0.05120600  0.04265900  0.10019500  1
  C  C41  1  0.43753900  0.93033700  0.23000600  1
  C  C42  1  0.79222000  0.89494100  0.43419000  1
  C  C43  1  0.29222000  0.10505900  0.06581000  1
  C  C44  1  0.93753900  0.06966300  0.26999400  1
  C  C45  1  0.40492200  0.59375600  0.90397900  1
  C  C46  1  0.86365800  0.63269700  0.87785900  1
  C  C47  1  0.55120600  0.95734100  0.39980500  1
  C  C48  1  0.13496700  0.78482200  0.58863800  1
  C  C49  1  0.90104600  0.28913800  0.04013200  1
  C  C50  1  0.24884800  0.80693800  0.77767100  1
  C  C51  1  0.64401500  0.93121600  0.62903000  1
  C  C52  1  0.35598500  0.06878400  0.37097000  1
  C  C53  1  0.75115200  0.19306200  0.22232900  1
  C  C54  1  0.09895400  0.71086200  0.95986800  1
  C  C55  1  0.86503300  0.21517800  0.41136200  1
  C  C56  1  0.44879400  0.04265900  0.60019500  1
  C  C57  1  0.13634200  0.36730300  0.12214100  1
  C  C58  1  0.59507800  0.40624400  0.09602100  1
  C  C59  1  0.06246100  0.93033700  0.73000600  1
  C  C60  1  0.70778000  0.89494100  0.93419000  1
  C  C61  1  0.20778000  0.10505900  0.56581000  1
  C  C62  1  0.56246100  0.06966300  0.76999400  1
  C  C63  1  0.94879400  0.95734100  0.89980500  1
  C  C64  1  0.65399200  0.34847200  0.32516300  1
  C  C65  1  0.59895400  0.28913800  0.54013200  1
  C  C66  1  0.97230100  0.54885000  0.15119900  1
  C  C67  1  0.76130000  0.56529500  0.13758600  1
  C  C68  1  0.26130000  0.43470500  0.36241400  1
  C  C69  1  0.47230100  0.45115000  0.34880100  1
  C  C70  1  0.14401500  0.06878400  0.87097000  1
  C  C71  1  0.74884800  0.19306200  0.72232900  1
  C  C72  1  0.15399200  0.65152800  0.17483700  1
  C  C73  1  0.09507800  0.59375600  0.40397900  1
  C  C74  1  0.63634200  0.63269700  0.37785900  1
  C  C75  1  0.36503300  0.78482200  0.08863800  1
