# generated using pymatgen
data_CuNi5C34
_symmetry_space_group_name_H-M   'P 1'
_cell_length_a   8.72833600
_cell_length_b   8.74463387
_cell_length_c   8.75535174
_cell_angle_alpha   62.25192472
_cell_angle_beta   62.43713539
_cell_angle_gamma   62.77152400
_symmetry_Int_Tables_number   1
_chemical_formula_structural   CuNi5C34
_chemical_formula_sum   'Cu1 Ni5 C34'
_cell_volume   498.70339819
_cell_formula_units_Z   1
loop_
 _symmetry_equiv_pos_site_id
 _symmetry_equiv_pos_as_xyz
  1  'x, y, z'
loop_
 _atom_site_type_symbol
 _atom_site_label
 _atom_site_symmetry_multiplicity
 _atom_site_fract_x
 _atom_site_fract_y
 _atom_site_fract_z
 _atom_site_occupancy
  C  C0  1  0.74626100  0.15347300  0.35416200  1
  C  C1  1  0.29807500  0.84673200  0.64834500  1
  C  C2  1  0.63789800  0.29949200  0.84956900  1
  C  C3  1  0.84869100  0.64076100  0.30381800  1
  Ni  Ni4  1  0.02113100  0.00280400  0.00153100  1
  Ni  Ni5  1  0.34692800  0.35187800  0.34926000  1
  Ni  Ni6  1  0.48703800  0.50522400  0.50001800  1
  Ni  Ni7  1  0.15248500  0.15402200  0.15117800  1
  Ni  Ni8  1  0.65551900  0.65780700  0.66066500  1
  C  C9  1  0.05571500  0.74314000  0.44166800  1
  C  C10  1  0.44188000  0.05417000  0.74854400  1
  C  C11  1  0.74724800  0.43806700  0.05330500  1
  C  C12  1  0.24709500  0.55419500  0.94597700  1
  C  C13  1  0.56298500  0.94974600  0.25042400  1
  C  C14  1  0.93247300  0.24415400  0.54761400  1
  Cu  Cu15  1  0.85331400  0.84661900  0.85258300  1
  C  C16  1  0.46423500  0.90739700  0.68181600  1
  C  C17  1  0.67679500  0.46336300  0.90955400  1
  C  C18  1  0.91183300  0.66699900  0.47327700  1
  C  C19  1  0.05524300  0.90900600  0.26480400  1
  C  C20  1  0.00039300  0.80356000  0.60884500  1
  C  C21  1  0.24512000  0.60072800  0.43115200  1
  C  C22  1  0.25571500  0.07990300  0.89878300  1
  C  C23  1  0.45708100  0.23452300  0.58891200  1
  C  C24  1  0.16703800  0.41411400  0.98687500  1
  C  C25  1  0.60572500  0.43096500  0.24535000  1
  C  C26  1  0.10396100  0.75807700  0.90480900  1
  C  C27  1  0.40465800  0.00957600  0.18792200  1
  C  C28  1  0.59961200  0.98970600  0.82346600  1
  C  C29  1  0.89804600  0.25121800  0.07579600  1
  C  C30  1  0.40364900  0.56858400  0.75588900  1
  C  C31  1  0.81569800  0.60139200  0.99214400  1
  C  C32  1  0.57277700  0.75918300  0.40462900  1
  C  C33  1  0.75812300  0.90365500  0.09641600  1
  C  C34  1  0.75032200  0.40442600  0.57433500  1
  C  C35  1  0.94108900  0.17745900  0.40990000  1
  C  C36  1  0.90525400  0.09426000  0.74950000  1
  C  C37  1  0.10254500  0.28418000  0.50216000  1
  C  C38  1  0.30373200  0.52792800  0.09815500  1
  C  C39  1  0.56662200  0.09451500  0.29985100  1
