# generated using pymatgen
data_Cu3Ni3C22
_symmetry_space_group_name_H-M   'P 1'
_cell_length_a   5.97486612
_cell_length_b   5.97486612
_cell_length_c   9.75196826
_cell_angle_alpha   88.85386716
_cell_angle_beta   88.85386716
_cell_angle_gamma   58.94384210
_symmetry_Int_Tables_number   1
_chemical_formula_structural   Cu3Ni3C22
_chemical_formula_sum   'Cu3 Ni3 C22'
_cell_volume   298.15597798
_cell_formula_units_Z   1
loop_
 _symmetry_equiv_pos_site_id
 _symmetry_equiv_pos_as_xyz
  1  'x, y, z'
loop_
 _atom_site_type_symbol
 _atom_site_label
 _atom_site_symmetry_multiplicity
 _atom_site_fract_x
 _atom_site_fract_y
 _atom_site_fract_z
 _atom_site_occupancy
  C  C0  1  0.65971800  0.65971800  0.90490500  1
  C  C1  1  0.99768600  0.99768600  0.98599900  1
  C  C2  1  0.00697200  0.00697200  0.49179700  1
  C  C3  1  0.33962500  0.33962500  0.41327800  1
  Ni  Ni4  1  0.83509000  0.33957800  0.21545900  1
  Ni  Ni5  1  0.33957800  0.83509000  0.21545900  1
  Ni  Ni6  1  0.17248600  0.17248600  0.71517200  1
  Cu  Cu7  1  0.82904100  0.82904100  0.21334200  1
  Cu  Cu8  1  0.66357400  0.17151600  0.71226400  1
  Cu  Cu9  1  0.17151600  0.66357400  0.71226400  1
  C  C10  1  0.68320600  0.68320600  0.48927300  1
  C  C11  1  0.33356800  0.33356800  0.98200800  1
  C  C12  1  0.84266200  0.34824300  0.59186600  1
  C  C13  1  0.52480400  0.52480400  0.34529000  1
  C  C14  1  0.65942400  0.65942400  0.11171500  1
  C  C15  1  0.00182200  0.00182200  0.30272700  1
  C  C16  1  0.00740600  0.00740600  0.80075600  1
  C  C17  1  0.34824300  0.84266200  0.59186600  1
  C  C18  1  0.97025500  0.52260300  0.35736800  1
  C  C19  1  0.52260300  0.97025500  0.35736800  1
  C  C20  1  0.16177200  0.16177200  0.09207300  1
  C  C21  1  0.83384700  0.83384700  0.58956900  1
  C  C22  1  0.45954000  0.03283600  0.84345400  1
  C  C23  1  0.03283600  0.45954000  0.84345400  1
  C  C24  1  0.32893900  0.32893900  0.61304300  1
  C  C25  1  0.64546200  0.15270200  0.08075400  1
  C  C26  1  0.47558900  0.47558900  0.85461700  1
  C  C27  1  0.15270200  0.64546200  0.08075400  1
