# generated using pymatgen
data_Cu3NiC30
_symmetry_space_group_name_H-M   'P 1'
_cell_length_a   8.76962937
_cell_length_b   8.76962937
_cell_length_c   8.76962874
_cell_angle_alpha   58.36243938
_cell_angle_beta   58.36243938
_cell_angle_gamma   58.36244004
_symmetry_Int_Tables_number   1
_chemical_formula_structural   Cu3NiC30
_chemical_formula_sum   'Cu3 Ni1 C30'
_cell_volume   459.02276223
_cell_formula_units_Z   1
loop_
 _symmetry_equiv_pos_site_id
 _symmetry_equiv_pos_as_xyz
  1  'x, y, z'
loop_
 _atom_site_type_symbol
 _atom_site_label
 _atom_site_symmetry_multiplicity
 _atom_site_fract_x
 _atom_site_fract_y
 _atom_site_fract_z
 _atom_site_occupancy
  Ni  Ni0  1  0.14071300  0.14071300  0.14071300  1
  Cu  Cu1  1  0.85712300  0.85712300  0.85712300  1
  Cu  Cu2  1  0.64242000  0.64242000  0.64242000  1
  Cu  Cu3  1  0.35739100  0.35739100  0.35739100  1
  C  C4  1  0.53379900  0.96615900  0.24978300  1
  C  C5  1  0.24978300  0.53379900  0.96615900  1
  C  C6  1  0.96615900  0.24978300  0.53379900  1
  C  C7  1  0.03369200  0.74821200  0.46737800  1
  C  C8  1  0.74821200  0.46737800  0.03369200  1
  C  C9  1  0.46737800  0.03369200  0.74821200  1
  C  C10  1  0.48860500  0.86126600  0.72573800  1
  C  C11  1  0.86126600  0.72573800  0.48860500  1
  C  C12  1  0.71763200  0.93724700  0.07711200  1
  C  C13  1  0.72573800  0.48860500  0.86126600  1
  C  C14  1  0.55811500  0.78331000  0.42373600  1
  C  C15  1  0.35898400  0.99875600  0.21837200  1
  C  C16  1  0.07711200  0.71763200  0.93724700  1
  C  C17  1  0.42373600  0.55811500  0.78331000  1
  C  C18  1  0.78331000  0.42373600  0.55811500  1
  C  C19  1  0.00785600  0.77963800  0.63668700  1
  C  C20  1  0.06401300  0.92710400  0.28375400  1
  C  C21  1  0.77963800  0.63668700  0.00785600  1
  C  C22  1  0.21837200  0.35898400  0.99875600  1
  C  C23  1  0.93724700  0.07711200  0.71763200  1
  C  C24  1  0.99875600  0.21837200  0.35898400  1
  C  C25  1  0.21710400  0.57749800  0.43647100  1
  C  C26  1  0.57749800  0.43647100  0.21710400  1
  C  C27  1  0.92710400  0.28375400  0.06401300  1
  C  C28  1  0.63668700  0.00785600  0.77963800  1
  C  C29  1  0.43647100  0.21710400  0.57749800  1
  C  C30  1  0.27926500  0.50824800  0.13681800  1
  C  C31  1  0.28375400  0.06401300  0.92710400  1
  C  C32  1  0.13681800  0.27926500  0.50824800  1
  C  C33  1  0.50824800  0.13681800  0.27926500  1
