# generated using pymatgen
data_Cu5(NiC8)2
_symmetry_space_group_name_H-M   'P 1'
_cell_length_a   8.92785700
_cell_length_b   5.62101200
_cell_length_c   13.36082990
_cell_angle_alpha   65.64531535
_cell_angle_beta   90.00000000
_cell_angle_gamma   90.00000000
_symmetry_Int_Tables_number   1
_chemical_formula_structural   Cu5(NiC8)2
_chemical_formula_sum   'Cu10 Ni4 C32'
_cell_volume   610.82719633
_cell_formula_units_Z   2
loop_
 _symmetry_equiv_pos_site_id
 _symmetry_equiv_pos_as_xyz
  1  'x, y, z'
loop_
 _atom_site_type_symbol
 _atom_site_label
 _atom_site_symmetry_multiplicity
 _atom_site_fract_x
 _atom_site_fract_y
 _atom_site_fract_z
 _atom_site_occupancy
  C  C0  1  0.98916900  0.09432200  0.46250700  1
  C  C1  1  0.01083100  0.09432200  0.96250700  1
  Ni  Ni2  1  0.30278600  0.13897400  0.06905000  1
  Ni  Ni3  1  0.29607600  0.86954000  0.43686300  1
  Ni  Ni4  1  0.69721400  0.13897400  0.56905000  1
  Ni  Ni5  1  0.70392400  0.86954000  0.93686300  1
  Cu  Cu6  1  0.82508200  0.32179400  0.08540700  1
  Cu  Cu7  1  0.53279000  0.45879200  0.14426400  1
  Cu  Cu8  1  0.05214400  0.00236600  0.24976600  1
  Cu  Cu9  1  0.53202400  0.54152300  0.35773000  1
  Cu  Cu10  1  0.83006000  0.67347900  0.41304800  1
  Cu  Cu11  1  0.17491800  0.32179400  0.58540700  1
  Cu  Cu12  1  0.46721000  0.45879200  0.64426400  1
  Cu  Cu13  1  0.94785600  0.00236600  0.74976600  1
  Cu  Cu14  1  0.46797600  0.54152300  0.85773000  1
  Cu  Cu15  1  0.16994000  0.67347900  0.91304800  1
  C  C16  1  0.83629500  0.14501900  0.02786000  1
  C  C17  1  0.85064700  0.61152100  0.02720200  1
  C  C18  1  0.54395700  0.72077900  0.04548600  1
  C  C19  1  0.66281500  0.26366500  0.14351900  1
  C  C20  1  0.14519700  0.94103900  0.16933000  1
  C  C21  1  0.38732200  0.31227600  0.16394400  1
  C  C22  1  0.93801700  0.23905700  0.19022900  1
  C  C23  1  0.57994000  0.49537600  0.25184300  1
  C  C24  1  0.94083100  0.75935100  0.30714500  1
  C  C25  1  0.38880100  0.69107900  0.33750700  1
  C  C26  1  0.13191400  0.06867100  0.33567400  1
  C  C27  1  0.66600900  0.73097800  0.35791000  1
  C  C28  1  0.54240400  0.27945800  0.45707400  1
  C  C29  1  0.85425000  0.38115700  0.46809000  1
  C  C30  1  0.84300100  0.84438500  0.47295200  1
  C  C31  1  0.16370500  0.14501900  0.52786000  1
  C  C32  1  0.14935300  0.61152100  0.52720200  1
  C  C33  1  0.45604300  0.72077900  0.54548600  1
  C  C34  1  0.33718500  0.26366500  0.64351900  1
  C  C35  1  0.85480300  0.94103900  0.66933000  1
  C  C36  1  0.61267800  0.31227600  0.66394400  1
  C  C37  1  0.06198300  0.23905700  0.69022900  1
  C  C38  1  0.42006000  0.49537600  0.75184300  1
  C  C39  1  0.05916900  0.75935100  0.80714500  1
  C  C40  1  0.61119900  0.69107900  0.83750700  1
  C  C41  1  0.86808600  0.06867100  0.83567400  1
  C  C42  1  0.33399100  0.73097800  0.85791000  1
  C  C43  1  0.45759600  0.27945800  0.95707400  1
  C  C44  1  0.14575000  0.38115700  0.96809000  1
  C  C45  1  0.15699900  0.84438500  0.97295200  1
