# generated using pymatgen
data_Cu2NiC6
_symmetry_space_group_name_H-M   'P 1'
_cell_length_a   6.44796850
_cell_length_b   6.44796850
_cell_length_c   5.77149287
_cell_angle_alpha   76.30409012
_cell_angle_beta   76.30409012
_cell_angle_gamma   25.81054333
_symmetry_Int_Tables_number   1
_chemical_formula_structural   Cu2NiC6
_chemical_formula_sum   'Cu2 Ni1 C6'
_cell_volume   101.34758383
_cell_formula_units_Z   1
loop_
 _symmetry_equiv_pos_site_id
 _symmetry_equiv_pos_as_xyz
  1  'x, y, z'
loop_
 _atom_site_type_symbol
 _atom_site_label
 _atom_site_symmetry_multiplicity
 _atom_site_fract_x
 _atom_site_fract_y
 _atom_site_fract_z
 _atom_site_occupancy
  Ni  Ni0  1  0.50000000  0.50000000  0.00000000  1
  Cu  Cu1  1  0.16805300  0.16805300  0.66421000  1
  Cu  Cu2  1  0.83194700  0.83194700  0.33579000  1
  C  C3  1  0.65806000  0.65806000  0.88330200  1
  C  C4  1  0.98674000  0.98674000  0.22726600  1
  C  C5  1  0.32174800  0.32174800  0.55432700  1
  C  C6  1  0.01326000  0.01326000  0.77273400  1
  C  C7  1  0.34194000  0.34194000  0.11669800  1
  C  C8  1  0.67825200  0.67825200  0.44567300  1
