# generated using pymatgen
data_Cu4NiC9
_symmetry_space_group_name_H-M   'P 1'
_cell_length_a   7.66712300
_cell_length_b   7.66690700
_cell_length_c   13.46453345
_cell_angle_alpha   73.46028396
_cell_angle_beta   89.99990830
_cell_angle_gamma   89.99983559
_symmetry_Int_Tables_number   1
_chemical_formula_structural   Cu4NiC9
_chemical_formula_sum   'Cu16 Ni4 C36'
_cell_volume   758.73761209
_cell_formula_units_Z   4
loop_
 _symmetry_equiv_pos_site_id
 _symmetry_equiv_pos_as_xyz
  1  'x, y, z'
loop_
 _atom_site_type_symbol
 _atom_site_label
 _atom_site_symmetry_multiplicity
 _atom_site_fract_x
 _atom_site_fract_y
 _atom_site_fract_z
 _atom_site_occupancy
  Ni  Ni0  1  0.75000400  0.99999900  0.50000000  1
  Ni  Ni1  1  0.25000500  0.49999900  0.50000000  1
  Ni  Ni2  1  0.49999500  0.99999800  0.00000000  1
  Ni  Ni3  1  0.99999600  0.50000500  0.99999900  1
  Cu  Cu4  1  0.75000800  0.81964000  0.86074000  1
  Cu  Cu5  1  0.25000100  0.31966100  0.86073100  1
  Cu  Cu6  1  0.74999300  0.18036900  0.13927200  1
  Cu  Cu7  1  0.25001300  0.68036500  0.13927100  1
  Cu  Cu8  1  0.49999100  0.81962100  0.36073100  1
  Cu  Cu9  1  0.99999400  0.31964500  0.36072400  1
  Cu  Cu10  1  0.99999800  0.68036500  0.63927000  1
  Cu  Cu11  1  0.49999800  0.18038200  0.63927000  1
  Cu  Cu12  1  0.49999800  0.68179600  0.63640700  1
  Cu  Cu13  1  0.00001400  0.18179000  0.63641800  1
  Cu  Cu14  1  0.99999600  0.81820300  0.36358400  1
  Cu  Cu15  1  0.50000800  0.31818600  0.36358900  1
  Cu  Cu16  1  0.75001000  0.68178400  0.13641500  1
  Cu  Cu17  1  0.25000800  0.18181300  0.13641300  1
  Cu  Cu18  1  0.74999400  0.31818000  0.86358900  1
  Cu  Cu19  1  0.24998300  0.81817100  0.86359800  1
  C  C20  1  0.49996300  0.50000400  0.99999800  1
  C  C21  1  0.74998900  0.50000800  0.49999600  1
  C  C22  1  0.99998800  0.99997900  0.99999300  1
  C  C23  1  0.25001100  0.00000600  0.50000200  1
  C  C24  1  0.74999800  0.90902500  0.68197000  1
  C  C25  1  0.24999800  0.40902700  0.68196600  1
  C  C26  1  0.74999800  0.09098200  0.31803000  1
  C  C27  1  0.25000800  0.59097000  0.31803200  1
  C  C28  1  0.99999800  0.59097600  0.81803700  1
  C  C29  1  0.50000400  0.09097600  0.81803400  1
  C  C30  1  0.50000000  0.90902200  0.18196700  1
  C  C31  1  0.99999900  0.40902900  0.18196500  1
  C  C32  1  0.99999200  0.90960100  0.18085100  1
  C  C33  1  0.49999900  0.40960900  0.18084100  1
  C  C34  1  0.49999900  0.59038900  0.81916100  1
  C  C35  1  0.99999700  0.09039500  0.81915000  1
  C  C36  1  0.75000200  0.59039800  0.31915200  1
  C  C37  1  0.25000800  0.09039800  0.31915400  1
  C  C38  1  0.75000000  0.40960700  0.68084500  1
  C  C39  1  0.25000600  0.90960000  0.68085100  1
  C  C40  1  0.75000200  0.25305200  0.50000800  1
  C  C41  1  0.25000300  0.75305100  0.50001100  1
  C  C42  1  0.49999800  0.25305400  0.00001000  1
  C  C43  1  0.99999800  0.75304200  0.00000900  1
  C  C44  1  0.99695000  0.50000100  0.49999800  1
  C  C45  1  0.49694400  0.00000300  0.49999900  1
  C  C46  1  0.50305000  0.50000200  0.49999700  1
  C  C47  1  0.00304800  0.00000300  0.49999800  1
  C  C48  1  0.75305200  0.00000100  0.00000100  1
  C  C49  1  0.25307100  0.50000600  0.00000000  1
  C  C50  1  0.75000200  0.74694900  0.49999100  1
  C  C51  1  0.25000400  0.24695100  0.49998600  1
  C  C52  1  0.24695700  0.99999800  0.00000000  1
  C  C53  1  0.74695600  0.50000000  0.00000100  1
  C  C54  1  0.50000100  0.74694800  0.99998900  1
  C  C55  1  0.00000100  0.24696500  0.99998600  1
