# generated using pymatgen
data_Cu7NiC13
_symmetry_space_group_name_H-M   'P 1'
_cell_length_a   6.03899125
_cell_length_b   6.03899125
_cell_length_c   14.77539413
_cell_angle_alpha   89.77637177
_cell_angle_beta   89.77637177
_cell_angle_gamma   60.04957657
_symmetry_Int_Tables_number   1
_chemical_formula_structural   Cu7NiC13
_chemical_formula_sum   'Cu14 Ni2 C26'
_cell_volume   466.88598363
_cell_formula_units_Z   2
loop_
 _symmetry_equiv_pos_site_id
 _symmetry_equiv_pos_as_xyz
  1  'x, y, z'
loop_
 _atom_site_type_symbol
 _atom_site_label
 _atom_site_symmetry_multiplicity
 _atom_site_fract_x
 _atom_site_fract_y
 _atom_site_fract_z
 _atom_site_occupancy
  C  C0  1  0.00046600  0.00046600  0.75105300  1
  C  C1  1  0.33304100  0.33304100  0.41505300  1
  Ni  Ni2  1  0.33476900  0.33476900  0.04191500  1
  Ni  Ni3  1  0.16939500  0.16939500  0.21018300  1
  Cu  Cu4  1  0.99936000  0.99936000  0.99839600  1
  Cu  Cu5  1  0.17162100  0.66105000  0.20857300  1
  Cu  Cu6  1  0.67319900  0.67319900  0.08515600  1
  Cu  Cu7  1  0.99631400  0.99631400  0.37902400  1
  Cu  Cu8  1  0.83833000  0.83833000  0.54164400  1
  Cu  Cu9  1  0.65991800  0.65991800  0.33497100  1
  Cu  Cu10  1  0.66105000  0.17162100  0.20857300  1
  Cu  Cu11  1  0.32247600  0.83902600  0.54017300  1
  Cu  Cu12  1  0.83902600  0.32247600  0.54017300  1
  Cu  Cu13  1  0.50102500  0.99610700  0.87311200  1
  Cu  Cu14  1  0.66664700  0.66664700  0.71222000  1
  Cu  Cu15  1  0.50147700  0.50147700  0.87279900  1
  Cu  Cu16  1  0.33409200  0.33409200  0.66472100  1
  Cu  Cu17  1  0.99610700  0.50102500  0.87311200  1
  C  C18  1  0.83642500  0.31069300  0.29281200  1
  C  C19  1  0.01499400  0.50294900  0.12623100  1
  C  C20  1  0.49815400  0.49815400  0.12926400  1
  C  C21  1  0.33996400  0.33996400  0.27732600  1
  C  C22  1  0.66473700  0.66473700  0.46697000  1
  C  C23  1  0.83947400  0.83947400  0.28956200  1
  C  C24  1  0.99744200  0.99744200  0.13048000  1
  C  C25  1  0.31069300  0.83642500  0.29281200  1
  C  C26  1  0.50956200  0.98243100  0.62330700  1
  C  C27  1  0.69347300  0.15036700  0.46325800  1
  C  C28  1  0.50294900  0.01499400  0.12623100  1
  C  C29  1  0.15036700  0.69347300  0.46325800  1
  C  C30  1  0.36570300  0.81613000  0.79668500  1
  C  C31  1  0.15056400  0.15056400  0.46138100  1
  C  C32  1  0.81723400  0.81723400  0.79720500  1
  C  C33  1  0.00152200  0.00152200  0.61445800  1
  C  C34  1  0.17349500  0.17349500  0.95246000  1
  C  C35  1  0.33208300  0.33208300  0.79729800  1
  C  C36  1  0.50908700  0.50908700  0.62295200  1
  C  C37  1  0.65243500  0.17508500  0.95136600  1
  C  C38  1  0.98243100  0.50956200  0.62330700  1
  C  C39  1  0.17508500  0.65243500  0.95136600  1
  C  C40  1  0.81613000  0.36570300  0.79668500  1
  C  C41  1  0.66766200  0.66766200  0.95248100  1
