# generated using pymatgen
data_Cu2NiC7
_symmetry_space_group_name_H-M   'P 1'
_cell_length_a   5.20714800
_cell_length_b   9.55555700
_cell_length_c   18.52391200
_cell_angle_alpha   90.00000000
_cell_angle_beta   90.00000000
_cell_angle_gamma   90.00000000
_symmetry_Int_Tables_number   1
_chemical_formula_structural   Cu2NiC7
_chemical_formula_sum   'Cu16 Ni8 C56'
_cell_volume   921.69798530
_cell_formula_units_Z   8
loop_
 _symmetry_equiv_pos_site_id
 _symmetry_equiv_pos_as_xyz
  1  'x, y, z'
loop_
 _atom_site_type_symbol
 _atom_site_label
 _atom_site_symmetry_multiplicity
 _atom_site_fract_x
 _atom_site_fract_y
 _atom_site_fract_z
 _atom_site_occupancy
  C  C0  1  0.61831300  0.63745700  0.12377200  1
  C  C1  1  0.11831300  0.86254300  0.12377200  1
  C  C2  1  0.11831300  0.36254300  0.37622800  1
  C  C3  1  0.61831300  0.13745700  0.37622800  1
  C  C4  1  0.38168700  0.86254300  0.62377200  1
  C  C5  1  0.88168700  0.63745700  0.62377200  1
  C  C6  1  0.38168700  0.36254300  0.87622800  1
  C  C7  1  0.88168700  0.13745700  0.87622800  1
  Ni  Ni8  1  0.62074100  0.97572900  0.12445200  1
  Ni  Ni9  1  0.12074100  0.52427100  0.12445200  1
  Ni  Ni10  1  0.12074100  0.02427100  0.37554800  1
  Ni  Ni11  1  0.62074100  0.47572900  0.37554800  1
  Ni  Ni12  1  0.37925900  0.52427100  0.62445200  1
  Ni  Ni13  1  0.87925900  0.97572900  0.62445200  1
  Ni  Ni14  1  0.37925900  0.02427100  0.87554800  1
  Ni  Ni15  1  0.87925900  0.47572900  0.87554800  1
  Cu  Cu16  1  0.71860500  0.33232800  0.02813900  1
  Cu  Cu17  1  0.21860500  0.16767200  0.02813900  1
  Cu  Cu18  1  0.41988900  0.33860200  0.22652200  1
  Cu  Cu19  1  0.91988900  0.16139800  0.22652200  1
  Cu  Cu20  1  0.41988900  0.83860200  0.27347800  1
  Cu  Cu21  1  0.91988900  0.66139800  0.27347800  1
  Cu  Cu22  1  0.71860500  0.83232800  0.47186100  1
  Cu  Cu23  1  0.21860500  0.66767200  0.47186100  1
  Cu  Cu24  1  0.78139500  0.33232800  0.52813900  1
  Cu  Cu25  1  0.28139500  0.16767200  0.52813900  1
  Cu  Cu26  1  0.08011100  0.33860200  0.72652200  1
  Cu  Cu27  1  0.58011100  0.16139800  0.72652200  1
  Cu  Cu28  1  0.08011100  0.83860200  0.77347800  1
  Cu  Cu29  1  0.58011100  0.66139800  0.77347800  1
  Cu  Cu30  1  0.78139500  0.83232800  0.97186100  1
  Cu  Cu31  1  0.28139500  0.66767200  0.97186100  1
  C  C32  1  0.41337300  0.30026300  0.04986500  1
  C  C33  1  0.91337300  0.19973700  0.04986500  1
  C  C34  1  0.78656200  0.84866400  0.06011900  1
  C  C35  1  0.28656200  0.65133600  0.06011900  1
  C  C36  1  0.82537000  0.46770700  0.07192100  1
  C  C37  1  0.32537000  0.03229300  0.07192100  1
  C  C38  1  0.43326100  0.84877800  0.18554000  1
  C  C39  1  0.93326100  0.65122200  0.18554000  1
  C  C40  1  0.91275100  0.01078700  0.18478400  1
  C  C41  1  0.41275100  0.48921300  0.18478400  1
  C  C42  1  0.15260200  0.26344900  0.19889400  1
  C  C43  1  0.65260200  0.23655100  0.19889400  1
  C  C44  1  0.15260200  0.76344900  0.30110600  1
  C  C45  1  0.65260200  0.73655100  0.30110600  1
  C  C46  1  0.91275100  0.51078700  0.31521600  1
  C  C47  1  0.41275100  0.98921300  0.31521600  1
  C  C48  1  0.43326100  0.34877800  0.31446000  1
  C  C49  1  0.93326100  0.15122200  0.31446000  1
  C  C50  1  0.82537000  0.96770700  0.42807900  1
  C  C51  1  0.32537000  0.53229300  0.42807900  1
  C  C52  1  0.78656200  0.34866400  0.43988100  1
  C  C53  1  0.28656200  0.15133600  0.43988100  1
  C  C54  1  0.41337300  0.80026300  0.45013500  1
  C  C55  1  0.91337300  0.69973700  0.45013500  1
  C  C56  1  0.08662700  0.30026300  0.54986500  1
  C  C57  1  0.58662700  0.19973700  0.54986500  1
  C  C58  1  0.71343800  0.84866400  0.56011900  1
  C  C59  1  0.21343800  0.65133600  0.56011900  1
  C  C60  1  0.67463000  0.46770700  0.57192100  1
  C  C61  1  0.17463000  0.03229300  0.57192100  1
  C  C62  1  0.06673900  0.84877800  0.68554000  1
  C  C63  1  0.56673900  0.65122200  0.68554000  1
  C  C64  1  0.58724900  0.01078700  0.68478400  1
  C  C65  1  0.08724900  0.48921300  0.68478400  1
  C  C66  1  0.34739800  0.26344900  0.69889400  1
  C  C67  1  0.84739800  0.23655100  0.69889400  1
  C  C68  1  0.34739800  0.76344900  0.80110600  1
  C  C69  1  0.84739800  0.73655100  0.80110600  1
  C  C70  1  0.58724900  0.51078700  0.81521600  1
  C  C71  1  0.08724900  0.98921300  0.81521600  1
  C  C72  1  0.06673900  0.34877800  0.81446000  1
  C  C73  1  0.56673900  0.15122200  0.81446000  1
  C  C74  1  0.67463000  0.96770700  0.92807900  1
  C  C75  1  0.17463000  0.53229300  0.92807900  1
  C  C76  1  0.71343800  0.34866400  0.93988100  1
  C  C77  1  0.21343800  0.15133600  0.93988100  1
  C  C78  1  0.08662700  0.80026300  0.95013500  1
  C  C79  1  0.58662700  0.69973700  0.95013500  1
