# generated using pymatgen
data_Cu6NiC29
_symmetry_space_group_name_H-M   'P 1'
_cell_length_a   8.64726101
_cell_length_b   8.64726101
_cell_length_c   8.64726146
_cell_angle_alpha   61.30084732
_cell_angle_beta   61.30084732
_cell_angle_gamma   61.30085330
_symmetry_Int_Tables_number   1
_chemical_formula_structural   Cu6NiC29
_chemical_formula_sum   'Cu6 Ni1 C29'
_cell_volume   470.58481012
_cell_formula_units_Z   1
loop_
 _symmetry_equiv_pos_site_id
 _symmetry_equiv_pos_as_xyz
  1  'x, y, z'
loop_
 _atom_site_type_symbol
 _atom_site_label
 _atom_site_symmetry_multiplicity
 _atom_site_fract_x
 _atom_site_fract_y
 _atom_site_fract_z
 _atom_site_occupancy
  C  C0  1  0.85589900  0.85589900  0.85589900  1
  C  C1  1  0.64479500  0.64479500  0.64479500  1
  C  C2  1  0.35701700  0.35701700  0.35701700  1
  C  C3  1  0.99648000  0.99648000  0.99648000  1
  C  C4  1  0.50047700  0.50047700  0.50047700  1
  Ni  Ni5  1  0.14540000  0.14540000  0.14540000  1
  Cu  Cu6  1  0.74309500  0.46217400  0.04311500  1
  Cu  Cu7  1  0.46217400  0.04311500  0.74309500  1
  Cu  Cu8  1  0.04311500  0.74309500  0.46217400  1
  Cu  Cu9  1  0.95074400  0.25267600  0.55392300  1
  Cu  Cu10  1  0.55392300  0.95074400  0.25267600  1
  Cu  Cu11  1  0.25267600  0.55392300  0.95074400  1
  C  C12  1  0.88879900  0.67187200  0.50921300  1
  C  C13  1  0.67187200  0.50921300  0.88879900  1
  C  C14  1  0.93748400  0.09266900  0.74446000  1
  C  C15  1  0.50921300  0.88879900  0.67187200  1
  C  C16  1  0.97689500  0.18525600  0.40318800  1
  C  C17  1  0.75784700  0.41007800  0.56945300  1
  C  C18  1  0.74446000  0.93748400  0.09266900  1
  C  C19  1  0.56945300  0.75784700  0.41007800  1
  C  C20  1  0.81746300  0.61272000  0.00077600  1
  C  C21  1  0.41007800  0.56945300  0.75784700  1
  C  C22  1  0.89794900  0.26447700  0.05182100  1
  C  C23  1  0.61272000  0.00077600  0.81746300  1
  C  C24  1  0.40318800  0.97689500  0.18525600  1
  C  C25  1  0.09266900  0.74446000  0.93748400  1
  C  C26  1  0.58872500  0.44584700  0.23809100  1
  C  C27  1  0.18525600  0.40318800  0.97689500  1
  C  C28  1  0.44584700  0.23809100  0.58872500  1
  C  C29  1  0.26447700  0.05182100  0.89794900  1
  C  C30  1  0.23809100  0.58872500  0.44584700  1
  C  C31  1  0.00077600  0.81746300  0.61272000  1
  C  C32  1  0.50241500  0.11374600  0.31296200  1
  C  C33  1  0.05182100  0.89794900  0.26447700  1
  C  C34  1  0.31296200  0.50241500  0.11374600  1
  C  C35  1  0.11374600  0.31296200  0.50241500  1
