# generated using pymatgen
data_Cu3Ni2C15
_symmetry_space_group_name_H-M   'P 1'
_cell_length_a   2.87435800
_cell_length_b   5.04628900
_cell_length_c   23.54650144
_cell_angle_alpha   85.58856303
_cell_angle_beta   90.00000000
_cell_angle_gamma   90.00000000
_symmetry_Int_Tables_number   1
_chemical_formula_structural   Cu3Ni2C15
_chemical_formula_sum   'Cu6 Ni4 C30'
_cell_volume   340.52642811
_cell_formula_units_Z   2
loop_
 _symmetry_equiv_pos_site_id
 _symmetry_equiv_pos_as_xyz
  1  'x, y, z'
loop_
 _atom_site_type_symbol
 _atom_site_label
 _atom_site_symmetry_multiplicity
 _atom_site_fract_x
 _atom_site_fract_y
 _atom_site_fract_z
 _atom_site_occupancy
  C  C0  1  0.50000000  0.19909700  0.89918400  1
  C  C1  1  0.00000000  0.40000700  0.80012000  1
  C  C2  1  0.50000000  0.59983500  0.70068600  1
  C  C3  1  0.00000000  0.80169400  0.60121800  1
  C  C4  1  0.50000000  0.00057800  0.50073300  1
  C  C5  1  0.00000000  0.20110200  0.40055800  1
  C  C6  1  0.50000000  0.40047800  0.30039600  1
  C  C7  1  0.00000000  0.59992200  0.19973900  1
  C  C8  1  0.50000000  0.79988700  0.09911200  1
  C  C9  1  0.00000000  0.99806500  0.99826500  1
  Ni  Ni10  1  0.00000000  0.49854500  0.50215700  1
  Ni  Ni11  1  0.00000000  0.89391800  0.30368600  1
  Ni  Ni12  1  0.50000000  0.10032100  0.19958200  1
  Ni  Ni13  1  0.00000000  0.30626900  0.09541600  1
  Cu  Cu14  1  0.00000000  0.70082100  0.89810300  1
  Cu  Cu15  1  0.50000000  0.90050000  0.79961100  1
  Cu  Cu16  1  0.00000000  0.09987500  0.70056500  1
  Cu  Cu17  1  0.50000000  0.29832000  0.60160100  1
  Cu  Cu18  1  0.50000000  0.69624000  0.40321800  1
  Cu  Cu19  1  0.50000000  0.50492600  0.99607100  1
  C  C20  1  0.00000000  0.38275900  0.94954600  1
  C  C21  1  0.50000000  0.82052700  0.94510600  1
  C  C22  1  0.00000000  0.02040800  0.84711200  1
  C  C23  1  0.50000000  0.58012700  0.85101600  1
  C  C24  1  0.00000000  0.78051400  0.75224900  1
  C  C25  1  0.50000000  0.21962500  0.74806200  1
  C  C26  1  0.00000000  0.41870700  0.64883300  1
  C  C27  1  0.00000000  0.17504100  0.55426300  1
  C  C28  1  0.50000000  0.98018400  0.65310700  1
  C  C29  1  0.50000000  0.62090400  0.55035900  1
  C  C30  1  0.50000000  0.37788600  0.45391200  1
  C  C31  1  0.00000000  0.82081000  0.44962300  1
  C  C32  1  0.00000000  0.56479600  0.35679100  1
  C  C33  1  0.50000000  0.02772400  0.35368200  1
  C  C34  1  0.00000000  0.23639100  0.25038800  1
  C  C35  1  0.50000000  0.76066500  0.25220900  1
  C  C36  1  0.00000000  0.96419100  0.14884000  1
  C  C37  1  0.50000000  0.43953200  0.14689000  1
  C  C38  1  0.50000000  0.17228000  0.04545900  1
  C  C39  1  0.00000000  0.63652600  0.04253300  1
