# generated using pymatgen
data_Cu3NiC
_symmetry_space_group_name_H-M   'P 1'
_cell_length_a   7.80003466
_cell_length_b   7.80003466
_cell_length_c   7.80003392
_cell_angle_alpha   109.40732782
_cell_angle_beta   109.40732782
_cell_angle_gamma   109.40733519
_symmetry_Int_Tables_number   1
_chemical_formula_structural   Cu3NiC
_chemical_formula_sum   'Cu18 Ni6 C6'
_cell_volume   366.17673124
_cell_formula_units_Z   6
loop_
 _symmetry_equiv_pos_site_id
 _symmetry_equiv_pos_as_xyz
  1  'x, y, z'
loop_
 _atom_site_type_symbol
 _atom_site_label
 _atom_site_symmetry_multiplicity
 _atom_site_fract_x
 _atom_site_fract_y
 _atom_site_fract_z
 _atom_site_occupancy
  C  C0  1  0.68720700  0.86913800  0.18567100  1
  C  C1  1  0.13086200  0.81432900  0.31279300  1
  C  C2  1  0.81432900  0.31279300  0.13086200  1
  C  C3  1  0.18567100  0.68720700  0.86913800  1
  C  C4  1  0.86913800  0.18567100  0.68720700  1
  C  C5  1  0.31279300  0.13086200  0.81432900  1
  Ni  Ni6  1  0.29223200  0.47440400  0.14742700  1
  Ni  Ni7  1  0.85257300  0.70776800  0.52559600  1
  Ni  Ni8  1  0.52559600  0.85257300  0.70776800  1
  Ni  Ni9  1  0.47440400  0.14742700  0.29223200  1
  Ni  Ni10  1  0.14742700  0.29223200  0.47440400  1
  Ni  Ni11  1  0.70776800  0.52559600  0.85257300  1
  Cu  Cu12  1  0.26398500  0.93657500  0.15907500  1
  Cu  Cu13  1  0.84092500  0.73601500  0.06342500  1
  Cu  Cu14  1  0.38641500  0.63679600  0.08538700  1
  Cu  Cu15  1  0.81249300  0.87520500  0.48112700  1
  Cu  Cu16  1  0.12479500  0.51887300  0.18750700  1
  Cu  Cu17  1  0.36320400  0.91461300  0.61358500  1
  Cu  Cu18  1  0.91461300  0.61358500  0.36320400  1
  Cu  Cu19  1  0.06342500  0.84092500  0.73601500  1
  Cu  Cu20  1  0.51887300  0.18750700  0.12479500  1
  Cu  Cu21  1  0.48112700  0.81249300  0.87520500  1
  Cu  Cu22  1  0.93657500  0.15907500  0.26398500  1
  Cu  Cu23  1  0.08538700  0.38641500  0.63679600  1
  Cu  Cu24  1  0.63679600  0.08538700  0.38641500  1
  Cu  Cu25  1  0.87520500  0.48112700  0.81249300  1
  Cu  Cu26  1  0.18750700  0.12479500  0.51887300  1
  Cu  Cu27  1  0.61358500  0.36320400  0.91461300  1
  Cu  Cu28  1  0.15907500  0.26398500  0.93657500  1
  Cu  Cu29  1  0.73601500  0.06342500  0.84092500  1
