# generated using pymatgen
data_CuNiC5
_symmetry_space_group_name_H-M   'P 1'
_cell_length_a   11.74224300
_cell_length_b   13.92138000
_cell_length_c   20.30758156
_cell_angle_alpha   51.23487621
_cell_angle_beta   90.00000000
_cell_angle_gamma   90.00000000
_symmetry_Int_Tables_number   1
_chemical_formula_structural   CuNiC5
_chemical_formula_sum   'Cu8 Ni8 C40'
_cell_volume   2588.39055929
_cell_formula_units_Z   8
loop_
 _symmetry_equiv_pos_site_id
 _symmetry_equiv_pos_as_xyz
  1  'x, y, z'
loop_
 _atom_site_type_symbol
 _atom_site_label
 _atom_site_symmetry_multiplicity
 _atom_site_fract_x
 _atom_site_fract_y
 _atom_site_fract_z
 _atom_site_occupancy
  Ni  Ni0  1  0.71739400  0.33175700  0.86057200  1
  Ni  Ni1  1  0.73397500  0.79860400  0.46132000  1
  Ni  Ni2  1  0.21739400  0.66824300  0.63942800  1
  Ni  Ni3  1  0.23397500  0.20139600  0.03868000  1
  Ni  Ni4  1  0.76602500  0.79860400  0.96132000  1
  Ni  Ni5  1  0.78260600  0.33175700  0.36057200  1
  Ni  Ni6  1  0.26602500  0.20139600  0.53868000  1
  Ni  Ni7  1  0.28260600  0.66824300  0.13942800  1
  Cu  Cu8  1  0.19176200  0.21239900  0.80715900  1
  Cu  Cu9  1  0.22178900  0.79099100  0.33598100  1
  Cu  Cu10  1  0.72178900  0.20900900  0.16401900  1
  Cu  Cu11  1  0.69176200  0.78760100  0.69284100  1
  Cu  Cu12  1  0.30823800  0.21239900  0.30715900  1
  Cu  Cu13  1  0.27821100  0.79099100  0.83598100  1
  Cu  Cu14  1  0.77821100  0.20900900  0.66401900  1
  Cu  Cu15  1  0.80823800  0.78760100  0.19284100  1
  C  C16  1  0.23062600  0.41965900  0.62606200  1
  C  C17  1  0.81850000  0.00940300  0.00755700  1
  C  C18  1  0.78017900  0.44458200  0.63942200  1
  C  C19  1  0.39932500  0.28267900  0.85703300  1
  C  C20  1  0.36797200  0.90219800  0.18219400  1
  C  C21  1  0.02508900  0.88901400  0.20758200  1
  C  C22  1  0.04971100  0.37129400  0.83029200  1
  C  C23  1  0.41036200  0.73610100  0.45357200  1
  C  C24  1  0.04272300  0.72887300  0.46568800  1
  C  C25  1  0.68617900  0.93312500  0.23849700  1
  C  C26  1  0.54971100  0.62870600  0.66970800  1
  C  C27  1  0.18617900  0.06687500  0.26150300  1
  C  C28  1  0.54272300  0.27112700  0.03431200  1
  C  C29  1  0.91036200  0.26389900  0.04642800  1
  C  C30  1  0.89932500  0.71732100  0.64296700  1
  C  C31  1  0.28017900  0.55541800  0.86057800  1
  C  C32  1  0.52508900  0.11098600  0.29241800  1
  C  C33  1  0.86797200  0.09780200  0.31780600  1
  C  C34  1  0.73062600  0.58034100  0.87393800  1
  C  C35  1  0.31850000  0.99059700  0.49244300  1
  C  C36  1  0.68150000  0.00940300  0.50755700  1
  C  C37  1  0.26937400  0.41965900  0.12606200  1
  C  C38  1  0.13202800  0.90219800  0.68219400  1
  C  C39  1  0.47491100  0.88901400  0.70758200  1
  C  C40  1  0.71982100  0.44458200  0.13942200  1
  C  C41  1  0.10067500  0.28267900  0.35703300  1
  C  C42  1  0.08963800  0.73610100  0.95357200  1
  C  C43  1  0.45727700  0.72887300  0.96568800  1
  C  C44  1  0.81382100  0.93312500  0.73849700  1
  C  C45  1  0.45028900  0.37129400  0.33029200  1
  C  C46  1  0.31382100  0.06687500  0.76150300  1
  C  C47  1  0.95727700  0.27112700  0.53431200  1
  C  C48  1  0.58963800  0.26389900  0.54642800  1
  C  C49  1  0.95028900  0.62870600  0.16970800  1
  C  C50  1  0.97491100  0.11098600  0.79241800  1
  C  C51  1  0.63202800  0.09780200  0.81780600  1
  C  C52  1  0.60067500  0.71732100  0.14296700  1
  C  C53  1  0.21982100  0.55541800  0.36057800  1
  C  C54  1  0.18150000  0.99059700  0.99244300  1
  C  C55  1  0.76937400  0.58034100  0.37393800  1
