# generated using pymatgen
data_CuNiC12
_symmetry_space_group_name_H-M   'P 1'
_cell_length_a   6.19429900
_cell_length_b   12.75611100
_cell_length_c   12.84369149
_cell_angle_alpha   78.02134588
_cell_angle_beta   90.00000000
_cell_angle_gamma   90.00000000
_symmetry_Int_Tables_number   1
_chemical_formula_structural   CuNiC12
_chemical_formula_sum   'Cu4 Ni4 C48'
_cell_volume   992.74812104
_cell_formula_units_Z   4
loop_
 _symmetry_equiv_pos_site_id
 _symmetry_equiv_pos_as_xyz
  1  'x, y, z'
loop_
 _atom_site_type_symbol
 _atom_site_label
 _atom_site_symmetry_multiplicity
 _atom_site_fract_x
 _atom_site_fract_y
 _atom_site_fract_z
 _atom_site_occupancy
  Ni  Ni0  1  0.50000000  0.00000000  0.00000000  1
  Ni  Ni1  1  0.00000000  0.50000000  0.00000000  1
  Ni  Ni2  1  0.50000000  0.50000000  0.50000000  1
  Ni  Ni3  1  0.00000000  0.00000000  0.50000000  1
  Cu  Cu4  1  0.94107600  0.30057400  0.76742700  1
  Cu  Cu5  1  0.44107600  0.19942600  0.23257300  1
  Cu  Cu6  1  0.05892400  0.69942600  0.23257300  1
  Cu  Cu7  1  0.55892400  0.80057400  0.76742700  1
  C  C8  1  0.15847900  0.64985100  0.62665000  1
  C  C9  1  0.65847900  0.85014900  0.37335000  1
  C  C10  1  0.84152100  0.35014900  0.37335000  1
  C  C11  1  0.34152100  0.14985100  0.62665000  1
  C  C12  1  0.56142500  0.38271800  0.92447700  1
  C  C13  1  0.06142500  0.11728200  0.07552300  1
  C  C14  1  0.43857500  0.61728200  0.07552300  1
  C  C15  1  0.93857500  0.88271800  0.92447700  1
  C  C16  1  0.08316600  0.13553000  0.66226200  1
  C  C17  1  0.58316600  0.36447000  0.33773800  1
  C  C18  1  0.91683400  0.86447000  0.33773800  1
  C  C19  1  0.41683400  0.63553000  0.66226200  1
  C  C20  1  0.71884200  0.23199900  0.78977200  1
  C  C21  1  0.21884200  0.26800100  0.21022800  1
  C  C22  1  0.28115800  0.76800100  0.21022800  1
  C  C23  1  0.78115800  0.73199900  0.78977200  1
  C  C24  1  0.95522600  0.40210200  0.66759900  1
  C  C25  1  0.45522600  0.09789800  0.33240100  1
  C  C26  1  0.04477400  0.59789800  0.33240100  1
  C  C27  1  0.54477400  0.90210200  0.66759900  1
  C  C28  1  0.14591000  0.27242000  0.84723300  1
  C  C29  1  0.64591000  0.22758000  0.15276700  1
  C  C30  1  0.85409000  0.72758000  0.15276700  1
  C  C31  1  0.35409000  0.77242000  0.84723300  1
  C  C32  1  0.26665500  0.08776700  0.08595600  1
  C  C33  1  0.76665500  0.41223300  0.91404400  1
  C  C34  1  0.73334500  0.91223300  0.91404400  1
  C  C35  1  0.23334500  0.58776700  0.08595600  1
  C  C36  1  0.95369500  0.10019300  0.00252700  1
  C  C37  1  0.45369500  0.39980700  0.99747300  1
  C  C38  1  0.04630500  0.89980700  0.99747300  1
  C  C39  1  0.54630500  0.60019300  0.00252700  1
  C  C40  1  0.61175100  0.94790100  0.13173700  1
  C  C41  1  0.11175100  0.55209900  0.86826300  1
  C  C42  1  0.38824900  0.05209900  0.86826300  1
  C  C43  1  0.88824900  0.44790100  0.13173700  1
  C  C44  1  0.46183800  0.36737800  0.42631600  1
  C  C45  1  0.96183800  0.13262200  0.57368400  1
  C  C46  1  0.53816200  0.63262200  0.57368400  1
  C  C47  1  0.03816200  0.86737800  0.42631600  1
  C  C48  1  0.59725800  0.58913700  0.37992100  1
  C  C49  1  0.09725800  0.91086300  0.62007900  1
  C  C50  1  0.40274200  0.41086300  0.62007900  1
  C  C51  1  0.90274200  0.08913700  0.37992100  1
  C  C52  1  0.85966600  0.36079300  0.46049600  1
  C  C53  1  0.35966600  0.13920700  0.53950400  1
  C  C54  1  0.14033400  0.63920700  0.53950400  1
  C  C55  1  0.64033400  0.86079300  0.46049600  1
