# generated using pymatgen
data_Cu3(NiC13)2
_symmetry_space_group_name_H-M   'P 1'
_cell_length_a   2.97694500
_cell_length_b   8.96260900
_cell_length_c   24.98488600
_cell_angle_alpha   90.00000000
_cell_angle_beta   90.00000000
_cell_angle_gamma   90.00000000
_symmetry_Int_Tables_number   1
_chemical_formula_structural   Cu3(NiC13)2
_chemical_formula_sum   'Cu6 Ni4 C52'
_cell_volume   666.62659167
_cell_formula_units_Z   2
loop_
 _symmetry_equiv_pos_site_id
 _symmetry_equiv_pos_as_xyz
  1  'x, y, z'
loop_
 _atom_site_type_symbol
 _atom_site_label
 _atom_site_symmetry_multiplicity
 _atom_site_fract_x
 _atom_site_fract_y
 _atom_site_fract_z
 _atom_site_occupancy
  C  C0  1  0.00000000  0.18779100  0.49381000  1
  C  C1  1  0.00000000  0.20803800  0.69003900  1
  C  C2  1  0.00000000  0.29196200  0.19003900  1
  C  C3  1  0.00000000  0.31220900  0.99381000  1
  C  C4  1  0.00000000  0.68779100  0.00619000  1
  C  C5  1  0.00000000  0.70803800  0.80996100  1
  C  C6  1  0.00000000  0.79196200  0.30996100  1
  C  C7  1  0.00000000  0.81220900  0.50619000  1
  Ni  Ni8  1  0.00000000  0.99316100  0.60258600  1
  Ni  Ni9  1  0.00000000  0.50683900  0.10258600  1
  Ni  Ni10  1  0.00000000  0.49316100  0.89741400  1
  Ni  Ni11  1  0.00000000  0.00683900  0.39741400  1
  Cu  Cu12  1  0.00000000  0.00000000  0.00000000  1
  Cu  Cu13  1  0.50000000  0.14536600  0.30255000  1
  Cu  Cu14  1  0.50000000  0.35463400  0.80255000  1
  Cu  Cu15  1  0.00000000  0.50000000  0.50000000  1
  Cu  Cu16  1  0.50000000  0.64536600  0.19745000  1
  Cu  Cu17  1  0.50000000  0.85463400  0.69745000  1
  C  C18  1  0.00000000  0.01908200  0.81062100  1
  C  C19  1  0.50000000  0.14837100  0.08628200  1
  C  C20  1  0.50000000  0.35162900  0.58628200  1
  C  C21  1  0.00000000  0.48091800  0.31062100  1
  C  C22  1  0.00000000  0.51908200  0.68937900  1
  C  C23  1  0.50000000  0.64837100  0.41371800  1
  C  C24  1  0.50000000  0.85162900  0.91371800  1
  C  C25  1  0.00000000  0.98091800  0.18937900  1
  C  C26  1  0.00000000  0.99953600  0.92418400  1
  C  C27  1  0.00000000  0.00046400  0.07581600  1
  C  C28  1  0.50000000  0.06078600  0.44176000  1
  C  C29  1  0.50000000  0.04583100  0.65975100  1
  C  C30  1  0.50000000  0.11326700  0.16464400  1
  C  C31  1  0.00000000  0.09083300  0.25624400  1
  C  C32  1  0.50000000  0.15043900  0.00467800  1
  C  C33  1  0.50000000  0.15247800  0.78482600  1
  C  C34  1  0.00000000  0.18773100  0.35368100  1
  C  C35  1  0.00000000  0.20187200  0.58567000  1
  C  C36  1  0.00000000  0.29812800  0.08567000  1
  C  C37  1  0.00000000  0.31226900  0.85368100  1
  C  C38  1  0.50000000  0.34752200  0.28482600  1
  C  C39  1  0.50000000  0.34956100  0.50467800  1
  C  C40  1  0.00000000  0.40916700  0.75624400  1
  C  C41  1  0.50000000  0.38673300  0.66464400  1
  C  C42  1  0.50000000  0.45416900  0.15975100  1
  C  C43  1  0.50000000  0.43921400  0.94176000  1
  C  C44  1  0.00000000  0.49953600  0.57581600  1
  C  C45  1  0.00000000  0.50046400  0.42418400  1
  C  C46  1  0.50000000  0.56078600  0.05824000  1
  C  C47  1  0.50000000  0.54583100  0.84024900  1
  C  C48  1  0.50000000  0.61326700  0.33535600  1
  C  C49  1  0.00000000  0.59083300  0.24375600  1
  C  C50  1  0.50000000  0.65043900  0.49532200  1
  C  C51  1  0.50000000  0.65247800  0.71517400  1
  C  C52  1  0.00000000  0.68773100  0.14631900  1
  C  C53  1  0.00000000  0.70187200  0.91433000  1
  C  C54  1  0.00000000  0.79812800  0.41433000  1
  C  C55  1  0.00000000  0.81226900  0.64631900  1
  C  C56  1  0.50000000  0.84752200  0.21517400  1
  C  C57  1  0.50000000  0.84956100  0.99532200  1
  C  C58  1  0.00000000  0.90916700  0.74375600  1
  C  C59  1  0.50000000  0.88673300  0.83535600  1
  C  C60  1  0.50000000  0.95416900  0.34024900  1
  C  C61  1  0.50000000  0.93921400  0.55824000  1
