# generated using pymatgen
data_Cu2NiC4
_symmetry_space_group_name_H-M   'P 1'
_cell_length_a   4.64980800
_cell_length_b   5.87237400
_cell_length_c   10.05976000
_cell_angle_alpha   90.00000000
_cell_angle_beta   90.00000000
_cell_angle_gamma   90.00000000
_symmetry_Int_Tables_number   1
_chemical_formula_structural   Cu2NiC4
_chemical_formula_sum   'Cu8 Ni4 C16'
_cell_volume   274.68588744
_cell_formula_units_Z   4
loop_
 _symmetry_equiv_pos_site_id
 _symmetry_equiv_pos_as_xyz
  1  'x, y, z'
loop_
 _atom_site_type_symbol
 _atom_site_label
 _atom_site_symmetry_multiplicity
 _atom_site_fract_x
 _atom_site_fract_y
 _atom_site_fract_z
 _atom_site_occupancy
  Ni  Ni0  1  0.57238500  0.75000000  0.09230700  1
  Ni  Ni1  1  0.92761500  0.75000000  0.59230700  1
  Ni  Ni2  1  0.07238500  0.25000000  0.40769300  1
  Ni  Ni3  1  0.42761500  0.25000000  0.90769300  1
  Cu  Cu4  1  0.50000000  0.50000000  0.50000000  1
  Cu  Cu5  1  0.50000000  0.00000000  0.50000000  1
  Cu  Cu6  1  0.50974900  0.25000000  0.22700900  1
  Cu  Cu7  1  0.99025100  0.25000000  0.72700900  1
  Cu  Cu8  1  0.00000000  0.00000000  0.00000000  1
  Cu  Cu9  1  0.00000000  0.50000000  0.00000000  1
  Cu  Cu10  1  0.00974900  0.75000000  0.27299100  1
  Cu  Cu11  1  0.49025100  0.75000000  0.77299100  1
  C  C12  1  0.73168400  0.75000000  0.93991000  1
  C  C13  1  0.73489300  0.52587900  0.16265600  1
  C  C14  1  0.73489300  0.97412100  0.16265600  1
  C  C15  1  0.72826700  0.25000000  0.40834000  1
  C  C16  1  0.77173300  0.25000000  0.90834000  1
  C  C17  1  0.76510700  0.52587900  0.66265600  1
  C  C18  1  0.76510700  0.97412100  0.66265600  1
  C  C19  1  0.76831600  0.75000000  0.43991000  1
  C  C20  1  0.23168400  0.25000000  0.56009000  1
  C  C21  1  0.23489300  0.02587900  0.33734400  1
  C  C22  1  0.23489300  0.47412100  0.33734400  1
  C  C23  1  0.22826700  0.75000000  0.09166000  1
  C  C24  1  0.27173300  0.75000000  0.59166000  1
  C  C25  1  0.26510700  0.02587900  0.83734400  1
  C  C26  1  0.26510700  0.47412100  0.83734400  1
  C  C27  1  0.26831600  0.25000000  0.06009000  1
