# generated using pymatgen
data_Cu16Ni2C17
_symmetry_space_group_name_H-M   'P 1'
_cell_length_a   5.60240000
_cell_length_b   10.63753700
_cell_length_c   11.73796430
_cell_angle_alpha   68.28027284
_cell_angle_beta   90.00000000
_cell_angle_gamma   90.00000000
_symmetry_Int_Tables_number   1
_chemical_formula_structural   Cu16Ni2C17
_chemical_formula_sum   'Cu32 Ni4 C34'
_cell_volume   649.86946471
_cell_formula_units_Z   2
loop_
 _symmetry_equiv_pos_site_id
 _symmetry_equiv_pos_as_xyz
  1  'x, y, z'
loop_
 _atom_site_type_symbol
 _atom_site_label
 _atom_site_symmetry_multiplicity
 _atom_site_fract_x
 _atom_site_fract_y
 _atom_site_fract_z
 _atom_site_occupancy
  C  C0  1  0.50000000  0.00000000  0.50000000  1
  C  C1  1  0.00000000  0.00000000  0.00000000  1
  C  C2  1  0.84261900  0.51386200  0.17677400  1
  C  C3  1  0.34261900  0.48613800  0.32322600  1
  C  C4  1  0.15738100  0.48613800  0.82322600  1
  C  C5  1  0.65738100  0.51386200  0.67677400  1
  C  C6  1  0.08342900  0.36738800  0.10247500  1
  C  C7  1  0.58342900  0.63261200  0.39752500  1
  C  C8  1  0.91657100  0.63261200  0.89752500  1
  C  C9  1  0.41657100  0.36738800  0.60247500  1
  C  C10  1  0.60493800  0.24753500  0.39266300  1
  C  C11  1  0.10493800  0.75246500  0.10733700  1
  C  C12  1  0.39506200  0.75246500  0.60733700  1
  C  C13  1  0.89506200  0.24753500  0.89266300  1
  C  C14  1  0.74275900  0.19267000  0.52478100  1
  C  C15  1  0.24275900  0.80733000  0.97521900  1
  C  C16  1  0.25724100  0.80733000  0.47521900  1
  C  C17  1  0.75724100  0.19267000  0.02478100  1
  C  C18  1  0.20911500  0.20614800  0.33848000  1
  C  C19  1  0.70911500  0.79385200  0.16152000  1
  C  C20  1  0.79088500  0.79385200  0.66152000  1
  C  C21  1  0.29088500  0.20614800  0.83848000  1
  C  C22  1  0.00696800  0.10291800  0.40048200  1
  C  C23  1  0.50696800  0.89708200  0.09951800  1
  C  C24  1  0.99303200  0.89708200  0.59951800  1
  C  C25  1  0.49303200  0.10291800  0.90048200  1
  C  C26  1  0.63146700  0.05144700  0.27441400  1
  C  C27  1  0.13146700  0.94855300  0.22558600  1
  C  C28  1  0.36853300  0.94855300  0.72558600  1
  C  C29  1  0.86853300  0.05144700  0.77441400  1
  C  C30  1  0.65620500  0.89082400  0.34383900  1
  C  C31  1  0.15620500  0.10917600  0.15616100  1
  C  C32  1  0.34379500  0.10917600  0.65616100  1
  C  C33  1  0.84379500  0.89082400  0.84383900  1
  Ni  Ni34  1  0.52065700  0.37448800  0.12332500  1
  Ni  Ni35  1  0.02065700  0.62551200  0.37667500  1
  Ni  Ni36  1  0.47934300  0.62551200  0.87667500  1
  Ni  Ni37  1  0.97934300  0.37448800  0.62332500  1
  Cu  Cu38  1  0.83844500  0.43747800  0.14535300  1
  Cu  Cu39  1  0.33844500  0.56252200  0.35464700  1
  Cu  Cu40  1  0.16155500  0.56252200  0.85464700  1
  Cu  Cu41  1  0.66155500  0.43747800  0.64535300  1
  Cu  Cu42  1  0.21480200  0.31135900  0.08681100  1
  Cu  Cu43  1  0.71480200  0.68864100  0.41318900  1
  Cu  Cu44  1  0.78519800  0.68864100  0.91318900  1
  Cu  Cu45  1  0.28519800  0.31135900  0.58681100  1
  Cu  Cu46  1  0.42580000  0.35588800  0.27914500  1
  Cu  Cu47  1  0.92580000  0.64411200  0.22085500  1
  Cu  Cu48  1  0.57420000  0.64411200  0.72085500  1
  Cu  Cu49  1  0.07420000  0.35588800  0.77914500  1
  Cu  Cu50  1  0.65036400  0.21095100  0.14436600  1
  Cu  Cu51  1  0.15036400  0.78904900  0.35563400  1
  Cu  Cu52  1  0.34963600  0.78904900  0.85563400  1
  Cu  Cu53  1  0.84963600  0.21095100  0.64436600  1
  Cu  Cu54  1  0.40039300  0.56371600  0.05786900  1
  Cu  Cu55  1  0.90039300  0.43628400  0.44213100  1
  Cu  Cu56  1  0.59960700  0.43628400  0.94213100  1
  Cu  Cu57  1  0.09960700  0.56371600  0.55786900  1
  Cu  Cu58  1  0.69043900  0.16836600  0.45276000  1
  Cu  Cu59  1  0.19043900  0.83163400  0.04724000  1
  Cu  Cu60  1  0.30956100  0.83163400  0.54724000  1
  Cu  Cu61  1  0.80956100  0.16836600  0.95276000  1
  Cu  Cu62  1  0.17192100  0.10907700  0.37047900  1
  Cu  Cu63  1  0.67192100  0.89092300  0.12952100  1
  Cu  Cu64  1  0.82807900  0.89092300  0.62952100  1
  Cu  Cu65  1  0.32807900  0.10907700  0.87047900  1
  Cu  Cu66  1  0.66424700  0.97805600  0.35482500  1
  Cu  Cu67  1  0.16424700  0.02194400  0.14517500  1
  Cu  Cu68  1  0.33575300  0.02194400  0.64517500  1
  Cu  Cu69  1  0.83575300  0.97805600  0.85482500  1
