# generated using pymatgen
data_Cu3NiC12
_symmetry_space_group_name_H-M   'P 1'
_cell_length_a   5.20199500
_cell_length_b   5.96954589
_cell_length_c   10.33693910
_cell_angle_alpha   89.94501915
_cell_angle_beta   99.57905265
_cell_angle_gamma   106.78437449
_symmetry_Int_Tables_number   1
_chemical_formula_structural   Cu3NiC12
_chemical_formula_sum   'Cu6 Ni2 C24'
_cell_volume   302.66121300
_cell_formula_units_Z   2
loop_
 _symmetry_equiv_pos_site_id
 _symmetry_equiv_pos_as_xyz
  1  'x, y, z'
loop_
 _atom_site_type_symbol
 _atom_site_label
 _atom_site_symmetry_multiplicity
 _atom_site_fract_x
 _atom_site_fract_y
 _atom_site_fract_z
 _atom_site_occupancy
  C  C0  1  0.99827900  0.24927100  0.25003500  1
  C  C1  1  0.99996800  0.24939700  0.75052300  1
  C  C2  1  0.00000000  0.00000000  0.00000000  1
  C  C3  1  0.00000000  0.00000000  0.50000000  1
  C  C4  1  0.00003200  0.75060300  0.24947700  1
  C  C5  1  0.00172100  0.75072900  0.74996500  1
  C  C6  1  0.00000000  0.50000000  0.00000000  1
  C  C7  1  0.00000000  0.50000000  0.50000000  1
  Ni  Ni8  1  0.50080400  0.12478700  0.87604000  1
  Ni  Ni9  1  0.49919600  0.87521300  0.12396000  1
  Cu  Cu10  1  0.50003000  0.12470200  0.37423500  1
  Cu  Cu11  1  0.49997000  0.87529800  0.62576500  1
  Cu  Cu12  1  0.50053700  0.62478300  0.87553800  1
  Cu  Cu13  1  0.49961100  0.62528700  0.37425200  1
  Cu  Cu14  1  0.49946300  0.37521700  0.12446200  1
  Cu  Cu15  1  0.50038900  0.37471300  0.62574800  1
  C  C16  1  0.27337400  0.06676400  0.18817700  1
  C  C17  1  0.27361300  0.06844900  0.69141800  1
  C  C18  1  0.72603100  0.18042200  0.06003400  1
  C  C19  1  0.72890400  0.18192100  0.56073700  1
  C  C20  1  0.27396900  0.81957800  0.93996600  1
  C  C21  1  0.72662600  0.93323600  0.81182300  1
  C  C22  1  0.27109600  0.81807900  0.43926300  1
  C  C23  1  0.72638700  0.93155100  0.30858200  1
  C  C24  1  0.27127400  0.56884200  0.18769300  1
  C  C25  1  0.72613400  0.68358400  0.06103100  1
  C  C26  1  0.27129200  0.56772900  0.68970500  1
  C  C27  1  0.72888400  0.68256200  0.56116500  1
  C  C28  1  0.27386600  0.31641600  0.93896900  1
  C  C29  1  0.72872600  0.43115800  0.81230700  1
  C  C30  1  0.27111600  0.31743800  0.43883500  1
  C  C31  1  0.72870800  0.43227100  0.31029500  1
