# generated using pymatgen
data_Cu2NiC
_symmetry_space_group_name_H-M   'P 1'
_cell_length_a   5.26172400
_cell_length_b   5.35581894
_cell_length_c   12.84971327
_cell_angle_alpha   92.39008965
_cell_angle_beta   90.24499583
_cell_angle_gamma   119.07880606
_symmetry_Int_Tables_number   1
_chemical_formula_structural   Cu2NiC
_chemical_formula_sum   'Cu12 Ni6 C6'
_cell_volume   316.07153839
_cell_formula_units_Z   6
loop_
 _symmetry_equiv_pos_site_id
 _symmetry_equiv_pos_as_xyz
  1  'x, y, z'
loop_
 _atom_site_type_symbol
 _atom_site_label
 _atom_site_symmetry_multiplicity
 _atom_site_fract_x
 _atom_site_fract_y
 _atom_site_fract_z
 _atom_site_occupancy
  C  C0  1  0.31054100  0.63346800  0.65978700  1
  C  C1  1  0.32673500  0.64932200  0.16030800  1
  C  C2  1  0.66499500  0.29758900  0.82735300  1
  C  C3  1  0.64233000  0.30441600  0.32623400  1
  C  C4  1  0.99264100  0.96749700  0.49311700  1
  C  C5  1  0.98617800  0.01975900  0.99675900  1
  Ni  Ni6  1  0.24600100  0.34465000  0.08884800  1
  Ni  Ni7  1  0.09376400  0.33933500  0.58558600  1
  Ni  Ni8  1  0.81604500  0.18869900  0.94614500  1
  Ni  Ni9  1  0.58465200  0.00828900  0.75057400  1
  Ni  Ni10  1  0.91246000  0.67065900  0.41969600  1
  Ni  Ni11  1  0.42410100  0.00827500  0.25204300  1
  Cu  Cu12  1  0.73253800  0.86679200  0.11695400  1
  Cu  Cu13  1  0.46452200  0.53615300  0.28477300  1
  Cu  Cu14  1  0.60521100  0.81971900  0.55271500  1
  Cu  Cu15  1  0.88289800  0.15363700  0.38544800  1
  Cu  Cu16  1  0.07115100  0.53581800  0.78443500  1
  Cu  Cu17  1  0.20218700  0.82011200  0.05292100  1
  Cu  Cu18  1  0.93492900  0.49023700  0.22019100  1
  Cu  Cu19  1  0.13203200  0.86612400  0.61819200  1
  Cu  Cu20  1  0.74814800  0.65492100  0.91874400  1
  Cu  Cu21  1  0.40088000  0.19772900  0.45065600  1
  Cu  Cu22  1  0.54974500  0.48837200  0.72204100  1
  Cu  Cu23  1  0.27531200  0.13842700  0.88648200  1
