# generated using pymatgen
data_Cu3Ni3C22
_symmetry_space_group_name_H-M   'P 1'
_cell_length_a   6.00871753
_cell_length_b   6.00871753
_cell_length_c   9.76971980
_cell_angle_alpha   87.84309270
_cell_angle_beta   87.84309270
_cell_angle_gamma   59.11401458
_symmetry_Int_Tables_number   1
_chemical_formula_structural   Cu3Ni3C22
_chemical_formula_sum   'Cu3 Ni3 C22'
_cell_volume   302.42834989
_cell_formula_units_Z   1
loop_
 _symmetry_equiv_pos_site_id
 _symmetry_equiv_pos_as_xyz
  1  'x, y, z'
loop_
 _atom_site_type_symbol
 _atom_site_label
 _atom_site_symmetry_multiplicity
 _atom_site_fract_x
 _atom_site_fract_y
 _atom_site_fract_z
 _atom_site_occupancy
  C  C0  1  0.66085600  0.66085600  0.09427800  1
  C  C1  1  0.99781300  0.99781300  0.00940500  1
  C  C2  1  0.00247100  0.00247100  0.50941100  1
  C  C3  1  0.33249200  0.33249200  0.59953800  1
  Ni  Ni4  1  0.83092000  0.83092000  0.78709900  1
  Ni  Ni5  1  0.16972500  0.66160900  0.28503600  1
  Ni  Ni6  1  0.66160900  0.16972500  0.28503600  1
  C  C7  1  0.66718900  0.66718900  0.51102500  1
  C  C8  1  0.32052600  0.32052600  0.00672800  1
  Cu  Cu9  1  0.33938700  0.83010800  0.78452800  1
  Cu  Cu10  1  0.83010800  0.33938700  0.78452800  1
  Cu  Cu11  1  0.17043700  0.17043700  0.28486900  1
  C  C12  1  0.34306500  0.84558600  0.41153500  1
  C  C13  1  0.52000900  0.52000900  0.66118500  1
  C  C14  1  0.66927500  0.66927500  0.88665800  1
  C  C15  1  0.99673600  0.99673600  0.69528700  1
  C  C16  1  0.00263500  0.00263500  0.19621400  1
  C  C17  1  0.84558600  0.34306500  0.41153500  1
  C  C18  1  0.51474400  0.96466900  0.65570800  1
  C  C19  1  0.96466900  0.51474400  0.65570800  1
  C  C20  1  0.16436700  0.16436700  0.89931600  1
  C  C21  1  0.84048700  0.84048700  0.40635000  1
  C  C22  1  0.03127500  0.46948200  0.15031900  1
  C  C23  1  0.46948200  0.03127500  0.15031900  1
  C  C24  1  0.33310600  0.33310600  0.38543200  1
  C  C25  1  0.17413200  0.66490500  0.91183700  1
  C  C26  1  0.47766400  0.47766400  0.16134600  1
  C  C27  1  0.66490500  0.17413200  0.91183700  1
