# generated using pymatgen
data_CuNiC11
_symmetry_space_group_name_H-M   'P 1'
_cell_length_a   5.01175500
_cell_length_b   8.65484623
_cell_length_c   13.30711662
_cell_angle_alpha   90.66802169
_cell_angle_beta   90.08110985
_cell_angle_gamma   92.20772748
_symmetry_Int_Tables_number   1
_chemical_formula_structural   CuNiC11
_chemical_formula_sum   'Cu4 Ni4 C44'
_cell_volume   576.74042487
_cell_formula_units_Z   4
loop_
 _symmetry_equiv_pos_site_id
 _symmetry_equiv_pos_as_xyz
  1  'x, y, z'
loop_
 _atom_site_type_symbol
 _atom_site_label
 _atom_site_symmetry_multiplicity
 _atom_site_fract_x
 _atom_site_fract_y
 _atom_site_fract_z
 _atom_site_occupancy
  C  C0  1  0.75188900  0.91205000  0.37657500  1
  C  C1  1  0.25279100  0.75297700  0.99931900  1
  C  C2  1  0.74619100  0.91635300  0.86404300  1
  C  C3  1  0.22914000  0.72973400  0.76175800  1
  C  C4  1  0.22423800  0.73323400  0.48898300  1
  C  C5  1  0.22313700  0.72764800  0.26772200  1
  C  C6  1  0.77087800  0.26778200  0.73494900  1
  C  C7  1  0.77457100  0.26419700  0.51215100  1
  C  C8  1  0.77277300  0.26436400  0.24008000  1
  C  C9  1  0.77054900  0.26556600  0.01319900  1
  C  C10  1  0.25767500  0.08990200  0.13184800  1
  C  C11  1  0.25844100  0.08507000  0.62662300  1
  C  C12  1  0.77385700  0.64622900  0.62665400  1
  C  C13  1  0.77251000  0.64335000  0.12623800  1
  C  C14  1  0.22315400  0.35307000  0.87451400  1
  C  C15  1  0.22900000  0.35132600  0.37548600  1
  Ni  Ni16  1  0.71225300  0.58349500  0.37552400  1
  Ni  Ni17  1  0.70744500  0.59115500  0.87265600  1
  Ni  Ni18  1  0.28724100  0.40900900  0.62604700  1
  Ni  Ni19  1  0.28651200  0.40660000  0.12631000  1
  Cu  Cu20  1  0.72695900  0.96043900  0.62260300  1
  Cu  Cu21  1  0.73117200  0.96094500  0.12774900  1
  Cu  Cu22  1  0.26597800  0.04673900  0.37567400  1
  Cu  Cu23  1  0.27947600  0.04290200  0.86838700  1
  C  C24  1  0.34728300  0.90012300  0.85868800  1
  C  C25  1  0.27831200  0.89627800  0.37642700  1
  C  C26  1  0.97792500  0.92131700  0.12605700  1
  C  C27  1  0.97454700  0.92132200  0.62246200  1
  C  C28  1  0.53948500  0.85554200  0.13277200  1
  C  C29  1  0.53609200  0.85379500  0.62029600  1
  C  C30  1  0.78262100  0.68633200  0.96899100  1
  C  C31  1  0.82806700  0.68908200  0.78487800  1
  C  C32  1  0.82488000  0.67359500  0.46868200  1
  C  C33  1  0.81942000  0.67566600  0.28368900  1
  C  C34  1  0.39695800  0.57932400  0.86170800  1
  C  C35  1  0.39905500  0.58419400  0.37646600  1
  C  C36  1  0.19575100  0.57897400  0.62720300  1
  C  C37  1  0.19243600  0.57539500  0.13291400  1
  C  C38  1  0.80829100  0.42351800  0.87456100  1
  C  C39  1  0.79632500  0.41282200  0.37309500  1
  C  C40  1  0.60051900  0.41579600  0.62715500  1
  C  C41  1  0.59929700  0.41426200  0.12383500  1
  C  C42  1  0.17822700  0.31196600  0.71577200  1
  C  C43  1  0.18315100  0.31598100  0.53259400  1
  C  C44  1  0.18837200  0.30694500  0.21654300  1
  C  C45  1  0.17446200  0.31692100  0.03281600  1
  C  C46  1  0.46808800  0.15080900  0.87481000  1
  C  C47  1  0.48219000  0.13433500  0.37559800  1
  C  C48  1  0.03059200  0.07897600  0.87200400  1
  C  C49  1  0.03705000  0.11148700  0.37487900  1
  C  C50  1  0.66861400  0.10591900  0.12522000  1
  C  C51  1  0.66416100  0.10519000  0.62479000  1
