# generated using pymatgen
data_Cu2Ni4C21
_symmetry_space_group_name_H-M   'P 1'
_cell_length_a   7.88494800
_cell_length_b   8.07467655
_cell_length_c   13.77166522
_cell_angle_alpha   90.24502686
_cell_angle_beta   100.04486163
_cell_angle_gamma   89.97889728
_symmetry_Int_Tables_number   1
_chemical_formula_structural   Cu2Ni4C21
_chemical_formula_sum   'Cu6 Ni12 C63'
_cell_volume   863.37165054
_cell_formula_units_Z   3
loop_
 _symmetry_equiv_pos_site_id
 _symmetry_equiv_pos_as_xyz
  1  'x, y, z'
loop_
 _atom_site_type_symbol
 _atom_site_label
 _atom_site_symmetry_multiplicity
 _atom_site_fract_x
 _atom_site_fract_y
 _atom_site_fract_z
 _atom_site_occupancy
  C  C0  1  0.97616200  0.13230900  0.82010600  1
  C  C1  1  0.69538300  0.86686200  0.85185900  1
  C  C2  1  0.19930200  0.63115600  0.84850700  1
  C  C3  1  0.85635600  0.63205600  0.51289800  1
  C  C4  1  0.63518600  0.13053100  0.48546500  1
  C  C5  1  0.13767000  0.36481100  0.48176100  1
  C  C6  1  0.80501600  0.36729300  0.14816000  1
  C  C7  1  0.52483100  0.63287500  0.18075700  1
  C  C8  1  0.30031800  0.13169700  0.15181200  1
  C  C9  1  0.82145100  0.49629500  0.83406300  1
  C  C10  1  0.33576400  0.00371300  0.83147600  1
  C  C11  1  0.49664700  0.50263200  0.50157100  1
  C  C12  1  0.01178400  0.99463000  0.49928100  1
  C  C13  1  0.67764500  0.99718000  0.16584500  1
  C  C14  1  0.16403600  0.50510900  0.16871000  1
  Ni  Ni15  1  0.72551600  0.15190300  0.95504700  1
  Ni  Ni16  1  0.21493300  0.34808500  0.95508500  1
  Ni  Ni17  1  0.94600800  0.84261700  0.71043800  1
  Ni  Ni18  1  0.88677500  0.34279800  0.62294500  1
  Ni  Ni19  1  0.44451300  0.64912300  0.71224100  1
  Ni  Ni20  1  0.38927900  0.14899300  0.62112100  1
  Ni  Ni21  1  0.61738100  0.84690500  0.37773600  1
  Ni  Ni22  1  0.55318000  0.34401100  0.28916600  1
  Ni  Ni23  1  0.10881700  0.65115500  0.37758300  1
  Ni  Ni24  1  0.05591500  0.14909400  0.28716500  1
  Ni  Ni25  1  0.77486800  0.65221200  0.04502400  1
  Ni  Ni26  1  0.28467500  0.84806700  0.04499700  1
  Cu  Cu27  1  0.47404200  0.48992500  0.99085900  1
  Cu  Cu28  1  0.67642300  0.98958000  0.67074900  1
  Cu  Cu29  1  0.15653000  0.48967300  0.66246700  1
  Cu  Cu30  1  0.81952700  0.49029100  0.32793400  1
  Cu  Cu31  1  0.35494300  0.98813400  0.34134300  1
  Cu  Cu32  1  0.02598900  0.98971100  0.00919100  1
  C  C33  1  0.88363200  0.05389000  0.93589100  1
  C  C34  1  0.78418500  0.67163700  0.93273500  1
  C  C35  1  0.72827600  0.32740800  0.91058200  1
  C  C36  1  0.56740000  0.05100200  0.90658700  1
  C  C37  1  0.37282900  0.45189600  0.93561600  1
  C  C38  1  0.94936700  0.67487500  0.76443100  1
  C  C39  1  0.28680000  0.82789900  0.93389100  1
  C  C40  1  0.88153600  0.32193000  0.73445600  1
  C  C41  1  0.21042900  0.18163600  0.90238200  1
  C  C42  1  0.78028800  0.93788200  0.72812000  1
  C  C43  1  0.05641900  0.45427800  0.90527300  1
  C  C44  1  0.61207300  0.54603500  0.76225200  1
  C  C45  1  0.45979000  0.81578600  0.76724200  1
  C  C46  1  0.95083100  0.82174400  0.59886800  1
  C  C47  1  0.37283300  0.16674300  0.72970000  1
  C  C48  1  0.28013700  0.56018500  0.72780100  1
  C  C49  1  0.88372500  0.17478500  0.56897500  1
  C  C50  1  0.09718500  0.95129100  0.75931000  1
  C  C51  1  0.73605000  0.45195000  0.57412600  1
  C  C52  1  0.55330500  0.05947600  0.60529000  1
  C  C53  1  0.46220200  0.66716100  0.60388800  1
  C  C54  1  0.37404600  0.31527300  0.56640200  1
  C  C55  1  0.94812200  0.55328500  0.39636400  1
  C  C56  1  0.22073500  0.04729600  0.57071200  1
  C  C57  1  0.77527900  0.95279100  0.42807900  1
  C  C58  1  0.05263400  0.43777200  0.60537300  1
  C  C59  1  0.62162900  0.67966900  0.42940600  1
  C  C60  1  0.55244500  0.32470800  0.40022700  1
  C  C61  1  0.45917800  0.95030700  0.39576500  1
  C  C62  1  0.26428100  0.54816200  0.42958700  1
  C  C63  1  0.88684200  0.04889100  0.24094800  1
  C  C64  1  0.10443400  0.82521300  0.42504200  1
  C  C65  1  0.71823200  0.44012500  0.27010100  1
  C  C66  1  0.62356500  0.82489700  0.26608000  1
  C  C67  1  0.04357500  0.17021800  0.39893700  1
  C  C68  1  0.54948500  0.17682500  0.23415100  1
  C  C69  1  0.40147900  0.45277700  0.24061500  1
  C  C70  1  0.93233100  0.55013000  0.09317800  1
  C  C71  1  0.21759200  0.05965200  0.27142700  1
  C  C72  1  0.77285700  0.82799500  0.08997100  1
  C  C73  1  0.12080500  0.66938400  0.26815900  1
  C  C74  1  0.71715600  0.17119900  0.06760400  1
  C  C75  1  0.03996500  0.31775900  0.23472600  1
  C  C76  1  0.61618000  0.55506700  0.06384200  1
  C  C77  1  0.44405300  0.95377700  0.09501000  1
  C  C78  1  0.28967500  0.68187400  0.09780500  1
  C  C79  1  0.21227000  0.32787400  0.06625700  1
  C  C80  1  0.12698400  0.95210600  0.06458900  1
