# generated using pymatgen
data_Cu6Ni2C5
_symmetry_space_group_name_H-M   'P 1'
_cell_length_a   20.45449100
_cell_length_b   5.31371900
_cell_length_c   13.10119523
_cell_angle_alpha   80.73558910
_cell_angle_beta   90.00000000
_cell_angle_gamma   90.00000000
_symmetry_Int_Tables_number   1
_chemical_formula_structural   Cu6Ni2C5
_chemical_formula_sum   'Cu24 Ni8 C20'
_cell_volume   1405.38699199
_cell_formula_units_Z   4
loop_
 _symmetry_equiv_pos_site_id
 _symmetry_equiv_pos_as_xyz
  1  'x, y, z'
loop_
 _atom_site_type_symbol
 _atom_site_label
 _atom_site_symmetry_multiplicity
 _atom_site_fract_x
 _atom_site_fract_y
 _atom_site_fract_z
 _atom_site_occupancy
  C  C0  1  0.10732100  0.83920000  0.09637500  1
  C  C1  1  0.60732100  0.16080000  0.40362500  1
  C  C2  1  0.89267900  0.16080000  0.90362500  1
  C  C3  1  0.39267900  0.83920000  0.59637500  1
  C  C4  1  0.01125100  0.62194600  0.10200300  1
  C  C5  1  0.51125100  0.37805400  0.39799700  1
  C  C6  1  0.98874900  0.37805400  0.89799700  1
  C  C7  1  0.48874900  0.62194600  0.60200300  1
  C  C8  1  0.18841000  0.58019200  0.17009500  1
  C  C9  1  0.68841000  0.41980800  0.32990500  1
  C  C10  1  0.81159000  0.41980800  0.82990500  1
  C  C11  1  0.31159000  0.58019200  0.67009500  1
  C  C12  1  0.97566500  0.55823000  0.33696500  1
  C  C13  1  0.47566500  0.44177000  0.16303500  1
  C  C14  1  0.02433500  0.44177000  0.66303500  1
  C  C15  1  0.52433500  0.55823000  0.83696500  1
  C  C16  1  0.24416100  0.44137900  0.98501200  1
  C  C17  1  0.74416100  0.55862100  0.51498800  1
  C  C18  1  0.75583900  0.55862100  0.01498800  1
  C  C19  1  0.25583900  0.44137900  0.48501200  1
  Ni  Ni20  1  0.09828800  0.93542000  0.45602500  1
  Ni  Ni21  1  0.59828800  0.06458000  0.04397500  1
  Ni  Ni22  1  0.90171200  0.06458000  0.54397500  1
  Ni  Ni23  1  0.40171200  0.93542000  0.95602500  1
  Ni  Ni24  1  0.33263700  0.97116800  0.27502700  1
  Ni  Ni25  1  0.83263700  0.02883200  0.22497300  1
  Ni  Ni26  1  0.66736300  0.02883200  0.72497300  1
  Ni  Ni27  1  0.16736300  0.97116800  0.77502700  1
  Cu  Cu28  1  0.92113700  0.40405600  0.31663500  1
  Cu  Cu29  1  0.42113700  0.59594400  0.18336500  1
  Cu  Cu30  1  0.07886300  0.59594400  0.68336500  1
  Cu  Cu31  1  0.57886300  0.40405600  0.81663500  1
  Cu  Cu32  1  0.96944700  0.83129000  0.32427300  1
  Cu  Cu33  1  0.46944700  0.16871000  0.17572700  1
  Cu  Cu34  1  0.03055300  0.16871000  0.67572700  1
  Cu  Cu35  1  0.53055300  0.83129000  0.82427300  1
  Cu  Cu36  1  0.03588000  0.44006300  0.37597600  1
  Cu  Cu37  1  0.53588000  0.55993700  0.12402400  1
  Cu  Cu38  1  0.96412000  0.55993700  0.62402400  1
  Cu  Cu39  1  0.46412000  0.44006300  0.87597600  1
  Cu  Cu40  1  0.28545300  0.26529600  0.05035200  1
  Cu  Cu41  1  0.78545300  0.73470400  0.44964800  1
  Cu  Cu42  1  0.71454700  0.73470400  0.94964800  1
  Cu  Cu43  1  0.21454700  0.26529600  0.55035200  1
  Cu  Cu44  1  0.26866700  0.68547500  0.93715500  1
  Cu  Cu45  1  0.76866700  0.31452500  0.56284500  1
  Cu  Cu46  1  0.73133300  0.31452500  0.06284500  1
  Cu  Cu47  1  0.23133300  0.68547500  0.43715500  1
  Cu  Cu48  1  0.18150500  0.35618800  0.95275700  1
  Cu  Cu49  1  0.68150500  0.64381200  0.54724300  1
  Cu  Cu50  1  0.81849500  0.64381200  0.04724300  1
  Cu  Cu51  1  0.31849500  0.35618800  0.45275700  1
