# generated using pymatgen
data_CuNiC6
_symmetry_space_group_name_H-M   'P 1'
_cell_length_a   5.03685400
_cell_length_b   6.34104800
_cell_length_c   10.98591249
_cell_angle_alpha   87.58882018
_cell_angle_beta   90.00000000
_cell_angle_gamma   90.00000000
_symmetry_Int_Tables_number   1
_chemical_formula_structural   CuNiC6
_chemical_formula_sum   'Cu4 Ni4 C24'
_cell_volume   350.56766906
_cell_formula_units_Z   4
loop_
 _symmetry_equiv_pos_site_id
 _symmetry_equiv_pos_as_xyz
  1  'x, y, z'
loop_
 _atom_site_type_symbol
 _atom_site_label
 _atom_site_symmetry_multiplicity
 _atom_site_fract_x
 _atom_site_fract_y
 _atom_site_fract_z
 _atom_site_occupancy
  C  C0  1  0.31125000  0.00537200  0.58490500  1
  C  C1  1  0.18875000  0.00537200  0.08490500  1
  C  C2  1  0.80824600  0.77756800  0.67423100  1
  C  C3  1  0.69175400  0.77756800  0.17423100  1
  C  C4  1  0.30824600  0.22243200  0.82576900  1
  C  C5  1  0.19175400  0.22243200  0.32576900  1
  C  C6  1  0.81125000  0.99462800  0.91509500  1
  C  C7  1  0.68875000  0.99462800  0.41509500  1
  Ni  Ni8  1  0.79186600  0.48093200  0.90639800  1
  Ni  Ni9  1  0.70813400  0.48093200  0.40639800  1
  Ni  Ni10  1  0.29186600  0.51906800  0.59360200  1
  Ni  Ni11  1  0.20813400  0.51906800  0.09360200  1
  Cu  Cu12  1  0.31312800  0.75559200  0.83889000  1
  Cu  Cu13  1  0.18687200  0.75559200  0.33889000  1
  Cu  Cu14  1  0.81312800  0.24440800  0.66111000  1
  Cu  Cu15  1  0.68687200  0.24440800  0.16111000  1
  C  C16  1  0.20085700  0.95667400  0.90970400  1
  C  C17  1  0.29914300  0.95667400  0.40970400  1
  C  C18  1  0.64147000  0.75337200  0.83862500  1
  C  C19  1  0.85853000  0.75337200  0.33862500  1
  C  C20  1  0.20554300  0.75814200  0.69590200  1
  C  C21  1  0.29445700  0.75814200  0.19590200  1
  C  C22  1  0.21514500  0.52305200  0.90604700  1
  C  C23  1  0.28485500  0.52305200  0.40604700  1
  C  C24  1  0.71514500  0.47694800  0.59395300  1
  C  C25  1  0.78485500  0.47694800  0.09395300  1
  C  C26  1  0.70554300  0.24185800  0.80409800  1
  C  C27  1  0.79445700  0.24185800  0.30409800  1
  C  C28  1  0.14147000  0.24662800  0.66137500  1
  C  C29  1  0.35853000  0.24662800  0.16137500  1
  C  C30  1  0.70085700  0.04332600  0.59029600  1
  C  C31  1  0.79914300  0.04332600  0.09029600  1
