# generated using pymatgen
data_Cu3Ni4C9
_symmetry_space_group_name_H-M   'P 1'
_cell_length_a   6.19738300
_cell_length_b   10.12174692
_cell_length_c   12.37170466
_cell_angle_alpha   90.00041208
_cell_angle_beta   89.99976280
_cell_angle_gamma   89.99955312
_symmetry_Int_Tables_number   1
_chemical_formula_structural   Cu3Ni4C9
_chemical_formula_sum   'Cu12 Ni16 C36'
_cell_volume   776.05652473
_cell_formula_units_Z   4
loop_
 _symmetry_equiv_pos_site_id
 _symmetry_equiv_pos_as_xyz
  1  'x, y, z'
loop_
 _atom_site_type_symbol
 _atom_site_label
 _atom_site_symmetry_multiplicity
 _atom_site_fract_x
 _atom_site_fract_y
 _atom_site_fract_z
 _atom_site_occupancy
  Ni  Ni0  1  0.50000000  0.99999900  0.49999600  1
  Ni  Ni1  1  0.50000000  0.49999900  0.74999600  1
  Ni  Ni2  1  0.50000000  0.99999900  0.99999600  1
  Ni  Ni3  1  0.50000000  0.49999900  0.24999600  1
  Ni  Ni4  1  0.00000100  0.50000000  0.50002000  1
  Ni  Ni5  1  0.00000100  0.00000000  0.75002000  1
  Ni  Ni6  1  0.00000100  0.50000000  0.00002000  1
  Ni  Ni7  1  0.00000100  0.00000000  0.25002000  1
  Ni  Ni8  1  0.74861800  0.74997300  0.62500500  1
  Ni  Ni9  1  0.74861800  0.24997300  0.87500500  1
  Ni  Ni10  1  0.74861800  0.74997300  0.12500500  1
  Ni  Ni11  1  0.74861800  0.24997300  0.37500500  1
  Ni  Ni12  1  0.25138500  0.25002400  0.62500800  1
  Ni  Ni13  1  0.25138500  0.75002400  0.87500800  1
  Ni  Ni14  1  0.25138500  0.25002400  0.12500800  1
  Ni  Ni15  1  0.25138500  0.75002400  0.37500800  1
  Cu  Cu16  1  0.49999900  0.00000500  0.74998000  1
  Cu  Cu17  1  0.49999900  0.50000500  0.99998000  1
  Cu  Cu18  1  0.49999900  0.00000500  0.24998000  1
  Cu  Cu19  1  0.49999900  0.50000500  0.49998000  1
  Cu  Cu20  1  0.75744800  0.75001200  0.37500600  1
  Cu  Cu21  1  0.75744800  0.25001200  0.62500600  1
  Cu  Cu22  1  0.75744800  0.75001200  0.87500600  1
  Cu  Cu23  1  0.75744800  0.25001200  0.12500600  1
  Cu  Cu24  1  0.24255500  0.24998500  0.37499000  1
  Cu  Cu25  1  0.24255500  0.74998500  0.62499000  1
  Cu  Cu26  1  0.24255500  0.24998500  0.87499000  1
  Cu  Cu27  1  0.24255500  0.74998500  0.12499000  1
  C  C28  1  0.00000800  0.50000200  0.25001900  1
  C  C29  1  0.00000800  0.00000200  0.50001900  1
  C  C30  1  0.00000800  0.50000200  0.75001900  1
  C  C31  1  0.00000800  0.00000200  0.00001900  1
  C  C32  1  0.50002900  0.72344200  0.50000700  1
  C  C33  1  0.50002900  0.22344200  0.75000700  1
  C  C34  1  0.50002900  0.72344200  0.00000700  1
  C  C35  1  0.50002900  0.22344200  0.25000700  1
  C  C36  1  0.49998100  0.27655400  0.50001200  1
  C  C37  1  0.49998100  0.77655400  0.75001200  1
  C  C38  1  0.49998100  0.27655400  0.00001200  1
  C  C39  1  0.49998100  0.77655400  0.25001200  1
  C  C40  1  0.99998900  0.20857600  0.50002400  1
  C  C41  1  0.99998900  0.70857600  0.75002400  1
  C  C42  1  0.99998900  0.20857600  0.00002400  1
  C  C43  1  0.99998900  0.70857600  0.25002400  1
  C  C44  1  0.99999100  0.79142400  0.50001500  1
  C  C45  1  0.99999100  0.29142400  0.75001500  1
  C  C46  1  0.99999100  0.79142400  0.00001500  1
  C  C47  1  0.99999100  0.29142400  0.25001500  1
  C  C48  1  0.76211800  0.51756000  0.37106000  1
  C  C49  1  0.76211800  0.01756000  0.62106000  1
  C  C50  1  0.76211800  0.51756000  0.87106000  1
  C  C51  1  0.76211800  0.01756000  0.12106000  1
  C  C52  1  0.76213900  0.98244600  0.37889900  1
  C  C53  1  0.76213900  0.48244600  0.62889900  1
  C  C54  1  0.76213900  0.98244600  0.87889900  1
  C  C55  1  0.76213900  0.48244600  0.12889900  1
  C  C56  1  0.23786200  0.01755400  0.37890000  1
  C  C57  1  0.23786200  0.51755400  0.62890000  1
  C  C58  1  0.23786200  0.01755400  0.87890000  1
  C  C59  1  0.23786200  0.51755400  0.12890000  1
  C  C60  1  0.23787600  0.48244400  0.37106100  1
  C  C61  1  0.23787600  0.98244400  0.62106100  1
  C  C62  1  0.23787600  0.48244400  0.87106100  1
  C  C63  1  0.23787600  0.98244400  0.12106100  1
