# generated using pymatgen
data_CuNiC11
_symmetry_space_group_name_H-M   'P 1'
_cell_length_a   6.60593500
_cell_length_b   5.28431100
_cell_length_c   9.17156670
_cell_angle_alpha   88.63157805
_cell_angle_beta   90.00000000
_cell_angle_gamma   90.00000000
_symmetry_Int_Tables_number   1
_chemical_formula_structural   CuNiC11
_chemical_formula_sum   'Cu2 Ni2 C22'
_cell_volume   320.06804512
_cell_formula_units_Z   2
loop_
 _symmetry_equiv_pos_site_id
 _symmetry_equiv_pos_as_xyz
  1  'x, y, z'
loop_
 _atom_site_type_symbol
 _atom_site_label
 _atom_site_symmetry_multiplicity
 _atom_site_fract_x
 _atom_site_fract_y
 _atom_site_fract_z
 _atom_site_occupancy
  C  C0  1  0.75000000  0.24108500  0.92098600  1
  C  C1  1  0.00034600  0.75468600  0.74904900  1
  C  C2  1  0.49965400  0.75468600  0.74904900  1
  C  C3  1  0.50034600  0.24531400  0.25095100  1
  C  C4  1  0.99965400  0.24531400  0.25095100  1
  C  C5  1  0.25000000  0.75891500  0.07901400  1
  Ni  Ni6  1  0.25000000  0.22112600  0.66582900  1
  Ni  Ni7  1  0.75000000  0.77887400  0.33417100  1
  Cu  Cu8  1  0.25000000  0.26618400  0.93828100  1
  Cu  Cu9  1  0.75000000  0.73381600  0.06171900  1
  C  C10  1  0.75000000  0.29884700  0.57613600  1
  C  C11  1  0.25000000  0.70115300  0.42386400  1
  C  C12  1  0.75000000  0.71048400  0.91572700  1
  C  C13  1  0.25000000  0.03471100  0.86945000  1
  C  C14  1  0.25000000  0.47254200  0.84134600  1
  C  C15  1  0.94868400  0.21481600  0.69157000  1
  C  C16  1  0.55131600  0.21481600  0.69157000  1
  C  C17  1  0.75000000  0.62425800  0.54527000  1
  C  C18  1  0.25000000  0.84861200  0.58603700  1
  C  C19  1  0.75000000  0.15138800  0.41396300  1
  C  C20  1  0.25000000  0.37574200  0.45473000  1
  C  C21  1  0.44868400  0.78518400  0.30843000  1
  C  C22  1  0.05131600  0.78518400  0.30843000  1
  C  C23  1  0.75000000  0.52745800  0.15865400  1
  C  C24  1  0.75000000  0.96528900  0.13055000  1
  C  C25  1  0.25000000  0.28951600  0.08427300  1
