# generated using pymatgen
data_CuNiC5
_symmetry_space_group_name_H-M   'P 1'
_cell_length_a   8.55431818
_cell_length_b   8.55431818
_cell_length_c   8.55431845
_cell_angle_alpha   107.69632937
_cell_angle_beta   107.69632937
_cell_angle_gamma   107.69633164
_symmetry_Int_Tables_number   1
_chemical_formula_structural   CuNiC5
_chemical_formula_sum   'Cu6 Ni6 C30'
_cell_volume   511.09131423
_cell_formula_units_Z   6
loop_
 _symmetry_equiv_pos_site_id
 _symmetry_equiv_pos_as_xyz
  1  'x, y, z'
loop_
 _atom_site_type_symbol
 _atom_site_label
 _atom_site_symmetry_multiplicity
 _atom_site_fract_x
 _atom_site_fract_y
 _atom_site_fract_z
 _atom_site_occupancy
  C  C0  1  0.89436800  0.12359400  0.72166300  1
  C  C1  1  0.43134200  0.20943100  0.60707400  1
  C  C2  1  0.60707400  0.43134200  0.20943100  1
  C  C3  1  0.72166300  0.89436800  0.12359400  1
  C  C4  1  0.20943100  0.60707400  0.43134200  1
  C  C5  1  0.12359400  0.72166300  0.89436800  1
  Ni  Ni6  1  0.45714800  0.05281900  0.23316300  1
  Ni  Ni7  1  0.76766400  0.53446100  0.94345300  1
  Ni  Ni8  1  0.94345300  0.76766400  0.53446100  1
  Ni  Ni9  1  0.05281900  0.23316300  0.45714800  1
  Ni  Ni10  1  0.23316300  0.45714800  0.05281900  1
  Ni  Ni11  1  0.53446100  0.94345300  0.76766400  1
  Cu  Cu12  1  0.87559100  0.28013000  0.09488700  1
  Cu  Cu13  1  0.79467500  0.38742800  0.56859200  1
  Cu  Cu14  1  0.28013000  0.09488700  0.87559100  1
  Cu  Cu15  1  0.38742800  0.56859200  0.79467500  1
  Cu  Cu16  1  0.56859200  0.79467500  0.38742800  1
  Cu  Cu17  1  0.09488700  0.87559100  0.28013000  1
  C  C18  1  0.99035000  0.30522200  0.97279100  1
  C  C19  1  0.72644800  0.06542600  0.00543500  1
  C  C20  1  0.91319700  0.26771200  0.58245700  1
  C  C21  1  0.76622000  0.40848300  0.08669600  1
  C  C22  1  0.92938400  0.60208300  0.63704100  1
  C  C23  1  0.63567400  0.29522100  0.35812800  1
  C  C24  1  0.69318300  0.37440400  0.70324400  1
  C  C25  1  0.40848300  0.08669600  0.76622000  1
  C  C26  1  0.30372100  0.02334400  0.34906700  1
  C  C27  1  0.34906700  0.30372100  0.02334400  1
  C  C28  1  0.06542600  0.00543500  0.72644800  1
  C  C29  1  0.70324400  0.69318300  0.37440300  1
  C  C30  1  0.97279100  0.99035000  0.30522200  1
  C  C31  1  0.60208300  0.63704100  0.92938400  1
  C  C32  1  0.29522100  0.35812800  0.63567400  1
  C  C33  1  0.35812800  0.63567400  0.29522100  1
  C  C34  1  0.63704100  0.92938400  0.60208300  1
  C  C35  1  0.26771200  0.58245700  0.91319700  1
  C  C36  1  0.58245700  0.91319700  0.26771200  1
  C  C37  1  0.37440400  0.70324400  0.69318300  1
  C  C38  1  0.02334400  0.34906700  0.30372100  1
  C  C39  1  0.30522200  0.97279100  0.99035000  1
  C  C40  1  0.08669600  0.76622000  0.40848300  1
  C  C41  1  0.00543500  0.72644800  0.06542600  1
