# generated using pymatgen
data_CuNi3C10
_symmetry_space_group_name_H-M   'P 1'
_cell_length_a   8.44692300
_cell_length_b   8.44692300
_cell_length_c   8.44692300
_cell_angle_alpha   90.00000000
_cell_angle_beta   90.00000000
_cell_angle_gamma   90.00000000
_symmetry_Int_Tables_number   1
_chemical_formula_structural   CuNi3C10
_chemical_formula_sum   'Cu4 Ni12 C40'
_cell_volume   602.69224851
_cell_formula_units_Z   4
loop_
 _symmetry_equiv_pos_site_id
 _symmetry_equiv_pos_as_xyz
  1  'x, y, z'
loop_
 _atom_site_type_symbol
 _atom_site_label
 _atom_site_symmetry_multiplicity
 _atom_site_fract_x
 _atom_site_fract_y
 _atom_site_fract_z
 _atom_site_occupancy
  C  C0  1  0.00212200  0.49787800  0.50212200  1
  C  C1  1  0.12482400  0.87517600  0.37517600  1
  C  C2  1  0.37517600  0.12482400  0.87517600  1
  C  C3  1  0.49787800  0.50212200  0.00212200  1
  C  C4  1  0.50212200  0.00212200  0.49787800  1
  C  C5  1  0.62482400  0.62482400  0.62482400  1
  C  C6  1  0.87517600  0.37517600  0.12482400  1
  C  C7  1  0.99787800  0.99787800  0.99787800  1
  Ni  Ni8  1  0.12039300  0.62732500  0.13491700  1
  Ni  Ni9  1  0.12732500  0.36508300  0.87960700  1
  Ni  Ni10  1  0.13491700  0.12039300  0.62732500  1
  Ni  Ni11  1  0.36508300  0.87960700  0.12732500  1
  Ni  Ni12  1  0.37267500  0.63491700  0.37960700  1
  Ni  Ni13  1  0.37960700  0.37267500  0.63491700  1
  Ni  Ni14  1  0.62039300  0.87267500  0.86508300  1
  Ni  Ni15  1  0.62732500  0.13491700  0.12039300  1
  Ni  Ni16  1  0.63491700  0.37960700  0.37267500  1
  Ni  Ni17  1  0.86508300  0.62039300  0.87267500  1
  Ni  Ni18  1  0.87267500  0.86508300  0.62039300  1
  Ni  Ni19  1  0.87960700  0.12732500  0.36508300  1
  Cu  Cu20  1  0.24787400  0.74787400  0.75212600  1
  Cu  Cu21  1  0.25212600  0.25212600  0.25212600  1
  Cu  Cu22  1  0.74787400  0.75212600  0.24787400  1
  Cu  Cu23  1  0.75212600  0.24787400  0.74787400  1
  C  C24  1  0.10702700  0.12722700  0.38968100  1
  C  C25  1  0.11031900  0.89297300  0.62722700  1
  C  C26  1  0.11208600  0.61208600  0.88791400  1
  C  C27  1  0.12310900  0.14443200  0.85859100  1
  C  C28  1  0.12722700  0.38968100  0.10702700  1
  C  C29  1  0.13888300  0.36111700  0.63888300  1
  C  C30  1  0.14140900  0.62310900  0.35556800  1
  C  C31  1  0.14443200  0.85859100  0.12310900  1
  C  C32  1  0.35556800  0.14140900  0.62310900  1
  C  C33  1  0.35859100  0.37689100  0.85556800  1
  C  C34  1  0.36111700  0.63888300  0.13888300  1
  C  C35  1  0.37277300  0.61031900  0.60702700  1
  C  C36  1  0.37689100  0.85556800  0.35859100  1
  C  C37  1  0.38791400  0.38791400  0.38791400  1
  C  C38  1  0.38968100  0.10702700  0.12722700  1
  C  C39  1  0.39297300  0.87277300  0.88968100  1
  C  C40  1  0.60702700  0.37277300  0.61031900  1
  C  C41  1  0.61031900  0.60702700  0.37277300  1
  C  C42  1  0.61208600  0.88791400  0.11208600  1
  C  C43  1  0.62310900  0.35556800  0.14140900  1
  C  C44  1  0.62722700  0.11031900  0.89297300  1
  C  C45  1  0.63888300  0.13888300  0.36111700  1
  C  C46  1  0.64140900  0.87689100  0.64443200  1
  C  C47  1  0.64443200  0.64140900  0.87689100  1
  C  C48  1  0.85556800  0.35859100  0.37689100  1
  C  C49  1  0.85859100  0.12310900  0.14443200  1
  C  C50  1  0.86111700  0.86111700  0.86111700  1
  C  C51  1  0.87277300  0.88968100  0.39297300  1
  C  C52  1  0.87689100  0.64443200  0.64140900  1
  C  C53  1  0.88791400  0.11208600  0.61208600  1
  C  C54  1  0.88968100  0.39297300  0.87277300  1
  C  C55  1  0.89297300  0.62722700  0.11031900  1
