# generated using pymatgen
data_Cu7NiC6
_symmetry_space_group_name_H-M   'P 1'
_cell_length_a   6.06987868
_cell_length_b   6.06987868
_cell_length_c   10.49894299
_cell_angle_alpha   73.16910554
_cell_angle_beta   73.16910554
_cell_angle_gamma   60.08912806
_symmetry_Int_Tables_number   1
_chemical_formula_structural   Cu7NiC6
_chemical_formula_sum   'Cu14 Ni2 C12'
_cell_volume   315.98050462
_cell_formula_units_Z   2
loop_
 _symmetry_equiv_pos_site_id
 _symmetry_equiv_pos_as_xyz
  1  'x, y, z'
loop_
 _atom_site_type_symbol
 _atom_site_label
 _atom_site_symmetry_multiplicity
 _atom_site_fract_x
 _atom_site_fract_y
 _atom_site_fract_z
 _atom_site_occupancy
  C  C0  1  0.99441500  0.50951700  0.00058100  1
  C  C1  1  0.94491000  0.93447400  0.68835000  1
  C  C2  1  0.93447400  0.94491000  0.18835000  1
  C  C3  1  0.38719400  0.85924500  0.87171500  1
  C  C4  1  0.85924500  0.38719400  0.37171500  1
  C  C5  1  0.50951700  0.99441500  0.50058100  1
  C  C6  1  0.92523900  0.43941800  0.69442100  1
  C  C7  1  0.69269100  0.19773400  0.93174100  1
  C  C8  1  0.45006500  0.44006000  0.69356500  1
  C  C9  1  0.43941800  0.92523900  0.19442100  1
  C  C10  1  0.19773400  0.69269100  0.43174100  1
  C  C11  1  0.44006000  0.45006500  0.19356500  1
  Ni  Ni12  1  0.58330500  0.53211000  0.80920600  1
  Ni  Ni13  1  0.53211000  0.58330500  0.30920600  1
  Cu  Cu14  1  0.84589400  0.79603000  0.56224500  1
  Cu  Cu15  1  0.82025600  0.29781500  0.57103700  1
  Cu  Cu16  1  0.58381400  0.06176400  0.80723300  1
  Cu  Cu17  1  0.80108300  0.30534600  0.06676800  1
  Cu  Cu18  1  0.06984000  0.56669600  0.80239000  1
  Cu  Cu19  1  0.30534600  0.80108300  0.56676800  1
  Cu  Cu20  1  0.56669600  0.06984000  0.30239000  1
  Cu  Cu21  1  0.30253500  0.32922300  0.57424700  1
  Cu  Cu22  1  0.32922300  0.30253500  0.07424700  1
  Cu  Cu23  1  0.79603000  0.84589400  0.06224500  1
  Cu  Cu24  1  0.06002500  0.05722600  0.30580400  1
  Cu  Cu25  1  0.05722600  0.06002500  0.80580400  1
  Cu  Cu26  1  0.29781500  0.82025600  0.07103700  1
  Cu  Cu27  1  0.06176400  0.58381400  0.30723300  1
