# generated using pymatgen
data_Cu2Ni3C31
_symmetry_space_group_name_H-M   'P 1'
_cell_length_a   8.65259648
_cell_length_b   8.65259648
_cell_length_c   8.65259694
_cell_angle_alpha   61.10779740
_cell_angle_beta   61.10779740
_cell_angle_gamma   61.10779723
_symmetry_Int_Tables_number   1
_chemical_formula_structural   Cu2Ni3C31
_chemical_formula_sum   'Cu2 Ni3 C31'
_cell_volume   469.48377235
_cell_formula_units_Z   1
loop_
 _symmetry_equiv_pos_site_id
 _symmetry_equiv_pos_as_xyz
  1  'x, y, z'
loop_
 _atom_site_type_symbol
 _atom_site_label
 _atom_site_symmetry_multiplicity
 _atom_site_fract_x
 _atom_site_fract_y
 _atom_site_fract_z
 _atom_site_occupancy
  Ni  Ni0  1  0.14033100  0.14033100  0.14033100  1
  Ni  Ni1  1  0.35692100  0.35692100  0.35692100  1
  Ni  Ni2  1  0.63992100  0.63992100  0.63992100  1
  Cu  Cu3  1  0.00833600  0.00833600  0.00833600  1
  Cu  Cu4  1  0.50384200  0.50384200  0.50384200  1
  C  C5  1  0.85678700  0.85678700  0.85678700  1
  C  C6  1  0.96009500  0.53517000  0.25568900  1
  C  C7  1  0.25568900  0.96009500  0.53517000  1
  C  C8  1  0.53517000  0.25568900  0.96009500  1
  C  C9  1  0.44984000  0.74539700  0.04655600  1
  C  C10  1  0.74539700  0.04655600  0.44984000  1
  C  C11  1  0.04655600  0.44984000  0.74539700  1
  C  C12  1  0.48476700  0.32577900  0.11684600  1
  C  C13  1  0.11684600  0.48476700  0.32577900  1
  C  C14  1  0.26118400  0.90876100  0.06014400  1
  C  C15  1  0.32577900  0.11684600  0.48476700  1
  C  C16  1  0.60162500  0.80852600  0.02408000  1
  C  C17  1  0.42991200  0.58600800  0.23757100  1
  C  C18  1  0.90876100  0.06014400  0.26118400  1
  C  C19  1  0.58600800  0.23757100  0.42991200  1
  C  C20  1  0.00038000  0.38224000  0.18471500  1
  C  C21  1  0.23757100  0.42991200  0.58600800  1
  C  C22  1  0.95231400  0.73074800  0.10018000  1
  C  C23  1  0.18471500  0.00038000  0.38224000  1
  C  C24  1  0.80852600  0.02408000  0.60162500  1
  C  C25  1  0.06014400  0.26118400  0.90876100  1
  C  C26  1  0.76729300  0.55260200  0.41390600  1
  C  C27  1  0.02408000  0.60162500  0.80852600  1
  C  C28  1  0.41390600  0.76729300  0.55260200  1
  C  C29  1  0.10018000  0.95231400  0.73074800  1
  C  C30  1  0.55260200  0.41390600  0.76729300  1
  C  C31  1  0.38224000  0.18471500  0.00038000  1
  C  C32  1  0.68921200  0.87977100  0.50254700  1
  C  C33  1  0.73074800  0.10018000  0.95231400  1
  C  C34  1  0.87977100  0.50254700  0.68921200  1
  C  C35  1  0.50254700  0.68921200  0.87977100  1
