# generated using pymatgen
data_CuNiC6
_symmetry_space_group_name_H-M   'P 1'
_cell_length_a   5.12016800
_cell_length_b   7.48739200
_cell_length_c   10.27098194
_cell_angle_alpha   81.65585018
_cell_angle_beta   90.00000000
_cell_angle_gamma   90.00000000
_symmetry_Int_Tables_number   1
_chemical_formula_structural   CuNiC6
_chemical_formula_sum   'Cu4 Ni4 C24'
_cell_volume   389.58740961
_cell_formula_units_Z   4
loop_
 _symmetry_equiv_pos_site_id
 _symmetry_equiv_pos_as_xyz
  1  'x, y, z'
loop_
 _atom_site_type_symbol
 _atom_site_label
 _atom_site_symmetry_multiplicity
 _atom_site_fract_x
 _atom_site_fract_y
 _atom_site_fract_z
 _atom_site_occupancy
  C  C0  1  0.65566700  0.90706700  0.79577300  1
  C  C1  1  0.84433300  0.90706700  0.29577300  1
  C  C2  1  0.82728100  0.80559100  0.57617800  1
  C  C3  1  0.67271900  0.80559100  0.07617800  1
  C  C4  1  0.32728100  0.19440900  0.92382200  1
  C  C5  1  0.17271900  0.19440900  0.42382200  1
  C  C6  1  0.15566700  0.09293300  0.70422700  1
  C  C7  1  0.34433300  0.09293300  0.20422700  1
  Ni  Ni8  1  0.87961300  0.50350700  0.87723100  1
  Ni  Ni9  1  0.37961300  0.49649300  0.62276900  1
  Ni  Ni10  1  0.62038700  0.50350700  0.37723100  1
  Ni  Ni11  1  0.12038700  0.49649300  0.12276900  1
  Cu  Cu12  1  0.18604000  0.83638400  0.93770100  1
  Cu  Cu13  1  0.31396000  0.83638400  0.43770100  1
  Cu  Cu14  1  0.68604000  0.16361600  0.56229900  1
  Cu  Cu15  1  0.81396000  0.16361600  0.06229900  1
  C  C16  1  0.31758600  0.96574300  0.85859600  1
  C  C17  1  0.18241400  0.96574300  0.35859600  1
  C  C18  1  0.91942400  0.80080300  0.92103600  1
  C  C19  1  0.58057600  0.80080300  0.42103600  1
  C  C20  1  0.17560700  0.72734900  0.54060500  1
  C  C21  1  0.65417700  0.61881100  0.72792000  1
  C  C22  1  0.32439300  0.72734900  0.04060500  1
  C  C23  1  0.84582300  0.61881100  0.22792000  1
  C  C24  1  0.15417700  0.38118900  0.77208000  1
  C  C25  1  0.67560700  0.27265100  0.95939500  1
  C  C26  1  0.34582300  0.38118900  0.27208000  1
  C  C27  1  0.82439300  0.27265100  0.45939500  1
  C  C28  1  0.41942400  0.19919700  0.57896400  1
  C  C29  1  0.08057600  0.19919700  0.07896400  1
  C  C30  1  0.81758600  0.03425700  0.64140400  1
  C  C31  1  0.68241400  0.03425700  0.14140400  1
