# generated using pymatgen
data_CuNiC20
_symmetry_space_group_name_H-M   'P 1'
_cell_length_a   9.64168440
_cell_length_b   9.60957648
_cell_length_c   7.05461271
_cell_angle_alpha   99.36187560
_cell_angle_beta   99.45790885
_cell_angle_gamma   119.46249030
_symmetry_Int_Tables_number   1
_chemical_formula_structural   CuNiC20
_chemical_formula_sum   'Cu2 Ni2 C40'
_cell_volume   538.32953183
_cell_formula_units_Z   2
loop_
 _symmetry_equiv_pos_site_id
 _symmetry_equiv_pos_as_xyz
  1  'x, y, z'
loop_
 _atom_site_type_symbol
 _atom_site_label
 _atom_site_symmetry_multiplicity
 _atom_site_fract_x
 _atom_site_fract_y
 _atom_site_fract_z
 _atom_site_occupancy
  C  C0  1  0.15838700  0.01900700  0.67591900  1
  C  C1  1  0.72980100  0.09038600  0.32398200  1
  C  C2  1  0.23344500  0.59361700  0.32646500  1
  C  C3  1  0.65574500  0.51753500  0.67272100  1
  Ni  Ni4  1  0.39429900  0.39298300  0.26913700  1
  Ni  Ni5  1  0.35801600  0.85714900  0.73053200  1
  Cu  Cu6  1  0.85723400  0.35630500  0.72738300  1
  Cu  Cu7  1  0.89300300  0.89221700  0.27231500  1
  C  C8  1  0.11083600  0.29149200  0.52195400  1
  C  C9  1  0.75029900  0.03368500  0.91248100  1
  C  C10  1  0.25033200  0.53903100  0.91174800  1
  C  C11  1  0.46055800  0.13909200  0.48255500  1
  C  C12  1  0.60903400  0.78826500  0.51758100  1
  C  C13  1  0.71408900  0.49747500  0.08601300  1
  C  C14  1  0.21421300  0.00079400  0.08966900  1
  C  C15  1  0.96020600  0.63998100  0.47795000  1
  C  C16  1  0.07443000  0.11323200  0.48484800  1
  C  C17  1  0.36112200  0.03248200  0.60935600  1
  C  C18  1  0.58250000  0.01520800  0.91502100  1
  C  C19  1  0.08198100  0.51846200  0.90974200  1
  C  C20  1  0.22237800  0.37838800  0.75321900  1
  C  C21  1  0.37371800  0.02927100  0.24987500  1
  C  C22  1  0.23495500  0.17110500  0.09129300  1
  C  C23  1  0.21258900  0.39051300  0.39288700  1
  C  C24  1  0.45447800  0.29585100  0.50431900  1
  C  C25  1  0.13795400  0.67550200  0.51798100  1
  C  C26  1  0.63725500  0.17338500  0.51718300  1
  C  C27  1  0.86172600  0.18731000  0.85132800  1
  C  C28  1  0.36387400  0.69316500  0.85005000  1
  C  C29  1  0.21285800  0.91563100  0.88777600  1
  C  C30  1  0.72164200  0.41574900  0.88709400  1
  C  C31  1  0.33444500  0.53787100  0.11242400  1
  C  C32  1  0.83556800  0.02985900  0.11198900  1
  C  C33  1  0.06255100  0.88992800  0.15365200  1
  C  C34  1  0.55930800  0.38314200  0.14380100  1
  C  C35  1  0.57566700  0.61022900  0.47892200  1
  C  C36  1  0.45238400  0.79322900  0.49689600  1
  C  C37  1  0.95207000  0.29499700  0.50799500  1
  C  C38  1  0.85928900  0.53545300  0.60398800  1
  C  C39  1  0.71916700  0.87358300  0.74985700  1
  C  C40  1  0.87503100  0.52804900  0.24716400  1
  C  C41  1  0.73335500  0.66588100  0.08503200  1
  C  C42  1  0.71776900  0.89135400  0.39567300  1
  C  C43  1  0.95486200  0.79773800  0.49223100  1
