# generated using pymatgen
data_Cu2Ni2C11
_symmetry_space_group_name_H-M   'P 1'
_cell_length_a   6.05315167
_cell_length_b   5.99365211
_cell_length_c   5.93920637
_cell_angle_alpha   60.24484833
_cell_angle_beta   61.03383712
_cell_angle_gamma   91.05279900
_symmetry_Int_Tables_number   1
_chemical_formula_structural   Cu2Ni2C11
_chemical_formula_sum   'Cu2 Ni2 C11'
_cell_volume   153.87885442
_cell_formula_units_Z   1
loop_
 _symmetry_equiv_pos_site_id
 _symmetry_equiv_pos_as_xyz
  1  'x, y, z'
loop_
 _atom_site_type_symbol
 _atom_site_label
 _atom_site_symmetry_multiplicity
 _atom_site_fract_x
 _atom_site_fract_y
 _atom_site_fract_z
 _atom_site_occupancy
  C  C0  1  0.00000000  0.50000000  0.00000000  1
  C  C1  1  0.50000000  0.00000000  0.50000000  1
  C  C2  1  0.50000000  0.50000000  0.00000000  1
  Ni  Ni3  1  0.00000000  0.00000000  0.50000000  1
  Ni  Ni4  1  0.00000000  0.00000000  0.00000000  1
  Cu  Cu5  1  0.00000000  0.50000000  0.50000000  1
  Cu  Cu6  1  0.50000000  0.00000000  0.00000000  1
  C  C7  1  0.22200267  0.76667683  0.49236024  1
  C  C8  1  0.78577877  0.77988038  0.96303772  1
  C  C9  1  0.21945636  0.75423377  0.02048150  1
  C  C10  1  0.22096180  0.22988639  0.52344794  1
  C  C11  1  0.77903820  0.77011361  0.47655206  1
  C  C12  1  0.78054364  0.24576623  0.97951850  1
  C  C13  1  0.21422123  0.22011962  0.03696228  1
  C  C14  1  0.77799733  0.23332317  0.50763976  1
