# generated using pymatgen
data_Cu3(NiC7)2
_symmetry_space_group_name_H-M   'P 1'
_cell_length_a   6.68051100
_cell_length_b   7.93492204
_cell_length_c   7.95775885
_cell_angle_alpha   95.87133773
_cell_angle_beta   114.24667089
_cell_angle_gamma   90.31119252
_symmetry_Int_Tables_number   1
_chemical_formula_structural   Cu3(NiC7)2
_chemical_formula_sum   'Cu6 Ni4 C28'
_cell_volume   382.08225088
_cell_formula_units_Z   2
loop_
 _symmetry_equiv_pos_site_id
 _symmetry_equiv_pos_as_xyz
  1  'x, y, z'
loop_
 _atom_site_type_symbol
 _atom_site_label
 _atom_site_symmetry_multiplicity
 _atom_site_fract_x
 _atom_site_fract_y
 _atom_site_fract_z
 _atom_site_occupancy
  C  C0  1  0.40386300  0.90543000  0.59545300  1
  C  C1  1  0.31028700  0.79617600  0.20887900  1
  C  C2  1  0.75886900  0.74546500  0.50936400  1
  C  C3  1  0.24113100  0.25453500  0.49063600  1
  C  C4  1  0.68971300  0.20382400  0.79112100  1
  C  C5  1  0.59613700  0.09457000  0.40454700  1
  C  C6  1  0.91299900  0.41468900  0.59659300  1
  C  C7  1  0.08700100  0.58531100  0.40340700  1
  Ni  Ni8  1  0.04264800  0.04224000  0.69132300  1
  Ni  Ni9  1  0.95735200  0.95776000  0.30867700  1
  Ni  Ni10  1  0.52337700  0.56058700  0.68782500  1
  Ni  Ni11  1  0.47662300  0.43941300  0.31217500  1
  Cu  Cu12  1  0.85959100  0.84359700  0.89318600  1
  Cu  Cu13  1  0.14040900  0.15640300  0.10681400  1
  Cu  Cu14  1  0.50000000  0.00000000  0.00000000  1
  Cu  Cu15  1  0.00000000  0.50000000  0.00000000  1
  Cu  Cu16  1  0.34743700  0.35434600  0.89187700  1
  Cu  Cu17  1  0.65256300  0.64565400  0.10812300  1
  C  C18  1  0.84204500  0.05712100  0.06018100  1
  C  C19  1  0.24778200  0.02631100  0.33412400  1
  C  C20  1  0.75221800  0.97368900  0.66587600  1
  C  C21  1  0.63891800  0.87746400  0.23918400  1
  C  C22  1  0.15795500  0.94287900  0.93981900  1
  C  C23  1  0.06531600  0.84937600  0.53280000  1
  C  C24  1  0.15087400  0.38247700  0.24177000  1
  C  C25  1  0.54735400  0.76762000  0.85193000  1
  C  C26  1  0.56998800  0.34349900  0.53792500  1
  C  C27  1  0.45264600  0.23238000  0.14807000  1
  C  C28  1  0.03865100  0.26574900  0.85114800  1
  C  C29  1  0.93468400  0.15062400  0.46720000  1
  C  C30  1  0.96134900  0.73425100  0.14885200  1
  C  C31  1  0.36108200  0.12253600  0.76081600  1
  C  C32  1  0.43001200  0.65650100  0.46207500  1
  C  C33  1  0.35029600  0.56243100  0.07154600  1
  C  C34  1  0.84912600  0.61752300  0.75823000  1
  C  C35  1  0.75280500  0.53486100  0.34189900  1
  C  C36  1  0.24719500  0.46513900  0.65810100  1
  C  C37  1  0.64970400  0.43756900  0.92845400  1
