# generated using pymatgen
data_Cu3NiC3
_symmetry_space_group_name_H-M   'P 1'
_cell_length_a   6.21986900
_cell_length_b   6.21986900
_cell_length_c   8.73434300
_cell_angle_alpha   90.00000000
_cell_angle_beta   90.00000000
_cell_angle_gamma   90.00000000
_symmetry_Int_Tables_number   1
_chemical_formula_structural   Cu3NiC3
_chemical_formula_sum   'Cu12 Ni4 C12'
_cell_volume   337.90352204
_cell_formula_units_Z   4
loop_
 _symmetry_equiv_pos_site_id
 _symmetry_equiv_pos_as_xyz
  1  'x, y, z'
loop_
 _atom_site_type_symbol
 _atom_site_label
 _atom_site_symmetry_multiplicity
 _atom_site_fract_x
 _atom_site_fract_y
 _atom_site_fract_z
 _atom_site_occupancy
  C  C0  1  0.25686600  0.50941000  0.24904900  1
  C  C1  1  0.49059000  0.25686600  0.99904900  1
  C  C2  1  0.50941000  0.74313400  0.49904900  1
  C  C3  1  0.74313400  0.49059000  0.74904900  1
  C  C4  1  0.00211000  0.24792800  0.98811300  1
  C  C5  1  0.99789000  0.75207200  0.48811300  1
  C  C6  1  0.21925500  0.26127900  0.64605600  1
  C  C7  1  0.26127900  0.78074500  0.89605600  1
  C  C8  1  0.24792800  0.99789000  0.23811300  1
  C  C9  1  0.75207200  0.00211000  0.73811300  1
  C  C10  1  0.73872100  0.21925500  0.39605600  1
  C  C11  1  0.78074500  0.73872100  0.14605600  1
  Ni  Ni12  1  0.04470700  0.75213300  0.25360300  1
  Ni  Ni13  1  0.24786700  0.04470700  0.00360300  1
  Ni  Ni14  1  0.75213300  0.95529300  0.50360300  1
  Ni  Ni15  1  0.95529300  0.24786700  0.75360300  1
  Cu  Cu16  1  0.99992400  0.26467400  0.24259900  1
  Cu  Cu17  1  0.26467400  0.00007600  0.49259900  1
  Cu  Cu18  1  0.25570600  0.52101400  0.49411200  1
  Cu  Cu19  1  0.25802900  0.49318300  0.00146900  1
  Cu  Cu20  1  0.50681700  0.25802900  0.75146900  1
  Cu  Cu21  1  0.52101400  0.74429400  0.74411200  1
  Cu  Cu22  1  0.47898600  0.25570600  0.24411200  1
  Cu  Cu23  1  0.49318300  0.74197100  0.25146900  1
  Cu  Cu24  1  0.74197100  0.50681700  0.50146900  1
  Cu  Cu25  1  0.74429400  0.47898600  0.99411200  1
  Cu  Cu26  1  0.73532600  0.99992400  0.99259900  1
  Cu  Cu27  1  0.00007600  0.73532600  0.74259900  1
