# generated using pymatgen
data_CuNi2C11
_symmetry_space_group_name_H-M   'P 1'
_cell_length_a   7.98716148
_cell_length_b   8.16255903
_cell_length_c   9.72758763
_cell_angle_alpha   89.99059571
_cell_angle_beta   112.22133627
_cell_angle_gamma   90.00705248
_symmetry_Int_Tables_number   1
_chemical_formula_structural   CuNi2C11
_chemical_formula_sum   'Cu4 Ni8 C44'
_cell_volume   587.09475063
_cell_formula_units_Z   4
loop_
 _symmetry_equiv_pos_site_id
 _symmetry_equiv_pos_as_xyz
  1  'x, y, z'
loop_
 _atom_site_type_symbol
 _atom_site_label
 _atom_site_symmetry_multiplicity
 _atom_site_fract_x
 _atom_site_fract_y
 _atom_site_fract_z
 _atom_site_occupancy
  C  C0  1  0.65644300  0.36401500  0.76897200  1
  C  C1  1  0.65639000  0.36394000  0.26893800  1
  C  C2  1  0.84349300  0.86377900  0.73104300  1
  C  C3  1  0.84359000  0.86386100  0.23103000  1
  C  C4  1  0.15821300  0.13725500  0.27602600  1
  C  C5  1  0.15832600  0.13747900  0.77595100  1
  C  C6  1  0.34176200  0.63731900  0.22397800  1
  C  C7  1  0.34176300  0.63736200  0.72405000  1
  C  C8  1  0.00339300  0.49987600  0.25244000  1
  C  C9  1  0.49643300  0.00021300  0.74756700  1
  C  C10  1  0.00364000  0.50015400  0.75261400  1
  C  C11  1  0.49652700  0.00018600  0.24775400  1
  Ni  Ni12  1  0.26909100  0.35075000  0.56885700  1
  Ni  Ni13  1  0.26898300  0.35075400  0.06889400  1
  Ni  Ni14  1  0.23100700  0.85067800  0.43112800  1
  Ni  Ni15  1  0.23097700  0.85070000  0.93111400  1
  Ni  Ni16  1  0.76372000  0.15271500  0.56544200  1
  Ni  Ni17  1  0.76363900  0.15269000  0.06542400  1
  Ni  Ni18  1  0.73626700  0.65264000  0.43454000  1
  Ni  Ni19  1  0.73627600  0.65270600  0.93459400  1
  Cu  Cu20  1  0.51128700  0.51013300  0.49174300  1
  Cu  Cu21  1  0.51132300  0.51031800  0.99173500  1
  Cu  Cu22  1  0.98856100  0.01045900  0.50827800  1
  Cu  Cu23  1  0.98850000  0.01029400  0.00825200  1
  C  C24  1  0.83676300  0.54135500  0.86281200  1
  C  C25  1  0.83683200  0.54118200  0.36289200  1
  C  C26  1  0.66325000  0.04120100  0.63715900  1
  C  C27  1  0.66314000  0.04120900  0.13712800  1
  C  C28  1  0.30962800  0.18313700  0.64851600  1
  C  C29  1  0.30952600  0.18311900  0.14855100  1
  C  C30  1  0.19045400  0.68306900  0.35140000  1
  C  C31  1  0.19045000  0.68310700  0.85132300  1
  C  C32  1  0.34778600  0.82824000  0.59973700  1
  C  C33  1  0.34782700  0.82824500  0.09974900  1
  C  C34  1  0.15229600  0.32818000  0.40027100  1
  C  C35  1  0.15222100  0.32825600  0.90026800  1
  C  C36  1  0.44868000  0.44103400  0.59482900  1
  C  C37  1  0.44854600  0.44109500  0.09493600  1
  C  C38  1  0.05149300  0.94113500  0.40498700  1
  C  C39  1  0.05136000  0.94097400  0.90499300  1
  C  C40  1  0.81264800  0.31697600  0.64777500  1
  C  C41  1  0.81265200  0.31693600  0.14779700  1
  C  C42  1  0.68740600  0.81694400  0.35224100  1
  C  C43  1  0.68727500  0.81702900  0.85229300  1
  C  C44  1  0.84710800  0.67343300  0.60245800  1
  C  C45  1  0.84704300  0.67349200  0.10250000  1
  C  C46  1  0.65296400  0.17360600  0.39756700  1
  C  C47  1  0.65290600  0.17362500  0.89753100  1
  C  C48  1  0.94826900  0.06092400  0.59318400  1
  C  C49  1  0.94816300  0.06081900  0.09319600  1
  C  C50  1  0.55181900  0.56074700  0.40676100  1
  C  C51  1  0.55180100  0.56076900  0.90675200  1
  C  C52  1  0.33800700  0.95983700  0.36163800  1
  C  C53  1  0.33779300  0.95994600  0.86155600  1
  C  C54  1  0.16202200  0.45989300  0.13839100  1
  C  C55  1  0.16226800  0.45981600  0.63844300  1
