# generated using pymatgen
data_Cu(NiC)2
_symmetry_space_group_name_H-M   'P 1'
_cell_length_a   8.70553800
_cell_length_b   8.72499946
_cell_length_c   8.72867293
_cell_angle_alpha   109.37717680
_cell_angle_beta   109.35040310
_cell_angle_gamma   109.39098639
_symmetry_Int_Tables_number   1
_chemical_formula_structural   Cu(NiC)2
_chemical_formula_sum   'Cu8 Ni16 C16'
_cell_volume   512.22283623
_cell_formula_units_Z   8
loop_
 _symmetry_equiv_pos_site_id
 _symmetry_equiv_pos_as_xyz
  1  'x, y, z'
loop_
 _atom_site_type_symbol
 _atom_site_label
 _atom_site_symmetry_multiplicity
 _atom_site_fract_x
 _atom_site_fract_y
 _atom_site_fract_z
 _atom_site_occupancy
  C  C0  1  0.00992900  0.49743000  0.99626100  1
  C  C1  1  0.74804300  0.53180100  0.28894800  1
  C  C2  1  0.22394300  0.75367000  0.47329100  1
  C  C3  1  0.70427600  0.74254600  0.95795300  1
  C  C4  1  0.25451800  0.96303900  0.21252000  1
  C  C5  1  0.04309200  0.29330700  0.25729200  1
  C  C6  1  0.99755700  0.00524800  0.50842500  1
  C  C7  1  0.49152300  0.99818600  0.99696300  1
  C  C8  1  0.96531500  0.71309000  0.74032300  1
  C  C9  1  0.52890200  0.79308000  0.24893400  1
  C  C10  1  0.51193100  0.50960200  0.51722700  1
  C  C11  1  0.46413100  0.21644800  0.75791000  1
  C  C12  1  0.75184700  0.03235200  0.78265200  1
  C  C13  1  0.28262700  0.24484900  0.02662600  1
  C  C14  1  0.78866700  0.24993800  0.53101100  1
  C  C15  1  0.24863500  0.46417600  0.71308000  1
  Ni  Ni16  1  0.03399700  0.26385000  0.99287300  1
  Ni  Ni17  1  0.54917800  0.27629000  0.03596200  1
  Ni  Ni18  1  0.26826800  0.72521700  0.23580600  1
  Ni  Ni19  1  0.46886000  0.95826900  0.72608500  1
  Ni  Ni20  1  0.01349000  0.77101300  0.53995000  1
  Ni  Ni21  1  0.45805500  0.72956000  0.96714700  1
  Ni  Ni22  1  0.27099900  0.54209900  0.50503300  1
  Ni  Ni23  1  0.98462900  0.22113000  0.44625600  1
  Ni  Ni24  1  0.22448900  0.23248700  0.76892700  1
  Ni  Ni25  1  0.76092600  0.98798600  0.53442200  1
  Ni  Ni26  1  0.53049600  0.04648600  0.27259700  1
  Ni  Ni27  1  0.73996900  0.77344300  0.73333800  1
  Ni  Ni28  1  0.51585200  0.46417000  0.73896500  1
  Ni  Ni29  1  0.22371300  0.96716400  0.95747200  1
  Ni  Ni30  1  0.72295600  0.45213600  0.48293700  1
  Ni  Ni31  1  0.04397000  0.51157100  0.77476900  1
  Cu  Cu32  1  0.94853400  0.48355700  0.22367100  1
  Cu  Cu33  1  0.96146100  0.73573800  0.01896900  1
  Cu  Cu34  1  0.77140100  0.75864300  0.22551200  1
  Cu  Cu35  1  0.23770300  0.01586300  0.46091500  1
  Cu  Cu36  1  0.26279800  0.22769300  0.27551700  1
  Cu  Cu37  1  0.72957300  0.27661500  0.76468700  1
  Cu  Cu38  1  0.77405500  0.03496100  0.04786800  1
  Cu  Cu39  1  0.48968800  0.53529500  0.26090600  1
