# generated using pymatgen
data_Cu13Ni11C54
_symmetry_space_group_name_H-M   'P 1'
_cell_length_a   12.32089400
_cell_length_b   12.39592088
_cell_length_c   12.54557697
_cell_angle_alpha   89.49723168
_cell_angle_beta   89.72696025
_cell_angle_gamma   89.61567014
_symmetry_Int_Tables_number   1
_chemical_formula_structural   Cu13Ni11C54
_chemical_formula_sum   'Cu13 Ni11 C54'
_cell_volume   1915.93315926
_cell_formula_units_Z   1
loop_
 _symmetry_equiv_pos_site_id
 _symmetry_equiv_pos_as_xyz
  1  'x, y, z'
loop_
 _atom_site_type_symbol
 _atom_site_label
 _atom_site_symmetry_multiplicity
 _atom_site_fract_x
 _atom_site_fract_y
 _atom_site_fract_z
 _atom_site_occupancy
  C  C0  1  0.19940900  0.80765000  0.77919200  1
  C  C1  1  0.80500400  0.81292300  0.77805300  1
  C  C2  1  0.19147400  0.20190100  0.78780100  1
  C  C3  1  0.81814800  0.19422200  0.81650200  1
  C  C4  1  0.00321600  0.00342700  0.19297000  1
  Ni  Ni5  1  0.00390200  0.81253200  0.61204700  1
  Ni  Ni6  1  0.18508800  0.99929300  0.61635700  1
  Ni  Ni7  1  0.99365000  0.18636600  0.61972600  1
  Ni  Ni8  1  0.81131000  0.00330800  0.61589700  1
  Ni  Ni9  1  0.36356000  0.99675600  0.82939500  1
  Ni  Ni10  1  0.00088500  0.64241300  0.83385300  1
  Ni  Ni11  1  0.00397600  0.37398600  0.82191100  1
  Ni  Ni12  1  0.63178200  0.99357200  0.82342800  1
  Ni  Ni13  1  0.18562500  0.37116800  0.00572900  1
  Ni  Ni14  1  0.81261600  0.37538100  0.00417000  1
  Ni  Ni15  1  0.63091200  0.18075500  0.99972300  1
  C  C16  1  0.62015700  0.38442100  0.59189300  1
  Cu  Cu17  1  0.37307000  0.99907300  0.17969200  1
  Cu  Cu18  1  0.00011600  0.62786700  0.17917500  1
  Cu  Cu19  1  0.99654900  0.37491500  0.18252300  1
  Cu  Cu20  1  0.62614900  0.99975900  0.18076300  1
  Cu  Cu21  1  0.00142100  0.81585300  0.35397700  1
  Cu  Cu22  1  0.99795400  0.18371000  0.35467900  1
  Cu  Cu23  1  0.18421500  0.00251700  0.35604200  1
  Cu  Cu24  1  0.81643500  0.00053200  0.35266400  1
  Cu  Cu25  1  0.37053700  0.81188400  0.00880400  1
  Cu  Cu26  1  0.62838200  0.81337100  0.00913600  1
  Cu  Cu27  1  0.18711200  0.63359000  0.00655100  1
  Cu  Cu28  1  0.81550300  0.63857800  0.00746600  1
  Cu  Cu29  1  0.36347900  0.17898200  0.00286000  1
  C  C30  1  0.49949100  0.78178500  0.99860800  1
  C  C31  1  0.21453800  0.50915900  0.99313500  1
  C  C32  1  0.70061600  0.70455800  0.02394800  1
  C  C33  1  0.30347000  0.29267700  0.01015700  1
  C  C34  1  0.49142100  0.18854600  0.98843300  1
  C  C35  1  0.69552600  0.30214300  0.98917600  1
  C  C36  1  0.35127100  0.88872900  0.11301700  1
  C  C37  1  0.64471400  0.88741100  0.11496300  1
  C  C38  1  0.10910400  0.65747100  0.11103700  1
  C  C39  1  0.10636100  0.34642900  0.11928600  1
  C  C40  1  0.89197800  0.66225800  0.11281600  1
  C  C41  1  0.88599300  0.34913300  0.12161900  1
  C  C42  1  0.66231800  0.10392100  0.11519200  1
  C  C43  1  0.33547800  0.10352000  0.11056500  1
  C  C44  1  0.99806900  0.50347600  0.22205900  1
  C  C45  1  0.49828100  0.00265800  0.22178800  1
  C  C46  1  0.00294400  0.71103700  0.28031900  1
  C  C47  1  0.70560500  0.99055500  0.28633700  1
  C  C48  1  0.99637300  0.29720800  0.29289400  1
  C  C49  1  0.29169100  0.99481900  0.28340700  1
  C  C50  1  0.10461000  0.89886600  0.31581400  1
  C  C51  1  0.89914400  0.89814600  0.31050400  1
  C  C52  1  0.10385800  0.10516700  0.30978700  1
  C  C53  1  0.89692300  0.10261200  0.30493900  1
  C  C54  1  0.21048700  0.01056100  0.47844100  1
  C  C55  1  0.99809300  0.78338300  0.47540100  1
  C  C56  1  0.79384800  0.00906600  0.47616700  1
  C  C57  1  0.99356000  0.19411000  0.47928500  1
  C  C58  1  0.12809300  0.87257400  0.63326400  1
  C  C59  1  0.89109200  0.89007600  0.64159000  1
  C  C60  1  0.11072800  0.11262500  0.65580400  1
  C  C61  1  0.86731200  0.12713700  0.65608100  1
  C  C62  1  0.71093000  0.96933400  0.70956300  1
  C  C63  1  0.00004500  0.72451800  0.72108300  1
  C  C64  1  0.00419300  0.29459500  0.70552300  1
  C  C65  1  0.27942200  0.98627200  0.71937900  1
  C  C66  1  0.00126500  0.51028700  0.80686700  1
  C  C67  1  0.49677600  0.99956400  0.80092500  1
  C  C68  1  0.67174000  0.87308000  0.89988000  1
  C  C69  1  0.12193700  0.32534900  0.88835100  1
  C  C70  1  0.89052200  0.32868300  0.89424400  1
  C  C71  1  0.68458600  0.10567400  0.88923900  1
  C  C72  1  0.32567000  0.87355000  0.90080000  1
  C  C73  1  0.12405500  0.68758700  0.90133900  1
  C  C74  1  0.87969400  0.69287100  0.90280000  1
  C  C75  1  0.31069400  0.11211800  0.89909500  1
  C  C76  1  0.29986500  0.70253600  0.02282800  1
  C  C77  1  0.79078100  0.51465900  0.99207100  1
