# generated using pymatgen
data_CuNi3C10
_symmetry_space_group_name_H-M   'P 1'
_cell_length_a   8.62334922
_cell_length_b   8.62334922
_cell_length_c   8.61432271
_cell_angle_alpha   89.79405896
_cell_angle_beta   89.79405896
_cell_angle_gamma   89.69776433
_symmetry_Int_Tables_number   1
_chemical_formula_structural   CuNi3C10
_chemical_formula_sum   'Cu4 Ni12 C40'
_cell_volume   640.56242773
_cell_formula_units_Z   4
loop_
 _symmetry_equiv_pos_site_id
 _symmetry_equiv_pos_as_xyz
  1  'x, y, z'
loop_
 _atom_site_type_symbol
 _atom_site_label
 _atom_site_symmetry_multiplicity
 _atom_site_fract_x
 _atom_site_fract_y
 _atom_site_fract_z
 _atom_site_occupancy
  C  C0  1  0.99681800  0.75154700  0.62453200  1
  C  C1  1  0.25376700  0.50212800  0.87883700  1
  C  C2  1  0.75433600  0.50182600  0.37209400  1
  C  C3  1  0.49817400  0.24566400  0.62790600  1
  C  C4  1  0.00176800  0.25075800  0.12820800  1
  C  C5  1  0.74924200  0.99823200  0.87179200  1
  C  C6  1  0.24845300  0.00318200  0.37546800  1
  C  C7  1  0.49787200  0.74623300  0.12116300  1
  Ni  Ni8  1  0.62563700  0.63046900  0.75814100  1
  Ni  Ni9  1  0.86921600  0.62458100  0.00560400  1
  Ni  Ni10  1  0.11145200  0.62081100  0.24790000  1
  Ni  Ni11  1  0.61648700  0.38351300  0.00000000  1
  Ni  Ni12  1  0.36953100  0.37436300  0.24185900  1
  Ni  Ni13  1  0.12316300  0.36685400  0.49215700  1
  Ni  Ni14  1  0.37541900  0.13078400  0.99439600  1
  Ni  Ni15  1  0.13184700  0.12301800  0.74305700  1
  Ni  Ni16  1  0.88007200  0.11992800  0.50000000  1
  Ni  Ni17  1  0.37918900  0.88854800  0.75210000  1
  Ni  Ni18  1  0.63314600  0.87683700  0.50784300  1
  Ni  Ni19  1  0.87698200  0.86815300  0.25694300  1
  Cu  Cu20  1  0.37466000  0.62534000  0.50000000  1
  Cu  Cu21  1  0.87817300  0.37491600  0.75285200  1
  Cu  Cu22  1  0.62508400  0.12182700  0.24714800  1
  Cu  Cu23  1  0.12451900  0.87548100  0.00000000  1
  C  C24  1  0.38540300  0.62824800  0.72634800  1
  C  C25  1  0.60315900  0.63442700  0.50645400  1
  C  C26  1  0.89207400  0.63111300  0.24766700  1
  C  C27  1  0.85977300  0.60150700  0.74576900  1
  C  C28  1  0.12175500  0.64494600  0.01151400  1
  C  C29  1  0.63102200  0.60928900  0.98708800  1
  C  C30  1  0.37175200  0.61459700  0.27365200  1
  C  C31  1  0.14823900  0.61806800  0.49285400  1
  C  C32  1  0.64483800  0.38616200  0.75816100  1
  C  C33  1  0.86515800  0.37203900  0.97595000  1
  C  C34  1  0.14012200  0.38762200  0.26235300  1
  C  C35  1  0.61383800  0.35516200  0.24183900  1
  C  C36  1  0.36557300  0.39684100  0.49354600  1
  C  C37  1  0.39071100  0.36897800  0.01291200  1
  C  C38  1  0.10101300  0.38013200  0.73778300  1
  C  C39  1  0.88366200  0.36656600  0.51988800  1
  C  C40  1  0.62796100  0.13484200  0.02405000  1
  C  C41  1  0.39849300  0.14022700  0.25423100  1
  C  C42  1  0.10851800  0.14093100  0.50356200  1
  C  C43  1  0.12832000  0.09879300  0.99682800  1
  C  C44  1  0.87186100  0.14998700  0.73616600  1
  C  C45  1  0.36888700  0.10792600  0.75233300  1
  C  C46  1  0.63343400  0.11633800  0.48011200  1
  C  C47  1  0.85001300  0.12813900  0.26383400  1
  C  C48  1  0.35505400  0.87824500  0.98848600  1
  C  C49  1  0.13835000  0.86944300  0.77267700  1
  C  C50  1  0.85906900  0.89148200  0.49643800  1
  C  C51  1  0.38193200  0.85176100  0.50714600  1
  C  C52  1  0.61986800  0.89898700  0.26221700  1
  C  C53  1  0.61237800  0.85987800  0.73764700  1
  C  C54  1  0.90120700  0.87168000  0.00317200  1
  C  C55  1  0.13055700  0.86165000  0.22732300  1
