# generated using pymatgen
data_CuNi3C11
_symmetry_space_group_name_H-M   'P 1'
_cell_length_a   5.91809365
_cell_length_b   5.82668677
_cell_length_c   5.82668748
_cell_angle_alpha   59.99999545
_cell_angle_beta   60.50962339
_cell_angle_gamma   90.00000175
_symmetry_Int_Tables_number   1
_chemical_formula_structural   CuNi3C11
_chemical_formula_sum   'Cu1 Ni3 C11'
_cell_volume   143.15711803
_cell_formula_units_Z   1
loop_
 _symmetry_equiv_pos_site_id
 _symmetry_equiv_pos_as_xyz
  1  'x, y, z'
loop_
 _atom_site_type_symbol
 _atom_site_label
 _atom_site_symmetry_multiplicity
 _atom_site_fract_x
 _atom_site_fract_y
 _atom_site_fract_z
 _atom_site_occupancy
  C  C0  1  0.50000000  0.00000000  0.00000000  1
  C  C1  1  0.50000000  0.00000000  0.50000000  1
  C  C2  1  0.50000000  0.50000000  0.50000000  1
  Ni  Ni3  1  0.00000000  0.00000000  0.50000000  1
  Ni  Ni4  1  0.00000000  0.50000000  0.00000000  1
  Ni  Ni5  1  0.00000000  0.50000000  0.50000000  1
  Cu  Cu6  1  0.00000000  0.00000000  0.00000000  1
  C  C7  1  0.21876300  0.23621300  0.01745000  1
  C  C8  1  0.21876300  0.23621300  0.52757600  1
  C  C9  1  0.21876300  0.74633900  0.01745000  1
  C  C10  1  0.23277700  0.74425900  0.51148200  1
  C  C11  1  0.76722300  0.25574100  0.48851800  1
  C  C12  1  0.78123700  0.25366100  0.98255000  1
  C  C13  1  0.78123700  0.76378800  0.47242400  1
  C  C14  1  0.78123700  0.76378800  0.98255000  1
