# generated using pymatgen
data_CuNi2C33
_symmetry_space_group_name_H-M   'P 1'
_cell_length_a   8.76566804
_cell_length_b   8.76566804
_cell_length_c   8.76566742
_cell_angle_alpha   59.83031264
_cell_angle_beta   59.83031264
_cell_angle_gamma   59.83031229
_symmetry_Int_Tables_number   1
_chemical_formula_structural   CuNi2C33
_chemical_formula_sum   'Cu1 Ni2 C33'
_cell_volume   474.42131360
_cell_formula_units_Z   1
loop_
 _symmetry_equiv_pos_site_id
 _symmetry_equiv_pos_as_xyz
  1  'x, y, z'
loop_
 _atom_site_type_symbol
 _atom_site_label
 _atom_site_symmetry_multiplicity
 _atom_site_fract_x
 _atom_site_fract_y
 _atom_site_fract_z
 _atom_site_occupancy
  C  C0  1  0.14190800  0.14190800  0.14190800  1
  C  C1  1  0.35729200  0.35729200  0.35729200  1
  C  C2  1  0.64206100  0.64206100  0.64206100  1
  Ni  Ni3  1  0.00431600  0.00431600  0.00431600  1
  Ni  Ni4  1  0.50024600  0.50024600  0.50024600  1
  Cu  Cu5  1  0.85724300  0.85724300  0.85724300  1
  C  C6  1  0.53188900  0.25894800  0.96159300  1
  C  C7  1  0.96159300  0.53188900  0.25894800  1
  C  C8  1  0.25894800  0.96159300  0.53188900  1
  C  C9  1  0.74899100  0.04376600  0.45008600  1
  C  C10  1  0.04376600  0.45008600  0.74899100  1
  C  C11  1  0.45008600  0.74899100  0.04376600  1
  C  C12  1  0.31905100  0.12064600  0.48583700  1
  C  C13  1  0.48583700  0.31905100  0.12064600  1
  C  C14  1  0.91652800  0.06037700  0.26378700  1
  C  C15  1  0.12064600  0.48583700  0.31905100  1
  C  C16  1  0.80029600  0.02236600  0.60549300  1
  C  C17  1  0.58431500  0.23057500  0.42713400  1
  C  C18  1  0.06037700  0.26378700  0.91652800  1
  C  C19  1  0.23057500  0.42713400  0.58431500  1
  C  C20  1  0.37435900  0.19748600  0.00069200  1
  C  C21  1  0.42713400  0.58431500  0.23057500  1
  C  C22  1  0.72355100  0.09695400  0.95121100  1
  C  C23  1  0.00069200  0.37435900  0.19748600  1
  C  C24  1  0.02236600  0.60549300  0.80029600  1
  C  C25  1  0.26378700  0.91652800  0.06037700  1
  C  C26  1  0.55108200  0.42306000  0.77204200  1
  C  C27  1  0.60549300  0.80029600  0.02236600  1
  C  C28  1  0.77204200  0.55108200  0.42306000  1
  C  C29  1  0.95121100  0.72355100  0.09695400  1
  C  C30  1  0.42306000  0.77204200  0.55108200  1
  C  C31  1  0.19748600  0.00069200  0.37435900  1
  C  C32  1  0.87351800  0.50112600  0.70017700  1
  C  C33  1  0.09695400  0.95121100  0.72355100  1
  C  C34  1  0.50112600  0.70017700  0.87351800  1
  C  C35  1  0.70017700  0.87351800  0.50112600  1
