# generated using pymatgen
data_Cu3Ni13C40
_symmetry_space_group_name_H-M   'P 1'
_cell_length_a   8.30432800
_cell_length_b   8.66259552
_cell_length_c   10.15668754
_cell_angle_alpha   114.97563640
_cell_angle_beta   113.65627833
_cell_angle_gamma   89.46085214
_symmetry_Int_Tables_number   1
_chemical_formula_structural   Cu3Ni13C40
_chemical_formula_sum   'Cu3 Ni13 C40'
_cell_volume   595.29101856
_cell_formula_units_Z   1
loop_
 _symmetry_equiv_pos_site_id
 _symmetry_equiv_pos_as_xyz
  1  'x, y, z'
loop_
 _atom_site_type_symbol
 _atom_site_label
 _atom_site_symmetry_multiplicity
 _atom_site_fract_x
 _atom_site_fract_y
 _atom_site_fract_z
 _atom_site_occupancy
  C  C0  1  0.56450900  0.80194300  0.87540800  1
  C  C1  1  0.06613500  0.30213800  0.87686900  1
  C  C2  1  0.18642200  0.44600900  0.62371800  1
  C  C3  1  0.68596300  0.94756700  0.62351700  1
  C  C4  1  0.31403700  0.05243300  0.37648300  1
  C  C5  1  0.81357800  0.55399100  0.37628200  1
  C  C6  1  0.43549100  0.19805700  0.12459200  1
  C  C7  1  0.93386500  0.69786200  0.12313100  1
  Ni  Ni8  1  0.00000000  0.00000000  0.00000000  1
  Ni  Ni9  1  0.50000000  0.50000000  0.00000000  1
  Ni  Ni10  1  0.12544000  0.87494700  0.74974700  1
  Ni  Ni11  1  0.62512500  0.37123500  0.74915400  1
  Ni  Ni12  1  0.87571300  0.62394400  0.74987900  1
  Ni  Ni13  1  0.37536100  0.12446400  0.75068400  1
  Ni  Ni14  1  0.50000000  0.50000000  0.50000000  1
  Ni  Ni15  1  0.74948500  0.24789000  0.50070800  1
  Ni  Ni16  1  0.25051500  0.75211000  0.49929200  1
  Ni  Ni17  1  0.12428700  0.37605600  0.25012100  1
  Ni  Ni18  1  0.62463900  0.87553600  0.24931600  1
  Ni  Ni19  1  0.37487500  0.62876500  0.25084600  1
  Ni  Ni20  1  0.87456000  0.12505300  0.25025300  1
  Cu  Cu21  1  0.24982600  0.74940800  0.99886400  1
  Cu  Cu22  1  0.75017400  0.25059200  0.00113600  1
  Cu  Cu23  1  0.00000000  0.00000000  0.50000000  1
  C  C24  1  0.99853900  0.76660900  0.98460400  1
  C  C25  1  0.72877500  0.48242400  0.98710900  1
  C  C26  1  0.49912300  0.26677900  0.98620700  1
  C  C27  1  0.22939500  0.98303900  0.98664300  1
  C  C28  1  0.40128800  0.38709700  0.76655100  1
  C  C29  1  0.90161900  0.88884900  0.76697900  1
  C  C30  1  0.61409500  0.15102700  0.75770000  1
  C  C31  1  0.11319200  0.65164500  0.75509500  1
  C  C32  1  0.34925800  0.86079500  0.73265300  1
  C  C33  1  0.13743200  0.09739700  0.74417300  1
  C  C34  1  0.84993200  0.35973300  0.73402800  1
  C  C35  1  0.63288900  0.59339100  0.73754900  1
  C  C36  1  0.25010200  0.98435200  0.51490700  1
  C  C37  1  0.52407900  0.25853000  0.51555400  1
  C  C38  1  0.02042300  0.76770900  0.51362500  1
  C  C39  1  0.74760400  0.48179100  0.51486800  1
  C  C40  1  0.74989800  0.01564800  0.48509300  1
  C  C41  1  0.97957700  0.23229100  0.48637500  1
  C  C42  1  0.47592100  0.74147000  0.48444600  1
  C  C43  1  0.25239600  0.51820900  0.48513200  1
  C  C44  1  0.86256800  0.90260300  0.25582700  1
  C  C45  1  0.36711100  0.40660900  0.26245100  1
  C  C46  1  0.65074200  0.13920500  0.26734700  1
  C  C47  1  0.15006800  0.64026700  0.26597200  1
  C  C48  1  0.09838100  0.11115100  0.23302100  1
  C  C49  1  0.88680800  0.34835500  0.24490500  1
  C  C50  1  0.38590500  0.84897300  0.24230000  1
  C  C51  1  0.59871200  0.61290300  0.23344900  1
  C  C52  1  0.00146100  0.23339100  0.01539600  1
  C  C53  1  0.77060500  0.01696100  0.01335700  1
  C  C54  1  0.27122500  0.51757600  0.01289100  1
  C  C55  1  0.50087700  0.73322100  0.01379300  1
