# generated using pymatgen
data_CuNi4C13
_symmetry_space_group_name_H-M   'P 1'
_cell_length_a   8.10779700
_cell_length_b   8.10779700
_cell_length_c   5.82955100
_cell_angle_alpha   90.00000000
_cell_angle_beta   90.00000000
_cell_angle_gamma   90.00000000
_symmetry_Int_Tables_number   1
_chemical_formula_structural   CuNi4C13
_chemical_formula_sum   'Cu2 Ni8 C26'
_cell_volume   383.21353426
_cell_formula_units_Z   2
loop_
 _symmetry_equiv_pos_site_id
 _symmetry_equiv_pos_as_xyz
  1  'x, y, z'
loop_
 _atom_site_type_symbol
 _atom_site_label
 _atom_site_symmetry_multiplicity
 _atom_site_fract_x
 _atom_site_fract_y
 _atom_site_fract_z
 _atom_site_occupancy
  C  C0  1  0.74092500  0.00000000  0.45968100  1
  C  C1  1  0.25907500  0.00000000  0.45968100  1
  C  C2  1  0.50000000  0.24092500  0.45968100  1
  C  C3  1  0.50000000  0.75907500  0.45968100  1
  C  C4  1  0.75907500  0.50000000  0.54031900  1
  C  C5  1  0.24092500  0.50000000  0.54031900  1
  C  C6  1  0.00000000  0.25907500  0.54031900  1
  C  C7  1  0.00000000  0.74092500  0.54031900  1
  C  C8  1  0.85415600  0.11150900  0.24243200  1
  C  C9  1  0.85415600  0.88849100  0.24243200  1
  C  C10  1  0.14584400  0.11150900  0.24243200  1
  C  C11  1  0.14584400  0.88849100  0.24243200  1
  C  C12  1  0.61150900  0.35415600  0.24243200  1
  C  C13  1  0.61150900  0.64584400  0.24243200  1
  C  C14  1  0.38849100  0.35415600  0.24243200  1
  C  C15  1  0.38849100  0.64584400  0.24243200  1
  C  C16  1  0.64584400  0.38849100  0.75756800  1
  C  C17  1  0.64584400  0.61150900  0.75756800  1
  C  C18  1  0.35415600  0.38849100  0.75756800  1
  C  C19  1  0.35415600  0.61150900  0.75756800  1
  C  C20  1  0.88849100  0.14584400  0.75756800  1
  C  C21  1  0.88849100  0.85415600  0.75756800  1
  C  C22  1  0.11150900  0.14584400  0.75756800  1
  C  C23  1  0.11150900  0.85415600  0.75756800  1
  Ni  Ni24  1  0.85055200  0.00000000  0.34887700  1
  Ni  Ni25  1  0.14944800  0.00000000  0.34887700  1
  Ni  Ni26  1  0.50000000  0.35055200  0.34887700  1
  Ni  Ni27  1  0.50000000  0.64944800  0.34887700  1
  Ni  Ni28  1  0.64944800  0.50000000  0.65112300  1
  Ni  Ni29  1  0.35055200  0.50000000  0.65112300  1
  Ni  Ni30  1  0.00000000  0.14944800  0.65112300  1
  Ni  Ni31  1  0.00000000  0.85055200  0.65112300  1
  Cu  Cu32  1  0.50000000  0.00000000  0.88791100  1
  Cu  Cu33  1  0.00000000  0.50000000  0.11208900  1
  C  C34  1  0.50000000  0.50000000  0.50000000  1
  C  C35  1  0.00000000  0.00000000  0.50000000  1
