# generated using pymatgen
data_CuNi2C17
_symmetry_space_group_name_H-M   'P 1'
_cell_length_a   8.61539327
_cell_length_b   8.61539327
_cell_length_c   8.30726204
_cell_angle_alpha   64.47213962
_cell_angle_beta   64.47213962
_cell_angle_gamma   62.64644855
_symmetry_Int_Tables_number   1
_chemical_formula_structural   CuNi2C17
_chemical_formula_sum   'Cu2 Ni4 C34'
_cell_volume   472.86516115
_cell_formula_units_Z   2
loop_
 _symmetry_equiv_pos_site_id
 _symmetry_equiv_pos_as_xyz
  1  'x, y, z'
loop_
 _atom_site_type_symbol
 _atom_site_label
 _atom_site_symmetry_multiplicity
 _atom_site_fract_x
 _atom_site_fract_y
 _atom_site_fract_z
 _atom_site_occupancy
  C  C0  1  0.86270600  0.13729400  0.00000000  1
  C  C1  1  0.16010900  0.83989100  0.50000000  1
  C  C2  1  0.75411200  0.65296600  0.09803700  1
  C  C3  1  0.34703400  0.24588800  0.90196300  1
  Ni  Ni4  1  0.85223800  0.35274900  0.60617000  1
  Ni  Ni5  1  0.64725100  0.14776200  0.39383000  1
  Ni  Ni6  1  0.34472400  0.84440400  0.09490300  1
  Ni  Ni7  1  0.15559600  0.65527600  0.90509700  1
  Cu  Cu8  1  0.00243800  0.50520800  0.74168500  1
  Cu  Cu9  1  0.49479200  0.99756200  0.25831500  1
  C  C10  1  0.24694600  0.06149900  0.68034900  1
  C  C11  1  0.93850100  0.75305400  0.31965100  1
  C  C12  1  0.56267200  0.43732800  0.00000000  1
  C  C13  1  0.45971700  0.54028300  0.50000000  1
  C  C14  1  0.04482800  0.24999400  0.19261700  1
  C  C15  1  0.75000600  0.95517200  0.80738300  1
  C  C16  1  0.67946600  0.02089600  0.64052100  1
  C  C17  1  0.50286900  0.38763900  0.42316700  1
  C  C18  1  0.08011400  0.24866900  0.67821800  1
  C  C19  1  0.90661400  0.18052900  0.20127500  1
  C  C20  1  0.18925100  0.90427200  0.71073900  1
  C  C21  1  0.39383400  0.08290100  0.48930900  1
  C  C22  1  0.91709900  0.60616600  0.51069100  1
  C  C23  1  0.75133100  0.91988600  0.32178200  1
  C  C24  1  0.61236100  0.49713100  0.57683300  1
  C  C25  1  0.58952500  0.24327400  0.15128300  1
  C  C26  1  0.26603400  0.56072700  0.64776500  1
  C  C27  1  0.97910400  0.32053400  0.35947900  1
  C  C28  1  0.96272600  0.69224400  0.15886200  1
  C  C29  1  0.75672600  0.41047500  0.84871700  1
  C  C30  1  0.43927300  0.73396600  0.35223500  1
  C  C31  1  0.40643700  0.46257800  0.93983600  1
  C  C32  1  0.24044100  0.10118700  0.18616400  1
  C  C33  1  0.07060700  0.40367700  0.99981200  1
  C  C34  1  0.59632300  0.92939300  0.00018800  1
  C  C35  1  0.81947100  0.09338600  0.79872500  1
  C  C36  1  0.09572800  0.81074900  0.28926100  1
  C  C37  1  0.89881300  0.75955900  0.81383600  1
  C  C38  1  0.53742200  0.59356300  0.06016400  1
  C  C39  1  0.30775600  0.03727400  0.84113800  1
