# generated using pymatgen
data_Cu(NiC2)3
_symmetry_space_group_name_H-M   'P 1'
_cell_length_a   5.81605579
_cell_length_b   5.81605579
_cell_length_c   11.81201500
_cell_angle_alpha   90.00000000
_cell_angle_beta   90.00000000
_cell_angle_gamma   119.99999758
_symmetry_Int_Tables_number   1
_chemical_formula_structural   Cu(NiC2)3
_chemical_formula_sum   'Cu2 Ni6 C12'
_cell_volume   346.02841167
_cell_formula_units_Z   2
loop_
 _symmetry_equiv_pos_site_id
 _symmetry_equiv_pos_as_xyz
  1  'x, y, z'
loop_
 _atom_site_type_symbol
 _atom_site_label
 _atom_site_symmetry_multiplicity
 _atom_site_fract_x
 _atom_site_fract_y
 _atom_site_fract_z
 _atom_site_occupancy
  Ni  Ni0  1  0.33333300  0.66666700  0.99722700  1
  Ni  Ni1  1  0.66666700  0.33333300  0.49722700  1
  Ni  Ni2  1  0.33333300  0.66666700  0.50277300  1
  Ni  Ni3  1  0.00000000  0.00000000  0.00000000  1
  Ni  Ni4  1  0.66666700  0.33333300  0.00277300  1
  Ni  Ni5  1  0.00000000  0.00000000  0.50000000  1
  Cu  Cu6  1  0.66666700  0.33333300  0.75000000  1
  Cu  Cu7  1  0.33333300  0.66666700  0.25000000  1
  C  C8  1  0.00274800  0.66806700  0.13287300  1
  C  C9  1  0.66806700  0.66531900  0.63287300  1
  C  C10  1  0.00274800  0.33468100  0.36712700  1
  C  C11  1  0.33193300  0.33468100  0.13287300  1
  C  C12  1  0.33468100  0.00274800  0.63287300  1
  C  C13  1  0.33468100  0.33193300  0.86712700  1
  C  C14  1  0.66531900  0.66806700  0.36712700  1
  C  C15  1  0.99725200  0.66531900  0.86712700  1
  C  C16  1  0.66806700  0.00274800  0.86712700  1
  C  C17  1  0.33193300  0.99725200  0.36712700  1
  C  C18  1  0.66531900  0.99725200  0.13287300  1
  C  C19  1  0.99725200  0.33193300  0.63287300  1
