# generated using pymatgen
data_CuNi7C4
_symmetry_space_group_name_H-M   'P 1'
_cell_length_a   7.32424321
_cell_length_b   7.32424321
_cell_length_c   6.43377400
_cell_angle_alpha   90.00000000
_cell_angle_beta   90.00000000
_cell_angle_gamma   131.57605334
_symmetry_Int_Tables_number   1
_chemical_formula_structural   CuNi7C4
_chemical_formula_sum   'Cu2 Ni14 C8'
_cell_volume   258.18841627
_cell_formula_units_Z   2
loop_
 _symmetry_equiv_pos_site_id
 _symmetry_equiv_pos_as_xyz
  1  'x, y, z'
loop_
 _atom_site_type_symbol
 _atom_site_label
 _atom_site_symmetry_multiplicity
 _atom_site_fract_x
 _atom_site_fract_y
 _atom_site_fract_z
 _atom_site_occupancy
  C  C0  1  0.49020900  0.99867400  0.00000000  1
  C  C1  1  0.00132600  0.50979100  0.00000000  1
  C  C2  1  0.74733300  0.25266700  0.50000000  1
  C  C3  1  0.25833200  0.74166800  0.50000000  1
  C  C4  1  0.00687100  0.99312900  0.00000000  1
  C  C5  1  0.49962400  0.50037600  0.00000000  1
  C  C6  1  0.25087000  0.25869100  0.50000000  1
  C  C7  1  0.74130900  0.74913000  0.50000000  1
  Ni  Ni8  1  0.15175800  0.84824200  0.00000000  1
  Ni  Ni9  1  0.65697900  0.34302100  0.00000000  1
  Ni  Ni10  1  0.50329300  0.00330100  0.69208300  1
  Ni  Ni11  1  0.99669900  0.49670700  0.69208300  1
  Ni  Ni12  1  0.50329300  0.00330100  0.30791700  1
  Ni  Ni13  1  0.24740400  0.24691100  0.80632700  1
  Ni  Ni14  1  0.75308900  0.75259600  0.80632700  1
  Ni  Ni15  1  0.99669900  0.49670700  0.30791700  1
  Ni  Ni16  1  0.34258200  0.65741800  0.00000000  1
  Ni  Ni17  1  0.59270800  0.40729200  0.50000000  1
  Ni  Ni18  1  0.40225300  0.59774700  0.50000000  1
  Ni  Ni19  1  0.90659300  0.09340700  0.50000000  1
  Ni  Ni20  1  0.24740400  0.24691100  0.19367300  1
  Ni  Ni21  1  0.75308900  0.75259600  0.19367300  1
  Cu  Cu22  1  0.84914400  0.15085600  0.00000000  1
  Cu  Cu23  1  0.10113900  0.89886100  0.50000000  1
