# generated using pymatgen
data_Cu7NiC4
_symmetry_space_group_name_H-M   'P 1'
_cell_length_a   5.80840125
_cell_length_b   5.80840125
_cell_length_c   5.80840125
_cell_angle_alpha   113.75803558
_cell_angle_beta   107.77337988
_cell_angle_gamma   106.97006560
_symmetry_Int_Tables_number   1
_chemical_formula_structural   Cu7NiC4
_chemical_formula_sum   'Cu7 Ni1 C4'
_cell_volume   150.20579088
_cell_formula_units_Z   1
loop_
 _symmetry_equiv_pos_site_id
 _symmetry_equiv_pos_as_xyz
  1  'x, y, z'
loop_
 _atom_site_type_symbol
 _atom_site_label
 _atom_site_symmetry_multiplicity
 _atom_site_fract_x
 _atom_site_fract_y
 _atom_site_fract_z
 _atom_site_occupancy
  C  C0  1  0.75869100  0.00000000  0.75869100  1
  C  C1  1  0.72806200  0.50000000  0.22806200  1
  C  C2  1  0.25872700  0.27025400  0.52898100  1
  C  C3  1  0.25872700  0.72974600  0.98847300  1
  Ni  Ni4  1  0.44445300  0.50000000  0.94445300  1
  Cu  Cu5  1  0.44947700  0.00000000  0.44947700  1
  Cu  Cu6  1  0.95763800  0.96049200  0.50452900  1
  Cu  Cu7  1  0.95763800  0.45310900  0.99714600  1
  Cu  Cu8  1  0.54403600  0.03950800  0.99714600  1
  Cu  Cu9  1  0.54403600  0.54689100  0.50452900  1
  Cu  Cu10  1  0.03359000  0.50000000  0.53359000  1
  Cu  Cu11  1  0.06492500  0.00000000  0.06492500  1
