# generated using pymatgen
data_CuNiC5
_symmetry_space_group_name_H-M   'P 1'
_cell_length_a   5.13610600
_cell_length_b   6.43709000
_cell_length_c   10.84452100
_cell_angle_alpha   90.00000000
_cell_angle_beta   90.00000000
_cell_angle_gamma   90.00000000
_symmetry_Int_Tables_number   1
_chemical_formula_structural   CuNiC5
_chemical_formula_sum   'Cu4 Ni4 C20'
_cell_volume   358.53696142
_cell_formula_units_Z   4
loop_
 _symmetry_equiv_pos_site_id
 _symmetry_equiv_pos_as_xyz
  1  'x, y, z'
loop_
 _atom_site_type_symbol
 _atom_site_label
 _atom_site_symmetry_multiplicity
 _atom_site_fract_x
 _atom_site_fract_y
 _atom_site_fract_z
 _atom_site_occupancy
  C  C0  1  0.26257800  0.48630800  0.33265400  1
  C  C1  1  0.76257800  0.51369200  0.66734600  1
  C  C2  1  0.76257800  0.98630800  0.16734600  1
  C  C3  1  0.26257800  0.01369200  0.83265400  1
  Ni  Ni4  1  0.26192400  0.77649500  0.58549300  1
  Ni  Ni5  1  0.26192400  0.72350500  0.08549300  1
  Ni  Ni6  1  0.76192400  0.22350500  0.41450700  1
  Ni  Ni7  1  0.76192400  0.27649500  0.91450700  1
  Cu  Cu8  1  0.26287300  0.51711600  0.82719600  1
  Cu  Cu9  1  0.26287300  0.98288400  0.32719600  1
  Cu  Cu10  1  0.76287300  0.01711600  0.67280400  1
  Cu  Cu11  1  0.76287300  0.48288400  0.17280400  1
  C  C12  1  0.62604000  0.69516000  0.11555500  1
  C  C13  1  0.19774800  0.72515100  0.91284300  1
  C  C14  1  0.19774800  0.77484900  0.41284300  1
  C  C15  1  0.62604000  0.80484000  0.61555500  1
  C  C16  1  0.15361200  0.95246000  0.18497800  1
  C  C17  1  0.08222200  0.98541400  0.67289500  1
  C  C18  1  0.58222200  0.01458600  0.32710500  1
  C  C19  1  0.65361200  0.04754000  0.81502200  1
  C  C20  1  0.12604000  0.19516000  0.38444500  1
  C  C21  1  0.69774800  0.22515100  0.58715700  1
  C  C22  1  0.69774800  0.27484900  0.08715700  1
  C  C23  1  0.12604000  0.30484000  0.88444500  1
  C  C24  1  0.65361200  0.45246000  0.31502200  1
  C  C25  1  0.58222200  0.48541400  0.82710500  1
  C  C26  1  0.08222200  0.51458600  0.17289500  1
  C  C27  1  0.15361200  0.54754000  0.68497800  1
