# generated using pymatgen
data_Cu10Ni2C11
_symmetry_space_group_name_H-M   'P 1'
_cell_length_a   5.89107000
_cell_length_b   6.05957700
_cell_length_c   12.08555650
_cell_angle_alpha   67.92470981
_cell_angle_beta   90.00000000
_cell_angle_gamma   90.00000000
_symmetry_Int_Tables_number   1
_chemical_formula_structural   Cu10Ni2C11
_chemical_formula_sum   'Cu20 Ni4 C22'
_cell_volume   399.79558642
_cell_formula_units_Z   2
loop_
 _symmetry_equiv_pos_site_id
 _symmetry_equiv_pos_as_xyz
  1  'x, y, z'
loop_
 _atom_site_type_symbol
 _atom_site_label
 _atom_site_symmetry_multiplicity
 _atom_site_fract_x
 _atom_site_fract_y
 _atom_site_fract_z
 _atom_site_occupancy
  C  C0  1  0.27707200  0.77835000  0.81544500  1
  C  C1  1  0.77707200  0.22165000  0.68455500  1
  C  C2  1  0.22292800  0.77835000  0.31544500  1
  C  C3  1  0.72292800  0.22165000  0.18455500  1
  C  C4  1  0.00000000  0.00000000  0.00000000  1
  C  C5  1  0.50000000  0.00000000  0.50000000  1
  C  C6  1  0.68787200  0.76528800  0.98380300  1
  C  C7  1  0.67286000  0.32926900  0.92858000  1
  C  C8  1  0.91025200  0.44958000  0.89639100  1
  C  C9  1  0.83561700  0.80962100  0.86341400  1
  C  C10  1  0.41025200  0.55042000  0.60360900  1
  C  C11  1  0.17286000  0.67073100  0.57142000  1
  C  C12  1  0.33561700  0.19037900  0.63658600  1
  C  C13  1  0.18787200  0.23471200  0.51619700  1
  C  C14  1  0.81212800  0.76528800  0.48380300  1
  C  C15  1  0.66438300  0.80962100  0.36341400  1
  C  C16  1  0.82714000  0.32926900  0.42858000  1
  C  C17  1  0.58974800  0.44958000  0.39639100  1
  C  C18  1  0.16438300  0.19037900  0.13658600  1
  C  C19  1  0.08974800  0.55042000  0.10360900  1
  C  C20  1  0.32714000  0.67073100  0.07142000  1
  C  C21  1  0.31212800  0.23471200  0.01619700  1
  Ni  Ni22  1  0.35644100  0.26459500  0.81521900  1
  Ni  Ni23  1  0.85644100  0.73540500  0.68478100  1
  Ni  Ni24  1  0.14355900  0.26459500  0.31521900  1
  Ni  Ni25  1  0.64355900  0.73540500  0.18478100  1
  Cu  Cu26  1  0.82974700  0.31945700  0.96135000  1
  Cu  Cu27  1  0.39759700  0.39259300  0.87837700  1
  Cu  Cu28  1  0.75208700  0.89219600  0.90995000  1
  Cu  Cu29  1  0.20483100  0.09813000  0.84638600  1
  Cu  Cu30  1  0.97157100  0.69737600  0.78242300  1
  Cu  Cu31  1  0.47157100  0.30262400  0.71757700  1
  Cu  Cu32  1  0.70483100  0.90187000  0.65361400  1
  Cu  Cu33  1  0.89759700  0.60740700  0.62162300  1
  Cu  Cu34  1  0.32974700  0.68054300  0.53865000  1
  Cu  Cu35  1  0.25208700  0.10780400  0.59005000  1
  Cu  Cu36  1  0.74791300  0.89219600  0.40995000  1
  Cu  Cu37  1  0.67025300  0.31945700  0.46135000  1
  Cu  Cu38  1  0.10240300  0.39259300  0.37837700  1
  Cu  Cu39  1  0.29516900  0.09813000  0.34638600  1
  Cu  Cu40  1  0.52842900  0.69737600  0.28242300  1
  Cu  Cu41  1  0.02842900  0.30262400  0.21757700  1
  Cu  Cu42  1  0.79516900  0.90187000  0.15361400  1
  Cu  Cu43  1  0.24791300  0.10780400  0.09005000  1
  Cu  Cu44  1  0.60240300  0.60740700  0.12162300  1
  Cu  Cu45  1  0.17025300  0.68054300  0.03865000  1
