# generated using pymatgen
data_Cu6NiC68
_symmetry_space_group_name_H-M   'P 1'
_cell_length_a   9.82044825
_cell_length_b   9.82044825
_cell_length_c   9.82044783
_cell_angle_alpha   84.39755036
_cell_angle_beta   84.39755036
_cell_angle_gamma   84.39755408
_symmetry_Int_Tables_number   1
_chemical_formula_structural   Cu6NiC68
_chemical_formula_sum   'Cu6 Ni1 C68'
_cell_volume   934.35151889
_cell_formula_units_Z   1
loop_
 _symmetry_equiv_pos_site_id
 _symmetry_equiv_pos_as_xyz
  1  'x, y, z'
loop_
 _atom_site_type_symbol
 _atom_site_label
 _atom_site_symmetry_multiplicity
 _atom_site_fract_x
 _atom_site_fract_y
 _atom_site_fract_z
 _atom_site_occupancy
  C  C0  1  0.66701300  0.10149700  0.66701300  1
  C  C1  1  0.89850300  0.33298700  0.33298700  1
  C  C2  1  0.66701300  0.66701300  0.10149700  1
  C  C3  1  0.33298700  0.33298700  0.89850300  1
  C  C4  1  0.10149700  0.66701300  0.66701300  1
  C  C5  1  0.33298700  0.89850300  0.33298700  1
  C  C6  1  0.73954900  0.73954800  0.73954900  1
  C  C7  1  0.26045200  0.26045100  0.26045100  1
  Ni  Ni8  1  0.00000000  0.00000000  0.00000000  1
  C  C9  1  0.90197700  0.52640500  0.90197700  1
  C  C10  1  0.47359500  0.09802300  0.09802300  1
  C  C11  1  0.51734300  0.15714500  0.39811400  1
  C  C12  1  0.84285500  0.48265700  0.60188600  1
  C  C13  1  0.35250900  0.03698600  0.03698600  1
  C  C14  1  0.96301400  0.64749100  0.96301400  1
  C  C15  1  0.39811400  0.15714500  0.51734300  1
  C  C16  1  0.84285500  0.60188600  0.48265700  1
  C  C17  1  0.60188600  0.48265700  0.84285500  1
  C  C18  1  0.51734300  0.39811400  0.15714500  1
  C  C19  1  0.09802300  0.09802300  0.47359500  1
  C  C20  1  0.03698600  0.03698600  0.35250900  1
  C  C21  1  0.96301400  0.96301400  0.64749100  1
  C  C22  1  0.90197700  0.90197700  0.52640500  1
  C  C23  1  0.39811400  0.51734300  0.15714500  1
  C  C24  1  0.48265700  0.60188600  0.84285500  1
  C  C25  1  0.60188600  0.84285500  0.48265700  1
  C  C26  1  0.15714500  0.39811400  0.51734300  1
  C  C27  1  0.03698600  0.35250900  0.03698600  1
  C  C28  1  0.64749100  0.96301400  0.96301400  1
  C  C29  1  0.48265700  0.84285500  0.60188600  1
  C  C30  1  0.15714500  0.51734300  0.39811400  1
  C  C31  1  0.09802300  0.47359500  0.09802300  1
  C  C32  1  0.52640500  0.90197700  0.90197700  1
  Cu  Cu33  1  0.75460000  0.00000000  0.24540000  1
  Cu  Cu34  1  0.75460000  0.24540000  0.00000000  1
  Cu  Cu35  1  0.24540000  0.00000000  0.75460000  1
  Cu  Cu36  1  0.00000000  0.24540000  0.75460000  1
  Cu  Cu37  1  0.24540000  0.75460000  0.00000000  1
  Cu  Cu38  1  0.00000000  0.75460000  0.24540000  1
  C  C39  1  0.87375000  0.10019900  0.87375000  1
  C  C40  1  0.89980100  0.12625000  0.12625000  1
  C  C41  1  0.70870500  0.12519600  0.36804500  1
  C  C42  1  0.87480400  0.29129500  0.63195500  1
  C  C43  1  0.90948400  0.34805100  0.90948400  1
  C  C44  1  0.65194900  0.09051600  0.09051600  1
  C  C45  1  0.70870500  0.36804500  0.12519600  1
  C  C46  1  0.63195500  0.29129500  0.87480400  1
  C  C47  1  0.89832800  0.62789800  0.89832800  1
  C  C48  1  0.37210200  0.10167200  0.10167200  1
  C  C49  1  0.41695300  0.15627900  0.41695300  1
  C  C50  1  0.84372100  0.58304700  0.58304700  1
  C  C51  1  0.87480400  0.63195500  0.29129500  1
  C  C52  1  0.36804500  0.12519600  0.70870500  1
  C  C53  1  0.12625000  0.12625000  0.89980100  1
  C  C54  1  0.10167200  0.10167200  0.37210200  1
  C  C55  1  0.58304700  0.58304700  0.84372100  1
  C  C56  1  0.89832800  0.89832800  0.62789800  1
  C  C57  1  0.09051600  0.09051600  0.65194900  1
  C  C58  1  0.41695300  0.41695300  0.15627900  1
  C  C59  1  0.90948400  0.90948400  0.34805100  1
  C  C60  1  0.87375000  0.87375000  0.10019900  1
  C  C61  1  0.63195500  0.87480400  0.29129500  1
  C  C62  1  0.12519600  0.36804500  0.70870500  1
  C  C63  1  0.58304700  0.84372100  0.58304700  1
  C  C64  1  0.15627900  0.41695300  0.41695300  1
  C  C65  1  0.10167200  0.37210200  0.10167200  1
  C  C66  1  0.62789800  0.89832800  0.89832800  1
  C  C67  1  0.29129500  0.63195500  0.87480400  1
  C  C68  1  0.36804500  0.70870500  0.12519600  1
  C  C69  1  0.34805100  0.90948400  0.90948400  1
  C  C70  1  0.09051600  0.65194900  0.09051600  1
  C  C71  1  0.29129500  0.87480400  0.63195500  1
  C  C72  1  0.12519600  0.70870500  0.36804500  1
  C  C73  1  0.10019900  0.87375000  0.87375000  1
  C  C74  1  0.12625000  0.89980100  0.12625000  1
