# generated using pymatgen
data_Cu2(NiC4)3
_symmetry_space_group_name_H-M   'P 1'
_cell_length_a   14.33525100
_cell_length_b   14.27478200
_cell_length_c   22.84820395
_cell_angle_alpha   53.51604638
_cell_angle_beta   90.00000000
_cell_angle_gamma   90.00000000
_symmetry_Int_Tables_number   1
_chemical_formula_structural   Cu2(NiC4)3
_chemical_formula_sum   'Cu8 Ni12 C48'
_cell_volume   3759.20102321
_cell_formula_units_Z   4
loop_
 _symmetry_equiv_pos_site_id
 _symmetry_equiv_pos_as_xyz
  1  'x, y, z'
loop_
 _atom_site_type_symbol
 _atom_site_label
 _atom_site_symmetry_multiplicity
 _atom_site_fract_x
 _atom_site_fract_y
 _atom_site_fract_z
 _atom_site_occupancy
  Ni  Ni0  1  0.20851000  0.44799500  0.52696100  1
  Ni  Ni1  1  0.12045500  0.72046500  0.16036100  1
  Ni  Ni2  1  0.33970700  0.98137400  0.90566600  1
  Ni  Ni3  1  0.62045500  0.27953500  0.33963900  1
  Ni  Ni4  1  0.83970700  0.01862600  0.59433400  1
  Ni  Ni5  1  0.70851000  0.55200500  0.97303900  1
  Ni  Ni6  1  0.29149000  0.44799500  0.02696100  1
  Ni  Ni7  1  0.16029300  0.98137400  0.40566600  1
  Ni  Ni8  1  0.37954500  0.72046500  0.66036100  1
  Ni  Ni9  1  0.66029300  0.01862600  0.09433400  1
  Ni  Ni10  1  0.87954500  0.27953500  0.83963900  1
  Ni  Ni11  1  0.79149000  0.55200500  0.47303900  1
  Cu  Cu12  1  0.47176000  0.62651100  0.12734600  1
  Cu  Cu13  1  0.97176000  0.37348900  0.37265400  1
  Cu  Cu14  1  0.52503400  0.12092700  0.63794900  1
  Cu  Cu15  1  0.02503400  0.87907300  0.86205100  1
  Cu  Cu16  1  0.97496600  0.12092700  0.13794900  1
  Cu  Cu17  1  0.47496600  0.87907300  0.36205100  1
  Cu  Cu18  1  0.02824000  0.62651100  0.62734600  1
  Cu  Cu19  1  0.52824000  0.37348900  0.87265400  1
  C  C20  1  0.62654400  0.80419300  0.06843100  1
  C  C21  1  0.61561900  0.36018100  0.54339900  1
  C  C22  1  0.80100300  0.53282700  0.32964800  1
  C  C23  1  0.91811700  0.10540400  0.78777800  1
  C  C24  1  0.11499200  0.54597100  0.35691200  1
  C  C25  1  0.34589300  0.82007500  0.10217300  1
  C  C26  1  0.10256800  0.92478400  0.97280400  1
  C  C27  1  0.48137500  0.14914600  0.75480800  1
  C  C28  1  0.19669300  0.01661100  0.77598400  1
  C  C29  1  0.34625600  0.23600100  0.54924900  1
  C  C30  1  0.99337000  0.48042300  0.21437700  1
  C  C31  1  0.44086900  0.70276600  0.96867800  1
  C  C32  1  0.49337000  0.51957700  0.28562300  1
  C  C33  1  0.94086900  0.29723400  0.53132200  1
  C  C34  1  0.84625600  0.76399900  0.95075100  1
  C  C35  1  0.69669300  0.98338900  0.72401600  1
  C  C36  1  0.60256800  0.07521600  0.52719600  1
  C  C37  1  0.84589300  0.17992500  0.39782700  1
  C  C38  1  0.98137500  0.85085400  0.74519200  1
  C  C39  1  0.61499200  0.45402900  0.14308800  1
  C  C40  1  0.30100300  0.46717300  0.17035200  1
  C  C41  1  0.12654400  0.19580700  0.43156900  1
  C  C42  1  0.41811700  0.89459600  0.71222200  1
  C  C43  1  0.11561900  0.63981900  0.95660100  1
  C  C44  1  0.88438100  0.36018100  0.04339900  1
  C  C45  1  0.58188300  0.10540400  0.28777800  1
  C  C46  1  0.87345600  0.80419300  0.56843100  1
  C  C47  1  0.69899700  0.53282700  0.82964800  1
  C  C48  1  0.38500800  0.54597100  0.85691200  1
  C  C49  1  0.01862500  0.14914600  0.25480800  1
  C  C50  1  0.15410700  0.82007500  0.60217300  1
  C  C51  1  0.39743200  0.92478400  0.47280400  1
  C  C52  1  0.30330700  0.01661100  0.27598400  1
  C  C53  1  0.15374400  0.23600100  0.04924900  1
  C  C54  1  0.05913100  0.70276600  0.46867800  1
  C  C55  1  0.50663000  0.48042300  0.71437700  1
  C  C56  1  0.55913100  0.29723400  0.03132200  1
  C  C57  1  0.00663000  0.51957700  0.78562300  1
  C  C58  1  0.65374400  0.76399900  0.45075100  1
  C  C59  1  0.80330700  0.98338900  0.22401600  1
  C  C60  1  0.51862500  0.85085400  0.24519200  1
  C  C61  1  0.89743200  0.07521600  0.02719600  1
  C  C62  1  0.65410700  0.17992500  0.89782700  1
  C  C63  1  0.88500800  0.45402900  0.64308800  1
  C  C64  1  0.08188300  0.89459600  0.21222200  1
  C  C65  1  0.19899700  0.46717300  0.67035200  1
  C  C66  1  0.38438100  0.63981900  0.45660100  1
  C  C67  1  0.37345600  0.19580700  0.93156900  1
