# generated using pymatgen
data_Cu2Ni4C13
_symmetry_space_group_name_H-M   'P 1'
_cell_length_a   6.67313600
_cell_length_b   7.67493337
_cell_length_c   5.59943088
_cell_angle_alpha   96.26478591
_cell_angle_beta   105.29306323
_cell_angle_gamma   111.85789877
_symmetry_Int_Tables_number   1
_chemical_formula_structural   Cu2Ni4C13
_chemical_formula_sum   'Cu2 Ni4 C13'
_cell_volume   249.75892120
_cell_formula_units_Z   1
loop_
 _symmetry_equiv_pos_site_id
 _symmetry_equiv_pos_as_xyz
  1  'x, y, z'
loop_
 _atom_site_type_symbol
 _atom_site_label
 _atom_site_symmetry_multiplicity
 _atom_site_fract_x
 _atom_site_fract_y
 _atom_site_fract_z
 _atom_site_occupancy
  C  C0  1  0.25745200  0.28280000  0.67897000  1
  C  C1  1  0.74254800  0.71720000  0.32103000  1
  C  C2  1  0.00000000  0.00000000  0.00000000  1
  Ni  Ni3  1  0.62527400  0.83923000  0.86818500  1
  Ni  Ni4  1  0.37472600  0.16077000  0.13181500  1
  Ni  Ni5  1  0.68977800  0.13495400  0.98254300  1
  Ni  Ni6  1  0.31022200  0.86504600  0.01745700  1
  Cu  Cu7  1  0.77207800  0.36062800  0.69314500  1
  Cu  Cu8  1  0.22792200  0.63937200  0.30685500  1
  C  C9  1  0.90946700  0.14359200  0.72892700  1
  C  C10  1  0.09053300  0.85640800  0.27107300  1
  C  C11  1  0.92159200  0.63755800  0.74725700  1
  C  C12  1  0.07840800  0.36244200  0.25274300  1
  C  C13  1  0.66196900  0.39349000  0.87083100  1
  C  C14  1  0.33803100  0.60651000  0.12916900  1
  C  C15  1  0.61644800  0.26239100  0.42064100  1
  C  C16  1  0.38355200  0.73760900  0.57935900  1
  C  C17  1  0.72200800  0.97438600  0.00672300  1
  C  C18  1  0.27799200  0.02561400  0.99327700  1
