# generated using pymatgen
data_Cu2NiC21
_symmetry_space_group_name_H-M   'P 1'
_cell_length_a   10.80787600
_cell_length_b   13.93373500
_cell_length_c   14.13237900
_cell_angle_alpha   90.00000000
_cell_angle_beta   90.00000000
_cell_angle_gamma   90.00000000
_symmetry_Int_Tables_number   1
_chemical_formula_structural   Cu2NiC21
_chemical_formula_sum   'Cu16 Ni8 C168'
_cell_volume   2128.25261509
_cell_formula_units_Z   8
loop_
 _symmetry_equiv_pos_site_id
 _symmetry_equiv_pos_as_xyz
  1  'x, y, z'
loop_
 _atom_site_type_symbol
 _atom_site_label
 _atom_site_symmetry_multiplicity
 _atom_site_fract_x
 _atom_site_fract_y
 _atom_site_fract_z
 _atom_site_occupancy
  C  C0  1  0.00000000  0.50000000  0.50000000  1
  C  C1  1  0.50000000  0.00000000  0.00000000  1
  C  C2  1  0.50000000  0.00000000  0.50000000  1
  C  C3  1  0.00000000  0.50000000  0.00000000  1
  C  C4  1  0.49915800  0.51363700  0.87659000  1
  C  C5  1  0.00084200  0.98636300  0.37659000  1
  C  C6  1  0.99915800  0.98636300  0.12341000  1
  C  C7  1  0.50084200  0.51363700  0.62341000  1
  C  C8  1  0.50084200  0.48636300  0.12341000  1
  C  C9  1  0.99915800  0.01363700  0.62341000  1
  C  C10  1  0.00084200  0.01363700  0.87659000  1
  C  C11  1  0.49915800  0.48636300  0.37659000  1
  C  C12  1  0.00000000  0.44827400  0.75000000  1
  C  C13  1  0.50000000  0.05172600  0.25000000  1
  C  C14  1  0.00000000  0.55172600  0.25000000  1
  C  C15  1  0.50000000  0.94827400  0.75000000  1
  Ni  Ni16  1  0.18837500  0.64797600  0.85584900  1
  Ni  Ni17  1  0.31162500  0.85202400  0.35584900  1
  Ni  Ni18  1  0.68837500  0.85202400  0.14415100  1
  Ni  Ni19  1  0.81162500  0.64797600  0.64415100  1
  Ni  Ni20  1  0.81162500  0.35202400  0.14415100  1
  Ni  Ni21  1  0.68837500  0.14797600  0.64415100  1
  Ni  Ni22  1  0.31162500  0.14797600  0.85584900  1
  Ni  Ni23  1  0.18837500  0.35202400  0.35584900  1
  C  C24  1  0.96724100  0.63132600  0.84240600  1
  C  C25  1  0.53275900  0.86867400  0.34240600  1
  C  C26  1  0.46724100  0.86867400  0.15759400  1
  C  C27  1  0.03275900  0.63132600  0.65759400  1
  C  C28  1  0.03275900  0.36867400  0.15759400  1
  C  C29  1  0.46724100  0.13132600  0.65759400  1
  C  C30  1  0.53275900  0.13132600  0.84240600  1
  C  C31  1  0.96724100  0.36867400  0.34240600  1
  C  C32  1  0.25857100  0.49116200  0.81925100  1
  C  C33  1  0.24142900  0.00883800  0.31925100  1
  C  C34  1  0.75857100  0.00883800  0.18074900  1
  C  C35  1  0.74142900  0.49116200  0.68074900  1
  C  C36  1  0.74142900  0.50883800  0.18074900  1
  C  C37  1  0.75857100  0.99116200  0.68074900  1
  C  C38  1  0.24142900  0.99116200  0.81925100  1
  C  C39  1  0.25857100  0.50883800  0.31925100  1
  C  C40  1  0.54946500  0.81987100  0.92769500  1
  C  C41  1  0.95053500  0.68012900  0.42769500  1
  C  C42  1  0.04946500  0.68012900  0.07230500  1
  C  C43  1  0.45053500  0.81987100  0.57230500  1
  C  C44  1  0.45053500  0.18012900  0.07230500  1
  C  C45  1  0.04946500  0.31987100  0.57230500  1
  C  C46  1  0.95053500  0.31987100  0.92769500  1
  C  C47  1  0.54946500  0.18012900  0.42769500  1
  C  C48  1  0.40456400  0.81951400  0.91813700  1
  C  C49  1  0.09543600  0.68048600  0.41813700  1
  C  C50  1  0.90456400  0.68048600  0.08186300  1
  C  C51  1  0.59543600  0.81951400  0.58186300  1
  C  C52  1  0.59543600  0.18048600  0.08186300  1
  C  C53  1  0.90456400  0.31951400  0.58186300  1
  C  C54  1  0.09543600  0.31951400  0.91813700  1
  C  C55  1  0.40456400  0.18048600  0.41813700  1
  C  C56  1  0.55450600  0.66455400  0.02374100  1
  C  C57  1  0.94549400  0.83544600  0.52374100  1
  C  C58  1  0.05450600  0.83544600  0.97625900  1
  C  C59  1  0.44549400  0.66455400  0.47625900  1
  C  C60  1  0.44549400  0.33544600  0.97625900  1
  C  C61  1  0.05450600  0.16455400  0.47625900  1
  C  C62  1  0.94549400  0.16455400  0.02374100  1
  C  C63  1  0.55450600  0.33544600  0.52374100  1
  C  C64  1  0.41009600  0.65301400  0.01204400  1
  C  C65  1  0.08990400  0.84698600  0.51204400  1
  C  C66  1  0.91009600  0.84698600  0.98795600  1
  C  C67  1  0.58990400  0.65301400  0.48795600  1
  C  C68  1  0.58990400  0.34698600  0.98795600  1
  C  C69  1  0.91009600  0.15301400  0.48795600  1
  C  C70  1  0.08990400  0.15301400  0.01204400  1
  C  C71  1  0.41009600  0.34698600  0.51204400  1
  C  C72  1  0.22517600  0.45325900  0.65701900  1
  C  C73  1  0.27482400  0.04674100  0.15701900  1
  C  C74  1  0.72517600  0.04674100  0.34298100  1
  C  C75  1  0.77482400  0.45325900  0.84298100  1
  C  C76  1  0.77482400  0.54674100  0.34298100  1
  C  C77  1  0.72517600  0.95325900  0.84298100  1
  C  C78  1  0.27482400  0.95325900  0.65701900  1
  C  C79  1  0.22517600  0.54674100  0.15701900  1
  C  C80  1  0.22873400  0.35678300  0.71891600  1
  C  C81  1  0.27126600  0.14321700  0.21891600  1
  C  C82  1  0.72873400  0.14321700  0.28108400  1
  C  C83  1  0.77126600  0.35678300  0.78108400  1
  C  C84  1  0.77126600  0.64321700  0.28108400  1
  C  C85  1  0.72873400  0.85678300  0.78108400  1
  C  C86  1  0.27126600  0.85678300  0.71891600  1
  C  C87  1  0.22873400  0.64321700  0.21891600  1
  C  C88  1  0.24630500  0.40881600  0.06576100  1
  C  C89  1  0.25369500  0.09118400  0.56576100  1
  C  C90  1  0.74630500  0.09118400  0.93423900  1
  C  C91  1  0.75369500  0.40881600  0.43423900  1
  C  C92  1  0.75369500  0.59118400  0.93423900  1
  C  C93  1  0.74630500  0.90881600  0.43423900  1
  C  C94  1  0.25369500  0.90881600  0.06576100  1
  C  C95  1  0.24630500  0.59118400  0.56576100  1
  C  C96  1  0.26215400  0.49197700  0.98783400  1
  C  C97  1  0.23784600  0.00802300  0.48783400  1
  C  C98  1  0.76215400  0.00802300  0.01216600  1
  C  C99  1  0.73784600  0.49197700  0.51216600  1
  C  C100  1  0.73784600  0.50802300  0.01216600  1
  C  C101  1  0.76215400  0.99197700  0.51216600  1
  C  C102  1  0.23784600  0.99197700  0.98783400  1
  C  C103  1  0.26215400  0.50802300  0.48783400  1
  C  C104  1  0.42650000  0.67011900  0.74317000  1
  C  C105  1  0.07350000  0.82988100  0.24317000  1
  C  C106  1  0.92650000  0.82988100  0.25683000  1
  C  C107  1  0.57350000  0.67011900  0.75683000  1
  C  C108  1  0.57350000  0.32988100  0.25683000  1
  C  C109  1  0.92650000  0.17011900  0.75683000  1
  C  C110  1  0.07350000  0.17011900  0.74317000  1
  C  C111  1  0.42650000  0.32988100  0.24317000  1
  C  C112  1  0.07030600  0.84758900  0.74256400  1
  C  C113  1  0.42969400  0.65241100  0.24256400  1
  C  C114  1  0.57030600  0.65241100  0.25743600  1
  C  C115  1  0.92969400  0.84758900  0.75743600  1
  C  C116  1  0.92969400  0.15241100  0.25743600  1
  C  C117  1  0.57030600  0.34758900  0.75743600  1
  C  C118  1  0.42969400  0.34758900  0.74256400  1
  C  C119  1  0.07030600  0.15241100  0.24256400  1
  Cu  Cu120  1  0.21226700  0.70747400  0.71413500  1
  Cu  Cu121  1  0.28773300  0.79252600  0.21413500  1
  Cu  Cu122  1  0.71226700  0.79252600  0.28586500  1
  Cu  Cu123  1  0.78773300  0.70747400  0.78586500  1
  Cu  Cu124  1  0.78773300  0.29252600  0.28586500  1
  Cu  Cu125  1  0.71226700  0.20747400  0.78586500  1
  Cu  Cu126  1  0.28773300  0.20747400  0.71413500  1
  Cu  Cu127  1  0.21226700  0.29252600  0.21413500  1
  Cu  Cu128  1  0.22430200  0.73673700  0.97969900  1
  Cu  Cu129  1  0.27569800  0.76326300  0.47969900  1
  Cu  Cu130  1  0.72430200  0.76326300  0.02030100  1
  Cu  Cu131  1  0.77569800  0.73673700  0.52030100  1
  Cu  Cu132  1  0.77569800  0.26326300  0.02030100  1
  Cu  Cu133  1  0.72430200  0.23673700  0.52030100  1
  Cu  Cu134  1  0.27569800  0.23673700  0.97969900  1
  Cu  Cu135  1  0.22430200  0.26326300  0.47969900  1
  C  C136  1  0.03564800  0.58896700  0.86313500  1
  C  C137  1  0.46435200  0.91103300  0.36313500  1
  C  C138  1  0.53564800  0.91103300  0.13686500  1
  C  C139  1  0.96435200  0.58896700  0.63686500  1
  C  C140  1  0.96435200  0.41103300  0.13686500  1
  C  C141  1  0.53564800  0.08896700  0.63686500  1
  C  C142  1  0.46435200  0.08896700  0.86313500  1
  C  C143  1  0.03564800  0.41103300  0.36313500  1
  C  C144  1  0.27885700  0.53598200  0.87254500  1
  C  C145  1  0.22114300  0.96401800  0.37254500  1
  C  C146  1  0.77885700  0.96401800  0.12745500  1
  C  C147  1  0.72114300  0.53598200  0.62745500  1
  C  C148  1  0.72114300  0.46401800  0.12745500  1
  C  C149  1  0.77885700  0.03598200  0.62745500  1
  C  C150  1  0.22114300  0.03598200  0.87254500  1
  C  C151  1  0.27885700  0.46401800  0.37254500  1
  C  C152  1  0.47921400  0.85670800  0.90129300  1
  C  C153  1  0.02078600  0.64329200  0.40129300  1
  C  C154  1  0.97921400  0.64329200  0.09870700  1
  C  C155  1  0.52078600  0.85670800  0.59870700  1
  C  C156  1  0.52078600  0.14329200  0.09870700  1
  C  C157  1  0.97921400  0.35670800  0.59870700  1
  C  C158  1  0.02078600  0.35670800  0.90129300  1
  C  C159  1  0.47921400  0.14329200  0.40129300  1
  C  C160  1  0.48835600  0.61620000  0.01391000  1
  C  C161  1  0.01164400  0.88380000  0.51391000  1
  C  C162  1  0.98835600  0.88380000  0.98609000  1
  C  C163  1  0.51164400  0.61620000  0.48609000  1
  C  C164  1  0.51164400  0.38380000  0.98609000  1
  C  C165  1  0.98835600  0.11620000  0.48609000  1
  C  C166  1  0.01164400  0.11620000  0.01391000  1
  C  C167  1  0.48835600  0.38380000  0.51391000  1
  C  C168  1  0.20929700  0.42651400  0.72124300  1
  C  C169  1  0.29070300  0.07348600  0.22124300  1
  C  C170  1  0.70929700  0.07348600  0.27875700  1
  C  C171  1  0.79070300  0.42651400  0.77875700  1
  C  C172  1  0.79070300  0.57348600  0.27875700  1
  C  C173  1  0.70929700  0.92651400  0.77875700  1
  C  C174  1  0.29070300  0.92651400  0.72124300  1
  C  C175  1  0.20929700  0.57348600  0.22124300  1
  C  C176  1  0.24365400  0.47862900  0.05585900  1
  C  C177  1  0.25634600  0.02137100  0.55585900  1
  C  C178  1  0.74365400  0.02137100  0.94414100  1
  C  C179  1  0.75634600  0.47862900  0.44414100  1
  C  C180  1  0.75634600  0.52137100  0.94414100  1
  C  C181  1  0.74365400  0.97862900  0.44414100  1
  C  C182  1  0.25634600  0.97862900  0.05585900  1
  C  C183  1  0.24365400  0.52137100  0.55585900  1
  C  C184  1  0.50000000  0.62859600  0.75000000  1
  C  C185  1  0.00000000  0.87140400  0.25000000  1
  C  C186  1  0.50000000  0.37140400  0.25000000  1
  C  C187  1  0.00000000  0.12859600  0.75000000  1
  C  C188  1  0.00000000  0.89203900  0.75000000  1
  C  C189  1  0.50000000  0.60796100  0.25000000  1
  C  C190  1  0.00000000  0.10796100  0.25000000  1
  C  C191  1  0.50000000  0.39203900  0.75000000  1
