# generated using pymatgen
data_Cu2NiC6
_symmetry_space_group_name_H-M   'P 1'
_cell_length_a   7.62737900
_cell_length_b   8.56908400
_cell_length_c   28.29832800
_cell_angle_alpha   90.00000000
_cell_angle_beta   90.00000000
_cell_angle_gamma   90.00000000
_symmetry_Int_Tables_number   1
_chemical_formula_structural   Cu2NiC6
_chemical_formula_sum   'Cu8 Ni4 C24'
_cell_volume   1849.56885189
_cell_formula_units_Z   4
loop_
 _symmetry_equiv_pos_site_id
 _symmetry_equiv_pos_as_xyz
  1  'x, y, z'
loop_
 _atom_site_type_symbol
 _atom_site_label
 _atom_site_symmetry_multiplicity
 _atom_site_fract_x
 _atom_site_fract_y
 _atom_site_fract_z
 _atom_site_occupancy
  Ni  Ni0  1  0.00000000  0.25000000  0.38100900  1
  Ni  Ni1  1  0.00000000  0.75000000  0.61899100  1
  Ni  Ni2  1  0.50000000  0.25000000  0.88100900  1
  Ni  Ni3  1  0.50000000  0.75000000  0.11899100  1
  Cu  Cu4  1  0.00000000  0.25000000  0.04731800  1
  Cu  Cu5  1  0.00000000  0.75000000  0.28530300  1
  Cu  Cu6  1  0.00000000  0.25000000  0.71469700  1
  Cu  Cu7  1  0.00000000  0.75000000  0.95268200  1
  Cu  Cu8  1  0.50000000  0.25000000  0.21469700  1
  Cu  Cu9  1  0.50000000  0.25000000  0.54731800  1
  Cu  Cu10  1  0.50000000  0.75000000  0.78530300  1
  Cu  Cu11  1  0.50000000  0.75000000  0.45268200  1
  C  C12  1  0.23515900  0.57051900  0.03494500  1
  C  C13  1  0.23515900  0.07051900  0.96505500  1
  C  C14  1  0.24976800  0.56614300  0.20644800  1
  C  C15  1  0.24976800  0.06614300  0.79355200  1
  C  C16  1  0.24119400  0.59171700  0.37105300  1
  C  C17  1  0.24119400  0.09171700  0.62894700  1
  C  C18  1  0.25880600  0.59171700  0.87105300  1
  C  C19  1  0.25880600  0.09171700  0.12894700  1
  C  C20  1  0.25023200  0.06614300  0.29355200  1
  C  C21  1  0.25023200  0.56614300  0.70644800  1
  C  C22  1  0.26484100  0.07051900  0.46505500  1
  C  C23  1  0.26484100  0.57051900  0.53494500  1
  C  C24  1  0.73515900  0.42948100  0.46505500  1
  C  C25  1  0.73515900  0.92948100  0.53494500  1
  C  C26  1  0.74976800  0.43385700  0.29355200  1
  C  C27  1  0.74976800  0.93385700  0.70644800  1
  C  C28  1  0.74119400  0.40828300  0.12894700  1
  C  C29  1  0.74119400  0.90828300  0.87105300  1
  C  C30  1  0.75880600  0.90828300  0.37105300  1
  C  C31  1  0.75880600  0.40828300  0.62894700  1
  C  C32  1  0.75023200  0.43385700  0.79355200  1
  C  C33  1  0.75023200  0.93385700  0.20644800  1
  C  C34  1  0.76484100  0.92948100  0.03494500  1
  C  C35  1  0.76484100  0.42948100  0.96505500  1
