# generated using pymatgen
data_Cu2Ni7C4
_symmetry_space_group_name_H-M   'P 1'
_cell_length_a   10.40562400
_cell_length_b   13.06860300
_cell_length_c   25.99456500
_cell_angle_alpha   90.00000000
_cell_angle_beta   90.00000000
_cell_angle_gamma   90.00000000
_symmetry_Int_Tables_number   1
_chemical_formula_structural   Cu2Ni7C4
_chemical_formula_sum   'Cu16 Ni56 C32'
_cell_volume   3534.92210543
_cell_formula_units_Z   8
loop_
 _symmetry_equiv_pos_site_id
 _symmetry_equiv_pos_as_xyz
  1  'x, y, z'
loop_
 _atom_site_type_symbol
 _atom_site_label
 _atom_site_symmetry_multiplicity
 _atom_site_fract_x
 _atom_site_fract_y
 _atom_site_fract_z
 _atom_site_occupancy
  C  C0  1  0.02329900  0.69075300  0.26272300  1
  C  C1  1  0.97670100  0.19075300  0.23727700  1
  C  C2  1  0.47670100  0.30924700  0.76272300  1
  C  C3  1  0.52329900  0.80924700  0.73727700  1
  C  C4  1  0.97670100  0.30924700  0.73727700  1
  C  C5  1  0.02329900  0.80924700  0.76272300  1
  C  C6  1  0.52329900  0.69075300  0.23727700  1
  C  C7  1  0.47670100  0.19075300  0.26272300  1
  C  C8  1  0.15213100  0.41041500  0.17236800  1
  C  C9  1  0.84786900  0.91041500  0.32763200  1
  C  C10  1  0.34786900  0.58958500  0.67236800  1
  C  C11  1  0.65213100  0.08958500  0.82763200  1
  C  C12  1  0.84786900  0.58958500  0.82763200  1
  C  C13  1  0.15213100  0.08958500  0.67236800  1
  C  C14  1  0.65213100  0.41041500  0.32763200  1
  C  C15  1  0.34786900  0.91041500  0.17236800  1
  C  C16  1  0.28010100  0.40353600  0.32931900  1
  C  C17  1  0.71989900  0.90353600  0.17068100  1
  C  C18  1  0.21989900  0.59646400  0.82931900  1
  C  C19  1  0.78010100  0.09646400  0.67068100  1
  C  C20  1  0.71989900  0.59646400  0.67068100  1
  C  C21  1  0.28010100  0.09646400  0.82931900  1
  C  C22  1  0.78010100  0.40353600  0.17068100  1
  C  C23  1  0.21989900  0.90353600  0.32931900  1
  C  C24  1  0.03420500  0.79920600  0.12993800  1
  C  C25  1  0.96579500  0.29920600  0.37006200  1
  C  C26  1  0.46579500  0.20079400  0.62993800  1
  C  C27  1  0.53420500  0.70079400  0.87006200  1
  C  C28  1  0.96579500  0.20079400  0.87006200  1
  C  C29  1  0.03420500  0.70079400  0.62993800  1
  C  C30  1  0.53420500  0.79920600  0.37006200  1
  C  C31  1  0.46579500  0.29920600  0.12993800  1
  Ni  Ni32  1  0.46625000  0.44459200  0.38585200  1
  Ni  Ni33  1  0.53375000  0.94459200  0.11414800  1
  Ni  Ni34  1  0.03375000  0.55540800  0.88585200  1
  Ni  Ni35  1  0.96625000  0.05540800  0.61414800  1
  Ni  Ni36  1  0.53375000  0.55540800  0.61414800  1
  Ni  Ni37  1  0.46625000  0.05540800  0.88585200  1
  Ni  Ni38  1  0.96625000  0.44459200  0.11414800  1
  Ni  Ni39  1  0.03375000  0.94459200  0.38585200  1
  Ni  Ni40  1  0.97061200  0.36380000  0.27821500  1
  Ni  Ni41  1  0.02938800  0.86380000  0.22178500  1
  Ni  Ni42  1  0.52938800  0.63620000  0.77821500  1
  Ni  Ni43  1  0.47061200  0.13620000  0.72178500  1
  Ni  Ni44  1  0.02938800  0.63620000  0.72178500  1
  Ni  Ni45  1  0.97061200  0.13620000  0.77821500  1
  Ni  Ni46  1  0.47061200  0.36380000  0.22178500  1
  Ni  Ni47  1  0.52938800  0.86380000  0.27821500  1
  Ni  Ni48  1  0.14982700  0.22050000  0.17558400  1
  Ni  Ni49  1  0.85017300  0.72050000  0.32441600  1
  Ni  Ni50  1  0.35017300  0.77950000  0.67558400  1
  Ni  Ni51  1  0.64982700  0.27950000  0.82441600  1
  Ni  Ni52  1  0.85017300  0.77950000  0.82441600  1
  Ni  Ni53  1  0.14982700  0.27950000  0.67558400  1
  Ni  Ni54  1  0.64982700  0.22050000  0.32441600  1
  Ni  Ni55  1  0.35017300  0.72050000  0.17558400  1
  Ni  Ni56  1  0.13905700  0.40572600  0.40522000  1
  Ni  Ni57  1  0.86094300  0.90572600  0.09478000  1
  Ni  Ni58  1  0.36094300  0.59427400  0.90522000  1
  Ni  Ni59  1  0.63905700  0.09427400  0.59478000  1
  Ni  Ni60  1  0.86094300  0.59427400  0.59478000  1
  Ni  Ni61  1  0.13905700  0.09427400  0.90522000  1
  Ni  Ni62  1  0.63905700  0.40572600  0.09478000  1
  Ni  Ni63  1  0.36094300  0.90572600  0.40522000  1
  Ni  Ni64  1  0.29604700  0.21367700  0.32445100  1
  Ni  Ni65  1  0.70395300  0.71367700  0.17554900  1
  Ni  Ni66  1  0.20395300  0.78632300  0.82445100  1
  Ni  Ni67  1  0.79604700  0.28632300  0.67554900  1
  Ni  Ni68  1  0.70395300  0.78632300  0.67554900  1
  Ni  Ni69  1  0.29604700  0.28632300  0.82445100  1
  Ni  Ni70  1  0.79604700  0.21367700  0.17554900  1
  Ni  Ni71  1  0.20395300  0.71367700  0.32445100  1
  Ni  Ni72  1  0.01751800  0.21459000  0.51825400  1
  Ni  Ni73  1  0.98248200  0.71459000  0.98174600  1
  Ni  Ni74  1  0.48248200  0.78541000  0.01825400  1
  Ni  Ni75  1  0.51751800  0.28541000  0.48174600  1
  Ni  Ni76  1  0.98248200  0.78541000  0.48174600  1
  Ni  Ni77  1  0.01751800  0.28541000  0.01825400  1
  Ni  Ni78  1  0.51751800  0.21459000  0.98174600  1
  Ni  Ni79  1  0.48248200  0.71459000  0.51825400  1
  Ni  Ni80  1  0.79905200  0.41962500  0.40288100  1
  Ni  Ni81  1  0.20094800  0.91962500  0.09711900  1
  Ni  Ni82  1  0.70094800  0.58037500  0.90288100  1
  Ni  Ni83  1  0.29905200  0.08037500  0.59711900  1
  Ni  Ni84  1  0.20094800  0.58037500  0.59711900  1
  Ni  Ni85  1  0.79905200  0.08037500  0.90288100  1
  Ni  Ni86  1  0.29905200  0.41962500  0.09711900  1
  Ni  Ni87  1  0.70094800  0.91962500  0.40288100  1
  Cu  Cu88  1  0.97604000  0.19394000  0.04648100  1
  Cu  Cu89  1  0.02396000  0.69394000  0.45351900  1
  Cu  Cu90  1  0.52396000  0.80606000  0.54648100  1
  Cu  Cu91  1  0.47604000  0.30606000  0.95351900  1
  Cu  Cu92  1  0.02396000  0.80606000  0.95351900  1
  Cu  Cu93  1  0.97604000  0.30606000  0.54648100  1
  Cu  Cu94  1  0.47604000  0.19394000  0.45351900  1
  Cu  Cu95  1  0.52396000  0.69394000  0.04648100  1
  Cu  Cu96  1  0.05897800  0.37008300  0.98471500  1
  Cu  Cu97  1  0.94102200  0.87008300  0.51528500  1
  Cu  Cu98  1  0.44102200  0.62991700  0.48471500  1
  Cu  Cu99  1  0.55897800  0.12991700  0.01528500  1
  Cu  Cu100  1  0.94102200  0.62991700  0.01528500  1
  Cu  Cu101  1  0.05897800  0.12991700  0.48471500  1
  Cu  Cu102  1  0.55897800  0.37008300  0.51528500  1
  Cu  Cu103  1  0.44102200  0.87008300  0.98471500  1
