# generated using pymatgen
data_CuNiC5
_symmetry_space_group_name_H-M   'P 1'
_cell_length_a   4.92482100
_cell_length_b   6.82524400
_cell_length_c   10.79132000
_cell_angle_alpha   90.00000000
_cell_angle_beta   90.00000000
_cell_angle_gamma   90.00000000
_symmetry_Int_Tables_number   1
_chemical_formula_structural   CuNiC5
_chemical_formula_sum   'Cu4 Ni4 C20'
_cell_volume   362.72977205
_cell_formula_units_Z   4
loop_
 _symmetry_equiv_pos_site_id
 _symmetry_equiv_pos_as_xyz
  1  'x, y, z'
loop_
 _atom_site_type_symbol
 _atom_site_label
 _atom_site_symmetry_multiplicity
 _atom_site_fract_x
 _atom_site_fract_y
 _atom_site_fract_z
 _atom_site_occupancy
  C  C0  1  0.00000000  0.00000000  0.00000000  1
  C  C1  1  0.00000000  0.50000000  0.00000000  1
  C  C2  1  0.50000000  0.50000000  0.50000000  1
  C  C3  1  0.50000000  0.00000000  0.50000000  1
  Ni  Ni4  1  0.89575600  0.75000000  0.58042900  1
  Ni  Ni5  1  0.60424400  0.75000000  0.08042900  1
  Ni  Ni6  1  0.39575600  0.25000000  0.91957100  1
  Ni  Ni7  1  0.10424400  0.25000000  0.41957100  1
  Cu  Cu8  1  0.94991400  0.25000000  0.72170900  1
  Cu  Cu9  1  0.55008600  0.25000000  0.22170900  1
  Cu  Cu10  1  0.44991400  0.75000000  0.77829100  1
  Cu  Cu11  1  0.05008600  0.75000000  0.27829100  1
  C  C12  1  0.75398500  0.75000000  0.44194800  1
  C  C13  1  0.75577100  0.93721500  0.65834300  1
  C  C14  1  0.75577100  0.56278500  0.65834300  1
  C  C15  1  0.72484100  0.25000000  0.92347400  1
  C  C16  1  0.77515900  0.25000000  0.42347400  1
  C  C17  1  0.74422900  0.56278500  0.15834300  1
  C  C18  1  0.74422900  0.93721500  0.15834300  1
  C  C19  1  0.74601500  0.75000000  0.94194800  1
  C  C20  1  0.25398500  0.25000000  0.05805200  1
  C  C21  1  0.25577100  0.43721500  0.84165700  1
  C  C22  1  0.25577100  0.06278500  0.84165700  1
  C  C23  1  0.22484100  0.75000000  0.57652600  1
  C  C24  1  0.27515900  0.75000000  0.07652600  1
  C  C25  1  0.24422900  0.06278500  0.34165700  1
  C  C26  1  0.24422900  0.43721500  0.34165700  1
  C  C27  1  0.24601500  0.25000000  0.55805200  1
