# generated using pymatgen
data_Cu(NiC12)3
_symmetry_space_group_name_H-M   'P 1'
_cell_length_a   8.61660100
_cell_length_b   8.64386265
_cell_length_c   8.65312243
_cell_angle_alpha   61.35678205
_cell_angle_beta   61.28622796
_cell_angle_gamma   61.27926151
_symmetry_Int_Tables_number   1
_chemical_formula_structural   Cu(NiC12)3
_chemical_formula_sum   'Cu1 Ni3 C36'
_cell_volume   469.11594034
_cell_formula_units_Z   1
loop_
 _symmetry_equiv_pos_site_id
 _symmetry_equiv_pos_as_xyz
  1  'x, y, z'
loop_
 _atom_site_type_symbol
 _atom_site_label
 _atom_site_symmetry_multiplicity
 _atom_site_fract_x
 _atom_site_fract_y
 _atom_site_fract_z
 _atom_site_occupancy
  C  C0  1  0.97354800  0.00302700  0.99343700  1
  C  C1  1  0.24992000  0.64953100  0.84896000  1
  C  C2  1  0.52505600  0.50709300  0.49919000  1
  C  C3  1  0.75855800  0.34775600  0.14904000  1
  C  C4  1  0.34530500  0.15379000  0.75631400  1
  C  C5  1  0.15324600  0.75610100  0.34506200  1
  Ni  Ni6  1  0.85722800  0.86231600  0.85494100  1
  Ni  Ni7  1  0.64418900  0.64489300  0.63718800  1
  Ni  Ni8  1  0.35431400  0.35508100  0.35429100  1
  Cu  Cu9  1  0.14528300  0.14484700  0.14613600  1
  C  C10  1  0.95261700  0.54671400  0.24942600  1
  C  C11  1  0.54533700  0.25193500  0.95030300  1
  C  C12  1  0.25061200  0.95393600  0.54390400  1
  C  C13  1  0.75165700  0.04236300  0.45614300  1
  C  C14  1  0.45556300  0.75109600  0.03756800  1
  C  C15  1  0.04421800  0.46085700  0.75288800  1
  C  C16  1  0.87435200  0.49845400  0.71253900  1
  C  C17  1  0.70177300  0.88112000  0.48663700  1
  C  C18  1  0.95833800  0.72707000  0.07830500  1
  C  C19  1  0.47140200  0.70541800  0.87788800  1
  C  C20  1  0.76159300  0.57188100  0.40577600  1
  C  C21  1  0.98140700  0.38443700  0.19760200  1
  C  C22  1  0.73620000  0.09392400  0.92763100  1
  C  C23  1  0.54538300  0.42315300  0.76842800  1
  C  C24  1  0.40595200  0.76041200  0.56782300  1
  C  C25  1  0.79775800  0.01361000  0.61818800  1
  C  C26  1  0.91490900  0.06421600  0.26425600  1
  C  C27  1  0.62693800  0.78909500  0.00134100  1
  C  C28  1  0.38501200  0.19433200  0.98267000  1
  C  C29  1  0.09337700  0.93097200  0.73751800  1
  C  C30  1  0.19460900  0.98356900  0.38484700  1
  C  C31  1  0.59156100  0.23615900  0.42695900  1
  C  C32  1  0.42806200  0.59275900  0.22995700  1
  C  C33  1  0.26716900  0.91714400  0.06184000  1
  C  C34  1  0.02748800  0.62064100  0.79931200  1
  C  C35  1  0.23470200  0.43150600  0.59172000  1
  C  C36  1  0.51360800  0.30623400  0.11122300  1
  C  C37  1  0.06424900  0.26980200  0.91598600  1
  C  C38  1  0.30605700  0.11227300  0.51495400  1
  C  C39  1  0.11145100  0.50948100  0.31281000  1
