# generated using pymatgen
data_Cu3NiC9
_symmetry_space_group_name_H-M   'P 1'
_cell_length_a   5.91641800
_cell_length_b   5.93751721
_cell_length_c   6.10442190
_cell_angle_alpha   91.21273654
_cell_angle_beta   118.92182444
_cell_angle_gamma   118.54645358
_symmetry_Int_Tables_number   1
_chemical_formula_structural   Cu3NiC9
_chemical_formula_sum   'Cu3 Ni1 C9'
_cell_volume   155.75053925
_cell_formula_units_Z   1
loop_
 _symmetry_equiv_pos_site_id
 _symmetry_equiv_pos_as_xyz
  1  'x, y, z'
loop_
 _atom_site_type_symbol
 _atom_site_label
 _atom_site_symmetry_multiplicity
 _atom_site_fract_x
 _atom_site_fract_y
 _atom_site_fract_z
 _atom_site_occupancy
  C  C0  1  0.50000000  0.50000000  0.50000000  1
  Ni  Ni1  1  0.00000000  0.00000000  0.00000000  1
  Cu  Cu2  1  0.50000000  0.00000000  0.00000000  1
  Cu  Cu3  1  0.00000000  0.50000000  0.00000000  1
  Cu  Cu4  1  0.50000000  0.50000000  0.00000000  1
  C  C5  1  0.97304100  0.23645000  0.19922600  1
  C  C6  1  0.46342900  0.71302200  0.20114700  1
  C  C7  1  0.45735900  0.23663200  0.20028100  1
  C  C8  1  0.96887200  0.72797100  0.19476800  1
  C  C9  1  0.03112800  0.27202900  0.80523200  1
  C  C10  1  0.54264100  0.76336800  0.79971900  1
  C  C11  1  0.53657100  0.28697800  0.79885300  1
  C  C12  1  0.02695900  0.76355000  0.80077400  1
