# generated using pymatgen
data_Cu2NiC14
_symmetry_space_group_name_H-M   'P 1'
_cell_length_a   5.10686770
_cell_length_b   8.20265334
_cell_length_c   8.46580119
_cell_angle_alpha   83.19774299
_cell_angle_beta   78.35276568
_cell_angle_gamma   85.75907445
_symmetry_Int_Tables_number   1
_chemical_formula_structural   Cu2NiC14
_chemical_formula_sum   'Cu4 Ni2 C28'
_cell_volume   344.42738473
_cell_formula_units_Z   2
loop_
 _symmetry_equiv_pos_site_id
 _symmetry_equiv_pos_as_xyz
  1  'x, y, z'
loop_
 _atom_site_type_symbol
 _atom_site_label
 _atom_site_symmetry_multiplicity
 _atom_site_fract_x
 _atom_site_fract_y
 _atom_site_fract_z
 _atom_site_occupancy
  C  C0  1  0.16580800  0.19718000  0.61212600  1
  C  C1  1  0.16597000  0.69733500  0.11197300  1
  C  C2  1  0.83403100  0.80266600  0.38802800  1
  C  C3  1  0.83419300  0.30282000  0.88787400  1
  C  C4  1  0.61753200  0.89329900  0.14160500  1
  C  C5  1  0.61750000  0.39338100  0.64149200  1
  C  C6  1  0.38250100  0.10661900  0.85850800  1
  C  C7  1  0.38246900  0.60670100  0.35839700  1
  C  C8  1  0.77957100  0.12467200  0.48653600  1
  C  C9  1  0.78000600  0.62487500  0.98664200  1
  C  C10  1  0.21999500  0.87512600  0.51335800  1
  C  C11  1  0.22043200  0.37532900  0.01346300  1
  Ni  Ni12  1  0.50000000  0.74999900  0.75000000  1
  Ni  Ni13  1  0.50000200  0.25000100  0.24999900  1
  Cu  Cu14  1  0.12774900  0.03828800  0.24208600  1
  Cu  Cu15  1  0.12760200  0.53834400  0.74207500  1
  Cu  Cu16  1  0.87239100  0.96165700  0.75792600  1
  Cu  Cu17  1  0.87225300  0.46171100  0.25791200  1
  C  C18  1  0.79964800  0.03846600  0.25742100  1
  C  C19  1  0.79966800  0.53847900  0.75732900  1
  C  C20  1  0.20032600  0.96151600  0.74266700  1
  C  C21  1  0.20035300  0.46153900  0.24258400  1
  C  C22  1  0.69079600  0.35794600  0.41481300  1
  C  C23  1  0.69050800  0.85812100  0.91492900  1
  C  C24  1  0.30949000  0.64187800  0.58507500  1
  C  C25  1  0.30920900  0.14205300  0.08518700  1
  C  C26  1  0.19397200  0.11531700  0.40302500  1
  C  C27  1  0.19361700  0.61559500  0.90297600  1
  C  C28  1  0.80638600  0.88440500  0.59702300  1
  C  C29  1  0.80602200  0.38467900  0.09697400  1
  C  C30  1  0.23584500  0.84291300  0.26169200  1
  C  C31  1  0.23579600  0.34291600  0.76182200  1
  C  C32  1  0.76420400  0.15708700  0.73817600  1
  C  C33  1  0.76415700  0.65708700  0.23830700  1
