# generated using pymatgen
data_CuNiC14
_symmetry_space_group_name_H-M   'P 1'
_cell_length_a   10.27589300
_cell_length_b   10.27589300
_cell_length_c   13.31109200
_cell_angle_alpha   90.00000000
_cell_angle_beta   90.00000000
_cell_angle_gamma   134.41539505
_symmetry_Int_Tables_number   1
_chemical_formula_structural   CuNiC14
_chemical_formula_sum   'Cu4 Ni4 C56'
_cell_volume   1003.97790264
_cell_formula_units_Z   4
loop_
 _symmetry_equiv_pos_site_id
 _symmetry_equiv_pos_as_xyz
  1  'x, y, z'
loop_
 _atom_site_type_symbol
 _atom_site_label
 _atom_site_symmetry_multiplicity
 _atom_site_fract_x
 _atom_site_fract_y
 _atom_site_fract_z
 _atom_site_occupancy
  C  C0  1  0.16992000  0.32207400  0.29108500  1
  C  C1  1  0.67792600  0.83008000  0.29108500  1
  C  C2  1  0.83008000  0.67792600  0.79108500  1
  C  C3  1  0.32207400  0.16992000  0.79108500  1
  C  C4  1  0.09532600  0.90467400  0.50575600  1
  C  C5  1  0.90467400  0.09532600  0.00575600  1
  C  C6  1  0.03181300  0.46815300  0.77173400  1
  C  C7  1  0.53184700  0.96818700  0.77173400  1
  C  C8  1  0.96818700  0.53184700  0.27173400  1
  C  C9  1  0.46815300  0.03181300  0.27173400  1
  C  C10  1  0.57624800  0.42375200  0.07970200  1
  C  C11  1  0.42375200  0.57624800  0.57970200  1
  C  C12  1  0.84066400  0.15933600  0.49584100  1
  C  C13  1  0.15933600  0.84066400  0.99584100  1
  C  C14  1  0.65455300  0.34544700  0.58810400  1
  C  C15  1  0.34544700  0.65455300  0.08810400  1
  Ni  Ni16  1  0.17383600  0.62987000  0.45265400  1
  Ni  Ni17  1  0.37013000  0.82616400  0.45265400  1
  Ni  Ni18  1  0.82616400  0.37013000  0.95265400  1
  Ni  Ni19  1  0.62987000  0.17383600  0.95265400  1
  Cu  Cu20  1  0.92871000  0.07129000  0.68063200  1
  Cu  Cu21  1  0.07129000  0.92871000  0.18063200  1
  Cu  Cu22  1  0.57156600  0.42843400  0.39874500  1
  Cu  Cu23  1  0.42843400  0.57156600  0.89874500  1
  C  C24  1  0.04817000  0.24931600  0.62200700  1
  C  C25  1  0.75068400  0.95183000  0.62200700  1
  C  C26  1  0.95183000  0.75068400  0.12200700  1
  C  C27  1  0.24931600  0.04817000  0.12200700  1
  C  C28  1  0.99361500  0.00638500  0.17793100  1
  C  C29  1  0.00638500  0.99361500  0.67793100  1
  C  C30  1  0.90092200  0.09907800  0.78391100  1
  C  C31  1  0.09907800  0.90092200  0.28391100  1
  C  C32  1  0.74576700  0.55145300  0.46005600  1
  C  C33  1  0.44854700  0.25423300  0.46005600  1
  C  C34  1  0.25423300  0.44854700  0.96005600  1
  C  C35  1  0.55145300  0.74576700  0.96005600  1
  C  C36  1  0.49372000  0.50628000  0.39339800  1
  C  C37  1  0.50628000  0.49372000  0.89339800  1
  C  C38  1  0.60406900  0.39593100  0.29789300  1
  C  C39  1  0.39593100  0.60406900  0.79789300  1
  C  C40  1  0.76080600  0.23919400  0.94695700  1
  C  C41  1  0.23919400  0.76080600  0.44695700  1
  C  C42  1  0.72429600  0.27570400  0.10849500  1
  C  C43  1  0.27570400  0.72429600  0.60849500  1
  C  C44  1  0.77142300  0.22857700  0.62702400  1
  C  C45  1  0.22857700  0.77142300  0.12702400  1
  C  C46  1  0.72629700  0.27370300  0.46032500  1
  C  C47  1  0.27370300  0.72629700  0.96032500  1
  C  C48  1  0.82693200  0.17306800  0.33825400  1
  C  C49  1  0.17306800  0.82693200  0.83825400  1
  C  C50  1  0.94178400  0.05821600  0.44142100  1
  C  C51  1  0.05821600  0.94178400  0.94142100  1
  C  C52  1  0.66752100  0.33247900  0.74767000  1
  C  C53  1  0.33247900  0.66752100  0.24767000  1
  C  C54  1  0.55280500  0.44719500  0.64230100  1
  C  C55  1  0.44719500  0.55280500  0.14230100  1
  C  C56  1  0.91634700  0.57367300  0.96389900  1
  C  C57  1  0.42632700  0.08365300  0.96389900  1
  C  C58  1  0.08365300  0.42632700  0.46389900  1
  C  C59  1  0.57367300  0.91634700  0.46389900  1
  C  C60  1  0.08240500  0.41796800  0.12103400  1
  C  C61  1  0.58203200  0.91759500  0.12103400  1
  C  C62  1  0.91759500  0.58203200  0.62103400  1
  C  C63  1  0.41796800  0.08240500  0.62103400  1
