# generated using pymatgen
data_Cu3Ni3C22
_symmetry_space_group_name_H-M   'P 1'
_cell_length_a   5.99843166
_cell_length_b   5.99843166
_cell_length_c   9.69718849
_cell_angle_alpha   89.51568517
_cell_angle_beta   89.51568517
_cell_angle_gamma   59.90801728
_symmetry_Int_Tables_number   1
_chemical_formula_structural   Cu3Ni3C22
_chemical_formula_sum   'Cu3 Ni3 C22'
_cell_volume   301.87555472
_cell_formula_units_Z   1
loop_
 _symmetry_equiv_pos_site_id
 _symmetry_equiv_pos_as_xyz
  1  'x, y, z'
loop_
 _atom_site_type_symbol
 _atom_site_label
 _atom_site_symmetry_multiplicity
 _atom_site_fract_x
 _atom_site_fract_y
 _atom_site_fract_z
 _atom_site_occupancy
  C  C0  1  0.33284300  0.33284300  0.90349300  1
  C  C1  1  0.99941200  0.99941200  0.99041800  1
  C  C2  1  0.99930700  0.99930700  0.49069300  1
  C  C3  1  0.66693300  0.66693300  0.40031300  1
  Ni  Ni4  1  0.17012800  0.17012800  0.21657500  1
  Ni  Ni5  1  0.34287700  0.82403400  0.71527100  1
  Ni  Ni6  1  0.82403400  0.34287700  0.71527100  1
  Cu  Cu7  1  0.16969400  0.65897900  0.21360500  1
  Cu  Cu8  1  0.65897900  0.16969400  0.21360500  1
  Cu  Cu9  1  0.83039400  0.83039400  0.71338100  1
  C  C10  1  0.33311500  0.33311500  0.48772500  1
  C  C11  1  0.66680300  0.66680300  0.98917600  1
  C  C12  1  0.16362400  0.66535900  0.59381900  1
  C  C13  1  0.48079400  0.48079400  0.34212100  1
  C  C14  1  0.33256200  0.33256200  0.10902600  1
  C  C15  1  0.99916000  0.99916000  0.30425100  1
  C  C16  1  0.00018500  0.00018500  0.80381000  1
  C  C17  1  0.66535900  0.16362400  0.59381900  1
  C  C18  1  0.03753100  0.48341900  0.34529700  1
  C  C19  1  0.48341900  0.03753100  0.34529700  1
  C  C20  1  0.83384700  0.83384700  0.09609400  1
  C  C21  1  0.16537300  0.16537300  0.59169300  1
  C  C22  1  0.52547800  0.96225100  0.84510500  1
  C  C23  1  0.96225100  0.52547800  0.84510500  1
  C  C24  1  0.66782100  0.66782100  0.60709900  1
  C  C25  1  0.33061300  0.83351000  0.09433700  1
  C  C26  1  0.51821100  0.51821100  0.84831000  1
  C  C27  1  0.83351000  0.33061300  0.09433700  1
