# generated using pymatgen
data_Cu(NiC10)2
_symmetry_space_group_name_H-M   'P 1'
_cell_length_a   15.34299233
_cell_length_b   15.34299233
_cell_length_c   5.19333398
_cell_angle_alpha   80.59714707
_cell_angle_beta   80.59714707
_cell_angle_gamma   22.98734293
_symmetry_Int_Tables_number   1
_chemical_formula_structural   Cu(NiC10)2
_chemical_formula_sum   'Cu2 Ni4 C40'
_cell_volume   470.75748872
_cell_formula_units_Z   2
loop_
 _symmetry_equiv_pos_site_id
 _symmetry_equiv_pos_as_xyz
  1  'x, y, z'
loop_
 _atom_site_type_symbol
 _atom_site_label
 _atom_site_symmetry_multiplicity
 _atom_site_fract_x
 _atom_site_fract_y
 _atom_site_fract_z
 _atom_site_occupancy
  C  C0  1  0.49070500  0.49070500  0.26039000  1
  C  C1  1  0.22422900  0.64190800  0.89742500  1
  C  C2  1  0.64190800  0.22422900  0.89742500  1
  C  C3  1  0.86755700  0.86755700  0.78009500  1
  C  C4  1  0.08522700  0.65201200  0.24107800  1
  C  C5  1  0.65201200  0.08522700  0.24107800  1
  C  C6  1  0.32448600  0.32448600  0.93057500  1
  C  C7  1  0.04781300  0.56226500  0.60122000  1
  C  C8  1  0.56226500  0.04781300  0.60122000  1
  C  C9  1  0.26949400  0.26949400  0.32414100  1
  C  C10  1  0.73050600  0.73050600  0.67585900  1
  C  C11  1  0.95218700  0.43773500  0.39878000  1
  C  C12  1  0.43773500  0.95218700  0.39878000  1
  C  C13  1  0.67551400  0.67551400  0.06942500  1
  C  C14  1  0.34798800  0.91477300  0.75892200  1
  C  C15  1  0.91477300  0.34798800  0.75892200  1
  C  C16  1  0.13244300  0.13244300  0.21990500  1
  C  C17  1  0.77577100  0.35809200  0.10257500  1
  C  C18  1  0.35809200  0.77577100  0.10257500  1
  C  C19  1  0.50929500  0.50929500  0.73961000  1
  Ni  Ni20  1  0.39987300  0.39987300  0.50923100  1
  Ni  Ni21  1  0.78103500  0.78103500  0.12949700  1
  Ni  Ni22  1  0.21896500  0.21896500  0.87050300  1
  Ni  Ni23  1  0.60012700  0.60012700  0.49076900  1
  Cu  Cu24  1  0.96226300  0.96226300  0.15718900  1
  Cu  Cu25  1  0.03773700  0.03773700  0.84281100  1
  C  C26  1  0.44956900  0.44956900  0.60440000  1
  C  C27  1  0.90666000  0.90666000  0.04892600  1
  C  C28  1  0.40512100  0.40512100  0.18537900  1
  C  C29  1  0.15463200  0.58646500  0.62366100  1
  C  C30  1  0.58646500  0.15463200  0.62366100  1
  C  C31  1  0.03144100  0.58140700  0.21750300  1
  C  C32  1  0.58140700  0.03144100  0.21750300  1
  C  C33  1  0.78648400  0.78648400  0.80930100  1
  C  C34  1  0.27166700  0.27166700  0.71850400  1
  C  C35  1  0.72833300  0.72833300  0.28149600  1
  C  C36  1  0.21351600  0.21351600  0.19069900  1
  C  C37  1  0.96855900  0.41859300  0.78249700  1
  C  C38  1  0.41859300  0.96855900  0.78249700  1
  C  C39  1  0.41353500  0.84536800  0.37633900  1
  C  C40  1  0.84536800  0.41353500  0.37633900  1
  C  C41  1  0.59487900  0.59487900  0.81462100  1
  C  C42  1  0.09334000  0.09334000  0.95107400  1
  C  C43  1  0.55043100  0.55043100  0.39560000  1
  C  C44  1  0.23915400  0.76084600  0.00000000  1
  C  C45  1  0.76084600  0.23915400  0.00000000  1
