# generated using pymatgen
data_Cu5Ni3C4
_symmetry_space_group_name_H-M   'P 1'
_cell_length_a   4.78850109
_cell_length_b   4.78850109
_cell_length_c   12.37619800
_cell_angle_alpha   90.00000000
_cell_angle_beta   90.00000000
_cell_angle_gamma   94.17688936
_symmetry_Int_Tables_number   1
_chemical_formula_structural   Cu5Ni3C4
_chemical_formula_sum   'Cu10 Ni6 C8'
_cell_volume   283.02928995
_cell_formula_units_Z   2
loop_
 _symmetry_equiv_pos_site_id
 _symmetry_equiv_pos_as_xyz
  1  'x, y, z'
loop_
 _atom_site_type_symbol
 _atom_site_label
 _atom_site_symmetry_multiplicity
 _atom_site_fract_x
 _atom_site_fract_y
 _atom_site_fract_z
 _atom_site_occupancy
  C  C0  1  0.00000000  0.00000000  0.00000000  1
  C  C1  1  0.97364800  0.97364800  0.25000000  1
  C  C2  1  0.00000000  0.00000000  0.50000000  1
  C  C3  1  0.02635200  0.02635200  0.75000000  1
  C  C4  1  0.50952300  0.50952300  0.11902800  1
  C  C5  1  0.49047700  0.49047700  0.61902800  1
  C  C6  1  0.49047700  0.49047700  0.88097200  1
  C  C7  1  0.50952300  0.50952300  0.38097200  1
  Ni  Ni8  1  0.29818900  0.29818900  0.00258400  1
  Ni  Ni9  1  0.29818900  0.29818900  0.49741600  1
  Ni  Ni10  1  0.32873400  0.32873400  0.75000000  1
  Ni  Ni11  1  0.70181100  0.70181100  0.99741600  1
  Ni  Ni12  1  0.67126600  0.67126600  0.25000000  1
  Ni  Ni13  1  0.70181100  0.70181100  0.50258400  1
  Cu  Cu14  1  0.79581400  0.19713600  0.11962100  1
  Cu  Cu15  1  0.80286400  0.20418600  0.88037900  1
  Cu  Cu16  1  0.79581400  0.19713600  0.38037900  1
  Cu  Cu17  1  0.80286400  0.20418600  0.61962100  1
  Cu  Cu18  1  0.28755100  0.28755100  0.25000000  1
  Cu  Cu19  1  0.71244900  0.71244900  0.75000000  1
  Cu  Cu20  1  0.19713600  0.79581400  0.38037900  1
  Cu  Cu21  1  0.20418600  0.80286400  0.61962100  1
  Cu  Cu22  1  0.19713600  0.79581400  0.11962100  1
  Cu  Cu23  1  0.20418600  0.80286400  0.88037900  1
