# generated using pymatgen
data_Cu2Ni3C31
_symmetry_space_group_name_H-M   'P 1'
_cell_length_a   8.54931685
_cell_length_b   8.54931685
_cell_length_c   8.54931683
_cell_angle_alpha   61.20229255
_cell_angle_beta   61.20229255
_cell_angle_gamma   61.20229916
_symmetry_Int_Tables_number   1
_chemical_formula_structural   Cu2Ni3C31
_chemical_formula_sum   'Cu2 Ni3 C31'
_cell_volume   453.80406683
_cell_formula_units_Z   1
loop_
 _symmetry_equiv_pos_site_id
 _symmetry_equiv_pos_as_xyz
  1  'x, y, z'
loop_
 _atom_site_type_symbol
 _atom_site_label
 _atom_site_symmetry_multiplicity
 _atom_site_fract_x
 _atom_site_fract_y
 _atom_site_fract_z
 _atom_site_occupancy
  Ni  Ni0  1  0.35525700  0.35525700  0.35525700  1
  Ni  Ni1  1  0.14224100  0.14224100  0.14224100  1
  Ni  Ni2  1  0.64506800  0.64506800  0.64506800  1
  Cu  Cu3  1  0.99876900  0.99876900  0.99876900  1
  Cu  Cu4  1  0.49900400  0.49900400  0.49900400  1
  C  C5  1  0.85654600  0.85654600  0.85654600  1
  C  C6  1  0.75141800  0.04616900  0.45590400  1
  C  C7  1  0.04616900  0.45590400  0.75141800  1
  C  C8  1  0.45590400  0.75141800  0.04616900  1
  C  C9  1  0.54282500  0.25161100  0.95528000  1
  C  C10  1  0.95528000  0.54282500  0.25161100  1
  C  C11  1  0.25161100  0.95528000  0.54282500  1
  C  C12  1  0.88167800  0.50290600  0.68549900  1
  C  C13  1  0.50290600  0.68549900  0.88167800  1
  C  C14  1  0.68549900  0.88167800  0.50290600  1
  C  C15  1  0.90862300  0.05807700  0.25739100  1
  C  C16  1  0.81715100  0.01591800  0.60474300  1
  C  C17  1  0.58939200  0.24179000  0.43278600  1
  C  C18  1  0.05807700  0.25739100  0.90862300  1
  C  C19  1  0.24179000  0.43278600  0.58939200  1
  C  C20  1  0.38120700  0.18490700  0.00008700  1
  C  C21  1  0.43278600  0.58939200  0.24179000  1
  C  C22  1  0.73540100  0.09892100  0.94819700  1
  C  C23  1  0.00008700  0.38120700  0.18490700  1
  C  C24  1  0.01591800  0.60474300  0.81715100  1
  C  C25  1  0.25739100  0.90862300  0.05807700  1
  C  C26  1  0.55385900  0.41271800  0.76019300  1
  C  C27  1  0.60474300  0.81715100  0.01591800  1
  C  C28  1  0.76019300  0.55385900  0.41271800  1
  C  C29  1  0.94819700  0.73540100  0.09892100  1
  C  C30  1  0.41271800  0.76019300  0.55385900  1
  C  C31  1  0.18490700  0.00008700  0.38120700  1
  C  C32  1  0.09892100  0.94819700  0.73540100  1
  C  C33  1  0.32888300  0.11276500  0.48680500  1
  C  C34  1  0.48680500  0.32888300  0.11276500  1
  C  C35  1  0.11276500  0.48680500  0.32888300  1
