# generated using pymatgen
data_Cu6Ni3C4
_symmetry_space_group_name_H-M   'P 1'
_cell_length_a   16.44985500
_cell_length_b   9.44742300
_cell_length_c   9.44836778
_cell_angle_alpha   60.00353529
_cell_angle_beta   90.00000000
_cell_angle_gamma   90.00000000
_symmetry_Int_Tables_number   1
_chemical_formula_structural   Cu6Ni3C4
_chemical_formula_sum   'Cu36 Ni18 C24'
_cell_volume   1271.68142254
_cell_formula_units_Z   6
loop_
 _symmetry_equiv_pos_site_id
 _symmetry_equiv_pos_as_xyz
  1  'x, y, z'
loop_
 _atom_site_type_symbol
 _atom_site_label
 _atom_site_symmetry_multiplicity
 _atom_site_fract_x
 _atom_site_fract_y
 _atom_site_fract_z
 _atom_site_occupancy
  C  C0  1  0.50000000  0.59258300  0.08655800  1
  C  C1  1  0.83327100  0.31788100  0.59378700  1
  C  C2  1  0.16672900  0.31788100  0.59378700  1
  C  C3  1  0.00000000  0.91645900  0.67737800  1
  C  C4  1  0.83424800  0.08789700  0.31793500  1
  C  C5  1  0.50000000  0.09179700  0.31426600  1
  C  C6  1  0.16575200  0.08789700  0.31793500  1
  C  C7  1  0.66762800  0.68104700  0.40630100  1
  C  C8  1  0.33237200  0.68104700  0.40630100  1
  C  C9  1  0.00000000  0.40447300  0.91164100  1
  C  C10  1  0.33334800  0.40569500  0.91157300  1
  C  C11  1  0.66665200  0.40569500  0.91157300  1
  C  C12  1  0.83265500  0.58582000  0.08750300  1
  C  C13  1  0.16734500  0.58582000  0.08750300  1
  C  C14  1  0.50000000  0.32701600  0.58821500  1
  C  C15  1  0.66587600  0.91240000  0.67394700  1
  C  C16  1  0.33412400  0.91240000  0.67394700  1
  C  C17  1  0.00000000  0.67599100  0.41513300  1
  C  C18  1  0.00000000  0.33419200  0.33499000  1
  C  C19  1  0.66658900  0.33215400  0.33416300  1
  C  C20  1  0.33341100  0.33215400  0.33416300  1
  C  C21  1  0.83329900  0.66615700  0.66795100  1
  C  C22  1  0.50000000  0.66640500  0.66724000  1
  C  C23  1  0.16670100  0.66615700  0.66795100  1
  Ni  Ni24  1  0.00000000  0.75989200  0.05034700  1
  Ni  Ni25  1  0.66746200  0.76283500  0.04334500  1
  Ni  Ni26  1  0.33253800  0.76283500  0.04334500  1
  Ni  Ni27  1  0.00000000  0.19111200  0.75989800  1
  Ni  Ni28  1  0.66529100  0.18797300  0.76011700  1
  Ni  Ni29  1  0.33470900  0.18797300  0.76011700  1
  Ni  Ni30  1  0.83184200  0.94834500  0.81151000  1
  Ni  Ni31  1  0.50000000  0.95691500  0.80633600  1
  Ni  Ni32  1  0.16815800  0.94834500  0.81151000  1
  Ni  Ni33  1  0.00000000  0.04453800  0.19323700  1
  Ni  Ni34  1  0.66715500  0.04886900  0.19230600  1
  Ni  Ni35  1  0.33284500  0.04886900  0.19230600  1
  Ni  Ni36  1  0.83450500  0.80589100  0.23692700  1
  Ni  Ni37  1  0.50000000  0.80750500  0.24238100  1
  Ni  Ni38  1  0.16549500  0.80589100  0.23692700  1
  Ni  Ni39  1  0.50000000  0.23987600  0.94768600  1
  Ni  Ni40  1  0.83360800  0.24114600  0.95034500  1
  Ni  Ni41  1  0.16639200  0.24114600  0.95034500  1
  Cu  Cu42  1  0.07777100  0.48449100  0.36175000  1
  Cu  Cu43  1  0.74543400  0.48014900  0.35704300  1
  Cu  Cu44  1  0.41310100  0.47211200  0.37150600  1
  Cu  Cu45  1  0.92222900  0.48449100  0.36175000  1
  Cu  Cu46  1  0.58689900  0.47211200  0.37150600  1
  Cu  Cu47  1  0.25456600  0.48014900  0.35704300  1
  Cu  Cu48  1  0.92080100  0.36990900  0.15726200  1
  Cu  Cu49  1  0.58964800  0.36315300  0.15962800  1
  Cu  Cu50  1  0.07919900  0.36990900  0.15726200  1
  Cu  Cu51  1  0.74787200  0.36863400  0.15672100  1
  Cu  Cu52  1  0.41035200  0.36315300  0.15962800  1
  Cu  Cu53  1  0.25212800  0.36863400  0.15672100  1
  Cu  Cu54  1  0.92111000  0.16029600  0.47679500  1
  Cu  Cu55  1  0.25767600  0.15206600  0.48095600  1
  Cu  Cu56  1  0.07889000  0.16029600  0.47679500  1
  Cu  Cu57  1  0.58771900  0.15526300  0.48521900  1
  Cu  Cu58  1  0.74232400  0.15206600  0.48095600  1
  Cu  Cu59  1  0.41228100  0.15526300  0.48521900  1
  Cu  Cu60  1  0.75329300  0.84310100  0.52803400  1
  Cu  Cu61  1  0.42069000  0.84399700  0.52574800  1
  Cu  Cu62  1  0.08799100  0.83742100  0.51956300  1
  Cu  Cu63  1  0.91200900  0.83742100  0.51956300  1
  Cu  Cu64  1  0.57931000  0.84399700  0.52574800  1
  Cu  Cu65  1  0.24670700  0.84310100  0.52803400  1
  Cu  Cu66  1  0.90922500  0.63224500  0.84812100  1
  Cu  Cu67  1  0.42060100  0.64124400  0.83800200  1
  Cu  Cu68  1  0.75447200  0.64061300  0.84493700  1
  Cu  Cu69  1  0.57939900  0.64124400  0.83800200  1
  Cu  Cu70  1  0.09077500  0.63224500  0.84812100  1
  Cu  Cu71  1  0.24552800  0.64061300  0.84493700  1
  Cu  Cu72  1  0.57710600  0.51827300  0.63528800  1
  Cu  Cu73  1  0.91441300  0.52530200  0.63179200  1
  Cu  Cu74  1  0.75642300  0.52324600  0.63627000  1
  Cu  Cu75  1  0.42289400  0.51827300  0.63528800  1
  Cu  Cu76  1  0.24357700  0.52324600  0.63627000  1
  Cu  Cu77  1  0.08558700  0.52530200  0.63179200  1
