# generated using pymatgen
data_Cu2(NiC2)3
_symmetry_space_group_name_H-M   'P 1'
_cell_length_a   7.32817800
_cell_length_b   9.05840800
_cell_length_c   11.59416800
_cell_angle_alpha   90.00000000
_cell_angle_beta   90.00000000
_cell_angle_gamma   90.00000000
_symmetry_Int_Tables_number   1
_chemical_formula_structural   Cu2(NiC2)3
_chemical_formula_sum   'Cu8 Ni12 C24'
_cell_volume   769.63972652
_cell_formula_units_Z   4
loop_
 _symmetry_equiv_pos_site_id
 _symmetry_equiv_pos_as_xyz
  1  'x, y, z'
loop_
 _atom_site_type_symbol
 _atom_site_label
 _atom_site_symmetry_multiplicity
 _atom_site_fract_x
 _atom_site_fract_y
 _atom_site_fract_z
 _atom_site_occupancy
  C  C0  1  0.00000000  0.25000000  0.64800900  1
  C  C1  1  0.00000000  0.75000000  0.85199100  1
  C  C2  1  0.00000000  0.75000000  0.35199100  1
  C  C3  1  0.00000000  0.25000000  0.14800900  1
  C  C4  1  0.52894400  0.00000000  0.75000000  1
  C  C5  1  0.47105600  0.50000000  0.75000000  1
  C  C6  1  0.47105600  0.00000000  0.25000000  1
  C  C7  1  0.52894400  0.50000000  0.25000000  1
  C  C8  1  0.31184200  0.02047700  0.94366700  1
  C  C9  1  0.68815800  0.47952300  0.94366700  1
  C  C10  1  0.68815800  0.52047700  0.55633300  1
  C  C11  1  0.31184200  0.97952300  0.55633300  1
  C  C12  1  0.68815800  0.97952300  0.05633300  1
  C  C13  1  0.31184200  0.52047700  0.05633300  1
  C  C14  1  0.31184200  0.47952300  0.44366700  1
  C  C15  1  0.68815800  0.02047700  0.44366700  1
  C  C16  1  0.30771800  0.17686400  0.88135000  1
  C  C17  1  0.69228200  0.32313600  0.88135000  1
  C  C18  1  0.69228200  0.67686400  0.61865000  1
  C  C19  1  0.30771800  0.82313600  0.61865000  1
  C  C20  1  0.69228200  0.82313600  0.11865000  1
  C  C21  1  0.30771800  0.67686400  0.11865000  1
  C  C22  1  0.30771800  0.32313600  0.38135000  1
  C  C23  1  0.69228200  0.17686400  0.38135000  1
  Ni  Ni24  1  0.50000000  0.25000000  0.65253000  1
  Ni  Ni25  1  0.50000000  0.75000000  0.84747000  1
  Ni  Ni26  1  0.50000000  0.75000000  0.34747000  1
  Ni  Ni27  1  0.50000000  0.25000000  0.15253000  1
  Ni  Ni28  1  0.76900800  0.08874000  0.88976900  1
  Ni  Ni29  1  0.23099200  0.41126000  0.88976900  1
  Ni  Ni30  1  0.23099200  0.58874000  0.61023100  1
  Ni  Ni31  1  0.76900800  0.91126000  0.61023100  1
  Ni  Ni32  1  0.23099200  0.91126000  0.11023100  1
  Ni  Ni33  1  0.76900800  0.58874000  0.11023100  1
  Ni  Ni34  1  0.76900800  0.41126000  0.38976900  1
  Ni  Ni35  1  0.23099200  0.08874000  0.38976900  1
  Cu  Cu36  1  0.31617800  0.06940400  0.86730400  1
  Cu  Cu37  1  0.68382200  0.43059600  0.86730400  1
  Cu  Cu38  1  0.68382200  0.56940400  0.63269600  1
  Cu  Cu39  1  0.31617800  0.93059600  0.63269600  1
  Cu  Cu40  1  0.68382200  0.93059600  0.13269600  1
  Cu  Cu41  1  0.31617800  0.56940400  0.13269600  1
  Cu  Cu42  1  0.31617800  0.43059600  0.36730400  1
  Cu  Cu43  1  0.68382200  0.06940400  0.36730400  1
