# generated using pymatgen
data_Cu3NiC13
_symmetry_space_group_name_H-M   'P 1'
_cell_length_a   8.65302000
_cell_length_b   8.65302000
_cell_length_c   8.65302000
_cell_angle_alpha   90.00000000
_cell_angle_beta   90.00000000
_cell_angle_gamma   90.00000000
_symmetry_Int_Tables_number   1
_chemical_formula_structural   Cu3NiC13
_chemical_formula_sum   'Cu12 Ni4 C52'
_cell_volume   647.89275355
_cell_formula_units_Z   4
loop_
 _symmetry_equiv_pos_site_id
 _symmetry_equiv_pos_as_xyz
  1  'x, y, z'
loop_
 _atom_site_type_symbol
 _atom_site_label
 _atom_site_symmetry_multiplicity
 _atom_site_fract_x
 _atom_site_fract_y
 _atom_site_fract_z
 _atom_site_occupancy
  C  C0  1  0.05270300  0.05270300  0.05270300  1
  C  C1  1  0.13851900  0.37500000  0.38851900  1
  C  C2  1  0.12500000  0.61148100  0.63851900  1
  C  C3  1  0.11148100  0.86148100  0.87500000  1
  C  C4  1  0.19729700  0.19729700  0.19729700  1
  C  C5  1  0.30270300  0.80270300  0.69729700  1
  C  C6  1  0.38851900  0.13851900  0.37500000  1
  C  C7  1  0.37500000  0.38851900  0.13851900  1
  C  C8  1  0.36148100  0.62500000  0.88851900  1
  C  C9  1  0.44729700  0.94729700  0.55270300  1
  C  C10  1  0.55270300  0.44729700  0.94729700  1
  C  C11  1  0.63851900  0.12500000  0.61148100  1
  C  C12  1  0.62500000  0.88851900  0.36148100  1
  C  C13  1  0.61148100  0.63851900  0.12500000  1
  C  C14  1  0.69729700  0.30270300  0.80270300  1
  C  C15  1  0.80270300  0.69729700  0.30270300  1
  C  C16  1  0.88851900  0.36148100  0.62500000  1
  C  C17  1  0.87500000  0.11148100  0.86148100  1
  C  C18  1  0.86148100  0.87500000  0.11148100  1
  C  C19  1  0.94729700  0.55270300  0.44729700  1
  Ni  Ni20  1  0.12500000  0.87500000  0.37500000  1
  Ni  Ni21  1  0.37500000  0.12500000  0.87500000  1
  Ni  Ni22  1  0.62500000  0.62500000  0.62500000  1
  Ni  Ni23  1  0.87500000  0.37500000  0.12500000  1
  Cu  Cu24  1  0.12445200  0.12554800  0.62500000  1
  Cu  Cu25  1  0.12500000  0.37554800  0.87445200  1
  Cu  Cu26  1  0.12554800  0.62500000  0.12445200  1
  Cu  Cu27  1  0.37445200  0.37500000  0.62445200  1
  Cu  Cu28  1  0.37500000  0.62445200  0.37445200  1
  Cu  Cu29  1  0.37554800  0.87445200  0.12500000  1
  Cu  Cu30  1  0.62445200  0.37445200  0.37500000  1
  Cu  Cu31  1  0.62500000  0.12445200  0.12554800  1
  Cu  Cu32  1  0.62554800  0.87500000  0.87554800  1
  Cu  Cu33  1  0.87445200  0.12500000  0.37554800  1
  Cu  Cu34  1  0.87500000  0.87554800  0.62554800  1
  Cu  Cu35  1  0.87554800  0.62554800  0.87500000  1
  C  C36  1  0.11422600  0.88877400  0.63060800  1
  C  C37  1  0.11122600  0.13060800  0.38577400  1
  C  C38  1  0.11968300  0.61968300  0.88031700  1
  C  C39  1  0.11939200  0.13877400  0.86422600  1
  C  C40  1  0.13060800  0.38577400  0.11122600  1
  C  C41  1  0.13031700  0.36968300  0.63031700  1
  C  C42  1  0.13877400  0.86422600  0.11939200  1
  C  C43  1  0.13577400  0.61939200  0.36122600  1
  C  C44  1  0.36422600  0.38060800  0.86122600  1
  C  C45  1  0.36122600  0.13577400  0.61939200  1
  C  C46  1  0.36968300  0.63031700  0.13031700  1
  C  C47  1  0.36939200  0.61422600  0.61122600  1
  C  C48  1  0.38060800  0.86122600  0.36422600  1
  C  C49  1  0.38031700  0.38031700  0.38031700  1
  C  C50  1  0.38877400  0.86939200  0.88577400  1
  C  C51  1  0.38577400  0.11122600  0.13060800  1
  C  C52  1  0.61422600  0.61122600  0.36939200  1
  C  C53  1  0.61122600  0.36939200  0.61422600  1
  C  C54  1  0.61968300  0.88031700  0.11968300  1
  C  C55  1  0.61939200  0.36122600  0.13577400  1
  C  C56  1  0.63060800  0.11422600  0.88877400  1
  C  C57  1  0.63031700  0.13031700  0.36968300  1
  C  C58  1  0.63877400  0.63577400  0.88060800  1
  C  C59  1  0.63577400  0.88060800  0.63877400  1
  C  C60  1  0.86422600  0.11939200  0.13877400  1
  C  C61  1  0.86122600  0.36422600  0.38060800  1
  C  C62  1  0.86968300  0.86968300  0.86968300  1
  C  C63  1  0.86939200  0.88577400  0.38877400  1
  C  C64  1  0.88060800  0.63877400  0.63577400  1
  C  C65  1  0.88031700  0.11968300  0.61968300  1
  C  C66  1  0.88877400  0.63060800  0.11422600  1
  C  C67  1  0.88577400  0.38877400  0.86939200  1
