# generated using pymatgen
data_CuNiC3
_symmetry_space_group_name_H-M   'P 1'
_cell_length_a   6.39816000
_cell_length_b   7.02682100
_cell_length_c   9.55025700
_cell_angle_alpha   90.00000000
_cell_angle_beta   90.00000000
_cell_angle_gamma   90.00000000
_symmetry_Int_Tables_number   1
_chemical_formula_structural   CuNiC3
_chemical_formula_sum   'Cu4 Ni4 C12'
_cell_volume   429.36737861
_cell_formula_units_Z   4
loop_
 _symmetry_equiv_pos_site_id
 _symmetry_equiv_pos_as_xyz
  1  'x, y, z'
loop_
 _atom_site_type_symbol
 _atom_site_label
 _atom_site_symmetry_multiplicity
 _atom_site_fract_x
 _atom_site_fract_y
 _atom_site_fract_z
 _atom_site_occupancy
  Ni  Ni0  1  0.45894900  0.10106300  0.25000000  1
  Ni  Ni1  1  0.54105100  0.89893700  0.75000000  1
  Ni  Ni2  1  0.04105100  0.60106300  0.25000000  1
  Ni  Ni3  1  0.95894900  0.39893700  0.75000000  1
  Cu  Cu4  1  0.00000000  0.00000000  0.50000000  1
  Cu  Cu5  1  0.00000000  0.00000000  0.00000000  1
  Cu  Cu6  1  0.50000000  0.50000000  0.50000000  1
  Cu  Cu7  1  0.50000000  0.50000000  0.00000000  1
  C  C8  1  0.14381400  0.04741800  0.75000000  1
  C  C9  1  0.85618600  0.95258200  0.25000000  1
  C  C10  1  0.35618600  0.54741800  0.75000000  1
  C  C11  1  0.64381400  0.45258200  0.25000000  1
  C  C12  1  0.17633000  0.31531700  0.42896700  1
  C  C13  1  0.82367000  0.68468300  0.92896700  1
  C  C14  1  0.32367000  0.81531700  0.42896700  1
  C  C15  1  0.67633000  0.18468300  0.92896700  1
  C  C16  1  0.67633000  0.18468300  0.57103300  1
  C  C17  1  0.32367000  0.81531700  0.07103300  1
  C  C18  1  0.82367000  0.68468300  0.57103300  1
  C  C19  1  0.17633000  0.31531700  0.07103300  1
