# generated using pymatgen
data_Cu6Ni4C17
_symmetry_space_group_name_H-M   'P 1'
_cell_length_a   7.09179200
_cell_length_b   6.31507500
_cell_length_c   11.76688332
_cell_angle_alpha   65.59141609
_cell_angle_beta   90.00000000
_cell_angle_gamma   90.00000000
_symmetry_Int_Tables_number   1
_chemical_formula_structural   Cu6Ni4C17
_chemical_formula_sum   'Cu12 Ni8 C34'
_cell_volume   479.88146181
_cell_formula_units_Z   2
loop_
 _symmetry_equiv_pos_site_id
 _symmetry_equiv_pos_as_xyz
  1  'x, y, z'
loop_
 _atom_site_type_symbol
 _atom_site_label
 _atom_site_symmetry_multiplicity
 _atom_site_fract_x
 _atom_site_fract_y
 _atom_site_fract_z
 _atom_site_occupancy
  C  C0  1  0.11701400  0.70603000  0.23012200  1
  C  C1  1  0.88800300  0.68383000  0.22975200  1
  C  C2  1  0.53900400  0.77699000  0.08819700  1
  C  C3  1  0.71705700  0.33903900  0.52264400  1
  C  C4  1  0.60724600  0.18369900  0.65583000  1
  C  C5  1  0.02336200  0.54548200  0.16689500  1
  C  C6  1  0.52336200  0.45451800  0.33310500  1
  C  C7  1  0.30304400  0.91307900  0.88150500  1
  C  C8  1  0.80304400  0.08692100  0.61849500  1
  C  C9  1  0.03900400  0.22301000  0.41180300  1
  C  C10  1  0.38800300  0.31617000  0.27024800  1
  C  C11  1  0.10724600  0.81630100  0.84417000  1
  C  C12  1  0.61701400  0.29397000  0.26987800  1
  C  C13  1  0.21705700  0.66096100  0.97735600  1
  C  C14  1  0.78294300  0.33903900  0.02264400  1
  C  C15  1  0.38298600  0.70603000  0.73012200  1
  C  C16  1  0.89275400  0.18369900  0.15583000  1
  C  C17  1  0.61199700  0.68383000  0.72975200  1
  C  C18  1  0.96099600  0.77699000  0.58819700  1
  C  C19  1  0.19695600  0.91307900  0.38150500  1
  C  C20  1  0.69695600  0.08692100  0.11849500  1
  C  C21  1  0.47663800  0.54548200  0.66689500  1
  C  C22  1  0.97663800  0.45451800  0.83310500  1
  C  C23  1  0.39275400  0.81630100  0.34417000  1
  C  C24  1  0.28294300  0.66096100  0.47735600  1
  C  C25  1  0.46099600  0.22301000  0.91180300  1
  C  C26  1  0.11199700  0.31617000  0.77024800  1
  C  C27  1  0.88298600  0.29397000  0.76987800  1
  C  C28  1  0.00000000  0.00000000  0.00000000  1
  C  C29  1  0.50000000  0.00000000  0.50000000  1
  C  C30  1  0.74381500  0.86061400  0.93684200  1
  C  C31  1  0.24381500  0.13938600  0.56315800  1
  C  C32  1  0.75618500  0.86061400  0.43684200  1
  C  C33  1  0.25618500  0.13938600  0.06315800  1
  Ni  Ni34  1  0.00633600  0.69878100  0.17626100  1
  Ni  Ni35  1  0.67967500  0.17317800  0.58268600  1
  Ni  Ni36  1  0.50633600  0.30121900  0.32373900  1
  Ni  Ni37  1  0.17967500  0.82682200  0.91731400  1
  Ni  Ni38  1  0.82032500  0.17317800  0.08268600  1
  Ni  Ni39  1  0.49366400  0.69878100  0.67626100  1
  Ni  Ni40  1  0.32032500  0.82682200  0.41731400  1
  Ni  Ni41  1  0.99366400  0.30121900  0.82373900  1
  Cu  Cu42  1  0.28612300  0.29321200  0.62763700  1
  Cu  Cu43  1  0.60077300  0.04389100  0.86407300  1
  Cu  Cu44  1  0.62131200  0.68130600  0.05836000  1
  Cu  Cu45  1  0.12131200  0.31869400  0.44164000  1
  Cu  Cu46  1  0.10077300  0.95610900  0.63592700  1
  Cu  Cu47  1  0.78612300  0.70678800  0.87236300  1
  Cu  Cu48  1  0.21387700  0.29321200  0.12763700  1
  Cu  Cu49  1  0.89922700  0.04389100  0.36407300  1
  Cu  Cu50  1  0.87868800  0.68130600  0.55836000  1
  Cu  Cu51  1  0.37868800  0.31869400  0.94164000  1
  Cu  Cu52  1  0.39922700  0.95610900  0.13592700  1
  Cu  Cu53  1  0.71387700  0.70678800  0.37236300  1
