# generated using pymatgen
data_Cu3Ni9C41
_symmetry_space_group_name_H-M   'P 1'
_cell_length_a   9.25154700
_cell_length_b   10.21653600
_cell_length_c   15.77197030
_cell_angle_alpha   89.87047384
_cell_angle_beta   90.00000000
_cell_angle_gamma   90.00000000
_symmetry_Int_Tables_number   1
_chemical_formula_structural   Cu3Ni9C41
_chemical_formula_sum   'Cu6 Ni18 C82'
_cell_volume   1490.74331343
_cell_formula_units_Z   2
loop_
 _symmetry_equiv_pos_site_id
 _symmetry_equiv_pos_as_xyz
  1  'x, y, z'
loop_
 _atom_site_type_symbol
 _atom_site_label
 _atom_site_symmetry_multiplicity
 _atom_site_fract_x
 _atom_site_fract_y
 _atom_site_fract_z
 _atom_site_occupancy
  C  C0  1  0.20794700  0.99982000  0.49984500  1
  C  C1  1  0.79205300  0.99982000  0.99984500  1
  C  C2  1  0.29068300  0.69675700  0.82682300  1
  C  C3  1  0.70931700  0.69675700  0.32682300  1
  C  C4  1  0.30866300  0.05826700  0.77237900  1
  C  C5  1  0.69133700  0.05826700  0.27237900  1
  C  C6  1  0.11932000  0.63505300  0.45359200  1
  C  C7  1  0.88068000  0.63505300  0.95359200  1
  C  C8  1  0.39550200  0.82250100  0.21713500  1
  C  C9  1  0.60449800  0.82250100  0.71713500  1
  C  C10  1  0.48055000  0.22470400  0.73607000  1
  C  C11  1  0.51945000  0.22470400  0.23607000  1
  C  C12  1  0.45864200  0.29342400  0.83974700  1
  C  C13  1  0.54135800  0.29342400  0.33974700  1
  C  C14  1  0.53426900  0.13204300  0.82864600  1
  C  C15  1  0.46573100  0.13204300  0.32864600  1
  C  C16  1  0.23506200  0.25337000  0.70127200  1
  C  C17  1  0.76493800  0.25337000  0.20127200  1
  C  C18  1  0.09556700  0.18258000  0.76584700  1
  C  C19  1  0.90443300  0.18258000  0.26584700  1
  C  C20  1  0.19302800  0.32418100  0.80256300  1
  C  C21  1  0.80697200  0.32418100  0.30256300  1
  C  C22  1  0.15666500  0.07156600  0.89531600  1
  C  C23  1  0.84333500  0.07156600  0.39531600  1
  C  C24  1  0.34370900  0.04222200  0.92188200  1
  C  C25  1  0.65629100  0.04222200  0.42188200  1
  C  C26  1  0.26686900  0.20331100  0.93369200  1
  C  C27  1  0.73313100  0.20331100  0.43369200  1
  C  C28  1  0.98825300  0.43162000  0.45355600  1
  C  C29  1  0.01174700  0.43162000  0.95355600  1
  C  C30  1  0.12172100  0.36659900  0.52520100  1
  C  C31  1  0.87827900  0.36659900  0.02520100  1
  C  C32  1  0.00930400  0.50115700  0.55705200  1
  C  C33  1  0.99069600  0.50115700  0.05705200  1
  C  C34  1  0.32652400  0.56990300  0.37064000  1
  C  C35  1  0.67347600  0.56990300  0.87064000  1
  C  C36  1  0.30542300  0.40637800  0.41136100  1
  C  C37  1  0.69457700  0.40637800  0.91136100  1
  C  C38  1  0.16718200  0.47651300  0.34485800  1
  C  C39  1  0.83281800  0.47651300  0.84485800  1
  C  C40  1  0.35999500  0.65285300  0.51074100  1
  C  C41  1  0.64000500  0.65285300  0.01074100  1
  C  C42  1  0.22356700  0.62760100  0.59115100  1
  C  C43  1  0.77643300  0.62760100  0.09115100  1
  C  C44  1  0.33609700  0.49427000  0.55783400  1
  C  C45  1  0.66390300  0.49427000  0.05783400  1
  C  C46  1  0.43007900  0.01851600  0.13569700  1
  C  C47  1  0.56992100  0.01851600  0.63569700  1
  C  C48  1  0.23764300  0.02033000  0.11635400  1
  C  C49  1  0.76235700  0.02033000  0.61635400  1
  C  C50  1  0.30405300  0.03843000  0.22227600  1
  C  C51  1  0.69594700  0.03843000  0.72227600  1
  C  C52  1  0.17797300  0.69924000  0.21544200  1
  C  C53  1  0.82202700  0.69924000  0.71544200  1
  C  C54  1  0.15331100  0.85264500  0.26927000  1
  C  C55  1  0.84668900  0.85264500  0.76927000  1
  C  C56  1  0.09107300  0.83100700  0.16126500  1
  C  C57  1  0.90892700  0.83100700  0.66126500  1
  C  C58  1  0.44406800  0.80064900  0.06388500  1
  C  C59  1  0.55593200  0.80064900  0.56388500  1
  C  C60  1  0.34069700  0.66937500  0.11011700  1
  C  C61  1  0.65930300  0.66937500  0.61011700  1
  C  C62  1  0.24973100  0.79417000  0.05102200  1
  C  C63  1  0.75026900  0.79417000  0.55102200  1
  Ni  Ni64  1  0.45693200  0.20303700  0.80280500  1
  Ni  Ni65  1  0.54306800  0.20303700  0.30280500  1
  Ni  Ni66  1  0.19992600  0.23337400  0.76640200  1
  Ni  Ni67  1  0.80007400  0.23337400  0.26640200  1
  Ni  Ni68  1  0.26588000  0.11318700  0.89641500  1
  Ni  Ni69  1  0.73412000  0.11318700  0.39641500  1
  Ni  Ni70  1  0.06566800  0.45478500  0.50386900  1
  Ni  Ni71  1  0.93433200  0.45478500  0.00386900  1
  Ni  Ni72  1  0.24920500  0.49644600  0.39340600  1
  Ni  Ni73  1  0.75079500  0.49644600  0.89340600  1
  Ni  Ni74  1  0.28157000  0.58382600  0.53759900  1
  Ni  Ni75  1  0.71843000  0.58382600  0.03759900  1
  Ni  Ni76  1  0.32348400  0.99233400  0.16073600  1
  Ni  Ni77  1  0.67651600  0.99233400  0.66073600  1
  Ni  Ni78  1  0.17392000  0.80547400  0.20825100  1
  Ni  Ni79  1  0.82608000  0.80547400  0.70825100  1
  Ni  Ni80  1  0.34126900  0.77319700  0.09325900  1
  Ni  Ni81  1  0.65873100  0.77319700  0.59325900  1
  Cu  Cu82  1  0.30861000  0.14544800  0.80724700  1
  Cu  Cu83  1  0.69139000  0.14544800  0.30724700  1
  Cu  Cu84  1  0.17480900  0.54906700  0.47017500  1
  Cu  Cu85  1  0.82519100  0.54906700  0.97017500  1
  Cu  Cu86  1  0.31642900  0.84776900  0.17319400  1
  Cu  Cu87  1  0.68357100  0.84776900  0.67319400  1
  C  C88  1  0.01575600  0.11624900  0.57302000  1
  C  C89  1  0.98424400  0.11624900  0.07302000  1
  C  C90  1  0.16057700  0.12215900  0.36924100  1
  C  C91  1  0.83942300  0.12215900  0.86924100  1
  C  C92  1  0.38789000  0.17335500  0.54212500  1
  C  C93  1  0.61211000  0.17335500  0.04212500  1
  C  C94  1  0.44840600  0.84792800  0.38350100  1
  C  C95  1  0.55159400  0.84792800  0.88350100  1
  C  C96  1  0.27613000  0.88531700  0.68809200  1
  C  C97  1  0.72387000  0.88531700  0.18809200  1
  C  C98  1  0.98963900  0.81512800  0.44700400  1
  C  C99  1  0.01036100  0.81512800  0.94700400  1
  C  C100  1  0.08770100  0.57084200  0.76348200  1
  C  C101  1  0.91229900  0.57084200  0.26348200  1
  C  C102  1  0.32441800  0.52725900  0.93952300  1
  C  C103  1  0.67558200  0.52725900  0.43952300  1
  C  C104  1  0.46225400  0.57895700  0.73800200  1
  C  C105  1  0.53774600  0.57895700  0.23800200  1
