# generated using pymatgen
data_CuNiC26
_symmetry_space_group_name_H-M   'P 1'
_cell_length_a   7.41705820
_cell_length_b   7.41705820
_cell_length_c   15.11834298
_cell_angle_alpha   88.34470577
_cell_angle_beta   88.34470577
_cell_angle_gamma   106.10274717
_symmetry_Int_Tables_number   1
_chemical_formula_structural   CuNiC26
_chemical_formula_sum   'Cu2 Ni2 C52'
_cell_volume   798.14735019
_cell_formula_units_Z   2
loop_
 _symmetry_equiv_pos_site_id
 _symmetry_equiv_pos_as_xyz
  1  'x, y, z'
loop_
 _atom_site_type_symbol
 _atom_site_label
 _atom_site_symmetry_multiplicity
 _atom_site_fract_x
 _atom_site_fract_y
 _atom_site_fract_z
 _atom_site_occupancy
  Ni  Ni0  1  0.51789800  0.48210200  0.75000000  1
  Ni  Ni1  1  0.48210200  0.51789800  0.25000000  1
  Cu  Cu2  1  0.07928000  0.92072000  0.75000000  1
  Cu  Cu3  1  0.92072000  0.07928000  0.25000000  1
  C  C4  1  0.98248300  0.22833900  0.58651800  1
  C  C5  1  0.77166100  0.01751700  0.91348200  1
  C  C6  1  0.01751700  0.77166100  0.41348200  1
  C  C7  1  0.22833900  0.98248300  0.08651800  1
  C  C8  1  0.18386400  0.21967100  0.92723300  1
  C  C9  1  0.78032900  0.81613600  0.57276700  1
  C  C10  1  0.81613600  0.78032900  0.07276700  1
  C  C11  1  0.21967100  0.18386400  0.42723300  1
  C  C12  1  0.20932900  0.52433600  0.89157800  1
  C  C13  1  0.47566400  0.79067100  0.60842200  1
  C  C14  1  0.79067100  0.47566400  0.10842200  1
  C  C15  1  0.52433600  0.20932900  0.39157800  1
  C  C16  1  0.77807600  0.43970500  0.91281000  1
  C  C17  1  0.56029500  0.22192400  0.58719000  1
  C  C18  1  0.22192400  0.56029500  0.08719000  1
  C  C19  1  0.43970500  0.77807600  0.41281000  1
  C  C20  1  0.96642600  0.15249700  0.94971400  1
  C  C21  1  0.84750300  0.03357400  0.55028600  1
  C  C22  1  0.03357400  0.84750300  0.05028600  1
  C  C23  1  0.15249700  0.96642600  0.44971400  1
  C  C24  1  0.85691700  0.72046200  0.49382400  1
  C  C25  1  0.27953800  0.14308300  0.00617600  1
  C  C26  1  0.14308300  0.27953800  0.50617600  1
  C  C27  1  0.72046200  0.85691700  0.99382400  1
  C  C28  1  0.07641600  0.75437800  0.88196200  1
  C  C29  1  0.24562200  0.92358400  0.61803800  1
  C  C30  1  0.92358400  0.24562200  0.11803800  1
  C  C31  1  0.75437800  0.07641600  0.38196200  1
  C  C32  1  0.88054000  0.37472900  0.58437200  1
  C  C33  1  0.62527100  0.11946000  0.91562800  1
  C  C34  1  0.11946000  0.62527100  0.41562800  1
  C  C35  1  0.37472900  0.88054000  0.08437200  1
  C  C36  1  0.84240500  0.76992500  0.66235500  1
  C  C37  1  0.23007500  0.15759500  0.83764500  1
  C  C38  1  0.15759500  0.23007500  0.33764500  1
  C  C39  1  0.76992500  0.84240500  0.16235500  1
  C  C40  1  0.24955100  0.43434800  0.93793500  1
  C  C41  1  0.56565200  0.75044900  0.56206500  1
  C  C42  1  0.75044900  0.56565200  0.06206500  1
  C  C43  1  0.43434800  0.24955100  0.43793500  1
  C  C44  1  0.07297800  0.18404000  0.66928900  1
  C  C45  1  0.81596000  0.92702200  0.83071100  1
  C  C46  1  0.92702200  0.81596000  0.33071100  1
  C  C47  1  0.18404000  0.07297800  0.16928900  1
  C  C48  1  0.78387900  0.41651100  0.84932900  1
  C  C49  1  0.58348900  0.21612100  0.65067100  1
  C  C50  1  0.21612100  0.58348900  0.15067100  1
  C  C51  1  0.41651100  0.78387900  0.34932900  1
  C  C52  1  0.17227800  0.66497300  0.83029200  1
  C  C53  1  0.33502700  0.82772200  0.66970800  1
  C  C54  1  0.82772200  0.33502700  0.16970800  1
  C  C55  1  0.66497300  0.17227800  0.33029200  1
