# generated using pymatgen
data_Cu4NiC12
_symmetry_space_group_name_H-M   'P 1'
_cell_length_a   13.53346300
_cell_length_b   7.28038900
_cell_length_c   11.90091276
_cell_angle_alpha   54.49178678
_cell_angle_beta   90.00000000
_cell_angle_gamma   90.00000000
_symmetry_Int_Tables_number   1
_chemical_formula_structural   Cu4NiC12
_chemical_formula_sum   'Cu16 Ni4 C48'
_cell_volume   954.52084414
_cell_formula_units_Z   4
loop_
 _symmetry_equiv_pos_site_id
 _symmetry_equiv_pos_as_xyz
  1  'x, y, z'
loop_
 _atom_site_type_symbol
 _atom_site_label
 _atom_site_symmetry_multiplicity
 _atom_site_fract_x
 _atom_site_fract_y
 _atom_site_fract_z
 _atom_site_occupancy
  Ni  Ni0  1  0.78733800  0.45325400  0.07587700  1
  Ni  Ni1  1  0.28733800  0.54674600  0.42412300  1
  Ni  Ni2  1  0.71266200  0.45325400  0.57587700  1
  Ni  Ni3  1  0.21266200  0.54674600  0.92412300  1
  Cu  Cu4  1  0.58878600  0.49010800  0.19832300  1
  Cu  Cu5  1  0.37468900  0.42421600  0.19721200  1
  Cu  Cu6  1  0.91182300  0.06684500  0.21837200  1
  Cu  Cu7  1  0.12309900  0.16343400  0.23880200  1
  Cu  Cu8  1  0.62309900  0.83656600  0.26119800  1
  Cu  Cu9  1  0.87468900  0.57578400  0.30278800  1
  Cu  Cu10  1  0.08878600  0.50989200  0.30167700  1
  Cu  Cu11  1  0.41182300  0.93315500  0.28162800  1
  Cu  Cu12  1  0.58817700  0.06684500  0.71837200  1
  Cu  Cu13  1  0.91121400  0.49010800  0.69832300  1
  Cu  Cu14  1  0.12531100  0.42421600  0.69721200  1
  Cu  Cu15  1  0.37690100  0.16343400  0.73880200  1
  Cu  Cu16  1  0.87690100  0.83656600  0.76119800  1
  Cu  Cu17  1  0.08817700  0.93315500  0.78162800  1
  Cu  Cu18  1  0.62531100  0.57578400  0.80278800  1
  Cu  Cu19  1  0.41121400  0.50989200  0.80167700  1
  C  C20  1  0.65820200  0.62919900  0.07079400  1
  C  C21  1  0.90433700  0.25158500  0.06203100  1
  C  C22  1  0.29492700  0.54643600  0.08969800  1
  C  C23  1  0.14906900  0.26574500  0.08645600  1
  C  C24  1  0.47884600  0.53966500  0.12813000  1
  C  C25  1  0.86126400  0.59523400  0.16966100  1
  C  C26  1  0.69632900  0.97936800  0.15419300  1
  C  C27  1  0.11160700  0.74973000  0.20184100  1
  C  C28  1  0.38499300  0.17600800  0.23818800  1
  C  C29  1  0.34684400  0.86420800  0.20797300  1
  C  C30  1  0.08109700  0.37393800  0.23431400  1
  C  C31  1  0.52281200  0.97763500  0.22959800  1
  C  C32  1  0.58109700  0.62606200  0.26568600  1
  C  C33  1  0.02281200  0.02236500  0.27040200  1
  C  C34  1  0.61160700  0.25027000  0.29815900  1
  C  C35  1  0.84684400  0.13579200  0.29202700  1
  C  C36  1  0.88499300  0.82399200  0.26181200  1
  C  C37  1  0.36126400  0.40476600  0.33033900  1
  C  C38  1  0.97884600  0.46033500  0.37187000  1
  C  C39  1  0.19632900  0.02063200  0.34580700  1
  C  C40  1  0.79492700  0.45356400  0.41030200  1
  C  C41  1  0.15820200  0.37080100  0.42920600  1
  C  C42  1  0.64906900  0.73425500  0.41354400  1
  C  C43  1  0.40433700  0.74841500  0.43796900  1
  C  C44  1  0.59566300  0.25158500  0.56203100  1
  C  C45  1  0.35093100  0.26574500  0.58645600  1
  C  C46  1  0.84179800  0.62919900  0.57079400  1
  C  C47  1  0.20507300  0.54643600  0.58969800  1
  C  C48  1  0.80367100  0.97936800  0.65419300  1
  C  C49  1  0.02115400  0.53966500  0.62813000  1
  C  C50  1  0.63873600  0.59523400  0.66966100  1
  C  C51  1  0.11500700  0.17600800  0.73818800  1
  C  C52  1  0.15315600  0.86420800  0.70797300  1
  C  C53  1  0.38839300  0.74973000  0.70184100  1
  C  C54  1  0.97718800  0.97763500  0.72959800  1
  C  C55  1  0.41890300  0.37393800  0.73431400  1
  C  C56  1  0.47718800  0.02236500  0.77040200  1
  C  C57  1  0.91890300  0.62606200  0.76568600  1
  C  C58  1  0.65315600  0.13579200  0.79202700  1
  C  C59  1  0.61500700  0.82399200  0.76181200  1
  C  C60  1  0.88839300  0.25027000  0.79815900  1
  C  C61  1  0.30367100  0.02063200  0.84580700  1
  C  C62  1  0.13873600  0.40476600  0.83033900  1
  C  C63  1  0.52115400  0.46033500  0.87187000  1
  C  C64  1  0.85093100  0.73425500  0.91354400  1
  C  C65  1  0.70507300  0.45356400  0.91030200  1
  C  C66  1  0.09566300  0.74841500  0.93796900  1
  C  C67  1  0.34179800  0.37080100  0.92920600  1
