# generated using pymatgen
data_Cu7NiC80
_symmetry_space_group_name_H-M   'P 1'
_cell_length_a   14.24244900
_cell_length_b   7.93151700
_cell_length_c   10.77517759
_cell_angle_alpha   70.14002204
_cell_angle_beta   90.00000000
_cell_angle_gamma   90.00000000
_symmetry_Int_Tables_number   1
_chemical_formula_structural   Cu7NiC80
_chemical_formula_sum   'Cu7 Ni1 C80'
_cell_volume   1144.81686114
_cell_formula_units_Z   1
loop_
 _symmetry_equiv_pos_site_id
 _symmetry_equiv_pos_as_xyz
  1  'x, y, z'
loop_
 _atom_site_type_symbol
 _atom_site_label
 _atom_site_symmetry_multiplicity
 _atom_site_fract_x
 _atom_site_fract_y
 _atom_site_fract_z
 _atom_site_occupancy
  Ni  Ni0  1  0.00000000  0.59275500  0.35174000  1
  Cu  Cu1  1  0.25032400  0.41014500  0.14732200  1
  Cu  Cu2  1  0.74967600  0.41014500  0.14732200  1
  Cu  Cu3  1  0.50000000  0.58989700  0.35252500  1
  Cu  Cu4  1  0.25030000  0.40987100  0.64770300  1
  Cu  Cu5  1  0.74970000  0.40987100  0.64770300  1
  Cu  Cu6  1  0.50000000  0.58989000  0.85248500  1
  Cu  Cu7  1  0.00000000  0.58974500  0.85255700  1
  C  C8  1  0.50000000  0.21632000  0.19588400  1
  C  C9  1  0.00000000  0.21625000  0.19556600  1
  C  C10  1  0.25167300  0.78499600  0.30371700  1
  C  C11  1  0.74832700  0.78499600  0.30371700  1
  C  C12  1  0.50000000  0.21624300  0.69600200  1
  C  C13  1  0.00000000  0.21415700  0.69686700  1
  C  C14  1  0.25023000  0.78375700  0.80406500  1
  C  C15  1  0.74977000  0.78375700  0.80406500  1
  C  C16  1  0.38725000  0.78544000  0.05351400  1
  C  C17  1  0.61275000  0.78544000  0.05351400  1
  C  C18  1  0.88647200  0.78671600  0.05155600  1
  C  C19  1  0.11352800  0.78671600  0.05155600  1
  C  C20  1  0.13787600  0.21282800  0.44699600  1
  C  C21  1  0.36326300  0.21469700  0.44634800  1
  C  C22  1  0.63673700  0.21469700  0.44634800  1
  C  C23  1  0.86212400  0.21282800  0.44699600  1
  C  C24  1  0.11362700  0.78477200  0.55556000  1
  C  C25  1  0.38726100  0.78538200  0.55375400  1
  C  C26  1  0.61273900  0.78538200  0.55375400  1
  C  C27  1  0.88637300  0.78477200  0.55556000  1
  C  C28  1  0.13705900  0.21571500  0.94589900  1
  C  C29  1  0.36297000  0.21474500  0.94630800  1
  C  C30  1  0.63703000  0.21474500  0.94630800  1
  C  C31  1  0.86294100  0.21571500  0.94589900  1
  C  C32  1  0.40528300  0.30545700  0.04916000  1
  C  C33  1  0.59471700  0.30545700  0.04916000  1
  C  C34  1  0.09472300  0.30611900  0.04893600  1
  C  C35  1  0.90527700  0.30611900  0.04893600  1
  C  C36  1  0.50000000  0.99580700  0.25105300  1
  C  C37  1  0.00000000  0.99588800  0.25024800  1
  C  C38  1  0.00000000  0.72950800  0.06594400  1
  C  C39  1  0.50000000  0.72721900  0.06715000  1
  C  C40  1  0.40539900  0.30538100  0.29804300  1
  C  C41  1  0.90402800  0.30115600  0.29826100  1
  C  C42  1  0.09597200  0.30115600  0.29826100  1
  C  C43  1  0.59460100  0.30538100  0.29804300  1
  C  C44  1  0.84108800  0.69705000  0.19795500  1
  C  C45  1  0.15891200  0.69705000  0.19795500  1
  C  C46  1  0.34618900  0.69475000  0.20242100  1
  C  C47  1  0.65381100  0.69475000  0.20242100  1
  C  C48  1  0.25039400  0.27314800  0.43174900  1
  C  C49  1  0.25074100  0.00544200  0.24858600  1
  C  C50  1  0.74960600  0.27314800  0.43174900  1
  C  C51  1  0.74925900  0.00544200  0.24858600  1
  C  C52  1  0.15897900  0.69573900  0.45366000  1
  C  C53  1  0.34619700  0.69479700  0.45016800  1
  C  C54  1  0.65380300  0.69479700  0.45016800  1
  C  C55  1  0.84102100  0.69573900  0.45366000  1
  C  C56  1  0.09584700  0.30106100  0.55146100  1
  C  C57  1  0.59458300  0.30533300  0.54931300  1
  C  C58  1  0.40541700  0.30533300  0.54931300  1
  C  C59  1  0.90415300  0.30106100  0.55146100  1
  C  C60  1  0.00000000  0.72842900  0.56959800  1
  C  C61  1  0.50000000  0.72713600  0.56926000  1
  C  C62  1  0.50000000  0.99565900  0.75113900  1
  C  C63  1  0.37499300  0.99999800  0.50003000  1
  C  C64  1  0.00000000  0.99367200  0.75241500  1
  C  C65  1  0.62500700  0.99999800  0.50003000  1
  C  C66  1  0.87452100  0.99883300  0.50099700  1
  C  C67  1  0.12547900  0.99883300  0.50099700  1
  C  C68  1  0.40529800  0.30544600  0.79808700  1
  C  C69  1  0.09461300  0.30601600  0.79777400  1
  C  C70  1  0.59470200  0.30544600  0.79808700  1
  C  C71  1  0.90538700  0.30601600  0.79777400  1
  C  C72  1  0.15508600  0.69342700  0.70383700  1
  C  C73  1  0.34463500  0.69442300  0.70177400  1
  C  C74  1  0.65536500  0.69442300  0.70177400  1
  C  C75  1  0.84491400  0.69342700  0.70383700  1
  C  C76  1  0.25006100  0.27334700  0.93163700  1
  C  C77  1  0.25021000  0.00434500  0.74890100  1
  C  C78  1  0.74993900  0.27334700  0.93163700  1
  C  C79  1  0.74979000  0.00434500  0.74890100  1
  C  C80  1  0.15503700  0.69470700  0.94934400  1
  C  C81  1  0.34463700  0.69441600  0.95100800  1
  C  C82  1  0.65536300  0.69441600  0.95100800  1
  C  C83  1  0.84496300  0.69470700  0.94934400  1
  C  C84  1  0.37490000  0.00005600  0.99995300  1
  C  C85  1  0.62510000  0.00005600  0.99995300  1
  C  C86  1  0.87510800  0.00121900  0.99898400  1
  C  C87  1  0.12489200  0.00121900  0.99898400  1
