# generated using pymatgen
data_Cu7Ni4C41
_symmetry_space_group_name_H-M   'P 1'
_cell_length_a   8.84582500
_cell_length_b   10.57203900
_cell_length_c   13.62025000
_cell_angle_alpha   90.00000000
_cell_angle_beta   90.00000000
_cell_angle_gamma   90.00000000
_symmetry_Int_Tables_number   1
_chemical_formula_structural   Cu7Ni4C41
_chemical_formula_sum   'Cu14 Ni8 C82'
_cell_volume   1273.74408141
_cell_formula_units_Z   2
loop_
 _symmetry_equiv_pos_site_id
 _symmetry_equiv_pos_as_xyz
  1  'x, y, z'
loop_
 _atom_site_type_symbol
 _atom_site_label
 _atom_site_symmetry_multiplicity
 _atom_site_fract_x
 _atom_site_fract_y
 _atom_site_fract_z
 _atom_site_occupancy
  C  C0  1  0.07011600  0.50000000  0.50000000  1
  C  C1  1  0.92988400  0.00000000  0.00000000  1
  C  C2  1  0.03522300  0.89566800  0.75575500  1
  C  C3  1  0.03522300  0.10433200  0.24424500  1
  C  C4  1  0.96477700  0.60433200  0.25575500  1
  C  C5  1  0.96477700  0.39566800  0.74424500  1
  C  C6  1  0.01780600  0.77539200  0.67750100  1
  C  C7  1  0.01780600  0.22460800  0.32249900  1
  C  C8  1  0.98219400  0.72460800  0.17750100  1
  C  C9  1  0.98219400  0.27539200  0.82249900  1
  C  C10  1  0.37665300  0.67835600  0.43337600  1
  C  C11  1  0.37665300  0.32164400  0.56662400  1
  C  C12  1  0.62334700  0.82164400  0.93337600  1
  C  C13  1  0.62334700  0.17835600  0.06662400  1
  C  C14  1  0.45764000  0.82274200  0.44233200  1
  C  C15  1  0.45764000  0.17725800  0.55766800  1
  C  C16  1  0.54236000  0.67725800  0.94233200  1
  C  C17  1  0.54236000  0.32274200  0.05766800  1
  C  C18  1  0.16823100  0.88276500  0.55586700  1
  C  C19  1  0.16823100  0.11723500  0.44413300  1
  C  C20  1  0.83176900  0.61723500  0.05586700  1
  C  C21  1  0.83176900  0.38276500  0.94413300  1
  C  C22  1  0.26679900  0.86673200  0.66948900  1
  C  C23  1  0.26679900  0.13326800  0.33051100  1
  C  C24  1  0.73320100  0.63326800  0.16948900  1
  C  C25  1  0.73320100  0.36673200  0.83051100  1
  C  C26  1  0.18239600  0.01536400  0.63769000  1
  C  C27  1  0.18239600  0.98463600  0.36231000  1
  C  C28  1  0.81760400  0.48463600  0.13769000  1
  C  C29  1  0.81760400  0.51536400  0.86231000  1
  C  C30  1  0.90168100  0.03474300  0.64055000  1
  C  C31  1  0.90168100  0.96525700  0.35945000  1
  C  C32  1  0.09831900  0.46525700  0.14055000  1
  C  C33  1  0.09831900  0.53474300  0.85945000  1
  C  C34  1  0.79198500  0.90443400  0.68405800  1
  C  C35  1  0.79198500  0.09556600  0.31594200  1
  C  C36  1  0.20801500  0.59556600  0.18405800  1
  C  C37  1  0.20801500  0.40443400  0.81594200  1
  C  C38  1  0.87402700  0.89852700  0.56425600  1
  C  C39  1  0.87402700  0.10147300  0.43574400  1
  C  C40  1  0.12597300  0.60147300  0.06425600  1
  C  C41  1  0.12597300  0.39852700  0.93574400  1
  C  C42  1  0.53833700  0.81417200  0.27353100  1
  C  C43  1  0.53833700  0.18582800  0.72646900  1
  C  C44  1  0.46166300  0.68582800  0.77353100  1
  C  C45  1  0.46166300  0.31417200  0.22646900  1
  C  C46  1  0.33878100  0.79273100  0.28438400  1
  C  C47  1  0.33878100  0.20726900  0.71561600  1
  C  C48  1  0.66121900  0.70726900  0.78438400  1
  C  C49  1  0.66121900  0.29273100  0.21561600  1
  C  C50  1  0.45810700  0.65871000  0.26364800  1
  C  C51  1  0.45810700  0.34129000  0.73635200  1
  C  C52  1  0.54189300  0.84129000  0.76364800  1
  C  C53  1  0.54189300  0.15871000  0.23635200  1
  C  C54  1  0.61694800  0.57813600  0.40817900  1
  C  C55  1  0.61694800  0.42186400  0.59182100  1
  C  C56  1  0.38305200  0.92186400  0.90817900  1
  C  C57  1  0.38305200  0.07813600  0.09182100  1
  C  C58  1  0.61368500  0.66866500  0.51899800  1
  C  C59  1  0.61368500  0.33133500  0.48100200  1
  C  C60  1  0.38631500  0.83133500  0.01899800  1
  C  C61  1  0.38631500  0.16866500  0.98100200  1
  C  C62  1  0.70452700  0.73090700  0.41234500  1
  C  C63  1  0.70452700  0.26909300  0.58765500  1
  C  C64  1  0.29547300  0.76909300  0.91234500  1
  C  C65  1  0.29547300  0.23090700  0.08765500  1
  C  C66  1  0.17180200  0.91302300  0.63249900  1
  C  C67  1  0.17180200  0.08697700  0.36750100  1
  C  C68  1  0.82819800  0.58697700  0.13249900  1
  C  C69  1  0.82819800  0.41302300  0.86750100  1
  C  C70  1  0.88946000  0.93211800  0.63943600  1
  C  C71  1  0.88946000  0.06788200  0.36056400  1
  C  C72  1  0.11054000  0.56788200  0.13943600  1
  C  C73  1  0.11054000  0.43211800  0.86056400  1
  C  C74  1  0.44953500  0.75070500  0.29986400  1
  C  C75  1  0.44953500  0.24929500  0.70013600  1
  C  C76  1  0.55046500  0.74929500  0.79986400  1
  C  C77  1  0.55046500  0.25070500  0.20013600  1
  C  C78  1  0.61012200  0.67347200  0.43866600  1
  C  C79  1  0.61012200  0.32652800  0.56133400  1
  C  C80  1  0.38987800  0.82652800  0.93866600  1
  C  C81  1  0.38987800  0.17347200  0.06133400  1
  Ni  Ni82  1  0.02874600  0.87302300  0.68157700  1
  Ni  Ni83  1  0.02874600  0.12697700  0.31842300  1
  Ni  Ni84  1  0.97125400  0.62697700  0.18157700  1
  Ni  Ni85  1  0.97125400  0.37302300  0.81842300  1
  Ni  Ni86  1  0.46501900  0.73298200  0.40786900  1
  Ni  Ni87  1  0.46501900  0.26701800  0.59213100  1
  Ni  Ni88  1  0.53498100  0.76701800  0.90786900  1
  Ni  Ni89  1  0.53498100  0.23298200  0.09213100  1
  Cu  Cu90  1  0.06088000  0.73190500  0.40589100  1
  Cu  Cu91  1  0.06088000  0.26809500  0.59410900  1
  Cu  Cu92  1  0.93911900  0.76809500  0.90589100  1
  Cu  Cu93  1  0.93911900  0.23190500  0.09410900  1
  Cu  Cu94  1  0.87208400  0.58757700  0.64267800  1
  Cu  Cu95  1  0.87208400  0.41242300  0.35732200  1
  Cu  Cu96  1  0.12791600  0.91242300  0.14267800  1
  Cu  Cu97  1  0.12791600  0.08757700  0.85732200  1
  Cu  Cu98  1  0.30235800  0.57864700  0.61999600  1
  Cu  Cu99  1  0.30235800  0.42135300  0.38000400  1
  Cu  Cu100  1  0.69764200  0.92135300  0.11999600  1
  Cu  Cu101  1  0.69764200  0.07864700  0.88000400  1
  Cu  Cu102  1  0.51520900  0.00000000  0.50000000  1
  Cu  Cu103  1  0.48479100  0.50000000  0.00000000  1
