# generated using pymatgen
data_Cu4Ni3C
_symmetry_space_group_name_H-M   'P 1'
_cell_length_a   10.03098800
_cell_length_b   6.79029500
_cell_length_c   7.04816255
_cell_angle_alpha   76.75609329
_cell_angle_beta   90.00000000
_cell_angle_gamma   90.00000000
_symmetry_Int_Tables_number   1
_chemical_formula_structural   Cu4Ni3C
_chemical_formula_sum   'Cu16 Ni12 C4'
_cell_volume   467.30585831
_cell_formula_units_Z   4
loop_
 _symmetry_equiv_pos_site_id
 _symmetry_equiv_pos_as_xyz
  1  'x, y, z'
loop_
 _atom_site_type_symbol
 _atom_site_label
 _atom_site_symmetry_multiplicity
 _atom_site_fract_x
 _atom_site_fract_y
 _atom_site_fract_z
 _atom_site_occupancy
  C  C0  1  0.03454200  0.73633500  0.05195300  1
  C  C1  1  0.53454200  0.26366500  0.44804700  1
  C  C2  1  0.96545800  0.26366500  0.94804700  1
  C  C3  1  0.46545800  0.73633500  0.55195300  1
  Ni  Ni4  1  0.16523900  0.25090500  0.43110900  1
  Ni  Ni5  1  0.66523900  0.74909500  0.06889100  1
  Ni  Ni6  1  0.83476100  0.74909500  0.56889100  1
  Ni  Ni7  1  0.33476100  0.25090500  0.93110900  1
  Ni  Ni8  1  0.15428400  0.23110000  0.76512100  1
  Ni  Ni9  1  0.65428400  0.76890000  0.73487900  1
  Ni  Ni10  1  0.84571600  0.76890000  0.23487900  1
  Ni  Ni11  1  0.34571600  0.23110000  0.26512100  1
  Ni  Ni12  1  0.25553800  0.80417600  0.00687800  1
  Ni  Ni13  1  0.75553800  0.19582400  0.49312200  1
  Ni  Ni14  1  0.74446200  0.19582400  0.99312200  1
  Ni  Ni15  1  0.24446200  0.80417600  0.50687800  1
  Cu  Cu16  1  0.09422800  0.01798600  0.10173500  1
  Cu  Cu17  1  0.59422800  0.98201400  0.39826500  1
  Cu  Cu18  1  0.90577200  0.98201400  0.89826500  1
  Cu  Cu19  1  0.40577200  0.01798600  0.60173500  1
  Cu  Cu20  1  0.11364800  0.44685400  0.02276900  1
  Cu  Cu21  1  0.61364800  0.55314600  0.47723100  1
  Cu  Cu22  1  0.88635200  0.55314600  0.97723100  1
  Cu  Cu23  1  0.38635200  0.44685400  0.52276900  1
  Cu  Cu24  1  0.10474100  0.80844100  0.77804200  1
  Cu  Cu25  1  0.60474100  0.19155900  0.72195800  1
  Cu  Cu26  1  0.89525900  0.19155900  0.22195800  1
  Cu  Cu27  1  0.39525900  0.80844100  0.27804200  1
  Cu  Cu28  1  0.08506600  0.61176500  0.32027000  1
  Cu  Cu29  1  0.58506600  0.38823500  0.17973000  1
  Cu  Cu30  1  0.91493400  0.38823500  0.67973000  1
  Cu  Cu31  1  0.41493400  0.61176500  0.82027000  1
