# generated using pymatgen
data_Cu4Ni2C15
_symmetry_space_group_name_H-M   'P 1'
_cell_length_a   8.46161000
_cell_length_b   4.72081000
_cell_length_c   11.77684395
_cell_angle_alpha   84.23472511
_cell_angle_beta   90.00000000
_cell_angle_gamma   90.00000000
_symmetry_Int_Tables_number   1
_chemical_formula_structural   Cu4Ni2C15
_chemical_formula_sum   'Cu8 Ni4 C30'
_cell_volume   468.05416253
_cell_formula_units_Z   2
loop_
 _symmetry_equiv_pos_site_id
 _symmetry_equiv_pos_as_xyz
  1  'x, y, z'
loop_
 _atom_site_type_symbol
 _atom_site_label
 _atom_site_symmetry_multiplicity
 _atom_site_fract_x
 _atom_site_fract_y
 _atom_site_fract_z
 _atom_site_occupancy
  C  C0  1  0.06200700  0.01103600  0.61627100  1
  C  C1  1  0.43799300  0.01103600  0.61627100  1
  C  C2  1  0.56200700  0.98896400  0.38372900  1
  C  C3  1  0.93799300  0.98896400  0.38372900  1
  Ni  Ni4  1  0.47579600  0.01728000  0.87256100  1
  Ni  Ni5  1  0.02420400  0.01728000  0.87256100  1
  Ni  Ni6  1  0.97579600  0.98272000  0.12743900  1
  Ni  Ni7  1  0.52420400  0.98272000  0.12743900  1
  Cu  Cu8  1  0.75000000  0.58429800  0.98833400  1
  Cu  Cu9  1  0.25000000  0.45258100  0.70946200  1
  Cu  Cu10  1  0.75000000  0.70864000  0.74588000  1
  Cu  Cu11  1  0.75000000  0.37267800  0.52615400  1
  Cu  Cu12  1  0.25000000  0.62732200  0.47384600  1
  Cu  Cu13  1  0.25000000  0.29136000  0.25412000  1
  Cu  Cu14  1  0.75000000  0.54741900  0.29053800  1
  Cu  Cu15  1  0.25000000  0.41570200  0.01166600  1
  C  C16  1  0.59820100  0.77468300  0.99405000  1
  C  C17  1  0.90179900  0.77468300  0.99405000  1
  C  C18  1  0.25000000  0.68446200  0.93228500  1
  C  C19  1  0.75000000  0.48214600  0.85898900  1
  C  C20  1  0.59565800  0.87401300  0.74610300  1
  C  C21  1  0.90434200  0.87401300  0.74610300  1
  C  C22  1  0.40273500  0.31271700  0.75826500  1
  C  C23  1  0.09726500  0.31271700  0.75826500  1
  C  C24  1  0.25000000  0.77464200  0.69468700  1
  C  C25  1  0.75000000  0.52845200  0.64321900  1
  C  C26  1  0.25000000  0.35913800  0.57314200  1
  C  C27  1  0.09688100  0.78525800  0.47815900  1
  C  C28  1  0.40311900  0.78525800  0.47815900  1
  C  C29  1  0.90311900  0.21474200  0.52184100  1
  C  C30  1  0.59688100  0.21474200  0.52184100  1
  C  C31  1  0.75000000  0.64086200  0.42685800  1
  C  C32  1  0.25000000  0.47154800  0.35678100  1
  C  C33  1  0.75000000  0.22535800  0.30531300  1
  C  C34  1  0.59726500  0.68728300  0.24173500  1
  C  C35  1  0.90273500  0.68728300  0.24173500  1
  C  C36  1  0.09565800  0.12598700  0.25389700  1
  C  C37  1  0.40434200  0.12598700  0.25389700  1
  C  C38  1  0.25000000  0.51785400  0.14101100  1
  C  C39  1  0.75000000  0.31553800  0.06771500  1
  C  C40  1  0.09820100  0.22531700  0.00595000  1
  C  C41  1  0.40179900  0.22531700  0.00595000  1
