# generated using pymatgen
data_Cu3NiC
_symmetry_space_group_name_H-M   'P 1'
_cell_length_a   7.39989200
_cell_length_b   7.54647124
_cell_length_c   7.59058769
_cell_angle_alpha   110.20907016
_cell_angle_beta   108.13941135
_cell_angle_gamma   108.21464655
_symmetry_Int_Tables_number   1
_chemical_formula_structural   Cu3NiC
_chemical_formula_sum   'Cu18 Ni6 C6'
_cell_volume   333.44192262
_cell_formula_units_Z   6
loop_
 _symmetry_equiv_pos_site_id
 _symmetry_equiv_pos_as_xyz
  1  'x, y, z'
loop_
 _atom_site_type_symbol
 _atom_site_label
 _atom_site_symmetry_multiplicity
 _atom_site_fract_x
 _atom_site_fract_y
 _atom_site_fract_z
 _atom_site_occupancy
  C  C0  1  0.63940000  0.10437200  0.36177700  1
  C  C1  1  0.16801200  0.42750300  0.72541400  1
  C  C2  1  0.95834500  0.82977600  0.45624400  1
  C  C3  1  0.84164300  0.46663100  0.96294300  1
  C  C4  1  0.57086600  0.55367200  0.57495200  1
  C  C5  1  0.46647200  0.96377000  0.84043400  1
  Ni  Ni6  1  0.83069800  0.06621400  0.74157100  1
  Ni  Ni7  1  0.76628300  0.84477200  0.08334500  1
  Ni  Ni8  1  0.61809700  0.41466600  0.20400000  1
  Ni  Ni9  1  0.39104900  0.19381600  0.60417400  1
  Ni  Ni10  1  0.20424600  0.60482200  0.41923300  1
  Ni  Ni11  1  0.07708300  0.76060500  0.82450000  1
  Cu  Cu12  1  0.89048000  0.05301900  0.59156600  1
  Cu  Cu13  1  0.94430600  0.93008500  0.25558800  1
  Cu  Cu14  1  0.94065800  0.24046200  0.91690100  1
  Cu  Cu15  1  0.60757900  0.29790900  0.02282500  1
  Cu  Cu16  1  0.92220500  0.72518800  0.65291800  1
  Cu  Cu17  1  0.66640600  0.61451100  0.25945500  1
  Cu  Cu18  1  0.57899800  0.33424400  0.31846300  1
  Cu  Cu19  1  0.58398300  0.23568100  0.62567200  1
  Cu  Cu20  1  0.64757100  0.94171800  0.08144200  1
  Cu  Cu21  1  0.71142100  0.67320700  0.91601800  1
  Cu  Cu22  1  0.65547900  0.91027200  0.70199000  1
  Cu  Cu23  1  0.28189300  0.02355800  0.61284900  1
  Cu  Cu24  1  0.31582300  0.31961700  0.58211500  1
  Cu  Cu25  1  0.30831900  0.53752200  0.33675200  1
  Cu  Cu26  1  0.25482100  0.65804300  0.61936600  1
  Cu  Cu27  1  0.03970500  0.62549500  0.30916900  1
  Cu  Cu28  1  0.24978300  0.94363000  0.93856400  1
  Cu  Cu29  1  0.05797100  0.61222900  0.87566500  1
