# generated using pymatgen
data_Cu3Ni5C6
_symmetry_space_group_name_H-M   'P 1'
_cell_length_a   6.12788384
_cell_length_b   6.12788384
_cell_length_c   5.89823919
_cell_angle_alpha   61.52618535
_cell_angle_beta   61.52618535
_cell_angle_gamma   58.66329286
_symmetry_Int_Tables_number   1
_chemical_formula_structural   Cu3Ni5C6
_chemical_formula_sum   'Cu3 Ni5 C6'
_cell_volume   158.38169174
_cell_formula_units_Z   1
loop_
 _symmetry_equiv_pos_site_id
 _symmetry_equiv_pos_as_xyz
  1  'x, y, z'
loop_
 _atom_site_type_symbol
 _atom_site_label
 _atom_site_symmetry_multiplicity
 _atom_site_fract_x
 _atom_site_fract_y
 _atom_site_fract_z
 _atom_site_occupancy
  C  C0  1  0.87045200  0.38137300  0.37969500  1
  C  C1  1  0.38137300  0.87045200  0.37969500  1
  C  C2  1  0.38902000  0.38902000  0.86192200  1
  C  C3  1  0.98709800  0.98709800  0.01221900  1
  C  C4  1  0.75469800  0.75469800  0.72926000  1
  C  C5  1  0.37531300  0.37531300  0.37590400  1
  Ni  Ni6  1  0.59674500  0.16385200  0.61945300  1
  Ni  Ni7  1  0.59730900  0.59730900  0.64803200  1
  Ni  Ni8  1  0.58278400  0.15416200  0.13189400  1
  Ni  Ni9  1  0.15416200  0.58278400  0.13189400  1
  Ni  Ni10  1  0.16385200  0.59674500  0.61945300  1
  Cu  Cu11  1  0.12532500  0.12532500  0.60068000  1
  Cu  Cu12  1  0.14474900  0.14474900  0.11484900  1
  Cu  Cu13  1  0.62712200  0.62712200  0.14504700  1
