# generated using pymatgen
data_Cu7NiC4
_symmetry_space_group_name_H-M   'P 1'
_cell_length_a   7.54872319
_cell_length_b   7.54872319
_cell_length_c   5.79870242
_cell_angle_alpha   73.21339842
_cell_angle_beta   73.21339842
_cell_angle_gamma   79.26699622
_symmetry_Int_Tables_number   1
_chemical_formula_structural   Cu7NiC4
_chemical_formula_sum   'Cu14 Ni2 C8'
_cell_volume   300.95596726
_cell_formula_units_Z   2
loop_
 _symmetry_equiv_pos_site_id
 _symmetry_equiv_pos_as_xyz
  1  'x, y, z'
loop_
 _atom_site_type_symbol
 _atom_site_label
 _atom_site_symmetry_multiplicity
 _atom_site_fract_x
 _atom_site_fract_y
 _atom_site_fract_z
 _atom_site_occupancy
  C  C0  1  0.75283500  0.49201500  0.51836800  1
  C  C1  1  0.99931200  0.74888400  0.00062700  1
  C  C2  1  0.74888400  0.99931200  0.50062700  1
  C  C3  1  0.25244200  0.52201200  0.48955300  1
  C  C4  1  0.49201500  0.75283500  0.01836800  1
  C  C5  1  0.99531100  0.24887000  0.98673700  1
  C  C6  1  0.24887000  0.99531100  0.48673700  1
  C  C7  1  0.52201200  0.25244200  0.98955300  1
  Ni  Ni8  1  0.75986400  0.31655300  0.86420100  1
  Ni  Ni9  1  0.31655300  0.75986400  0.36420100  1
  Cu  Cu10  1  0.83451000  0.27241000  0.34449700  1
  Cu  Cu11  1  0.72669300  0.66857400  0.15996400  1
  Cu  Cu12  1  0.97022700  0.92961000  0.65548700  1
  Cu  Cu13  1  0.46711100  0.41146600  0.65727100  1
  Cu  Cu14  1  0.66857400  0.72669300  0.65996400  1
  Cu  Cu15  1  0.92961000  0.97022700  0.15548700  1
  Cu  Cu16  1  0.41146600  0.46711100  0.15727100  1
  Cu  Cu17  1  0.08474100  0.52791500  0.83401400  1
  Cu  Cu18  1  0.56919900  0.02729000  0.85059800  1
  Cu  Cu19  1  0.02729000  0.56919900  0.35059800  1
  Cu  Cu20  1  0.52791500  0.08474100  0.33401400  1
  Cu  Cu21  1  0.27241000  0.83451000  0.84449700  1
  Cu  Cu22  1  0.24154000  0.18061600  0.13868100  1
  Cu  Cu23  1  0.18061600  0.24154000  0.63868100  1
