# generated using pymatgen
data_Cu3NiC32
_symmetry_space_group_name_H-M   'P 1'
_cell_length_a   8.58136175
_cell_length_b   8.58136175
_cell_length_c   8.58136188
_cell_angle_alpha   60.34596830
_cell_angle_beta   60.34596830
_cell_angle_gamma   60.34597477
_symmetry_Int_Tables_number   1
_chemical_formula_structural   Cu3NiC32
_chemical_formula_sum   'Cu3 Ni1 C32'
_cell_volume   450.33894704
_cell_formula_units_Z   1
loop_
 _symmetry_equiv_pos_site_id
 _symmetry_equiv_pos_as_xyz
  1  'x, y, z'
loop_
 _atom_site_type_symbol
 _atom_site_label
 _atom_site_symmetry_multiplicity
 _atom_site_fract_x
 _atom_site_fract_y
 _atom_site_fract_z
 _atom_site_occupancy
  Ni  Ni0  1  0.85872700  0.85872700  0.85872700  1
  Cu  Cu1  1  0.14389300  0.14389300  0.14389300  1
  Cu  Cu2  1  0.35567600  0.35567600  0.35567600  1
  Cu  Cu3  1  0.64427800  0.64427800  0.64427800  1
  C  C4  1  0.00068900  0.00068900  0.00068900  1
  C  C5  1  0.50013200  0.50013200  0.50013200  1
  C  C6  1  0.45805600  0.75034900  0.04271500  1
  C  C7  1  0.75034900  0.04271500  0.45805600  1
  C  C8  1  0.04271500  0.45805600  0.75034900  1
  C  C9  1  0.95526600  0.54383900  0.24884300  1
  C  C10  1  0.24884300  0.95526600  0.54383900  1
  C  C11  1  0.54383900  0.24884300  0.95526600  1
  C  C12  1  0.50920500  0.30922500  0.11309800  1
  C  C13  1  0.11309800  0.50920500  0.30922500  1
  C  C14  1  0.26260200  0.91374600  0.05614100  1
  C  C15  1  0.30922500  0.11309800  0.50920500  1
  C  C16  1  0.61920000  0.81227800  0.00186100  1
  C  C17  1  0.44715200  0.58645900  0.23989300  1
  C  C18  1  0.91374600  0.05614100  0.26260200  1
  C  C19  1  0.58645900  0.23989300  0.44715200  1
  C  C20  1  0.99262700  0.38655700  0.18654000  1
  C  C21  1  0.23989300  0.44715200  0.58645900  1
  C  C22  1  0.93981300  0.74100500  0.08344500  1
  C  C23  1  0.18654000  0.99262700  0.38655700  1
  C  C24  1  0.81227800  0.00186100  0.61920000  1
  C  C25  1  0.05614100  0.26260200  0.91374600  1
  C  C26  1  0.75662200  0.56098300  0.41122200  1
  C  C27  1  0.00186100  0.61920000  0.81227800  1
  C  C28  1  0.41122200  0.75662200  0.56098300  1
  C  C29  1  0.08344500  0.93981300  0.74100500  1
  C  C30  1  0.56098300  0.41122200  0.75662200  1
  C  C31  1  0.38655700  0.18654000  0.99262700  1
  C  C32  1  0.68644300  0.88637500  0.49504500  1
  C  C33  1  0.74100500  0.08344500  0.93981300  1
  C  C34  1  0.88637500  0.49504500  0.68644300  1
  C  C35  1  0.49504500  0.68644300  0.88637500  1
