# generated using pymatgen
data_Cu5Ni3C40
_symmetry_space_group_name_H-M   'P 1'
_cell_length_a   6.00731200
_cell_length_b   9.72835133
_cell_length_c   9.76905267
_cell_angle_alpha   64.98357489
_cell_angle_beta   79.56472713
_cell_angle_gamma   78.59927332
_symmetry_Int_Tables_number   1
_chemical_formula_structural   Cu5Ni3C40
_chemical_formula_sum   'Cu5 Ni3 C40'
_cell_volume   504.08164611
_cell_formula_units_Z   1
loop_
 _symmetry_equiv_pos_site_id
 _symmetry_equiv_pos_as_xyz
  1  'x, y, z'
loop_
 _atom_site_type_symbol
 _atom_site_label
 _atom_site_symmetry_multiplicity
 _atom_site_fract_x
 _atom_site_fract_y
 _atom_site_fract_z
 _atom_site_occupancy
  C  C0  1  0.04694000  0.46576600  0.81531700  1
  C  C1  1  0.04291000  0.96468900  0.31140600  1
  C  C2  1  0.45609100  0.03432000  0.18770400  1
  C  C3  1  0.54262500  0.46676700  0.31225900  1
  C  C4  1  0.45508800  0.53396400  0.68714000  1
  C  C5  1  0.54434900  0.96628700  0.81406800  1
  C  C6  1  0.95431300  0.03547500  0.68548000  1
  C  C7  1  0.95595200  0.53449300  0.18851200  1
  Ni  Ni8  1  0.31488400  0.29460200  0.62326100  1
  Ni  Ni9  1  0.68589300  0.20533900  0.87786600  1
  Ni  Ni10  1  0.81414400  0.79424200  0.62293400  1
  Cu  Cu11  1  0.18216300  0.20274600  0.37227700  1
  Cu  Cu12  1  0.31683300  0.79112700  0.12239600  1
  Cu  Cu13  1  0.18220800  0.70710000  0.87175100  1
  Cu  Cu14  1  0.81729000  0.29594000  0.12942000  1
  Cu  Cu15  1  0.68107300  0.70796100  0.36895600  1
  C  C16  1  0.33320200  0.36825200  0.04165500  1
  C  C17  1  0.16939900  0.13072700  0.96486100  1
  C  C18  1  0.16483700  0.63446200  0.45977500  1
  C  C19  1  0.33392700  0.86701400  0.53918300  1
  C  C20  1  0.66568500  0.13281600  0.45964100  1
  C  C21  1  0.83083300  0.36844500  0.53709100  1
  C  C22  1  0.83784600  0.86607600  0.03756800  1
  C  C23  1  0.66781000  0.63136900  0.96220800  1
  C  C24  1  0.18086800  0.01165000  0.10662200  1
  C  C25  1  0.01080400  0.24741400  0.56117300  1
  C  C26  1  0.01613900  0.74375000  0.06373800  1
  C  C27  1  0.15901900  0.36531600  0.15849200  1
  C  C28  1  0.17545400  0.51825000  0.60324700  1
  C  C29  1  0.51281300  0.24728600  0.06842900  1
  C  C30  1  0.16594400  0.86456800  0.65887000  1
  C  C31  1  0.33954600  0.13416700  0.84650600  1
  C  C32  1  0.33833400  0.63866100  0.34262700  1
  C  C33  1  0.48582900  0.25332900  0.43163700  1
  C  C34  1  0.32396100  0.48634500  0.89917800  1
  C  C35  1  0.31877700  0.98633300  0.39823000  1
  C  C36  1  0.67544400  0.01652700  0.60334500  1
  C  C37  1  0.67856100  0.51267600  0.10397000  1
  C  C38  1  0.51193100  0.74566700  0.56119400  1
  C  C39  1  0.66006900  0.36531100  0.65513100  1
  C  C40  1  0.66727100  0.86518700  0.15571300  1
  C  C41  1  0.83914200  0.13368100  0.34298700  1
  C  C42  1  0.48666300  0.75241000  0.93843300  1
  C  C43  1  0.81907800  0.48693300  0.39541600  1
  C  C44  1  0.83891100  0.63519800  0.84498400  1
  C  C45  1  0.98984300  0.25229700  0.94012100  1
  C  C46  1  0.98321700  0.75436400  0.43217200  1
  C  C47  1  0.82609000  0.98270200  0.89505200  1
