# generated using pymatgen
data_Cu8Ni3C29
_symmetry_space_group_name_H-M   'P 1'
_cell_length_a   7.35671400
_cell_length_b   9.55470459
_cell_length_c   13.92239309
_cell_angle_alpha   106.17962573
_cell_angle_beta   90.06529857
_cell_angle_gamma   110.11470742
_symmetry_Int_Tables_number   1
_chemical_formula_structural   Cu8Ni3C29
_chemical_formula_sum   'Cu16 Ni6 C58'
_cell_volume   877.41916372
_cell_formula_units_Z   2
loop_
 _symmetry_equiv_pos_site_id
 _symmetry_equiv_pos_as_xyz
  1  'x, y, z'
loop_
 _atom_site_type_symbol
 _atom_site_label
 _atom_site_symmetry_multiplicity
 _atom_site_fract_x
 _atom_site_fract_y
 _atom_site_fract_z
 _atom_site_occupancy
  C  C0  1  0.06409900  0.93646900  0.31463000  1
  C  C1  1  0.43797100  0.56308300  0.18831200  1
  C  C2  1  0.81324500  0.18903700  0.06272600  1
  C  C3  1  0.31184700  0.68611200  0.56204700  1
  C  C4  1  0.18862800  0.80953700  0.93576700  1
  C  C5  1  0.68835900  0.31301500  0.43697600  1
  C  C6  1  0.56148000  0.43841600  0.81036500  1
  C  C7  1  0.93927200  0.05932300  0.68418100  1
  C  C8  1  0.01101000  0.98923600  0.11446200  1
  C  C9  1  0.76213000  0.23799300  0.86270700  1
  Ni  Ni10  1  0.24064500  0.75955500  0.13625900  1
  Ni  Ni11  1  0.26032800  0.73940700  0.36483000  1
  Ni  Ni12  1  0.48942800  0.51124900  0.38609600  1
  Ni  Ni13  1  0.51128700  0.48860600  0.61328900  1
  Ni  Ni14  1  0.73921400  0.26068000  0.63401500  1
  Ni  Ni15  1  0.99054700  0.00892700  0.88397900  1
  Cu  Cu16  1  0.65585500  0.93474300  0.27493400  1
  Cu  Cu17  1  0.80540100  0.60261700  0.01428100  1
  Cu  Cu18  1  0.69180200  0.89887400  0.48790900  1
  Cu  Cu19  1  0.84093300  0.56695200  0.22842600  1
  Cu  Cu20  1  0.90764300  0.68535800  0.52275400  1
  Cu  Cu21  1  0.55475100  0.84821400  0.76221700  1
  Cu  Cu22  1  0.94430900  0.64835900  0.73616100  1
  Cu  Cu23  1  0.58913300  0.81601800  0.97653700  1
  Cu  Cu24  1  0.40822600  0.18448900  0.02344400  1
  Cu  Cu25  1  0.05608900  0.35531100  0.26487300  1
  Cu  Cu26  1  0.44582400  0.14910600  0.23876000  1
  Cu  Cu27  1  0.09210700  0.31518400  0.47720400  1
  Cu  Cu28  1  0.16002800  0.43499200  0.77127300  1
  Cu  Cu29  1  0.30548300  0.10070600  0.51274300  1
  Cu  Cu30  1  0.19836500  0.39868500  0.98706200  1
  Cu  Cu31  1  0.34016900  0.06428200  0.72523200  1
  C  C32  1  0.79856500  0.96473300  0.00191100  1
  C  C33  1  0.82574200  0.90615800  0.20791700  1
  C  C34  1  0.73995900  0.96647200  0.39121600  1
  C  C35  1  0.41752500  0.84117000  0.04430600  1
  C  C36  1  0.24092500  0.99584700  0.20904300  1
  C  C37  1  0.86596100  0.84029700  0.51491700  1
  C  C38  1  0.30001700  0.96038300  0.41424500  1
  C  C39  1  0.44452500  0.78685300  0.24649900  1
  C  C40  1  0.99284900  0.71519500  0.63882100  1
  C  C41  1  0.75751700  0.53599700  0.11187400  1
  C  C42  1  0.95053100  0.78772200  0.83563100  1
  C  C43  1  0.66826400  0.59272400  0.29517200  1
  C  C44  1  0.01601100  0.75047600  0.04502900  1
  C  C45  1  0.48500600  0.74647100  0.45606300  1
  C  C46  1  0.88062600  0.41259600  0.23854500  1
  C  C47  1  0.38484000  0.91159400  0.73563000  1
  C  C48  1  0.54645100  0.70821200  0.66292500  1
  C  C49  1  0.05315900  0.71404600  0.25570600  1
  C  C50  1  0.69652300  0.53672100  0.49494300  1
  C  C51  1  0.20439300  0.53931900  0.08588600  1
  C  C52  1  0.50267000  0.78212900  0.85984200  1
  C  C53  1  0.37315000  0.34118300  0.01407400  1
  C  C54  1  0.91924100  0.34086900  0.54365000  1
  C  C55  1  0.26405100  0.50664000  0.29665100  1
  C  C56  1  0.73702700  0.49613100  0.70399000  1
  C  C57  1  0.07931900  0.65965600  0.45547300  1
  C  C58  1  0.63349900  0.66434400  0.98875000  1
  C  C59  1  0.48796400  0.21385400  0.14037300  1
  C  C60  1  0.79784700  0.46427400  0.91464500  1
  C  C61  1  0.30357900  0.46321300  0.50507500  1
  C  C62  1  0.95009000  0.28608400  0.74078100  1
  C  C63  1  0.45216900  0.29079900  0.33687400  1
  C  C64  1  0.62088800  0.09160100  0.26557500  1
  C  C65  1  0.11819500  0.58972200  0.76332300  1
  C  C66  1  0.51298800  0.25278100  0.54427200  1
  C  C67  1  0.99305500  0.24558300  0.95696700  1
  C  C68  1  0.33399700  0.41095800  0.70549400  1
  C  C69  1  0.05171300  0.21692600  0.16594000  1
  C  C70  1  0.24112500  0.46269700  0.88800300  1
  C  C71  1  0.00824700  0.28677100  0.36142700  1
  C  C72  1  0.54874100  0.21399900  0.75129200  1
  C  C73  1  0.69833800  0.03924300  0.58672800  1
  C  C74  1  0.13217200  0.15977900  0.48525400  1
  C  C75  1  0.76476900  0.99698100  0.79262000  1
  C  C76  1  0.58074100  0.15785600  0.95809800  1
  C  C77  1  0.25306800  0.03265500  0.60931900  1
  C  C78  1  0.16830500  0.08943300  0.79262800  1
  C  C79  1  0.19805400  0.03631900  0.99214800  1
