# generated using pymatgen
data_Cu16Ni4C23
_symmetry_space_group_name_H-M   'P 1'
_cell_length_a   10.70109100
_cell_length_b   7.18496600
_cell_length_c   12.12169209
_cell_angle_alpha   63.51508071
_cell_angle_beta   90.00000000
_cell_angle_gamma   90.00000000
_symmetry_Int_Tables_number   1
_chemical_formula_structural   Cu16Ni4C23
_chemical_formula_sum   'Cu32 Ni8 C46'
_cell_volume   834.18846449
_cell_formula_units_Z   2
loop_
 _symmetry_equiv_pos_site_id
 _symmetry_equiv_pos_as_xyz
  1  'x, y, z'
loop_
 _atom_site_type_symbol
 _atom_site_label
 _atom_site_symmetry_multiplicity
 _atom_site_fract_x
 _atom_site_fract_y
 _atom_site_fract_z
 _atom_site_occupancy
  C  C0  1  0.83629700  0.20419900  0.04224000  1
  C  C1  1  0.33629700  0.79580100  0.45776000  1
  C  C2  1  0.66370300  0.20419900  0.54224000  1
  C  C3  1  0.16370300  0.79580100  0.95776000  1
  C  C4  1  0.50000000  0.50000000  0.00000000  1
  C  C5  1  0.00000000  0.50000000  0.50000000  1
  Ni  Ni6  1  0.73993900  0.68389100  0.58367500  1
  Ni  Ni7  1  0.23993900  0.31610900  0.91632500  1
  Ni  Ni8  1  0.54489000  0.04050400  0.22197400  1
  Ni  Ni9  1  0.04489000  0.95949600  0.27802600  1
  Ni  Ni10  1  0.95511000  0.04050400  0.72197400  1
  Ni  Ni11  1  0.45511000  0.95949600  0.77802600  1
  Ni  Ni12  1  0.76006100  0.68389100  0.08367500  1
  Ni  Ni13  1  0.26006100  0.31610900  0.41632500  1
  Cu  Cu14  1  0.09837300  0.74604100  0.60685500  1
  Cu  Cu15  1  0.46111400  0.66562800  0.69171500  1
  Cu  Cu16  1  0.06703900  0.48287500  0.89529800  1
  Cu  Cu17  1  0.87716400  0.50651900  0.81075800  1
  Cu  Cu18  1  0.67297500  0.46454300  0.84161300  1
  Cu  Cu19  1  0.20982200  0.13666400  0.28858600  1
  Cu  Cu20  1  0.17297500  0.53545700  0.65838700  1
  Cu  Cu21  1  0.37716400  0.49348100  0.68924200  1
  Cu  Cu22  1  0.91394100  0.91057900  0.42491800  1
  Cu  Cu23  1  0.60597200  0.90257800  0.44513700  1
  Cu  Cu24  1  0.56703900  0.51712500  0.60470200  1
  Cu  Cu25  1  0.96111400  0.33437200  0.80828500  1
  Cu  Cu26  1  0.59837300  0.25395900  0.89314500  1
  Cu  Cu27  1  0.10597200  0.09742200  0.05486300  1
  Cu  Cu28  1  0.41394100  0.08942100  0.07508200  1
  Cu  Cu29  1  0.70982200  0.86333600  0.21141400  1
  Cu  Cu30  1  0.29017800  0.13666400  0.78858600  1
  Cu  Cu31  1  0.58605900  0.91057900  0.92491800  1
  Cu  Cu32  1  0.89402800  0.90257800  0.94513700  1
  Cu  Cu33  1  0.40162700  0.74604100  0.10685500  1
  Cu  Cu34  1  0.03888600  0.66562800  0.19171500  1
  Cu  Cu35  1  0.43296100  0.48287500  0.39529800  1
  Cu  Cu36  1  0.39402800  0.09742200  0.55486300  1
  Cu  Cu37  1  0.08605900  0.08942100  0.57508200  1
  Cu  Cu38  1  0.62283600  0.50651900  0.31075800  1
  Cu  Cu39  1  0.82702500  0.46454300  0.34161300  1
  Cu  Cu40  1  0.79017800  0.86333600  0.71141400  1
  Cu  Cu41  1  0.32702500  0.53545700  0.15838700  1
  Cu  Cu42  1  0.12283600  0.49348100  0.18924200  1
  Cu  Cu43  1  0.93296100  0.51712500  0.10470200  1
  Cu  Cu44  1  0.53888600  0.33437200  0.30828500  1
  Cu  Cu45  1  0.90162700  0.25395900  0.39314500  1
  C  C46  1  0.66690700  0.89635800  0.51537700  1
  C  C47  1  0.75827900  0.64950400  0.71707100  1
  C  C48  1  0.15670500  0.49612900  0.92098900  1
  C  C49  1  0.52589200  0.27219400  0.18086700  1
  C  C50  1  0.43855600  0.60103100  0.63661600  1
  C  C51  1  0.14618200  0.65536500  0.58075200  1
  C  C52  1  0.86130300  0.69400200  0.51587500  1
  C  C53  1  0.36130300  0.30599800  0.98412500  1
  C  C54  1  0.64618200  0.34463500  0.91924800  1
  C  C55  1  0.93855600  0.39896900  0.86338400  1
  C  C56  1  0.96151200  0.03429000  0.35974500  1
  C  C57  1  0.18720100  0.98708000  0.30622100  1
  C  C58  1  0.65670500  0.50387100  0.57901100  1
  C  C59  1  0.01405300  0.09808900  0.14273900  1
  C  C60  1  0.25827900  0.35049600  0.78292900  1
  C  C61  1  0.51405300  0.90191100  0.35726100  1
  C  C62  1  0.68720100  0.01292000  0.19377900  1
  C  C63  1  0.16690700  0.10364200  0.98462300  1
  C  C64  1  0.46151200  0.96571000  0.14025500  1
  C  C65  1  0.97410800  0.27219400  0.68086700  1
  C  C66  1  0.02589200  0.72780600  0.31913300  1
  C  C67  1  0.53848800  0.03429000  0.85974500  1
  C  C68  1  0.83309300  0.89635800  0.01537700  1
  C  C69  1  0.31279900  0.98708000  0.80622100  1
  C  C70  1  0.48594700  0.09808900  0.64273900  1
  C  C71  1  0.74172100  0.64950400  0.21707100  1
  C  C72  1  0.98594700  0.90191100  0.85726100  1
  C  C73  1  0.34329500  0.49612900  0.42098900  1
  C  C74  1  0.81279900  0.01292000  0.69377900  1
  C  C75  1  0.03848800  0.96571000  0.64025500  1
  C  C76  1  0.06144400  0.60103100  0.13661600  1
  C  C77  1  0.35381800  0.65536500  0.08075200  1
  C  C78  1  0.63869700  0.69400200  0.01587500  1
  C  C79  1  0.13869700  0.30599800  0.48412500  1
  C  C80  1  0.85381800  0.34463500  0.41924800  1
  C  C81  1  0.56144400  0.39896900  0.36338400  1
  C  C82  1  0.47410800  0.72780600  0.81913300  1
  C  C83  1  0.84329500  0.50387100  0.07901100  1
  C  C84  1  0.24172100  0.35049600  0.28292900  1
  C  C85  1  0.33309300  0.10364200  0.48462300  1
