# generated using pymatgen
data_CuNiC7
_symmetry_space_group_name_H-M   'P 1'
_cell_length_a   9.90677800
_cell_length_b   5.84788300
_cell_length_c   8.65109842
_cell_angle_alpha   75.49977464
_cell_angle_beta   90.00000000
_cell_angle_gamma   90.00000000
_symmetry_Int_Tables_number   1
_chemical_formula_structural   CuNiC7
_chemical_formula_sum   'Cu4 Ni4 C28'
_cell_volume   485.22537942
_cell_formula_units_Z   4
loop_
 _symmetry_equiv_pos_site_id
 _symmetry_equiv_pos_as_xyz
  1  'x, y, z'
loop_
 _atom_site_type_symbol
 _atom_site_label
 _atom_site_symmetry_multiplicity
 _atom_site_fract_x
 _atom_site_fract_y
 _atom_site_fract_z
 _atom_site_occupancy
  C  C0  1  0.64202500  0.81711000  0.29782600  1
  C  C1  1  0.14202500  0.68289000  0.70217400  1
  C  C2  1  0.35797500  0.18289000  0.70217400  1
  C  C3  1  0.85797500  0.31711000  0.29782600  1
  C  C4  1  0.33071600  0.85660900  0.37981600  1
  C  C5  1  0.83071600  0.64339100  0.62018400  1
  C  C6  1  0.66928400  0.14339100  0.62018400  1
  C  C7  1  0.16928400  0.35660900  0.37981600  1
  Ni  Ni8  1  0.35771300  0.72974600  0.01460400  1
  Ni  Ni9  1  0.85771300  0.77025400  0.98539600  1
  Ni  Ni10  1  0.64228700  0.27025400  0.98539600  1
  Ni  Ni11  1  0.14228700  0.22974600  0.01460400  1
  Cu  Cu12  1  0.00678700  0.86023800  0.29534900  1
  Cu  Cu13  1  0.50678700  0.63976200  0.70465100  1
  Cu  Cu14  1  0.99321300  0.13976200  0.70465100  1
  Cu  Cu15  1  0.49321300  0.36023800  0.29534900  1
  C  C16  1  0.86543600  0.88220700  0.36353100  1
  C  C17  1  0.36543600  0.61779300  0.63646900  1
  C  C18  1  0.13456400  0.11779300  0.63646900  1
  C  C19  1  0.63456400  0.38220700  0.36353100  1
  C  C20  1  0.99566800  0.73115200  0.15625500  1
  C  C21  1  0.49566800  0.76884800  0.84374500  1
  C  C22  1  0.00433200  0.26884800  0.84374500  1
  C  C23  1  0.50433200  0.23115200  0.15625500  1
  C  C24  1  0.10676100  0.71849900  0.41922100  1
  C  C25  1  0.60676100  0.78150100  0.58077900  1
  C  C26  1  0.89323900  0.28150100  0.58077900  1
  C  C27  1  0.39323900  0.21849900  0.41922100  1
  C  C28  1  0.20323500  0.55334400  0.97799800  1
  C  C29  1  0.70323500  0.94665600  0.02200200  1
  C  C30  1  0.79676500  0.44665600  0.02200200  1
  C  C31  1  0.29676500  0.05334400  0.97799800  1
  C  C32  1  0.43649000  0.61968000  0.22925100  1
  C  C33  1  0.93649000  0.88032000  0.77074900  1
  C  C34  1  0.56351000  0.38032000  0.77074900  1
  C  C35  1  0.06351000  0.11968000  0.22925100  1
