# generated using pymatgen
data_CuNi5C3
_symmetry_space_group_name_H-M   'P 1'
_cell_length_a   3.06615500
_cell_length_b   6.43631900
_cell_length_c   10.28994694
_cell_angle_alpha   71.84855311
_cell_angle_beta   90.00000000
_cell_angle_gamma   90.00000000
_symmetry_Int_Tables_number   1
_chemical_formula_structural   CuNi5C3
_chemical_formula_sum   'Cu2 Ni10 C6'
_cell_volume   192.96407326
_cell_formula_units_Z   2
loop_
 _symmetry_equiv_pos_site_id
 _symmetry_equiv_pos_as_xyz
  1  'x, y, z'
loop_
 _atom_site_type_symbol
 _atom_site_label
 _atom_site_symmetry_multiplicity
 _atom_site_fract_x
 _atom_site_fract_y
 _atom_site_fract_z
 _atom_site_occupancy
  C  C0  1  0.00000000  0.99251200  0.01656200  1
  C  C1  1  0.50000000  0.81163600  0.34229800  1
  C  C2  1  0.50000000  0.50073400  0.99839000  1
  C  C3  1  0.00000000  0.35142000  0.32179800  1
  C  C4  1  0.00000000  0.66567400  0.66959500  1
  C  C5  1  0.50000000  0.17746500  0.64385400  1
  Ni  Ni6  1  0.50000000  0.93734600  0.13471200  1
  Ni  Ni7  1  0.00000000  0.29567900  0.99777000  1
  Ni  Ni8  1  0.00000000  0.70744700  0.99960100  1
  Ni  Ni9  1  0.00000000  0.36419200  0.66657400  1
  Ni  Ni10  1  0.50000000  0.40258900  0.18866000  1
  Ni  Ni11  1  0.50000000  0.73260600  0.54252100  1
  Ni  Ni12  1  0.50000000  0.26292700  0.46312400  1
  Ni  Ni13  1  0.50000000  0.59921600  0.80297600  1
  Ni  Ni14  1  0.00000000  0.63297500  0.33543200  1
  Ni  Ni15  1  0.00000000  0.96950000  0.66863000  1
  Cu  Cu16  1  0.00000000  0.03155400  0.33554800  1
  Cu  Cu17  1  0.50000000  0.06452900  0.87195700  1
