# generated using pymatgen
data_Cu3NiC36
_symmetry_space_group_name_H-M   'P 1'
_cell_length_a   8.55458000
_cell_length_b   8.76227543
_cell_length_c   12.10025120
_cell_angle_alpha   89.50681377
_cell_angle_beta   88.91837963
_cell_angle_gamma   89.93618671
_symmetry_Int_Tables_number   1
_chemical_formula_structural   Cu3NiC36
_chemical_formula_sum   'Cu6 Ni2 C72'
_cell_volume   906.81000515
_cell_formula_units_Z   2
loop_
 _symmetry_equiv_pos_site_id
 _symmetry_equiv_pos_as_xyz
  1  'x, y, z'
loop_
 _atom_site_type_symbol
 _atom_site_label
 _atom_site_symmetry_multiplicity
 _atom_site_fract_x
 _atom_site_fract_y
 _atom_site_fract_z
 _atom_site_occupancy
  C  C0  1  0.93517900  0.51470300  0.34737000  1
  C  C1  1  0.91977200  0.08671200  0.69051600  1
  C  C2  1  0.81972400  0.77998200  0.17717700  1
  C  C3  1  0.68040200  0.27910300  0.32116000  1
  C  C4  1  0.57967300  0.58626200  0.80948100  1
  C  C5  1  0.56530200  0.01226500  0.15383200  1
  C  C6  1  0.43510000  0.98552300  0.84616400  1
  C  C7  1  0.42039000  0.41425300  0.19073600  1
  C  C8  1  0.31919900  0.72083500  0.67866300  1
  C  C9  1  0.17931800  0.21850200  0.82210200  1
  C  C10  1  0.07923500  0.91484200  0.30889500  1
  C  C11  1  0.06504000  0.48554300  0.65329500  1
  Ni  Ni12  1  0.75524000  0.46389400  0.10878600  1
  Ni  Ni13  1  0.24709300  0.97050600  0.10550000  1
  Cu  Cu14  1  0.75584100  0.02706800  0.89484300  1
  Cu  Cu15  1  0.74504000  0.52814100  0.60531100  1
  Cu  Cu16  1  0.74501900  0.96592800  0.39081400  1
  Cu  Cu17  1  0.25512800  0.03475800  0.60958400  1
  Cu  Cu18  1  0.25503900  0.47229400  0.39476300  1
  Cu  Cu19  1  0.24361900  0.53424200  0.89151100  1
  C  C20  1  0.96057500  0.24873200  0.49027900  1
  C  C21  1  0.88510300  0.38281500  0.84861100  1
  C  C22  1  0.88594900  0.11180300  0.14570000  1
  C  C23  1  0.61409400  0.88343700  0.65160800  1
  C  C24  1  0.61425200  0.61004500  0.35273800  1
  C  C25  1  0.54165600  0.74682900  0.00916800  1
  C  C26  1  0.45558600  0.24895300  0.98971000  1
  C  C27  1  0.38559000  0.39003400  0.64691300  1
  C  C28  1  0.38636500  0.11736600  0.35050800  1
  C  C29  1  0.11511300  0.88944700  0.85174800  1
  C  C30  1  0.11617600  0.62008900  0.15280500  1
  C  C31  1  0.04028000  0.75160000  0.50958700  1
  C  C32  1  0.94765000  0.89131500  0.89702000  1
  C  C33  1  0.94867300  0.87188200  0.44500800  1
  C  C34  1  0.94449900  0.66496800  0.60002000  1
  C  C35  1  0.94530000  0.58475400  0.19292600  1
  C  C36  1  0.90112200  0.35902300  0.58181300  1
  C  C37  1  0.87326500  0.20634400  0.83033400  1
  C  C38  1  0.86164700  0.41861400  0.97100900  1
  C  C39  1  0.87235300  0.99514700  0.24576600  1
  C  C40  1  0.82578300  0.27043400  0.18726800  1
  C  C41  1  0.81621700  0.17730500  0.43363300  1
  C  C42  1  0.77020200  0.47196400  0.77508200  1
  C  C43  1  0.76416700  0.05009500  0.06255100  1
  C  C44  1  0.73418100  0.54978200  0.43896800  1
  C  C45  1  0.72917300  0.97204500  0.72350000  1
  C  C46  1  0.68935600  0.67481400  0.06395200  1
  C  C47  1  0.67127700  0.76941000  0.31301800  1
  C  C48  1  0.63964100  0.92227600  0.52972400  1
  C  C49  1  0.62874200  0.49282900  0.25419800  1
  C  C50  1  0.62350000  0.70642300  0.66904600  1
  C  C51  1  0.60046800  0.85936100  0.91732000  1
  C  C52  1  0.55321400  0.16455700  0.90064200  1
  C  C53  1  0.55870000  0.07940100  0.31219800  1
  C  C54  1  0.55354800  0.39016900  0.60335900  1
  C  C55  1  0.54393100  0.36751900  0.05602400  1
  C  C56  1  0.44982600  0.62787800  0.94514600  1
  C  C57  1  0.44670200  0.60862900  0.39634100  1
  C  C58  1  0.44118400  0.92114400  0.68841000  1
  C  C59  1  0.44837300  0.83045900  0.10125900  1
  C  C60  1  0.39542900  0.13537100  0.08234800  1
  C  C61  1  0.37678700  0.29452300  0.33235300  1
  C  C62  1  0.37108200  0.50630100  0.74526600  1
  C  C63  1  0.36409600  0.07985700  0.47296600  1
  C  C64  1  0.32762800  0.23113300  0.68711600  1
  C  C65  1  0.31199400  0.32110900  0.93221200  1
  C  C66  1  0.27005600  0.02790700  0.28107200  1
  C  C67  1  0.26553800  0.45086100  0.56102500  1
  C  C68  1  0.23741100  0.95112900  0.93301800  1
  C  C69  1  0.23305800  0.53111700  0.22480200  1
  C  C70  1  0.18475200  0.82305100  0.56590200  1
  C  C71  1  0.16947200  0.72939700  0.81234700  1
  C  C72  1  0.12474700  0.00552000  0.75117800  1
  C  C73  1  0.14026000  0.58001000  0.03142000  1
  C  C74  1  0.12504600  0.79891300  0.16678900  1
  C  C75  1  0.09998900  0.64078100  0.41846600  1
  C  C76  1  0.05781900  0.42058700  0.81158200  1
  C  C77  1  0.05622300  0.33548400  0.39987900  1
  C  C78  1  0.05201200  0.12766100  0.55409100  1
  C  C79  1  0.05281200  0.11424700  0.10075600  1
