# generated using pymatgen
data_CuNi2C25
_symmetry_space_group_name_H-M   'P 1'
_cell_length_a   10.16638213
_cell_length_b   10.16638213
_cell_length_c   9.94566501
_cell_angle_alpha   61.13416589
_cell_angle_beta   61.13416589
_cell_angle_gamma   91.09423444
_symmetry_Int_Tables_number   1
_chemical_formula_structural   CuNi2C25
_chemical_formula_sum   'Cu2 Ni4 C50'
_cell_volume   744.54118107
_cell_formula_units_Z   2
loop_
 _symmetry_equiv_pos_site_id
 _symmetry_equiv_pos_as_xyz
  1  'x, y, z'
loop_
 _atom_site_type_symbol
 _atom_site_label
 _atom_site_symmetry_multiplicity
 _atom_site_fract_x
 _atom_site_fract_y
 _atom_site_fract_z
 _atom_site_occupancy
  C  C0  1  0.32694000  0.07069200  0.85885400  1
  C  C1  1  0.07069200  0.32694000  0.35885400  1
  C  C2  1  0.92987700  0.67169600  0.25554600  1
  C  C3  1  0.93044300  0.06955700  0.25000000  1
  C  C4  1  0.32830400  0.07012300  0.24445400  1
  C  C5  1  0.67169600  0.92987700  0.75554600  1
  C  C6  1  0.07012300  0.32830400  0.74445400  1
  C  C7  1  0.06955700  0.93044300  0.75000000  1
  C  C8  1  0.92930800  0.67306000  0.64114600  1
  C  C9  1  0.67306000  0.92930800  0.14114600  1
  Ni  Ni10  1  0.50000000  0.00000000  0.50000000  1
  Ni  Ni11  1  0.50000000  0.50000000  0.50000000  1
  Ni  Ni12  1  0.00000000  0.50000000  0.00000000  1
  Ni  Ni13  1  0.50000000  0.50000000  0.00000000  1
  Cu  Cu14  1  0.87449200  0.12550800  0.75000000  1
  Cu  Cu15  1  0.12550800  0.87449200  0.25000000  1
  C  C16  1  0.71015200  0.28253800  0.45385200  1
  C  C17  1  0.34098700  0.28725600  0.43126600  1
  C  C18  1  0.71274400  0.65901300  0.06873400  1
  C  C19  1  0.71746200  0.28984800  0.04614800  1
  C  C20  1  0.28253800  0.71015200  0.95385200  1
  C  C21  1  0.28725600  0.34098700  0.93126600  1
  C  C22  1  0.65901300  0.71274400  0.56873400  1
  C  C23  1  0.28984800  0.71746200  0.54614800  1
  C  C24  1  0.69011500  0.05823900  0.87790800  1
  C  C25  1  0.94177000  0.06593400  0.87473900  1
  C  C26  1  0.93406600  0.05823000  0.62526100  1
  C  C27  1  0.94176100  0.30988500  0.62209200  1
  C  C28  1  0.59091200  0.15424900  0.58654500  1
  C  C29  1  0.35165300  0.30966200  0.54684300  1
  C  C30  1  0.31156000  0.14669100  0.46951000  1
  C  C31  1  0.69755900  0.42283900  0.42726300  1
  C  C32  1  0.84459500  0.28523400  0.33673500  1
  C  C33  1  0.35495700  0.40963800  0.28612000  1
  C  C34  1  0.71476600  0.15540500  0.16326500  1
  C  C35  1  0.59036200  0.64504300  0.21388000  1
  C  C36  1  0.15424900  0.59091200  0.08654500  1
  C  C37  1  0.30966200  0.35165300  0.04684300  1
  C  C38  1  0.57716100  0.30244100  0.07273700  1
  C  C39  1  0.85330900  0.68844000  0.03049000  1
  C  C40  1  0.42283900  0.69755900  0.92726300  1
  C  C41  1  0.14669100  0.31156000  0.96951000  1
  C  C42  1  0.69033800  0.64834700  0.95315700  1
  C  C43  1  0.84575100  0.40908800  0.91345500  1
  C  C44  1  0.40963800  0.35495700  0.78612000  1
  C  C45  1  0.28523400  0.84459500  0.83673500  1
  C  C46  1  0.64504300  0.59036200  0.71388000  1
  C  C47  1  0.15540500  0.71476600  0.66326500  1
  C  C48  1  0.68844000  0.85330900  0.53049000  1
  C  C49  1  0.30244100  0.57716100  0.57273700  1
  C  C50  1  0.64834700  0.69033800  0.45315700  1
  C  C51  1  0.40908800  0.84575100  0.41345500  1
  C  C52  1  0.05823900  0.69011500  0.37790800  1
  C  C53  1  0.06593400  0.94177000  0.37473900  1
  C  C54  1  0.05823000  0.93406600  0.12526100  1
  C  C55  1  0.30988500  0.94176100  0.12209200  1
