# generated using pymatgen
data_Cu5Ni5C
_symmetry_space_group_name_H-M   'P 1'
_cell_length_a   13.34220700
_cell_length_b   6.74343700
_cell_length_c   12.27343544
_cell_angle_alpha   60.32796917
_cell_angle_beta   90.00000000
_cell_angle_gamma   90.00000000
_symmetry_Int_Tables_number   1
_chemical_formula_structural   Cu5Ni5C
_chemical_formula_sum   'Cu40 Ni40 C8'
_cell_volume   959.47035047
_cell_formula_units_Z   8
loop_
 _symmetry_equiv_pos_site_id
 _symmetry_equiv_pos_as_xyz
  1  'x, y, z'
loop_
 _atom_site_type_symbol
 _atom_site_label
 _atom_site_symmetry_multiplicity
 _atom_site_fract_x
 _atom_site_fract_y
 _atom_site_fract_z
 _atom_site_occupancy
  C  C0  1  0.33939800  0.82768100  0.49831100  1
  C  C1  1  0.12180500  0.23132700  0.50628800  1
  C  C2  1  0.83939800  0.17231900  0.00168900  1
  C  C3  1  0.62180500  0.76867300  0.99371200  1
  C  C4  1  0.37819500  0.23132700  0.00628800  1
  C  C5  1  0.16060200  0.82768100  0.99831100  1
  C  C6  1  0.87819500  0.76867300  0.49371200  1
  C  C7  1  0.66060200  0.17231900  0.50168900  1
  Ni  Ni8  1  0.08510700  0.73927100  0.57753400  1
  Ni  Ni9  1  0.66365500  0.71374400  0.60563100  1
  Ni  Ni10  1  0.16844000  0.51984200  0.62280100  1
  Ni  Ni11  1  0.54780600  0.61335900  0.66443700  1
  Ni  Ni12  1  0.64720200  0.43033600  0.66492100  1
  Ni  Ni13  1  0.17858100  0.73455200  0.67327200  1
  Ni  Ni14  1  0.03695000  0.47314500  0.67206100  1
  Ni  Ni15  1  0.04707700  0.68745700  0.72254200  1
  Ni  Ni16  1  0.63326100  0.73408500  0.73437600  1
  Ni  Ni17  1  0.73393400  0.54816700  0.73454600  1
  Ni  Ni18  1  0.23393400  0.45183300  0.76545400  1
  Ni  Ni19  1  0.13326100  0.26591500  0.76562400  1
  Ni  Ni20  1  0.54707700  0.31254300  0.77745800  1
  Ni  Ni21  1  0.53695000  0.52685500  0.82793900  1
  Ni  Ni22  1  0.67858100  0.26544800  0.82672800  1
  Ni  Ni23  1  0.14720200  0.56966400  0.83507900  1
  Ni  Ni24  1  0.04780600  0.38664100  0.83556300  1
  Ni  Ni25  1  0.66844000  0.48015800  0.87719900  1
  Ni  Ni26  1  0.16365500  0.28625600  0.89436900  1
  Ni  Ni27  1  0.58510700  0.26072900  0.92246600  1
  Ni  Ni28  1  0.41489300  0.73927100  0.07753400  1
  Ni  Ni29  1  0.83634500  0.71374400  0.10563100  1
  Ni  Ni30  1  0.33156000  0.51984200  0.12280100  1
  Ni  Ni31  1  0.95219400  0.61335900  0.16443700  1
  Ni  Ni32  1  0.85279800  0.43033600  0.16492100  1
  Ni  Ni33  1  0.32141900  0.73455200  0.17327200  1
  Ni  Ni34  1  0.46305000  0.47314500  0.17206100  1
  Ni  Ni35  1  0.45292300  0.68745700  0.22254200  1
  Ni  Ni36  1  0.86673900  0.73408500  0.23437600  1
  Ni  Ni37  1  0.76606600  0.54816700  0.23454600  1
  Ni  Ni38  1  0.26606600  0.45183300  0.26545400  1
  Ni  Ni39  1  0.36673900  0.26591500  0.26562400  1
  Ni  Ni40  1  0.95292300  0.31254300  0.27745800  1
  Ni  Ni41  1  0.96305000  0.52685500  0.32793900  1
  Ni  Ni42  1  0.82141900  0.26544800  0.32672800  1
  Ni  Ni43  1  0.35279800  0.56966400  0.33507900  1
  Ni  Ni44  1  0.45219400  0.38664100  0.33556300  1
  Ni  Ni45  1  0.83156000  0.48015800  0.37719900  1
  Ni  Ni46  1  0.33634500  0.28625600  0.39436900  1
  Ni  Ni47  1  0.91489300  0.26072900  0.42246600  1
  Cu  Cu48  1  0.31280200  0.15272700  0.49997400  1
  Cu  Cu49  1  0.93756500  0.11732400  0.52680700  1
  Cu  Cu50  1  0.21289100  0.49971300  0.54318900  1
  Cu  Cu51  1  0.47691600  0.68991300  0.59617800  1
  Cu  Cu52  1  0.66534300  0.35620000  0.59714000  1
  Cu  Cu53  1  0.96725800  0.40138500  0.63920500  1
  Cu  Cu54  1  0.23439000  0.89335300  0.64545400  1
  Cu  Cu55  1  0.82360900  0.56450500  0.73244100  1
  Cu  Cu56  1  0.98597200  0.80462000  0.73554500  1
  Cu  Cu57  1  0.63449600  0.91351900  0.73380800  1
  Cu  Cu58  1  0.13449600  0.08648100  0.76619200  1
  Cu  Cu59  1  0.32360900  0.43549500  0.76755900  1
  Cu  Cu60  1  0.48597200  0.19538000  0.76445500  1
  Cu  Cu61  1  0.46725800  0.59861500  0.86079500  1
  Cu  Cu62  1  0.73439000  0.10664700  0.85454600  1
  Cu  Cu63  1  0.97691600  0.31008700  0.90382200  1
  Cu  Cu64  1  0.16534300  0.64380000  0.90286000  1
  Cu  Cu65  1  0.71289100  0.50028700  0.95681100  1
  Cu  Cu66  1  0.18719800  0.15272700  0.99997400  1
  Cu  Cu67  1  0.56243500  0.11732400  0.02680700  1
  Cu  Cu68  1  0.43756500  0.88267600  0.97319300  1
  Cu  Cu69  1  0.81280200  0.84727300  0.00002600  1
  Cu  Cu70  1  0.28710900  0.49971300  0.04318900  1
  Cu  Cu71  1  0.83465700  0.35620000  0.09714000  1
  Cu  Cu72  1  0.02308400  0.68991300  0.09617800  1
  Cu  Cu73  1  0.26561000  0.89335300  0.14545400  1
  Cu  Cu74  1  0.53274200  0.40138500  0.13920500  1
  Cu  Cu75  1  0.51402800  0.80462000  0.23554500  1
  Cu  Cu76  1  0.67639100  0.56450500  0.23244100  1
  Cu  Cu77  1  0.86550400  0.91351900  0.23380800  1
  Cu  Cu78  1  0.36550400  0.08648100  0.26619200  1
  Cu  Cu79  1  0.01402800  0.19538000  0.26445500  1
  Cu  Cu80  1  0.17639100  0.43549500  0.26755900  1
  Cu  Cu81  1  0.76561000  0.10664700  0.35454600  1
  Cu  Cu82  1  0.03274200  0.59861500  0.36079500  1
  Cu  Cu83  1  0.33465700  0.64380000  0.40286000  1
  Cu  Cu84  1  0.52308400  0.31008700  0.40382200  1
  Cu  Cu85  1  0.78710900  0.50028700  0.45681100  1
  Cu  Cu86  1  0.06243500  0.88267600  0.47319300  1
  Cu  Cu87  1  0.68719800  0.84727300  0.50002600  1
