# generated using pymatgen
data_Cu11NiC4
_symmetry_space_group_name_H-M   'P 1'
_cell_length_a   5.08375997
_cell_length_b   5.33189659
_cell_length_c   16.89481620
_cell_angle_alpha   91.73907683
_cell_angle_beta   98.29079927
_cell_angle_gamma   61.71091211
_symmetry_Int_Tables_number   1
_chemical_formula_structural   Cu11NiC4
_chemical_formula_sum   'Cu22 Ni2 C8'
_cell_volume   398.66405292
_cell_formula_units_Z   2
loop_
 _symmetry_equiv_pos_site_id
 _symmetry_equiv_pos_as_xyz
  1  'x, y, z'
loop_
 _atom_site_type_symbol
 _atom_site_label
 _atom_site_symmetry_multiplicity
 _atom_site_fract_x
 _atom_site_fract_y
 _atom_site_fract_z
 _atom_site_occupancy
  C  C0  1  0.74562700  0.64385000  0.12841200  1
  C  C1  1  0.74911400  0.12184800  0.62605900  1
  C  C2  1  0.49158600  0.73897200  0.75291800  1
  C  C3  1  0.50901000  0.23281100  0.24639200  1
  C  C4  1  0.25080700  0.87006000  0.37434700  1
  C  C5  1  0.25544100  0.38642000  0.87106000  1
  C  C6  1  0.00034600  0.49770000  0.50004800  1
  C  C7  1  0.99889900  0.00833300  0.00034700  1
  Ni  Ni8  1  0.74746400  0.93813300  0.18741400  1
  Ni  Ni9  1  0.31415100  0.53188700  0.78193100  1
  Cu  Cu10  1  0.81440200  0.78497700  0.03283700  1
  Cu  Cu11  1  0.75198400  0.81135300  0.56260000  1
  Cu  Cu12  1  0.75783800  0.31939300  0.06436200  1
  Cu  Cu13  1  0.68013800  0.96247200  0.71830800  1
  Cu  Cu14  1  0.68615400  0.65716000  0.40712500  1
  Cu  Cu15  1  0.68385700  0.46824200  0.21777000  1
  Cu  Cu16  1  0.81623500  0.59323700  0.84348600  1
  Cu  Cu17  1  0.81339100  0.09077600  0.34175100  1
  Cu  Cu18  1  0.81417500  0.27975700  0.53255100  1
  Cu  Cu19  1  0.31315900  0.84327200  0.09319300  1
  Cu  Cu20  1  0.74554900  0.43772100  0.68834900  1
  Cu  Cu21  1  0.26175800  0.55566800  0.31088700  1
  Cu  Cu22  1  0.68480300  0.15789800  0.90703500  1
  Cu  Cu23  1  0.18551200  0.90732000  0.65861900  1
  Cu  Cu24  1  0.18348800  0.40822900  0.15739300  1
  Cu  Cu25  1  0.18562100  0.71795200  0.46826200  1
  Cu  Cu26  1  0.31448700  0.34244000  0.59295900  1
  Cu  Cu27  1  0.31127400  0.03157100  0.28099300  1
  Cu  Cu28  1  0.24834600  0.68962600  0.93800500  1
  Cu  Cu29  1  0.24698800  0.18540400  0.43692600  1
  Cu  Cu30  1  0.25381100  0.06395300  0.81293800  1
  Cu  Cu31  1  0.18458500  0.22156400  0.96472200  1
