# generated using pymatgen
data_Cu2Ni3C13
_symmetry_space_group_name_H-M   'P 1'
_cell_length_a   7.49827490
_cell_length_b   7.49827490
_cell_length_c   18.86222999
_cell_angle_alpha   80.96513126
_cell_angle_beta   80.96513126
_cell_angle_gamma   86.56530354
_symmetry_Int_Tables_number   1
_chemical_formula_structural   Cu2Ni3C13
_chemical_formula_sum   'Cu8 Ni12 C52'
_cell_volume   1033.68422133
_cell_formula_units_Z   4
loop_
 _symmetry_equiv_pos_site_id
 _symmetry_equiv_pos_as_xyz
  1  'x, y, z'
loop_
 _atom_site_type_symbol
 _atom_site_label
 _atom_site_symmetry_multiplicity
 _atom_site_fract_x
 _atom_site_fract_y
 _atom_site_fract_z
 _atom_site_occupancy
  C  C0  1  0.21835400  0.49345300  0.91836100  1
  C  C1  1  0.50654700  0.78164600  0.58163900  1
  C  C2  1  0.78164600  0.50654700  0.08163900  1
  C  C3  1  0.49345300  0.21835400  0.41836100  1
  C  C4  1  0.08953600  0.17465500  0.10933500  1
  C  C5  1  0.82534500  0.91046400  0.39066500  1
  C  C6  1  0.91046400  0.82534500  0.89066500  1
  C  C7  1  0.17465500  0.08953600  0.60933500  1
  C  C8  1  0.23658000  0.76342000  0.75000000  1
  C  C9  1  0.76342000  0.23658000  0.25000000  1
  C  C10  1  0.82385200  0.17614800  0.75000000  1
  C  C11  1  0.17614800  0.82385200  0.25000000  1
  Ni  Ni12  1  0.00650400  0.68985600  0.59987000  1
  Ni  Ni13  1  0.31014400  0.99349600  0.90013000  1
  Ni  Ni14  1  0.99349600  0.31014400  0.40013000  1
  Ni  Ni15  1  0.68985600  0.00650400  0.09987000  1
  Ni  Ni16  1  0.73775300  0.70461800  0.74438900  1
  Ni  Ni17  1  0.29538200  0.26224700  0.75561100  1
  Ni  Ni18  1  0.26224700  0.29538200  0.25561100  1
  Ni  Ni19  1  0.70461800  0.73775300  0.24438900  1
  Ni  Ni20  1  0.73833500  0.41032000  0.89558300  1
  Ni  Ni21  1  0.58968000  0.26166500  0.60441700  1
  Ni  Ni22  1  0.26166500  0.58968000  0.10441700  1
  Ni  Ni23  1  0.41032000  0.73833500  0.39558300  1
  Cu  Cu24  1  0.93680100  0.30627200  0.58891000  1
  Cu  Cu25  1  0.69372800  0.06319900  0.91109000  1
  Cu  Cu26  1  0.06319900  0.69372800  0.41109000  1
  Cu  Cu27  1  0.30627200  0.93680100  0.08891000  1
  Cu  Cu28  1  0.52338500  0.29352100  0.99317200  1
  Cu  Cu29  1  0.70647900  0.47661500  0.50682800  1
  Cu  Cu30  1  0.47661500  0.70647900  0.00682800  1
  Cu  Cu31  1  0.29352100  0.52338500  0.49317200  1
  C  C32  1  0.95615000  0.65222700  0.45003600  1
  C  C33  1  0.34777300  0.04385000  0.04996400  1
  C  C34  1  0.04385000  0.34777300  0.54996400  1
  C  C35  1  0.65222700  0.95615000  0.95003600  1
  C  C36  1  0.19038300  0.78297900  0.62174800  1
  C  C37  1  0.21702100  0.80961800  0.87825200  1
  C  C38  1  0.80961800  0.21702100  0.37825200  1
  C  C39  1  0.78297900  0.19038200  0.12174800  1
  C  C40  1  0.14385800  0.47638300  0.57915400  1
  C  C41  1  0.52361700  0.85614200  0.92084600  1
  C  C42  1  0.85614200  0.52361700  0.42084600  1
  C  C43  1  0.47638300  0.14385800  0.07915400  1
  C  C44  1  0.89344900  0.57026900  0.69196300  1
  C  C45  1  0.42973100  0.10655100  0.80803700  1
  C  C46  1  0.10655100  0.42973100  0.30803700  1
  C  C47  1  0.57026900  0.89344900  0.19196300  1
  C  C48  1  0.55858500  0.77428700  0.70336900  1
  C  C49  1  0.22571300  0.44141500  0.79663100  1
  C  C50  1  0.44141500  0.22571300  0.29663100  1
  C  C51  1  0.77428700  0.55858500  0.20336900  1
  C  C52  1  0.85688100  0.85207300  0.77518700  1
  C  C53  1  0.14792700  0.14311900  0.72481300  1
  C  C54  1  0.14311900  0.14792700  0.22481300  1
  C  C55  1  0.85207300  0.85688100  0.27518700  1
  C  C56  1  0.65401500  0.53079300  0.81825600  1
  C  C57  1  0.46920700  0.34598500  0.68174400  1
  C  C58  1  0.34598500  0.46920700  0.18174400  1
  C  C59  1  0.53079300  0.65401500  0.31825600  1
  C  C60  1  0.51774900  0.36979400  0.94506600  1
  C  C61  1  0.63020600  0.48225100  0.55493400  1
  C  C62  1  0.48225100  0.63020600  0.05493400  1
  C  C63  1  0.36979400  0.51774900  0.44506600  1
  C  C64  1  0.86072700  0.52630500  0.93948100  1
  C  C65  1  0.47369500  0.13927300  0.56051900  1
  C  C66  1  0.13927300  0.47369500  0.06051900  1
  C  C67  1  0.52630500  0.86072700  0.43948100  1
  C  C68  1  0.83089300  0.21216300  0.87259600  1
  C  C69  1  0.78783700  0.16910700  0.62740400  1
  C  C70  1  0.16910700  0.78783700  0.12740400  1
  C  C71  1  0.21216300  0.83089300  0.37259600  1
