# generated using pymatgen
data_Cu9Ni2C3
_symmetry_space_group_name_H-M   'P 1'
_cell_length_a   7.65505296
_cell_length_b   7.65505296
_cell_length_c   16.38559744
_cell_angle_alpha   82.48736151
_cell_angle_beta   82.48736151
_cell_angle_gamma   69.80374242
_symmetry_Int_Tables_number   1
_chemical_formula_structural   Cu9Ni2C3
_chemical_formula_sum   'Cu36 Ni8 C12'
_cell_volume   889.63149387
_cell_formula_units_Z   4
loop_
 _symmetry_equiv_pos_site_id
 _symmetry_equiv_pos_as_xyz
  1  'x, y, z'
loop_
 _atom_site_type_symbol
 _atom_site_label
 _atom_site_symmetry_multiplicity
 _atom_site_fract_x
 _atom_site_fract_y
 _atom_site_fract_z
 _atom_site_occupancy
  C  C0  1  0.22070300  0.51822400  0.14900000  1
  C  C1  1  0.48177600  0.77929700  0.35100000  1
  C  C2  1  0.77929700  0.48177600  0.85100000  1
  C  C3  1  0.51822400  0.22070300  0.64900000  1
  C  C4  1  0.28368800  0.43603800  0.34335000  1
  C  C5  1  0.56396200  0.71631200  0.15665000  1
  C  C6  1  0.71631200  0.56396200  0.65665000  1
  C  C7  1  0.43603800  0.28368800  0.84335000  1
  C  C8  1  0.69633100  0.39062400  0.05727900  1
  C  C9  1  0.60937600  0.30366900  0.44272100  1
  C  C10  1  0.30366900  0.60937600  0.94272100  1
  C  C11  1  0.39062400  0.69633100  0.55727900  1
  Ni  Ni12  1  0.95748700  0.24383800  0.31431900  1
  Ni  Ni13  1  0.75616200  0.04251300  0.18568100  1
  Ni  Ni14  1  0.04251300  0.75616200  0.68568100  1
  Ni  Ni15  1  0.24383800  0.95748700  0.81431900  1
  Ni  Ni16  1  0.94488800  0.78201000  0.46885400  1
  Ni  Ni17  1  0.21799000  0.05511200  0.03114600  1
  Ni  Ni18  1  0.05511200  0.21799000  0.53114600  1
  Ni  Ni19  1  0.78201000  0.94488800  0.96885400  1
  Cu  Cu20  1  0.34929600  0.39731300  0.25094700  1
  Cu  Cu21  1  0.60268700  0.65070400  0.24905300  1
  Cu  Cu22  1  0.65070400  0.60268700  0.74905300  1
  Cu  Cu23  1  0.39731300  0.34929600  0.75094700  1
  Cu  Cu24  1  0.11265400  0.39281100  0.37844200  1
  Cu  Cu25  1  0.60718900  0.88734600  0.12155800  1
  Cu  Cu26  1  0.88734600  0.60718900  0.62155800  1
  Cu  Cu27  1  0.39281100  0.11265400  0.87844200  1
  Cu  Cu28  1  0.29728500  0.62202200  0.35973800  1
  Cu  Cu29  1  0.37797800  0.70271500  0.14026200  1
  Cu  Cu30  1  0.70271500  0.37797800  0.64026200  1
  Cu  Cu31  1  0.62202200  0.29728500  0.85973800  1
  Cu  Cu32  1  0.72786700  0.53188500  0.10937000  1
  Cu  Cu33  1  0.46811500  0.27213300  0.39063000  1
  Cu  Cu34  1  0.27213300  0.46811500  0.89063000  1
  Cu  Cu35  1  0.53188500  0.72786700  0.60937000  1
  Cu  Cu36  1  0.63822100  0.48845200  0.42866900  1
  Cu  Cu37  1  0.51154800  0.36177900  0.07133100  1
  Cu  Cu38  1  0.36177900  0.51154800  0.57133100  1
  Cu  Cu39  1  0.48845200  0.63822100  0.92866900  1
  Cu  Cu40  1  0.17928600  0.64068400  0.02176100  1
  Cu  Cu41  1  0.35931600  0.82071400  0.47823900  1
  Cu  Cu42  1  0.82071400  0.35931600  0.97823900  1
  Cu  Cu43  1  0.64068400  0.17928600  0.52176100  1
  Cu  Cu44  1  0.84485900  0.10329200  0.13406000  1
  Cu  Cu45  1  0.89670800  0.15514100  0.36594000  1
  Cu  Cu46  1  0.15514100  0.89670800  0.86594000  1
  Cu  Cu47  1  0.10329200  0.84485900  0.63406000  1
  Cu  Cu48  1  0.16321100  0.33255900  0.12752500  1
  Cu  Cu49  1  0.66744100  0.83678900  0.37247500  1
  Cu  Cu50  1  0.83678900  0.66744100  0.87247500  1
  Cu  Cu51  1  0.33255900  0.16321100  0.62752500  1
  Cu  Cu52  1  0.01540000  0.66787900  0.19024900  1
  Cu  Cu53  1  0.33212100  0.98460000  0.30975100  1
  Cu  Cu54  1  0.98460000  0.33212100  0.80975100  1
  Cu  Cu55  1  0.66787900  0.01540000  0.69024900  1
