# generated using pymatgen
data_Cu(NiC6)4
_symmetry_space_group_name_H-M   'P 1'
_cell_length_a   9.88670479
_cell_length_b   9.88670479
_cell_length_c   9.88670479
_cell_angle_alpha   60.00000000
_cell_angle_beta   60.00000000
_cell_angle_gamma   60.00000000
_symmetry_Int_Tables_number   1
_chemical_formula_structural   Cu(NiC6)4
_chemical_formula_sum   'Cu2 Ni8 C48'
_cell_volume   683.34449787
_cell_formula_units_Z   2
loop_
 _symmetry_equiv_pos_site_id
 _symmetry_equiv_pos_as_xyz
  1  'x, y, z'
loop_
 _atom_site_type_symbol
 _atom_site_label
 _atom_site_symmetry_multiplicity
 _atom_site_fract_x
 _atom_site_fract_y
 _atom_site_fract_z
 _atom_site_occupancy
  C  C0  1  0.28436300  0.71563700  0.28436300  1
  C  C1  1  0.71563700  0.28436300  0.28436300  1
  C  C2  1  0.71563700  0.71563700  0.28436300  1
  C  C3  1  0.53436300  0.96563700  0.53436300  1
  C  C4  1  0.28436300  0.28436300  0.71563700  1
  C  C5  1  0.28436300  0.71563700  0.71563700  1
  C  C6  1  0.96563700  0.96563700  0.53436300  1
  C  C7  1  0.96563700  0.53436300  0.53436300  1
  C  C8  1  0.71563700  0.28436300  0.71563700  1
  C  C9  1  0.53436300  0.96563700  0.96563700  1
  C  C10  1  0.53436300  0.53436300  0.96563700  1
  C  C11  1  0.96563700  0.53436300  0.96563700  1
  C  C12  1  0.12500000  0.62500000  0.12500000  1
  C  C13  1  0.12500000  0.12500000  0.12500000  1
  C  C14  1  0.62500000  0.12500000  0.12500000  1
  C  C15  1  0.12500000  0.12500000  0.62500000  1
  Ni  Ni16  1  0.90577800  0.90577800  0.28266500  1
  Ni  Ni17  1  0.34422200  0.96733500  0.34422200  1
  Ni  Ni18  1  0.34422200  0.34422200  0.34422200  1
  Ni  Ni19  1  0.96733500  0.34422200  0.34422200  1
  Ni  Ni20  1  0.28266500  0.90577800  0.90577800  1
  Ni  Ni21  1  0.90577800  0.28266500  0.90577800  1
  Ni  Ni22  1  0.90577800  0.90577800  0.90577800  1
  Ni  Ni23  1  0.34422200  0.34422200  0.96733500  1
  Cu  Cu24  1  0.75000000  0.75000000  0.75000000  1
  Cu  Cu25  1  0.50000000  0.50000000  0.50000000  1
  C  C26  1  0.02486900  0.92653300  0.28454800  1
  C  C27  1  0.92653300  0.76405000  0.28454800  1
  C  C28  1  0.76405000  0.02486900  0.28454800  1
  C  C29  1  0.48595000  0.32346700  0.22513100  1
  C  C30  1  0.93553500  0.68815500  0.68815500  1
  C  C31  1  0.48595000  0.96545200  0.32346700  1
  C  C32  1  0.32346700  0.96545200  0.22513100  1
  C  C33  1  0.68815500  0.93553500  0.68815500  1
  C  C34  1  0.68815500  0.68815500  0.68815500  1
  C  C35  1  0.22513100  0.48595000  0.32346700  1
  C  C36  1  0.32346700  0.22513100  0.48595000  1
  C  C37  1  0.68815500  0.68815500  0.93553500  1
  C  C38  1  0.96545200  0.48595000  0.22513100  1
  C  C39  1  0.22513100  0.96545200  0.48595000  1
  C  C40  1  0.96545200  0.22513100  0.32346700  1
  C  C41  1  0.28454800  0.92653300  0.76405000  1
  C  C42  1  0.96545200  0.32346700  0.48595000  1
  C  C43  1  0.28454800  0.02486900  0.92653300  1
  C  C44  1  0.02486900  0.28454800  0.76405000  1
  C  C45  1  0.28454800  0.76405000  0.02486900  1
  C  C46  1  0.56184500  0.56184500  0.31446500  1
  C  C47  1  0.92653300  0.02486900  0.76405000  1
  C  C48  1  0.02486900  0.76405000  0.92653300  1
  C  C49  1  0.56184500  0.56184500  0.56184500  1
  C  C50  1  0.56184500  0.31446500  0.56184500  1
  C  C51  1  0.92653300  0.28454800  0.02486900  1
  C  C52  1  0.76405000  0.28454800  0.92653300  1
  C  C53  1  0.31446500  0.56184500  0.56184500  1
  C  C54  1  0.76405000  0.92653300  0.02486900  1
  C  C55  1  0.48595000  0.22513100  0.96545200  1
  C  C56  1  0.32346700  0.48595000  0.96545200  1
  C  C57  1  0.22513100  0.32346700  0.96545200  1
