# generated using pymatgen
data_Cu7(NiC6)3
_symmetry_space_group_name_H-M   'P 1'
_cell_length_a   7.60216509
_cell_length_b   7.60216509
_cell_length_c   6.93413646
_cell_angle_alpha   74.13704988
_cell_angle_beta   74.13704988
_cell_angle_gamma   90.26606032
_symmetry_Int_Tables_number   1
_chemical_formula_structural   Cu7(NiC6)3
_chemical_formula_sum   'Cu7 Ni3 C18'
_cell_volume   369.43681572
_cell_formula_units_Z   1
loop_
 _symmetry_equiv_pos_site_id
 _symmetry_equiv_pos_as_xyz
  1  'x, y, z'
loop_
 _atom_site_type_symbol
 _atom_site_label
 _atom_site_symmetry_multiplicity
 _atom_site_fract_x
 _atom_site_fract_y
 _atom_site_fract_z
 _atom_site_occupancy
  Ni  Ni0  1  0.99282500  0.49772500  0.01878400  1
  Ni  Ni1  1  0.67672200  0.67672200  0.29407400  1
  Ni  Ni2  1  0.49772500  0.99282500  0.01878400  1
  Cu  Cu3  1  0.81559000  0.81559000  0.73077500  1
  Cu  Cu4  1  0.82030700  0.32362200  0.71239600  1
  Cu  Cu5  1  0.68109400  0.17928700  0.27823000  1
  Cu  Cu6  1  0.32366600  0.32366600  0.71723800  1
  Cu  Cu7  1  0.32362200  0.82030700  0.71239600  1
  Cu  Cu8  1  0.17928700  0.68109400  0.27823000  1
  Cu  Cu9  1  0.17839200  0.17839200  0.28344500  1
  C  C10  1  0.99646800  0.99646800  0.00444000  1
  C  C11  1  0.50102800  0.50102800  0.00551500  1
  C  C12  1  0.92558500  0.92558500  0.35006100  1
  C  C13  1  0.00334600  0.75789400  0.99487700  1
  C  C14  1  0.00177600  0.24392000  0.99368700  1
  C  C15  1  0.92994200  0.39205200  0.35589500  1
  C  C16  1  0.58953800  0.09158100  0.63806900  1
  C  C17  1  0.74399200  0.49916100  0.99620500  1
  C  C18  1  0.75789400  0.00334600  0.99487700  1
  C  C19  1  0.58796800  0.58796800  0.64517400  1
  C  C20  1  0.40007900  0.40007900  0.34756300  1
  C  C21  1  0.50111200  0.25922600  0.99469300  1
  C  C22  1  0.49916100  0.74399200  0.99620500  1
  C  C23  1  0.39205200  0.92994200  0.35589500  1
  C  C24  1  0.09158100  0.58953800  0.63806900  1
  C  C25  1  0.24392000  0.00177600  0.99368700  1
  C  C26  1  0.08609800  0.08609800  0.65604200  1
  C  C27  1  0.25922600  0.50111200  0.99469300  1
