# generated using pymatgen
data_Cu7Ni2C3
_symmetry_space_group_name_H-M   'P 1'
_cell_length_a   10.16259500
_cell_length_b   7.62754900
_cell_length_c   8.60601108
_cell_angle_alpha   84.92579549
_cell_angle_beta   90.00000000
_cell_angle_gamma   90.00000000
_symmetry_Int_Tables_number   1
_chemical_formula_structural   Cu7Ni2C3
_chemical_formula_sum   'Cu28 Ni8 C12'
_cell_volume   664.48652053
_cell_formula_units_Z   4
loop_
 _symmetry_equiv_pos_site_id
 _symmetry_equiv_pos_as_xyz
  1  'x, y, z'
loop_
 _atom_site_type_symbol
 _atom_site_label
 _atom_site_symmetry_multiplicity
 _atom_site_fract_x
 _atom_site_fract_y
 _atom_site_fract_z
 _atom_site_occupancy
  C  C0  1  0.00806000  0.16355300  0.78734200  1
  C  C1  1  0.50806000  0.33644700  0.21265800  1
  C  C2  1  0.99194000  0.83644700  0.21265800  1
  C  C3  1  0.49194000  0.66355300  0.78734200  1
  C  C4  1  0.00523800  0.81871900  0.63108200  1
  C  C5  1  0.50523800  0.68128100  0.36891800  1
  C  C6  1  0.99476200  0.18128100  0.36891800  1
  C  C7  1  0.49476200  0.31871900  0.63108200  1
  C  C8  1  0.09800900  0.77922200  0.77871100  1
  C  C9  1  0.59800900  0.72077800  0.22128900  1
  C  C10  1  0.90199100  0.22077800  0.22128900  1
  C  C11  1  0.40199100  0.27922200  0.77871100  1
  Ni  Ni12  1  0.69008100  0.04325900  0.97197500  1
  Ni  Ni13  1  0.19008100  0.45674100  0.02802500  1
  Ni  Ni14  1  0.30991900  0.95674100  0.02802500  1
  Ni  Ni15  1  0.80991900  0.54325900  0.97197500  1
  Ni  Ni16  1  0.18649600  0.44566200  0.48520600  1
  Ni  Ni17  1  0.68649600  0.05433800  0.51479400  1
  Ni  Ni18  1  0.81350400  0.55433800  0.51479400  1
  Ni  Ni19  1  0.31350400  0.94566200  0.48520600  1
  Cu  Cu20  1  0.85965200  0.95786000  0.97812900  1
  Cu  Cu21  1  0.35965200  0.54214000  0.02187100  1
  Cu  Cu22  1  0.14034800  0.04214000  0.02187100  1
  Cu  Cu23  1  0.64034800  0.45786000  0.97812900  1
  Cu  Cu24  1  0.66985900  0.10402300  0.16986400  1
  Cu  Cu25  1  0.16985900  0.39597700  0.83013600  1
  Cu  Cu26  1  0.33014100  0.89597700  0.83013600  1
  Cu  Cu27  1  0.83014100  0.60402300  0.16986400  1
  Cu  Cu28  1  0.60226700  0.83105700  0.99150600  1
  Cu  Cu29  1  0.10226700  0.66894300  0.00849400  1
  Cu  Cu30  1  0.39773300  0.16894300  0.00849400  1
  Cu  Cu31  1  0.89773300  0.33105700  0.99150600  1
  Cu  Cu32  1  0.81334500  0.11476500  0.64980300  1
  Cu  Cu33  1  0.31334500  0.38523500  0.35019700  1
  Cu  Cu34  1  0.18665500  0.88523500  0.35019700  1
  Cu  Cu35  1  0.68665500  0.61476500  0.64980300  1
  Cu  Cu36  1  0.93676600  0.48033700  0.66145500  1
  Cu  Cu37  1  0.43676600  0.01966300  0.33854500  1
  Cu  Cu38  1  0.06323400  0.51966300  0.33854500  1
  Cu  Cu39  1  0.56323400  0.98033700  0.66145500  1
  Cu  Cu40  1  0.12216000  0.22265100  0.53868800  1
  Cu  Cu41  1  0.62216000  0.27734900  0.46131200  1
  Cu  Cu42  1  0.87784000  0.77734900  0.46131200  1
  Cu  Cu43  1  0.37784000  0.72265100  0.53868800  1
  Cu  Cu44  1  0.07193900  0.87025100  0.69629600  1
  Cu  Cu45  1  0.57193900  0.62974900  0.30370400  1
  Cu  Cu46  1  0.92806100  0.12974900  0.30370400  1
  Cu  Cu47  1  0.42806100  0.37025100  0.69629600  1
