# generated using pymatgen
data_Cu5Ni3C20
_symmetry_space_group_name_H-M   'P 1'
_cell_length_a   5.85193139
_cell_length_b   5.85193139
_cell_length_c   9.45069666
_cell_angle_alpha   89.54695882
_cell_angle_beta   89.54695882
_cell_angle_gamma   59.93629886
_symmetry_Int_Tables_number   1
_chemical_formula_structural   Cu5Ni3C20
_chemical_formula_sum   'Cu5 Ni3 C20'
_cell_volume   280.08876402
_cell_formula_units_Z   1
loop_
 _symmetry_equiv_pos_site_id
 _symmetry_equiv_pos_as_xyz
  1  'x, y, z'
loop_
 _atom_site_type_symbol
 _atom_site_label
 _atom_site_symmetry_multiplicity
 _atom_site_fract_x
 _atom_site_fract_y
 _atom_site_fract_z
 _atom_site_occupancy
  C  C0  1  0.67024800  0.67024800  0.89234400  1
  C  C1  1  0.99681100  0.99681100  0.99874900  1
  C  C2  1  0.99929500  0.99929500  0.49611400  1
  C  C3  1  0.33573100  0.33573100  0.39154600  1
  Ni  Ni4  1  0.82986000  0.82986000  0.21527800  1
  Ni  Ni5  1  0.66195900  0.16929100  0.71443400  1
  Ni  Ni6  1  0.16929100  0.66195900  0.71443400  1
  Cu  Cu7  1  0.83029400  0.33765200  0.21115900  1
  Cu  Cu8  1  0.66325600  0.66325600  0.48660300  1
  Cu  Cu9  1  0.33765200  0.83029400  0.21115900  1
  Cu  Cu10  1  0.16885100  0.16885100  0.71390800  1
  Cu  Cu11  1  0.33170800  0.33170800  0.98613800  1
  C  C12  1  0.83248000  0.32259600  0.60050300  1
  C  C13  1  0.52070800  0.52070800  0.33870200  1
  C  C14  1  0.67265400  0.67265400  0.10390500  1
  C  C15  1  0.99503700  0.99503700  0.31001400  1
  C  C16  1  0.99512000  0.99512000  0.81153000  1
  C  C17  1  0.32259600  0.83248000  0.60050300  1
  C  C18  1  0.96161900  0.52174200  0.33829900  1
  C  C19  1  0.52174200  0.96161900  0.33829900  1
  C  C20  1  0.16434100  0.16434100  0.10321400  1
  C  C21  1  0.83768000  0.83768000  0.60382500  1
  C  C22  1  0.48650200  0.03946500  0.83933000  1
  C  C23  1  0.03946500  0.48650200  0.83933000  1
  C  C24  1  0.33890700  0.33890700  0.60769700  1
  C  C25  1  0.67208100  0.16263100  0.10191900  1
  C  C26  1  0.48188900  0.48188900  0.83703500  1
  C  C27  1  0.16263100  0.67208100  0.10191900  1
