# generated using pymatgen
data_Cu16Ni7C33
_symmetry_space_group_name_H-M   'P 1'
_cell_length_a   7.98972000
_cell_length_b   8.28253981
_cell_length_c   8.39588646
_cell_angle_alpha   88.22598553
_cell_angle_beta   89.49299804
_cell_angle_gamma   89.71039101
_symmetry_Int_Tables_number   1
_chemical_formula_structural   Cu16Ni7C33
_chemical_formula_sum   'Cu16 Ni7 C33'
_cell_volume   555.30485611
_cell_formula_units_Z   1
loop_
 _symmetry_equiv_pos_site_id
 _symmetry_equiv_pos_as_xyz
  1  'x, y, z'
loop_
 _atom_site_type_symbol
 _atom_site_label
 _atom_site_symmetry_multiplicity
 _atom_site_fract_x
 _atom_site_fract_y
 _atom_site_fract_z
 _atom_site_occupancy
  C  C0  1  0.57072000  0.83070700  0.38668700  1
  C  C1  1  0.49788000  0.17186000  0.29916000  1
  C  C2  1  0.88925100  0.14534100  0.85375600  1
  C  C3  1  0.73080100  0.01645200  0.80101700  1
  C  C4  1  0.59110500  0.18085500  0.30378800  1
  C  C5  1  0.21691000  0.37641500  0.11901200  1
  C  C6  1  0.08278100  0.79920300  0.01137500  1
  C  C7  1  0.55385000  0.78955800  0.69056000  1
  C  C8  1  0.77861500  0.65380800  0.87260200  1
  C  C9  1  0.93041700  0.78280900  0.30862100  1
  C  C10  1  0.25374800  0.73223200  0.66795000  1
  C  C11  1  0.63630000  0.53420900  0.90754300  1
  C  C12  1  0.83863600  0.78322600  0.13888900  1
  C  C13  1  0.76860600  0.38050900  0.70442900  1
  C  C14  1  0.76288700  0.38423900  0.26572300  1
  C  C15  1  0.03808200  0.30863800  0.90332200  1
  C  C16  1  0.48851200  0.45082600  0.32911600  1
  C  C17  1  0.44223400  0.58652200  0.65192200  1
  C  C18  1  0.06479700  0.58640900  0.12708000  1
  C  C19  1  0.46279400  0.53155300  0.72119900  1
  C  C20  1  0.20270300  0.23225200  0.69811600  1
  C  C21  1  0.51033700  0.43670000  0.50863200  1
  C  C22  1  0.25979900  0.98392500  0.67335600  1
  C  C23  1  0.94626500  0.82968900  0.67383600  1
  C  C24  1  0.88108300  0.29304900  0.12121100  1
  C  C25  1  0.50379700  0.95422200  0.86494800  1
  C  C26  1  0.06508200  0.15031700  0.29991500  1
  C  C27  1  0.13983300  0.81434700  0.08044800  1
  C  C28  1  0.48966100  0.85016000  0.66324100  1
  C  C29  1  0.16647400  0.78573700  0.52931700  1
  C  C30  1  0.15136200  0.55293900  0.82496600  1
  C  C31  1  0.04266600  0.14568800  0.91646400  1
  C  C32  1  0.01597800  0.49138600  0.25310000  1
  Ni  Ni33  1  0.23363500  0.72236200  0.37901500  1
  Ni  Ni34  1  0.50797200  0.81731500  0.07739100  1
  Ni  Ni35  1  0.41072200  0.93026400  0.94923100  1
  Ni  Ni36  1  0.97955600  0.76429400  0.57583100  1
  Ni  Ni37  1  0.85206400  0.39853000  0.17768900  1
  Ni  Ni38  1  0.73018200  0.16949000  0.59421300  1
  Ni  Ni39  1  0.85537800  0.20138200  0.50836700  1
  Cu  Cu40  1  0.23081000  0.98238500  0.56000000  1
  Cu  Cu41  1  0.31512700  0.05020800  0.16635200  1
  Cu  Cu42  1  0.84638200  0.72616700  0.24611400  1
  Cu  Cu43  1  0.70080000  0.27825100  0.71113200  1
  Cu  Cu44  1  0.74795900  0.90326700  0.00666800  1
  Cu  Cu45  1  0.39928900  0.07745900  0.02919800  1
  Cu  Cu46  1  0.14299200  0.44866900  0.64663400  1
  Cu  Cu47  1  0.27415500  0.46417100  0.93143200  1
  Cu  Cu48  1  0.73512400  0.55054400  0.83918600  1
  Cu  Cu49  1  0.57031700  0.47014300  0.41142100  1
  Cu  Cu50  1  0.16902700  0.35900300  0.22915600  1
  Cu  Cu51  1  0.00553800  0.04716900  0.32398100  1
  Cu  Cu52  1  0.26654200  0.32188200  0.64380700  1
  Cu  Cu53  1  0.49819800  0.67628200  0.05044400  1
  Cu  Cu54  1  0.75438200  0.90363300  0.83493600  1
  Cu  Cu55  1  0.84188400  0.09135100  0.38150000  1
