# generated using pymatgen
data_Cu2Ni2C9
_symmetry_space_group_name_H-M   'P 1'
_cell_length_a   13.69141400
_cell_length_b   5.44664100
_cell_length_c   8.70841404
_cell_angle_alpha   87.60199879
_cell_angle_beta   90.00000000
_cell_angle_gamma   90.00000000
_symmetry_Int_Tables_number   1
_chemical_formula_structural   Cu2Ni2C9
_chemical_formula_sum   'Cu8 Ni8 C36'
_cell_volume   648.83704942
_cell_formula_units_Z   4
loop_
 _symmetry_equiv_pos_site_id
 _symmetry_equiv_pos_as_xyz
  1  'x, y, z'
loop_
 _atom_site_type_symbol
 _atom_site_label
 _atom_site_symmetry_multiplicity
 _atom_site_fract_x
 _atom_site_fract_y
 _atom_site_fract_z
 _atom_site_occupancy
  C  C0  1  0.04633500  0.72240300  0.74544500  1
  C  C1  1  0.45366500  0.72240300  0.24544500  1
  C  C2  1  0.54633500  0.27759700  0.75455500  1
  C  C3  1  0.95366500  0.27759700  0.25455500  1
  Ni  Ni4  1  0.74563600  0.92997100  0.57268500  1
  Ni  Ni5  1  0.75436400  0.92997100  0.07268500  1
  Ni  Ni6  1  0.27657900  0.59681900  0.69692500  1
  Ni  Ni7  1  0.22342100  0.59681900  0.19692500  1
  Ni  Ni8  1  0.77657900  0.40318100  0.80307500  1
  Ni  Ni9  1  0.72342100  0.40318100  0.30307500  1
  Ni  Ni10  1  0.24563600  0.07002900  0.92731500  1
  Ni  Ni11  1  0.25436400  0.07002900  0.42731500  1
  Cu  Cu12  1  0.40644000  0.79713800  0.62496000  1
  Cu  Cu13  1  0.64227500  0.75266500  0.94410400  1
  Cu  Cu14  1  0.09356000  0.79713800  0.12496000  1
  Cu  Cu15  1  0.85772500  0.75266500  0.44410400  1
  Cu  Cu16  1  0.14227500  0.24733500  0.55589600  1
  Cu  Cu17  1  0.90644000  0.20286200  0.87504000  1
  Cu  Cu18  1  0.35772500  0.24733500  0.05589600  1
  Cu  Cu19  1  0.59356000  0.20286200  0.37504000  1
  C  C20  1  0.65365400  0.97293400  0.84247800  1
  C  C21  1  0.92086100  0.94438100  0.83933400  1
  C  C22  1  0.84634600  0.97293400  0.34247800  1
  C  C23  1  0.57913900  0.94438100  0.33933400  1
  C  C24  1  0.13810800  0.77321600  0.97152800  1
  C  C25  1  0.77368900  0.76326000  0.56855100  1
  C  C26  1  0.36189200  0.77321600  0.47152800  1
  C  C27  1  0.72631100  0.76326000  0.06855100  1
  C  C28  1  0.95192300  0.73831300  0.52127500  1
  C  C29  1  0.54807700  0.73831300  0.02127500  1
  C  C30  1  0.32909200  0.69547400  0.74572600  1
  C  C31  1  0.17090800  0.69547400  0.24572600  1
  C  C32  1  0.49605000  0.65318700  0.64853100  1
  C  C33  1  0.00395000  0.65318700  0.14853100  1
  C  C34  1  0.66444400  0.52158100  0.86638900  1
  C  C35  1  0.83555600  0.52158100  0.36638900  1
  C  C36  1  0.16444400  0.47841900  0.63361100  1
  C  C37  1  0.33555600  0.47841900  0.13361100  1
  C  C38  1  0.99605000  0.34681300  0.85146900  1
  C  C39  1  0.50395000  0.34681300  0.35146900  1
  C  C40  1  0.82909200  0.30452600  0.75427400  1
  C  C41  1  0.67090800  0.30452600  0.25427400  1
  C  C42  1  0.45192300  0.26168700  0.97872500  1
  C  C43  1  0.04807700  0.26168700  0.47872500  1
  C  C44  1  0.27368900  0.23674000  0.93144900  1
  C  C45  1  0.63810800  0.22678400  0.52847200  1
  C  C46  1  0.22631100  0.23674000  0.43144900  1
  C  C47  1  0.86189200  0.22678400  0.02847200  1
  C  C48  1  0.42086100  0.05561900  0.66066600  1
  C  C49  1  0.15365400  0.02706600  0.65752200  1
  C  C50  1  0.07913900  0.05561900  0.16066600  1
  C  C51  1  0.34634600  0.02706600  0.15752200  1
