# generated using pymatgen
data_Cu(NiC6)2
_symmetry_space_group_name_H-M   'P 1'
_cell_length_a   8.08313927
_cell_length_b   8.14018033
_cell_length_c   9.40911734
_cell_angle_alpha   85.37801850
_cell_angle_beta   87.01659830
_cell_angle_gamma   101.68204650
_symmetry_Int_Tables_number   1
_chemical_formula_structural   Cu(NiC6)2
_chemical_formula_sum   'Cu4 Ni8 C48'
_cell_volume   602.82365840
_cell_formula_units_Z   4
loop_
 _symmetry_equiv_pos_site_id
 _symmetry_equiv_pos_as_xyz
  1  'x, y, z'
loop_
 _atom_site_type_symbol
 _atom_site_label
 _atom_site_symmetry_multiplicity
 _atom_site_fract_x
 _atom_site_fract_y
 _atom_site_fract_z
 _atom_site_occupancy
  C  C0  1  0.25027500  0.75013300  0.99992300  1
  C  C1  1  0.75025300  0.25013600  0.99990500  1
  C  C2  1  0.50016900  0.00003400  0.49986800  1
  C  C3  1  0.00035900  0.50017200  0.49986100  1
  C  C4  1  0.62883500  0.86920500  0.12337800  1
  C  C5  1  0.12879800  0.36912000  0.12328100  1
  C  C6  1  0.87887600  0.11918100  0.62327000  1
  C  C7  1  0.37876900  0.61917900  0.62338900  1
  C  C8  1  0.12120200  0.88058700  0.37673700  1
  C  C9  1  0.62119400  0.38065000  0.37665300  1
  C  C10  1  0.37114100  0.13059000  0.87682000  1
  C  C11  1  0.87124200  0.63056700  0.87670400  1
  C  C12  1  0.49995000  0.50017100  0.00000300  1
  C  C13  1  0.74991500  0.75011100  0.50022400  1
  C  C14  1  0.99994700  0.00015900  0.99999500  1
  C  C15  1  0.25001800  0.25015100  0.50002900  1
  Ni  Ni16  1  0.35521400  0.10573200  0.18125900  1
  Ni  Ni17  1  0.85516300  0.60569600  0.18132900  1
  Ni  Ni18  1  0.60511900  0.35566100  0.68136300  1
  Ni  Ni19  1  0.10522100  0.85570500  0.68129200  1
  Ni  Ni20  1  0.39463900  0.64434100  0.31886100  1
  Ni  Ni21  1  0.89466700  0.14432800  0.31885600  1
  Ni  Ni22  1  0.64469400  0.89434400  0.81882900  1
  Ni  Ni23  1  0.14460300  0.39438800  0.81880500  1
  Cu  Cu24  1  0.12454500  0.62475300  0.24946500  1
  Cu  Cu25  1  0.62468500  0.12483500  0.24964800  1
  Cu  Cu26  1  0.37471700  0.87484900  0.74964400  1
  Cu  Cu27  1  0.87443000  0.37471300  0.74938800  1
  C  C28  1  0.34231500  0.28521000  0.12567700  1
  C  C29  1  0.84233100  0.78516300  0.12570000  1
  C  C30  1  0.59230200  0.53513900  0.62574100  1
  C  C31  1  0.09235500  0.03517900  0.62568700  1
  C  C32  1  0.40786200  0.46486900  0.37435200  1
  C  C33  1  0.90781400  0.96485800  0.37437600  1
  C  C34  1  0.65784900  0.71487600  0.87435200  1
  C  C35  1  0.15781900  0.21491600  0.87434300  1
  C  C36  1  0.54499900  0.08547100  0.14863700  1
  C  C37  1  0.04499100  0.58543400  0.14868100  1
  C  C38  1  0.79496500  0.33542800  0.64871200  1
  C  C39  1  0.29500000  0.83547900  0.64863700  1
  C  C40  1  0.20508600  0.66453300  0.35156600  1
  C  C41  1  0.70505400  0.16449600  0.35153700  1
  C  C42  1  0.45509900  0.91451900  0.85152500  1
  C  C43  1  0.95507500  0.41452100  0.85159400  1
  C  C44  1  0.23770100  0.97412700  0.10206600  1
  C  C45  1  0.73759800  0.47409900  0.10220300  1
  C  C46  1  0.48763300  0.22406600  0.60218500  1
  C  C47  1  0.98760900  0.72405300  0.60221200  1
  C  C48  1  0.51252800  0.77598700  0.39782600  1
  C  C49  1  0.01248000  0.27599600  0.39783900  1
  C  C50  1  0.76257000  0.02603300  0.89774400  1
  C  C51  1  0.26257400  0.52606700  0.89769000  1
  C  C52  1  0.43349800  0.67616900  0.15386900  1
  C  C53  1  0.93345600  0.17604500  0.15386300  1
  C  C54  1  0.68346800  0.92610700  0.65383100  1
  C  C55  1  0.18343600  0.42610000  0.65379300  1
  C  C56  1  0.31643700  0.07386900  0.34619300  1
  C  C57  1  0.81650000  0.57392000  0.34626000  1
  C  C58  1  0.56644000  0.32386900  0.84629500  1
  C  C59  1  0.06651600  0.82391400  0.84623500  1
