# generated using pymatgen
data_Cu3NiC
_symmetry_space_group_name_H-M   'P 1'
_cell_length_a   9.35749100
_cell_length_b   9.35749100
_cell_length_c   3.86005500
_cell_angle_alpha   90.00000000
_cell_angle_beta   90.00000000
_cell_angle_gamma   90.00000000
_symmetry_Int_Tables_number   1
_chemical_formula_structural   Cu3NiC
_chemical_formula_sum   'Cu12 Ni4 C4'
_cell_volume   337.99659791
_cell_formula_units_Z   4
loop_
 _symmetry_equiv_pos_site_id
 _symmetry_equiv_pos_as_xyz
  1  'x, y, z'
loop_
 _atom_site_type_symbol
 _atom_site_label
 _atom_site_symmetry_multiplicity
 _atom_site_fract_x
 _atom_site_fract_y
 _atom_site_fract_z
 _atom_site_occupancy
  C  C0  1  0.36873900  0.63126100  0.00000000  1
  C  C1  1  0.86873900  0.86873900  0.50000000  1
  C  C2  1  0.13126100  0.13126100  0.50000000  1
  C  C3  1  0.63126100  0.36873900  0.00000000  1
  Ni  Ni4  1  0.38492000  0.61508000  0.50000000  1
  Ni  Ni5  1  0.88492000  0.88492000  0.00000000  1
  Ni  Ni6  1  0.11508000  0.11508000  0.00000000  1
  Ni  Ni7  1  0.61508000  0.38492000  0.50000000  1
  Cu  Cu8  1  0.59466000  0.59466000  0.00000000  1
  Cu  Cu9  1  0.16929300  0.60746100  0.00000000  1
  Cu  Cu10  1  0.89253900  0.66929300  0.50000000  1
  Cu  Cu11  1  0.39253900  0.83070700  0.00000000  1
  Cu  Cu12  1  0.66929300  0.89253900  0.50000000  1
  Cu  Cu13  1  0.09466000  0.90534000  0.50000000  1
  Cu  Cu14  1  0.90534000  0.09466000  0.50000000  1
  Cu  Cu15  1  0.33070700  0.10746100  0.50000000  1
  Cu  Cu16  1  0.60746100  0.16929300  0.00000000  1
  Cu  Cu17  1  0.10746100  0.33070700  0.50000000  1
  Cu  Cu18  1  0.83070700  0.39253900  0.00000000  1
  Cu  Cu19  1  0.40534000  0.40534000  0.00000000  1
