# generated using pymatgen
data_Cu4Ni5C11
_symmetry_space_group_name_H-M   'P 1'
_cell_length_a   8.49730336
_cell_length_b   8.49730336
_cell_length_c   13.60380270
_cell_angle_alpha   68.13869890
_cell_angle_beta   68.13869890
_cell_angle_gamma   43.98086174
_symmetry_Int_Tables_number   1
_chemical_formula_structural   Cu4Ni5C11
_chemical_formula_sum   'Cu8 Ni10 C22'
_cell_volume   624.67791540
_cell_formula_units_Z   2
loop_
 _symmetry_equiv_pos_site_id
 _symmetry_equiv_pos_as_xyz
  1  'x, y, z'
loop_
 _atom_site_type_symbol
 _atom_site_label
 _atom_site_symmetry_multiplicity
 _atom_site_fract_x
 _atom_site_fract_y
 _atom_site_fract_z
 _atom_site_occupancy
  C  C0  1  0.39572600  0.12453600  0.88948100  1
  C  C1  1  0.87546400  0.60427400  0.61051900  1
  C  C2  1  0.12453600  0.39572600  0.38948100  1
  C  C3  1  0.60427400  0.87546400  0.11051900  1
  C  C4  1  0.00000000  0.00000000  0.00000000  1
  C  C5  1  0.00000000  0.00000000  0.50000000  1
  C  C6  1  0.32426900  0.65956200  0.38261400  1
  C  C7  1  0.88680100  0.36045700  0.02792500  1
  C  C8  1  0.72272800  0.20096600  0.36089200  1
  C  C9  1  0.25001500  0.56209600  0.49595600  1
  C  C10  1  0.43790400  0.74998500  0.00404400  1
  C  C11  1  0.79903400  0.27727200  0.13910800  1
  C  C12  1  0.63954300  0.11319900  0.47207500  1
  C  C13  1  0.34043800  0.67573100  0.11738600  1
  C  C14  1  0.65956200  0.32426900  0.88261400  1
  C  C15  1  0.36045700  0.88680100  0.52792500  1
  C  C16  1  0.20096600  0.72272800  0.86089200  1
  C  C17  1  0.56209600  0.25001500  0.99595600  1
  C  C18  1  0.74998500  0.43790400  0.50404400  1
  C  C19  1  0.27727200  0.79903400  0.63910800  1
  C  C20  1  0.11319900  0.63954300  0.97207500  1
  C  C21  1  0.67573100  0.34043800  0.61738600  1
  Ni  Ni22  1  0.86841200  0.85568500  0.65772600  1
  Ni  Ni23  1  0.70105000  0.73212000  0.95822800  1
  Ni  Ni24  1  0.26788000  0.29895000  0.54177200  1
  Ni  Ni25  1  0.50838300  0.49161700  0.25000000  1
  Ni  Ni26  1  0.14431500  0.13158800  0.84227400  1
  Ni  Ni27  1  0.85568500  0.86841200  0.15772600  1
  Ni  Ni28  1  0.49161700  0.50838300  0.75000000  1
  Ni  Ni29  1  0.73212000  0.70105000  0.45822800  1
  Ni  Ni30  1  0.29895000  0.26788000  0.04177200  1
  Ni  Ni31  1  0.13158800  0.14431500  0.34227400  1
  Cu  Cu32  1  0.25558900  0.68507500  0.45864400  1
  Cu  Cu33  1  0.78045700  0.07495000  0.42394400  1
  Cu  Cu34  1  0.92505000  0.21954300  0.07605600  1
  Cu  Cu35  1  0.31492500  0.74441100  0.04135600  1
  Cu  Cu36  1  0.68507500  0.25558900  0.95864400  1
  Cu  Cu37  1  0.07495000  0.78045700  0.92394400  1
  Cu  Cu38  1  0.21954300  0.92505000  0.57605600  1
  Cu  Cu39  1  0.74441100  0.31492500  0.54135600  1
