# generated using pymatgen
data_Cu2Ni2C21
_symmetry_space_group_name_H-M   'P 1'
_cell_length_a   9.07233900
_cell_length_b   17.01108800
_cell_length_c   17.79470100
_cell_angle_alpha   90.00000000
_cell_angle_beta   90.00000000
_cell_angle_gamma   90.00000000
_symmetry_Int_Tables_number   1
_chemical_formula_structural   Cu2Ni2C21
_chemical_formula_sum   'Cu16 Ni16 C168'
_cell_volume   2746.26255973
_cell_formula_units_Z   8
loop_
 _symmetry_equiv_pos_site_id
 _symmetry_equiv_pos_as_xyz
  1  'x, y, z'
loop_
 _atom_site_type_symbol
 _atom_site_label
 _atom_site_symmetry_multiplicity
 _atom_site_fract_x
 _atom_site_fract_y
 _atom_site_fract_z
 _atom_site_occupancy
  C  C0  1  0.34040700  0.25000000  0.56135100  1
  C  C1  1  0.15959300  0.25000000  0.06135100  1
  C  C2  1  0.65959300  0.75000000  0.43864900  1
  C  C3  1  0.84040700  0.75000000  0.93864900  1
  C  C4  1  0.90593100  0.12440500  0.47180000  1
  C  C5  1  0.59406900  0.37559500  0.97180000  1
  C  C6  1  0.09406900  0.62440500  0.52820000  1
  C  C7  1  0.40593100  0.87559500  0.02820000  1
  C  C8  1  0.09406900  0.87559500  0.52820000  1
  C  C9  1  0.40593100  0.62440500  0.02820000  1
  C  C10  1  0.90593100  0.37559500  0.47180000  1
  C  C11  1  0.59406900  0.12440500  0.97180000  1
  C  C12  1  0.89138700  0.16654700  0.56400800  1
  C  C13  1  0.60861300  0.33345300  0.06400800  1
  C  C14  1  0.10861300  0.66654700  0.43599200  1
  C  C15  1  0.39138700  0.83345300  0.93599200  1
  C  C16  1  0.10861300  0.83345300  0.43599200  1
  C  C17  1  0.39138700  0.66654700  0.93599200  1
  C  C18  1  0.89138700  0.33345300  0.56400800  1
  C  C19  1  0.60861300  0.16654700  0.06400800  1
  C  C20  1  0.82827300  0.99378900  0.45372700  1
  C  C21  1  0.67172700  0.50621100  0.95372700  1
  C  C22  1  0.17172700  0.49378900  0.54627300  1
  C  C23  1  0.32827300  0.00621100  0.04627300  1
  C  C24  1  0.17172700  0.00621100  0.54627300  1
  C  C25  1  0.32827300  0.49378900  0.04627300  1
  C  C26  1  0.82827300  0.50621100  0.45372700  1
  C  C27  1  0.67172700  0.99378900  0.95372700  1
  C  C28  1  0.75475800  0.94087800  0.53026100  1
  C  C29  1  0.74524200  0.55912200  0.03026100  1
  C  C30  1  0.24524200  0.44087800  0.46973900  1
  C  C31  1  0.25475800  0.05912200  0.96973900  1
  C  C32  1  0.24524200  0.05912200  0.46973900  1
  C  C33  1  0.25475800  0.44087800  0.96973900  1
  C  C34  1  0.75475800  0.55912200  0.53026100  1
  C  C35  1  0.74524200  0.94087800  0.03026100  1
  C  C36  1  0.34115200  0.87423100  0.68906300  1
  C  C37  1  0.15884800  0.62576900  0.18906300  1
  C  C38  1  0.65884800  0.37423100  0.31093700  1
  C  C39  1  0.84115200  0.12576900  0.81093700  1
  C  C40  1  0.65884800  0.12576900  0.31093700  1
  C  C41  1  0.84115200  0.37423100  0.81093700  1
  C  C42  1  0.34115200  0.62576900  0.68906300  1
  C  C43  1  0.15884800  0.87423100  0.18906300  1
  C  C44  1  0.51720500  0.82749400  0.70059200  1
  C  C45  1  0.98279500  0.67250600  0.20059200  1
  C  C46  1  0.48279500  0.32749400  0.29940800  1
  C  C47  1  0.01720500  0.17250600  0.79940800  1
  C  C48  1  0.48279500  0.17250600  0.29940800  1
  C  C49  1  0.01720500  0.32749400  0.79940800  1
  C  C50  1  0.51720500  0.67250600  0.70059200  1
  C  C51  1  0.98279500  0.82749400  0.20059200  1
  C  C52  1  0.33352900  0.00717900  0.65465400  1
  C  C53  1  0.16647100  0.49282100  0.15465400  1
  C  C54  1  0.66647100  0.50717900  0.34534600  1
  C  C55  1  0.83352900  0.99282100  0.84534600  1
  C  C56  1  0.66647100  0.99282100  0.34534600  1
  C  C57  1  0.83352900  0.50717900  0.84534600  1
  C  C58  1  0.33352900  0.49282100  0.65465400  1
  C  C59  1  0.16647100  0.00717900  0.15465400  1
  C  C60  1  0.49952300  0.05805600  0.64045100  1
  C  C61  1  0.00047700  0.44194400  0.14045100  1
  C  C62  1  0.50047700  0.55805600  0.35954900  1
  C  C63  1  0.99952300  0.94194400  0.85954900  1
  C  C64  1  0.50047700  0.94194400  0.35954900  1
  C  C65  1  0.99952300  0.55805600  0.85954900  1
  C  C66  1  0.49952300  0.44194400  0.64045100  1
  C  C67  1  0.00047700  0.05805600  0.14045100  1
  C  C68  1  0.61244100  0.25000000  0.63701500  1
  C  C69  1  0.88755900  0.25000000  0.13701500  1
  C  C70  1  0.38755900  0.75000000  0.36298500  1
  C  C71  1  0.11244100  0.75000000  0.86298500  1
  C  C72  1  0.48556200  0.25000000  0.70234100  1
  C  C73  1  0.01443800  0.25000000  0.20234100  1
  C  C74  1  0.51443800  0.75000000  0.29765900  1
  C  C75  1  0.98556200  0.75000000  0.79765900  1
  C  C76  1  0.52337600  0.20296200  0.80842000  1
  C  C77  1  0.97662400  0.29703800  0.30842000  1
  C  C78  1  0.47662400  0.70296200  0.19158000  1
  C  C79  1  0.02337600  0.79703800  0.69158000  1
  C  C80  1  0.47662400  0.79703800  0.19158000  1
  C  C81  1  0.02337600  0.70296200  0.69158000  1
  C  C82  1  0.52337600  0.29703800  0.80842000  1
  C  C83  1  0.97662400  0.20296200  0.30842000  1
  C  C84  1  0.17111700  0.25000000  0.74065700  1
  C  C85  1  0.32888300  0.25000000  0.24065700  1
  C  C86  1  0.82888300  0.75000000  0.25934300  1
  C  C87  1  0.67111700  0.75000000  0.75934300  1
  C  C88  1  0.24443800  0.25000000  0.82002200  1
  C  C89  1  0.25556200  0.25000000  0.32002200  1
  C  C90  1  0.75556200  0.75000000  0.17997800  1
  C  C91  1  0.74443800  0.75000000  0.67997800  1
  Ni  Ni92  1  0.82135800  0.05334200  0.55278500  1
  Ni  Ni93  1  0.67864200  0.44665800  0.05278500  1
  Ni  Ni94  1  0.17864200  0.55334200  0.44721500  1
  Ni  Ni95  1  0.32135800  0.94665800  0.94721500  1
  Ni  Ni96  1  0.17864200  0.94665800  0.44721500  1
  Ni  Ni97  1  0.32135800  0.55334200  0.94721500  1
  Ni  Ni98  1  0.82135800  0.44665800  0.55278500  1
  Ni  Ni99  1  0.67864200  0.05334200  0.05278500  1
  Ni  Ni100  1  0.51997000  0.94319500  0.67158800  1
  Ni  Ni101  1  0.98003000  0.55680500  0.17158800  1
  Ni  Ni102  1  0.48003000  0.44319500  0.32841200  1
  Ni  Ni103  1  0.01997000  0.05680500  0.82841200  1
  Ni  Ni104  1  0.48003000  0.05680500  0.32841200  1
  Ni  Ni105  1  0.01997000  0.44319500  0.82841200  1
  Ni  Ni106  1  0.51997000  0.55680500  0.67158800  1
  Ni  Ni107  1  0.98003000  0.94319500  0.17158800  1
  Cu  Cu108  1  0.77400000  0.05437200  0.65039600  1
  Cu  Cu109  1  0.72600000  0.44562800  0.15039600  1
  Cu  Cu110  1  0.22600000  0.55437200  0.34960400  1
  Cu  Cu111  1  0.27400000  0.94562800  0.84960400  1
  Cu  Cu112  1  0.22600000  0.94562800  0.34960400  1
  Cu  Cu113  1  0.27400000  0.55437200  0.84960400  1
  Cu  Cu114  1  0.77400000  0.44562800  0.65039600  1
  Cu  Cu115  1  0.72600000  0.05437200  0.15039600  1
  Cu  Cu116  1  0.71691800  0.94017700  0.67178000  1
  Cu  Cu117  1  0.78308200  0.55982300  0.17178000  1
  Cu  Cu118  1  0.28308200  0.44017700  0.32822000  1
  Cu  Cu119  1  0.21691800  0.05982300  0.82822000  1
  Cu  Cu120  1  0.28308200  0.05982300  0.32822000  1
  Cu  Cu121  1  0.21691800  0.44017700  0.82822000  1
  Cu  Cu122  1  0.71691800  0.55982300  0.67178000  1
  Cu  Cu123  1  0.78308200  0.94017700  0.17178000  1
  C  C124  1  0.88097800  0.11910900  0.52809900  1
  C  C125  1  0.61902200  0.38089100  0.02809900  1
  C  C126  1  0.11902200  0.61910900  0.47190100  1
  C  C127  1  0.38097800  0.88089100  0.97190100  1
  C  C128  1  0.11902200  0.88089100  0.47190100  1
  C  C129  1  0.38097800  0.61910900  0.97190100  1
  C  C130  1  0.88097800  0.38089100  0.52809900  1
  C  C131  1  0.61902200  0.11910900  0.02809900  1
  C  C132  1  0.80130500  0.99112400  0.50971000  1
  C  C133  1  0.69869500  0.50887600  0.00971000  1
  C  C134  1  0.19869500  0.49112400  0.49029000  1
  C  C135  1  0.30130500  0.00887600  0.99029000  1
  C  C136  1  0.19869500  0.00887600  0.49029000  1
  C  C137  1  0.30130500  0.49112400  0.99029000  1
  C  C138  1  0.80130500  0.50887600  0.50971000  1
  C  C139  1  0.69869500  0.99112400  0.00971000  1
  C  C140  1  0.45470800  0.87738200  0.69172000  1
  C  C141  1  0.04529200  0.62261800  0.19172000  1
  C  C142  1  0.54529200  0.37738200  0.30828000  1
  C  C143  1  0.95470800  0.12261800  0.80828000  1
  C  C144  1  0.54529200  0.12261800  0.30828000  1
  C  C145  1  0.95470800  0.37738200  0.80828000  1
  C  C146  1  0.45470800  0.62261800  0.69172000  1
  C  C147  1  0.04529200  0.87738200  0.19172000  1
  C  C148  1  0.44633600  0.00728200  0.65380500  1
  C  C149  1  0.05366400  0.49271800  0.15380500  1
  C  C150  1  0.55366400  0.50728200  0.34619500  1
  C  C151  1  0.94633600  0.99271800  0.84619500  1
  C  C152  1  0.55366400  0.99271800  0.34619500  1
  C  C153  1  0.94633600  0.50728200  0.84619500  1
  C  C154  1  0.44633600  0.49271800  0.65380500  1
  C  C155  1  0.05366400  0.00728200  0.15380500  1
  C  C156  1  0.21371400  0.15312000  0.63226100  1
  C  C157  1  0.28628600  0.34688000  0.13226100  1
  C  C158  1  0.78628600  0.65312000  0.36773900  1
  C  C159  1  0.71371400  0.84688000  0.86773900  1
  C  C160  1  0.78628600  0.84688000  0.36773900  1
  C  C161  1  0.71371400  0.65312000  0.86773900  1
  C  C162  1  0.21371400  0.34688000  0.63226100  1
  C  C163  1  0.28628600  0.15312000  0.13226100  1
  C  C164  1  0.48164600  0.15103000  0.50233700  1
  C  C165  1  0.01835400  0.34897000  0.00233700  1
  C  C166  1  0.51835400  0.65103000  0.49766300  1
  C  C167  1  0.98164600  0.84897000  0.99766300  1
  C  C168  1  0.51835400  0.84897000  0.49766300  1
  C  C169  1  0.98164600  0.65103000  0.99766300  1
  C  C170  1  0.48164600  0.34897000  0.50233700  1
  C  C171  1  0.01835400  0.15103000  0.00233700  1
  C  C172  1  0.15986800  0.25000000  0.46550800  1
  C  C173  1  0.34013200  0.25000000  0.96550800  1
  C  C174  1  0.84013200  0.75000000  0.53449200  1
  C  C175  1  0.65986800  0.75000000  0.03449200  1
  C  C176  1  0.61120100  0.08375400  0.84568400  1
  C  C177  1  0.88879900  0.41624600  0.34568400  1
  C  C178  1  0.38879900  0.58375400  0.15431600  1
  C  C179  1  0.11120100  0.91624600  0.65431600  1
  C  C180  1  0.38879900  0.91624600  0.15431600  1
  C  C181  1  0.11120100  0.58375400  0.65431600  1
  C  C182  1  0.61120100  0.41624600  0.84568400  1
  C  C183  1  0.88879900  0.08375400  0.34568400  1
  C  C184  1  0.83272400  0.25000000  0.65414500  1
  C  C185  1  0.66727600  0.25000000  0.15414500  1
  C  C186  1  0.16727600  0.75000000  0.34585500  1
  C  C187  1  0.33272400  0.75000000  0.84585500  1
  C  C188  1  0.50246100  0.25000000  0.64529800  1
  C  C189  1  0.99753900  0.25000000  0.14529800  1
  C  C190  1  0.49753900  0.75000000  0.35470200  1
  C  C191  1  0.00246100  0.75000000  0.85470200  1
  C  C192  1  0.47223700  0.25000000  0.78828300  1
  C  C193  1  0.02776300  0.25000000  0.28828300  1
  C  C194  1  0.52776300  0.75000000  0.21171700  1
  C  C195  1  0.97223700  0.75000000  0.71171700  1
  C  C196  1  0.14802000  0.25000000  0.79453100  1
  C  C197  1  0.35198000  0.25000000  0.29453100  1
  C  C198  1  0.85198000  0.75000000  0.20546900  1
  C  C199  1  0.64802000  0.75000000  0.70546900  1
