# generated using pymatgen
data_Cu3NiC3
_symmetry_space_group_name_H-M   'P 1'
_cell_length_a   6.40986100
_cell_length_b   8.12794600
_cell_length_c   8.22971347
_cell_angle_alpha   60.70255747
_cell_angle_beta   90.00000000
_cell_angle_gamma   90.00000000
_symmetry_Int_Tables_number   1
_chemical_formula_structural   Cu3NiC3
_chemical_formula_sum   'Cu12 Ni4 C12'
_cell_volume   373.91767819
_cell_formula_units_Z   4
loop_
 _symmetry_equiv_pos_site_id
 _symmetry_equiv_pos_as_xyz
  1  'x, y, z'
loop_
 _atom_site_type_symbol
 _atom_site_label
 _atom_site_symmetry_multiplicity
 _atom_site_fract_x
 _atom_site_fract_y
 _atom_site_fract_z
 _atom_site_occupancy
  C  C0  1  0.00000000  0.59653100  0.16249200  1
  C  C1  1  0.50000000  0.58929700  0.17400000  1
  C  C2  1  0.00000000  0.17464300  0.22767100  1
  C  C3  1  0.50000000  0.16540800  0.22160800  1
  C  C4  1  0.00000000  0.22935000  0.59924900  1
  C  C5  1  0.50000000  0.24109900  0.59057100  1
  C  C6  1  0.74248600  0.75877000  0.40587400  1
  C  C7  1  0.25751400  0.75877000  0.40587400  1
  C  C8  1  0.75702600  0.83389200  0.76060600  1
  C  C9  1  0.24297400  0.83389200  0.76060600  1
  C  C10  1  0.24982100  0.39971600  0.84206700  1
  C  C11  1  0.75017900  0.39971600  0.84206700  1
  Ni  Ni12  1  0.50000000  0.69513300  0.32812700  1
  Ni  Ni13  1  0.00000000  0.97178000  0.70376600  1
  Ni  Ni14  1  0.00000000  0.33336800  0.97229600  1
  Ni  Ni15  1  0.50000000  0.33138600  0.96992300  1
  Cu  Cu16  1  0.74838800  0.66622000  0.02769700  1
  Cu  Cu17  1  0.25161200  0.66622000  0.02769700  1
  Cu  Cu18  1  0.50000000  0.32301300  0.33483800  1
  Cu  Cu19  1  0.00000000  0.33916500  0.33437300  1
  Cu  Cu20  1  0.75243800  0.02524800  0.32033000  1
  Cu  Cu21  1  0.24756200  0.02524800  0.32033000  1
  Cu  Cu22  1  0.25084700  0.31625600  0.65377400  1
  Cu  Cu23  1  0.74915300  0.31625600  0.65377400  1
  Cu  Cu24  1  0.00000000  0.70672100  0.32206600  1
  Cu  Cu25  1  0.50000000  0.96990400  0.70839400  1
  Cu  Cu26  1  0.25074300  0.66659700  0.66486400  1
  Cu  Cu27  1  0.74925700  0.66659700  0.66486400  1
