# generated using pymatgen
data_CuNi3C2
_symmetry_space_group_name_H-M   'P 1'
_cell_length_a   4.65033200
_cell_length_b   5.55117900
_cell_length_c   10.23625611
_cell_angle_alpha   84.54984033
_cell_angle_beta   90.00000000
_cell_angle_gamma   90.00000000
_symmetry_Int_Tables_number   1
_chemical_formula_structural   CuNi3C2
_chemical_formula_sum   'Cu4 Ni12 C8'
_cell_volume   263.05255393
_cell_formula_units_Z   4
loop_
 _symmetry_equiv_pos_site_id
 _symmetry_equiv_pos_as_xyz
  1  'x, y, z'
loop_
 _atom_site_type_symbol
 _atom_site_label
 _atom_site_symmetry_multiplicity
 _atom_site_fract_x
 _atom_site_fract_y
 _atom_site_fract_z
 _atom_site_occupancy
  C  C0  1  0.50000000  0.50000000  0.50000000  1
  C  C1  1  0.50000000  0.00000000  0.00000000  1
  C  C2  1  0.52080800  0.74303300  0.76030000  1
  C  C3  1  0.47919200  0.25696700  0.23970000  1
  C  C4  1  0.00000000  0.50000000  0.00000000  1
  C  C5  1  0.97919200  0.74303300  0.26030000  1
  C  C6  1  0.00000000  0.00000000  0.50000000  1
  C  C7  1  0.02080800  0.25696700  0.73970000  1
  Ni  Ni8  1  0.80727600  0.47968000  0.17234000  1
  Ni  Ni9  1  0.79777200  0.73241000  0.43291300  1
  Ni  Ni10  1  0.81374900  0.98386300  0.66802800  1
  Ni  Ni11  1  0.70222800  0.73241000  0.93291300  1
  Ni  Ni12  1  0.68625100  0.98386300  0.16802800  1
  Ni  Ni13  1  0.69272400  0.47968000  0.67234000  1
  Ni  Ni14  1  0.31374900  0.01613700  0.83197200  1
  Ni  Ni15  1  0.30727600  0.52032000  0.32766000  1
  Ni  Ni16  1  0.29777200  0.26759000  0.06708700  1
  Ni  Ni17  1  0.20222800  0.26759000  0.56708700  1
  Ni  Ni18  1  0.19272400  0.52032000  0.82766000  1
  Ni  Ni19  1  0.18625100  0.01613700  0.33197200  1
  Cu  Cu20  1  0.80442800  0.22805400  0.91802900  1
  Cu  Cu21  1  0.69557200  0.22805400  0.41802900  1
  Cu  Cu22  1  0.30442800  0.77194600  0.58197100  1
  Cu  Cu23  1  0.19557200  0.77194600  0.08197100  1
