# generated using pymatgen
data_Cu(Ni2C11)2
_symmetry_space_group_name_H-M   'P 1'
_cell_length_a   10.08079789
_cell_length_b   9.87035325
_cell_length_c   9.84091735
_cell_angle_alpha   61.51711357
_cell_angle_beta   59.38521227
_cell_angle_gamma   59.09767415
_symmetry_Int_Tables_number   1
_chemical_formula_structural   Cu(Ni2C11)2
_chemical_formula_sum   'Cu2 Ni8 C44'
_cell_volume   691.63797204
_cell_formula_units_Z   2
loop_
 _symmetry_equiv_pos_site_id
 _symmetry_equiv_pos_as_xyz
  1  'x, y, z'
loop_
 _atom_site_type_symbol
 _atom_site_label
 _atom_site_symmetry_multiplicity
 _atom_site_fract_x
 _atom_site_fract_y
 _atom_site_fract_z
 _atom_site_occupancy
  C  C0  1  0.54591400  0.54591400  0.95408600  1
  C  C1  1  0.95983300  0.54016700  0.54016700  1
  C  C2  1  0.70983300  0.29016700  0.29016700  1
  C  C3  1  0.29591400  0.29591400  0.70408600  1
  C  C4  1  0.95408600  0.95408600  0.54591400  1
  C  C5  1  0.54016700  0.95983300  0.95983300  1
  C  C6  1  0.29016700  0.70983300  0.70983300  1
  C  C7  1  0.70408600  0.70408600  0.29591400  1
  C  C8  1  0.12500000  0.12500000  0.12500000  1
  C  C9  1  0.12500000  0.62500000  0.12500000  1
  C  C10  1  0.62500000  0.12500000  0.12500000  1
  C  C11  1  0.12500000  0.12500000  0.62500000  1
  Ni  Ni12  1  0.91989800  0.26892600  0.91300800  1
  Ni  Ni13  1  0.26892600  0.91989800  0.89816800  1
  Ni  Ni14  1  0.33699200  0.35183200  0.33010200  1
  Ni  Ni15  1  0.89816800  0.91300800  0.26892600  1
  Ni  Ni16  1  0.35183200  0.33699200  0.98107400  1
  Ni  Ni17  1  0.91300800  0.89816800  0.91989800  1
  Ni  Ni18  1  0.98107400  0.33010200  0.35183200  1
  Ni  Ni19  1  0.33010200  0.98107400  0.33699200  1
  Cu  Cu20  1  0.50000000  0.50000000  0.50000000  1
  Cu  Cu21  1  0.75000000  0.75000000  0.75000000  1
  C  C22  1  0.94750000  0.27363000  0.76567900  1
  C  C23  1  0.28069000  0.77645400  0.91957000  1
  C  C24  1  0.77645400  0.28069000  0.02328600  1
  C  C25  1  0.31041700  0.48755700  0.21086700  1
  C  C26  1  0.76244300  0.93958300  0.25884100  1
  C  C27  1  0.27363000  0.94750000  0.01319000  1
  C  C28  1  0.48432100  0.23681000  0.30250000  1
  C  C29  1  0.01319000  0.76567900  0.27363000  1
  C  C30  1  0.22671400  0.33043000  0.47354600  1
  C  C31  1  0.91957000  0.02328600  0.28069000  1
  C  C32  1  0.56590400  0.55640100  0.31538900  1
  C  C33  1  0.69359900  0.68409600  0.68769400  1
  C  C34  1  0.25884100  0.03913300  0.76244300  1
  C  C35  1  0.21086700  0.99115900  0.31041700  1
  C  C36  1  0.56230600  0.31538900  0.55640100  1
  C  C37  1  0.31538900  0.56230600  0.56590400  1
  C  C38  1  0.93461100  0.68769400  0.68409600  1
  C  C39  1  0.68769400  0.93461100  0.69359900  1
  C  C40  1  0.03913300  0.25884100  0.93958300  1
  C  C41  1  0.99115900  0.21086700  0.48755700  1
  C  C42  1  0.55640100  0.56590400  0.56230600  1
  C  C43  1  0.68409600  0.69359900  0.93461100  1
  C  C44  1  0.33043000  0.22671400  0.96931000  1
  C  C45  1  0.02328600  0.91957000  0.77645400  1
  C  C46  1  0.23681000  0.48432100  0.97637000  1
  C  C47  1  0.76567900  0.01319000  0.94750000  1
  C  C48  1  0.97637000  0.30250000  0.23681000  1
  C  C49  1  0.48755700  0.31041700  0.99115900  1
  C  C50  1  0.93958300  0.76244300  0.03913300  1
  C  C51  1  0.47354600  0.96931000  0.22671400  1
  C  C52  1  0.96931000  0.47354600  0.33043000  1
  C  C53  1  0.30250000  0.97637000  0.48432100  1
