# generated using pymatgen
data_Cu8Ni2C17
_symmetry_space_group_name_H-M   'P 1'
_cell_length_a   6.43782076
_cell_length_b   6.43782076
_cell_length_c   13.13046363
_cell_angle_alpha   82.54071025
_cell_angle_beta   82.54071025
_cell_angle_gamma   90.03512842
_symmetry_Int_Tables_number   1
_chemical_formula_structural   Cu8Ni2C17
_chemical_formula_sum   'Cu16 Ni4 C34'
_cell_volume   534.94290483
_cell_formula_units_Z   2
loop_
 _symmetry_equiv_pos_site_id
 _symmetry_equiv_pos_as_xyz
  1  'x, y, z'
loop_
 _atom_site_type_symbol
 _atom_site_label
 _atom_site_symmetry_multiplicity
 _atom_site_fract_x
 _atom_site_fract_y
 _atom_site_fract_z
 _atom_site_occupancy
  C  C0  1  0.45542400  0.06791100  0.77915500  1
  C  C1  1  0.06791100  0.45542400  0.27915500  1
  C  C2  1  0.24734900  0.02647300  0.48123500  1
  C  C3  1  0.02647300  0.24734900  0.98123500  1
  C  C4  1  0.73726200  0.49761700  0.56539800  1
  C  C5  1  0.49761700  0.73726200  0.06539800  1
  Ni  Ni6  1  0.73366200  0.01129600  0.52514200  1
  Ni  Ni7  1  0.01129600  0.73366200  0.02514200  1
  Ni  Ni8  1  0.24076500  0.51192500  0.52326400  1
  Ni  Ni9  1  0.51192500  0.24076500  0.02326400  1
  Cu  Cu10  1  0.36146900  0.06985000  0.23216500  1
  Cu  Cu11  1  0.06985000  0.36146900  0.73216500  1
  Cu  Cu12  1  0.13703400  0.99023600  0.28213700  1
  Cu  Cu13  1  0.99023600  0.13703400  0.78213700  1
  Cu  Cu14  1  0.71302600  0.40262900  0.83225600  1
  Cu  Cu15  1  0.40262900  0.71302600  0.33225600  1
  Cu  Cu16  1  0.70975100  0.61999800  0.76367400  1
  Cu  Cu17  1  0.61999800  0.70975100  0.26367400  1
  Cu  Cu18  1  0.92782900  0.83741500  0.83028000  1
  Cu  Cu19  1  0.83741500  0.92782900  0.33028000  1
  Cu  Cu20  1  0.92605700  0.88583600  0.70849700  1
  Cu  Cu21  1  0.88583600  0.92605700  0.20849700  1
  Cu  Cu22  1  0.30955900  0.68886700  0.69430900  1
  Cu  Cu23  1  0.68886700  0.30955900  0.19430900  1
  Cu  Cu24  1  0.37304000  0.59983700  0.80057500  1
  Cu  Cu25  1  0.59983700  0.37304000  0.30057500  1
  C  C26  1  0.21512600  0.99972100  0.60882300  1
  C  C27  1  0.99972100  0.21512600  0.10882300  1
  C  C28  1  0.55947200  0.01964400  0.45446000  1
  C  C29  1  0.01964400  0.55947200  0.95446000  1
  C  C30  1  0.94365400  0.04936900  0.45248800  1
  C  C31  1  0.04936900  0.94365400  0.95248800  1
  C  C32  1  0.25710100  0.34458300  0.44719500  1
  C  C33  1  0.34458300  0.25710100  0.94719500  1
  C  C34  1  0.24623600  0.72361800  0.44971300  1
  C  C35  1  0.72361800  0.24623600  0.94971300  1
  C  C36  1  0.79272000  0.51681100  0.43904100  1
  C  C37  1  0.51681100  0.79272000  0.93904100  1
  C  C38  1  0.73208200  0.79662200  0.59496500  1
  C  C39  1  0.79662200  0.73208200  0.09496500  1
  C  C40  1  0.03624600  0.48547400  0.60124700  1
  C  C41  1  0.48547400  0.03624600  0.10124700  1
  C  C42  1  0.42051500  0.49859400  0.59119500  1
  C  C43  1  0.49859400  0.42051500  0.09119500  1
  C  C44  1  0.70254400  0.17834800  0.60261100  1
  C  C45  1  0.17834800  0.70254400  0.10261100  1
  C  C46  1  0.25235500  0.08631100  0.29146800  1
  C  C47  1  0.08631100  0.25235500  0.79146800  1
  C  C48  1  0.67136300  0.47140100  0.76519800  1
  C  C49  1  0.47140100  0.67136300  0.26519800  1
  C  C50  1  0.84703100  0.90263000  0.77617300  1
  C  C51  1  0.90263000  0.84703100  0.27617300  1
  C  C52  1  0.29888200  0.71644900  0.76640300  1
  C  C53  1  0.71644900  0.29888200  0.26640300  1
