# generated using pymatgen
data_Cu3NiC2
_symmetry_space_group_name_H-M   'P 1'
_cell_length_a   4.79496115
_cell_length_b   4.79496115
_cell_length_c   9.26327100
_cell_angle_alpha   90.00000000
_cell_angle_beta   90.00000000
_cell_angle_gamma   92.21876508
_symmetry_Int_Tables_number   1
_chemical_formula_structural   Cu3NiC2
_chemical_formula_sum   'Cu9 Ni3 C6'
_cell_volume   212.81823520
_cell_formula_units_Z   3
loop_
 _symmetry_equiv_pos_site_id
 _symmetry_equiv_pos_as_xyz
  1  'x, y, z'
loop_
 _atom_site_type_symbol
 _atom_site_label
 _atom_site_symmetry_multiplicity
 _atom_site_fract_x
 _atom_site_fract_y
 _atom_site_fract_z
 _atom_site_occupancy
  C  C0  1  0.96839100  0.96839100  0.00000000  1
  C  C1  1  0.01953600  0.01953600  0.33296800  1
  C  C2  1  0.01953600  0.01953600  0.66703200  1
  C  C3  1  0.49960700  0.49960700  0.83269700  1
  C  C4  1  0.49960700  0.49960700  0.16730300  1
  C  C5  1  0.47148100  0.47148100  0.50000000  1
  Ni  Ni6  1  0.31740900  0.31740900  0.67117500  1
  Ni  Ni7  1  0.31740900  0.31740900  0.32882500  1
  Ni  Ni8  1  0.67420200  0.67420200  0.00000000  1
  Cu  Cu9  1  0.79354300  0.20537700  0.16852200  1
  Cu  Cu10  1  0.80274500  0.21237800  0.50000000  1
  Cu  Cu11  1  0.79354300  0.20537700  0.83147800  1
  Cu  Cu12  1  0.28732200  0.28732200  0.00000000  1
  Cu  Cu13  1  0.70627000  0.70627000  0.33620200  1
  Cu  Cu14  1  0.70627000  0.70627000  0.66379800  1
  Cu  Cu15  1  0.20537700  0.79354300  0.83147800  1
  Cu  Cu16  1  0.21237800  0.80274500  0.50000000  1
  Cu  Cu17  1  0.20537700  0.79354300  0.16852200  1
