# generated using pymatgen
data_CuNi2C5
_symmetry_space_group_name_H-M   'P 1'
_cell_length_a   8.27500500
_cell_length_b   5.92929300
_cell_length_c   12.46724243
_cell_angle_alpha   75.23181314
_cell_angle_beta   90.00000000
_cell_angle_gamma   90.00000000
_symmetry_Int_Tables_number   1
_chemical_formula_structural   CuNi2C5
_chemical_formula_sum   'Cu4 Ni8 C20'
_cell_volume   591.49675896
_cell_formula_units_Z   4
loop_
 _symmetry_equiv_pos_site_id
 _symmetry_equiv_pos_as_xyz
  1  'x, y, z'
loop_
 _atom_site_type_symbol
 _atom_site_label
 _atom_site_symmetry_multiplicity
 _atom_site_fract_x
 _atom_site_fract_y
 _atom_site_fract_z
 _atom_site_occupancy
  Ni  Ni0  1  0.50938200  0.62913500  0.65876400  1
  Ni  Ni1  1  0.24317700  0.17517000  0.13804200  1
  Ni  Ni2  1  0.00938200  0.37086500  0.84123600  1
  Ni  Ni3  1  0.25682300  0.17517000  0.63804200  1
  Ni  Ni4  1  0.74317700  0.82483000  0.36195800  1
  Ni  Ni5  1  0.99061800  0.62913500  0.15876400  1
  Ni  Ni6  1  0.75682300  0.82483000  0.86195800  1
  Ni  Ni7  1  0.49061800  0.37086500  0.34123600  1
  Cu  Cu8  1  0.47474000  0.36256400  0.90994500  1
  Cu  Cu9  1  0.97474000  0.63743600  0.59005500  1
  Cu  Cu10  1  0.02526000  0.36256400  0.40994500  1
  Cu  Cu11  1  0.52526000  0.63743600  0.09005500  1
  C  C12  1  0.22049300  0.84932500  0.43249100  1
  C  C13  1  0.72049300  0.15067500  0.06750900  1
  C  C14  1  0.27950700  0.84932500  0.93249100  1
  C  C15  1  0.77950700  0.15067500  0.56750900  1
  C  C16  1  0.79924700  0.82353000  0.61783900  1
  C  C17  1  0.19737900  0.75688500  0.58814000  1
  C  C18  1  0.55229600  0.30692800  0.12140900  1
  C  C19  1  0.92691800  0.23433700  0.10028400  1
  C  C20  1  0.69737900  0.24311500  0.91186000  1
  C  C21  1  0.29924700  0.17647000  0.88216100  1
  C  C22  1  0.42691800  0.76566300  0.39971600  1
  C  C23  1  0.05229600  0.69307200  0.37859100  1
  C  C24  1  0.94770400  0.30692800  0.62140900  1
  C  C25  1  0.57308200  0.23433700  0.60028400  1
  C  C26  1  0.70075300  0.82353000  0.11783900  1
  C  C27  1  0.30262100  0.75688500  0.08814000  1
  C  C28  1  0.07308200  0.76566300  0.89971600  1
  C  C29  1  0.44770400  0.69307200  0.87859100  1
  C  C30  1  0.80262100  0.24311500  0.41186000  1
  C  C31  1  0.20075300  0.17647000  0.38216100  1
