# generated using pymatgen
data_CuNi3C5
_symmetry_space_group_name_H-M   'P 1'
_cell_length_a   6.45981100
_cell_length_b   7.06340900
_cell_length_c   8.24551100
_cell_angle_alpha   89.99970807
_cell_angle_beta   90.00106723
_cell_angle_gamma   89.99943227
_symmetry_Int_Tables_number   1
_chemical_formula_structural   CuNi3C5
_chemical_formula_sum   'Cu4 Ni12 C20'
_cell_volume   376.22854361
_cell_formula_units_Z   4
loop_
 _symmetry_equiv_pos_site_id
 _symmetry_equiv_pos_as_xyz
  1  'x, y, z'
loop_
 _atom_site_type_symbol
 _atom_site_label
 _atom_site_symmetry_multiplicity
 _atom_site_fract_x
 _atom_site_fract_y
 _atom_site_fract_z
 _atom_site_occupancy
  C  C0  1  0.49736800  0.50822100  0.33890000  1
  C  C1  1  0.49738600  0.00820000  0.83889600  1
  C  C2  1  0.99738800  0.49180000  0.33889400  1
  C  C3  1  0.99736900  0.99177500  0.83890100  1
  C  C4  1  0.99739300  0.49180000  0.66110000  1
  C  C5  1  0.99736400  0.99177500  0.16109400  1
  C  C6  1  0.49736400  0.50822200  0.66109400  1
  C  C7  1  0.49739100  0.00820100  0.16109900  1
  C  C8  1  0.23953100  0.72753600  0.15325500  1
  C  C9  1  0.23954400  0.22755000  0.65327300  1
  C  C10  1  0.73954000  0.27243600  0.15327200  1
  C  C11  1  0.73953300  0.77247000  0.65325100  1
  C  C12  1  0.23953200  0.72754200  0.84673800  1
  C  C13  1  0.23954400  0.22755700  0.34672500  1
  C  C14  1  0.73954000  0.27243000  0.84672800  1
  C  C15  1  0.73953400  0.77246600  0.34674200  1
  C  C16  1  0.27863500  0.86797200  0.50002500  1
  C  C17  1  0.77867300  0.63203800  0.00003200  1
  C  C18  1  0.27863600  0.36790300  0.99999600  1
  C  C19  1  0.77863900  0.13213700  0.50000400  1
  Ni  Ni20  1  0.01257600  0.78349500  0.99999300  1
  Ni  Ni21  1  0.01284100  0.28362700  0.49999700  1
  Ni  Ni22  1  0.51272600  0.21643600  0.00002200  1
  Ni  Ni23  1  0.51262100  0.71646000  0.49999300  1
  Ni  Ni24  1  0.75215900  0.54452400  0.21420200  1
  Ni  Ni25  1  0.75215700  0.04463400  0.71419600  1
  Ni  Ni26  1  0.25215300  0.45538600  0.21422000  1
  Ni  Ni27  1  0.25215200  0.95540100  0.71420500  1
  Ni  Ni28  1  0.25215300  0.45538600  0.78577500  1
  Ni  Ni29  1  0.25214900  0.95541300  0.28574700  1
  Ni  Ni30  1  0.75214500  0.54457400  0.78574100  1
  Ni  Ni31  1  0.75217100  0.04462400  0.28590300  1
  Cu  Cu32  1  0.98052600  0.21000300  0.99999700  1
  Cu  Cu33  1  0.98052400  0.70999300  0.49999600  1
  Cu  Cu34  1  0.48052000  0.79000700  0.99999600  1
  Cu  Cu35  1  0.48052300  0.29000500  0.49999700  1
