# generated using pymatgen
data_Cu7Ni5C6
_symmetry_space_group_name_H-M   'P 1'
_cell_length_a   4.79540090
_cell_length_b   4.79540090
_cell_length_c   9.25405900
_cell_angle_alpha   90.00000000
_cell_angle_beta   90.00000000
_cell_angle_gamma   94.97720928
_symmetry_Int_Tables_number   1
_chemical_formula_structural   Cu7Ni5C6
_chemical_formula_sum   'Cu7 Ni5 C6'
_cell_volume   212.00270922
_cell_formula_units_Z   1
loop_
 _symmetry_equiv_pos_site_id
 _symmetry_equiv_pos_as_xyz
  1  'x, y, z'
loop_
 _atom_site_type_symbol
 _atom_site_label
 _atom_site_symmetry_multiplicity
 _atom_site_fract_x
 _atom_site_fract_y
 _atom_site_fract_z
 _atom_site_occupancy
  C  C0  1  0.99401100  0.99401100  0.83184300  1
  C  C1  1  0.99401100  0.99401100  0.16815700  1
  C  C2  1  0.02366700  0.02366700  0.50000000  1
  C  C3  1  0.49806100  0.49806100  0.00000000  1
  C  C4  1  0.48889200  0.48889200  0.67512500  1
  C  C5  1  0.48889200  0.48889200  0.32487500  1
  Ni  Ni6  1  0.29383100  0.29383100  0.83669200  1
  Ni  Ni7  1  0.29383100  0.29383100  0.16330800  1
  Ni  Ni8  1  0.33026000  0.33026000  0.50000000  1
  Ni  Ni9  1  0.69701200  0.69701200  0.83343500  1
  Ni  Ni10  1  0.69701200  0.69701200  0.16656500  1
  Cu  Cu11  1  0.80394400  0.18631000  0.00000000  1
  Cu  Cu12  1  0.80051100  0.20040200  0.32758900  1
  Cu  Cu13  1  0.80051100  0.20040200  0.67241100  1
  Cu  Cu14  1  0.70844200  0.70844200  0.50000000  1
  Cu  Cu15  1  0.18631000  0.80394400  0.00000000  1
  Cu  Cu16  1  0.20040200  0.80051100  0.67241100  1
  Cu  Cu17  1  0.20040200  0.80051100  0.32758900  1
