# generated using pymatgen
data_Cu4Ni2C9
_symmetry_space_group_name_H-M   'P 1'
_cell_length_a   10.56805613
_cell_length_b   10.56805613
_cell_length_c   15.09042000
_cell_angle_alpha   90.00000000
_cell_angle_beta   90.00000000
_cell_angle_gamma   100.54939876
_symmetry_Int_Tables_number   1
_chemical_formula_structural   Cu4Ni2C9
_chemical_formula_sum   'Cu32 Ni16 C72'
_cell_volume   1656.86875588
_cell_formula_units_Z   8
loop_
 _symmetry_equiv_pos_site_id
 _symmetry_equiv_pos_as_xyz
  1  'x, y, z'
loop_
 _atom_site_type_symbol
 _atom_site_label
 _atom_site_symmetry_multiplicity
 _atom_site_fract_x
 _atom_site_fract_y
 _atom_site_fract_z
 _atom_site_occupancy
  C  C0  1  0.75099100  0.24900900  0.50000000  1
  C  C1  1  0.74900900  0.25099100  0.00000000  1
  C  C2  1  0.25099100  0.74900900  0.00000000  1
  C  C3  1  0.24900900  0.75099100  0.50000000  1
  C  C4  1  0.27700000  0.27700000  0.28078200  1
  C  C5  1  0.72300000  0.72300000  0.71921800  1
  C  C6  1  0.22300000  0.22300000  0.78078200  1
  C  C7  1  0.77700000  0.77700000  0.21921800  1
  C  C8  1  0.93153200  0.09101500  0.39189000  1
  C  C9  1  0.90898500  0.06846800  0.60811000  1
  C  C10  1  0.79368900  0.02262000  0.36492800  1
  C  C11  1  0.97738000  0.20631100  0.63507200  1
  C  C12  1  0.87706400  0.22617600  0.17938800  1
  C  C13  1  0.77382400  0.12293600  0.82061200  1
  C  C14  1  0.75436000  0.12277300  0.18678500  1
  C  C15  1  0.87722700  0.24564000  0.81321500  1
  C  C16  1  0.38750300  0.02781700  0.48918100  1
  C  C17  1  0.47218300  0.11249700  0.98918100  1
  C  C18  1  0.97218300  0.61249700  0.51081900  1
  C  C19  1  0.88750300  0.52781700  0.01081900  1
  C  C20  1  0.50513800  0.14928200  0.89255200  1
  C  C21  1  0.00513800  0.64928200  0.60744800  1
  C  C22  1  0.35071800  0.99486200  0.39255200  1
  C  C23  1  0.85071800  0.49486200  0.10744800  1
  C  C24  1  0.74564000  0.37722700  0.68678500  1
  C  C25  1  0.62277300  0.25436000  0.31321500  1
  C  C26  1  0.72617600  0.37706400  0.32061200  1
  C  C27  1  0.62293600  0.27382400  0.67938800  1
  C  C28  1  0.95272400  0.79780500  0.04054300  1
  C  C29  1  0.75834400  0.53952500  0.44539000  1
  C  C30  1  0.70219500  0.54727600  0.54054300  1
  C  C31  1  0.25834400  0.03952500  0.05461000  1
  C  C32  1  0.96047500  0.74165600  0.94539000  1
  C  C33  1  0.45272400  0.29780500  0.45945700  1
  C  C34  1  0.46047500  0.24165600  0.55461000  1
  C  C35  1  0.20219500  0.04727600  0.95945700  1
  C  C36  1  0.52262000  0.29368900  0.13507200  1
  C  C37  1  0.70631100  0.47738000  0.86492800  1
  C  C38  1  0.59101500  0.43153200  0.10811000  1
  C  C39  1  0.56846800  0.40898500  0.89189000  1
  C  C40  1  0.43153200  0.59101500  0.10811000  1
  C  C41  1  0.40898500  0.56846800  0.89189000  1
  C  C42  1  0.29368900  0.52262000  0.13507200  1
  C  C43  1  0.47738000  0.70631100  0.86492800  1
  C  C44  1  0.53952500  0.75834400  0.44539000  1
  C  C45  1  0.03952500  0.25834400  0.05461000  1
  C  C46  1  0.54727600  0.70219500  0.54054300  1
  C  C47  1  0.79780500  0.95272400  0.04054300  1
  C  C48  1  0.29780500  0.45272400  0.45945700  1
  C  C49  1  0.24165600  0.46047500  0.55461000  1
  C  C50  1  0.04727600  0.20219500  0.95945700  1
  C  C51  1  0.74165600  0.96047500  0.94539000  1
  C  C52  1  0.27382400  0.62293600  0.67938800  1
  C  C53  1  0.37706400  0.72617600  0.32061200  1
  C  C54  1  0.37722700  0.74564000  0.68678500  1
  C  C55  1  0.25436000  0.62277300  0.31321500  1
  C  C56  1  0.99486200  0.35071800  0.39255200  1
  C  C57  1  0.49486200  0.85071800  0.10744800  1
  C  C58  1  0.64928200  0.00513800  0.60744800  1
  C  C59  1  0.14928200  0.50513800  0.89255200  1
  C  C60  1  0.02781700  0.38750300  0.48918100  1
  C  C61  1  0.11249700  0.47218300  0.98918100  1
  C  C62  1  0.52781700  0.88750300  0.01081900  1
  C  C63  1  0.61249700  0.97218300  0.51081900  1
  C  C64  1  0.12277300  0.75436000  0.18678500  1
  C  C65  1  0.24564000  0.87722700  0.81321500  1
  C  C66  1  0.22617600  0.87706400  0.17938800  1
  C  C67  1  0.12293600  0.77382400  0.82061200  1
  C  C68  1  0.02262000  0.79368900  0.36492800  1
  C  C69  1  0.20631100  0.97738000  0.63507200  1
  C  C70  1  0.09101500  0.93153200  0.39189000  1
  C  C71  1  0.06846800  0.90898500  0.60811000  1
  Ni  Ni72  1  0.87826500  0.59563500  0.30241000  1
  Ni  Ni73  1  0.37826500  0.09563500  0.19759000  1
  Ni  Ni74  1  0.90436500  0.62173500  0.80241000  1
  Ni  Ni75  1  0.40436500  0.12173500  0.69759000  1
  Ni  Ni76  1  0.68746100  0.68746100  0.06384900  1
  Ni  Ni77  1  0.47488500  0.47488500  0.28997000  1
  Ni  Ni78  1  0.02511500  0.02511500  0.78997000  1
  Ni  Ni79  1  0.18746100  0.18746100  0.43615100  1
  Ni  Ni80  1  0.52511500  0.52511500  0.71003000  1
  Ni  Ni81  1  0.97488500  0.97488500  0.21003000  1
  Ni  Ni82  1  0.81253900  0.81253900  0.56384900  1
  Ni  Ni83  1  0.31253900  0.31253900  0.93615100  1
  Ni  Ni84  1  0.09563500  0.37826500  0.19759000  1
  Ni  Ni85  1  0.12173500  0.40436500  0.69759000  1
  Ni  Ni86  1  0.59563500  0.87826500  0.30241000  1
  Ni  Ni87  1  0.62173500  0.90436500  0.80241000  1
  Cu  Cu88  1  0.76116900  0.00972700  0.00035100  1
  Cu  Cu89  1  0.99027300  0.23883100  0.99964900  1
  Cu  Cu90  1  0.84092800  0.07907100  0.40987300  1
  Cu  Cu91  1  0.92092900  0.15907200  0.59012700  1
  Cu  Cu92  1  0.78943200  0.20270100  0.15593400  1
  Cu  Cu93  1  0.79729900  0.21056800  0.84406600  1
  Cu  Cu94  1  0.95669200  0.37435300  0.44736200  1
  Cu  Cu95  1  0.62564700  0.04330800  0.55263800  1
  Cu  Cu96  1  0.87435300  0.45669200  0.05263800  1
  Cu  Cu97  1  0.54330800  0.12564700  0.94736200  1
  Cu  Cu98  1  0.71056800  0.29729900  0.65593400  1
  Cu  Cu99  1  0.70270100  0.28943200  0.34406600  1
  Cu  Cu100  1  0.65907200  0.42092900  0.90987300  1
  Cu  Cu101  1  0.57907100  0.34092800  0.09012700  1
  Cu  Cu102  1  0.73883100  0.49027300  0.50035100  1
  Cu  Cu103  1  0.50972700  0.26116900  0.49964900  1
  Cu  Cu104  1  0.26116900  0.50972700  0.49964900  1
  Cu  Cu105  1  0.49027300  0.73883100  0.50035100  1
  Cu  Cu106  1  0.34092800  0.57907100  0.09012700  1
  Cu  Cu107  1  0.42092900  0.65907200  0.90987300  1
  Cu  Cu108  1  0.29729900  0.71056800  0.65593400  1
  Cu  Cu109  1  0.28943200  0.70270100  0.34406600  1
  Cu  Cu110  1  0.45669200  0.87435300  0.05263800  1
  Cu  Cu111  1  0.12564700  0.54330800  0.94736200  1
  Cu  Cu112  1  0.04330800  0.62564700  0.55263800  1
  Cu  Cu113  1  0.37435300  0.95669200  0.44736200  1
  Cu  Cu114  1  0.20270100  0.78943200  0.15593400  1
  Cu  Cu115  1  0.21056800  0.79729900  0.84406600  1
  Cu  Cu116  1  0.07907100  0.84092800  0.40987300  1
  Cu  Cu117  1  0.15907200  0.92092900  0.59012700  1
  Cu  Cu118  1  0.23883100  0.99027300  0.99964900  1
  Cu  Cu119  1  0.00972700  0.76116900  0.00035100  1
