# generated using pymatgen
data_Cu3NiC12
_symmetry_space_group_name_H-M   'P 1'
_cell_length_a   5.16308900
_cell_length_b   5.75137864
_cell_length_c   6.60304503
_cell_angle_alpha   89.22178469
_cell_angle_beta   89.80317524
_cell_angle_gamma   89.81296134
_symmetry_Int_Tables_number   1
_chemical_formula_structural   Cu3NiC12
_chemical_formula_sum   'Cu3 Ni1 C12'
_cell_volume   196.05637046
_cell_formula_units_Z   1
loop_
 _symmetry_equiv_pos_site_id
 _symmetry_equiv_pos_as_xyz
  1  'x, y, z'
loop_
 _atom_site_type_symbol
 _atom_site_label
 _atom_site_symmetry_multiplicity
 _atom_site_fract_x
 _atom_site_fract_y
 _atom_site_fract_z
 _atom_site_occupancy
  C  C0  1  0.00392600  0.08481200  0.38770500  1
  C  C1  1  0.50623600  0.42626400  0.86671400  1
  C  C2  1  0.00321700  0.56268600  0.12547500  1
  C  C3  1  0.50565500  0.90612100  0.62270900  1
  Ni  Ni4  1  0.49454000  0.91543900  0.12345400  1
  Cu  Cu5  1  0.02536600  0.09813500  0.84968100  1
  Cu  Cu6  1  0.48798500  0.42557400  0.39476200  1
  Cu  Cu7  1  0.00663500  0.58477300  0.62755300  1
  C  C8  1  0.61179800  0.07518400  0.88843300  1
  C  C9  1  0.60672900  0.07465300  0.35482300  1
  C  C10  1  0.12020200  0.42557600  0.86938100  1
  C  C11  1  0.10439600  0.41668000  0.38772400  1
  C  C12  1  0.63719200  0.58514700  0.62608600  1
  C  C13  1  0.61065600  0.60366600  0.12478900  1
  C  C14  1  0.12137300  0.89856000  0.62382200  1
  C  C15  1  0.12769700  0.91672800  0.12688700  1
