# generated using pymatgen
data_Cu3NiC
_symmetry_space_group_name_H-M   'P 1'
_cell_length_a   4.72617300
_cell_length_b   6.57345200
_cell_length_c   6.81280600
_cell_angle_alpha   90.00000000
_cell_angle_beta   90.00000000
_cell_angle_gamma   90.00000000
_symmetry_Int_Tables_number   1
_chemical_formula_structural   Cu3NiC
_chemical_formula_sum   'Cu6 Ni2 C2'
_cell_volume   211.65529272
_cell_formula_units_Z   2
loop_
 _symmetry_equiv_pos_site_id
 _symmetry_equiv_pos_as_xyz
  1  'x, y, z'
loop_
 _atom_site_type_symbol
 _atom_site_label
 _atom_site_symmetry_multiplicity
 _atom_site_fract_x
 _atom_site_fract_y
 _atom_site_fract_z
 _atom_site_occupancy
  C  C0  1  0.00269600  0.00000000  0.48853900  1
  C  C1  1  0.99730400  0.50000000  0.98853900  1
  Ni  Ni2  1  0.46927100  0.00000000  0.02997600  1
  Ni  Ni3  1  0.53072900  0.50000000  0.52997600  1
  Cu  Cu4  1  0.52035600  0.81571600  0.15736700  1
  Cu  Cu5  1  0.52035600  0.18428400  0.15736700  1
  Cu  Cu6  1  0.84328800  0.50000000  0.47975400  1
  Cu  Cu7  1  0.47964400  0.68428400  0.65736700  1
  Cu  Cu8  1  0.47964400  0.31571600  0.65736700  1
  Cu  Cu9  1  0.15671200  0.00000000  0.97975400  1
