# generated using pymatgen
data_Cu3NiC3
_symmetry_space_group_name_H-M   'P 1'
_cell_length_a   5.07327500
_cell_length_b   10.98858100
_cell_length_c   6.26763200
_cell_angle_alpha   90.00003393
_cell_angle_beta   89.99988868
_cell_angle_gamma   90.00226083
_symmetry_Int_Tables_number   1
_chemical_formula_structural   Cu3NiC3
_chemical_formula_sum   'Cu12 Ni4 C12'
_cell_volume   349.40853320
_cell_formula_units_Z   4
loop_
 _symmetry_equiv_pos_site_id
 _symmetry_equiv_pos_as_xyz
  1  'x, y, z'
loop_
 _atom_site_type_symbol
 _atom_site_label
 _atom_site_symmetry_multiplicity
 _atom_site_fract_x
 _atom_site_fract_y
 _atom_site_fract_z
 _atom_site_occupancy
  C  C0  1  0.05987300  0.59124300  0.25000500  1
  C  C1  1  0.44016800  0.09124400  0.25000400  1
  C  C2  1  0.55982700  0.90874800  0.75000400  1
  C  C3  1  0.94012000  0.40875600  0.75000400  1
  C  C4  1  0.50000000  0.50000000  0.50000800  1
  C  C5  1  0.50000000  0.50000200  0.99999800  1
  C  C6  1  0.54314800  0.20960800  0.75001100  1
  C  C7  1  0.45685700  0.79039500  0.25001100  1
  C  C8  1  0.00006900  0.00000600  0.99994800  1
  C  C9  1  0.99997400  0.00001000  0.49996500  1
  C  C10  1  0.95672900  0.70967300  0.75001100  1
  C  C11  1  0.04327600  0.29033500  0.25001100  1
  Ni  Ni12  1  0.26325400  0.44324800  0.25000300  1
  Ni  Ni13  1  0.23673200  0.94325400  0.24999100  1
  Ni  Ni14  1  0.76324100  0.05674500  0.74999300  1
  Ni  Ni15  1  0.73675000  0.55675900  0.75000300  1
  Cu  Cu16  1  0.19786000  0.88851300  0.74999200  1
  Cu  Cu17  1  0.30211600  0.38849100  0.75000400  1
  Cu  Cu18  1  0.69788100  0.61150400  0.25000300  1
  Cu  Cu19  1  0.80215000  0.11148300  0.24999500  1
  Cu  Cu20  1  0.23119600  0.67105600  0.01432400  1
  Cu  Cu21  1  0.23119700  0.67105600  0.48568800  1
  Cu  Cu22  1  0.26876800  0.17101400  0.01435100  1
  Cu  Cu23  1  0.26876800  0.17101500  0.48565800  1
  Cu  Cu24  1  0.73122500  0.82898300  0.51435700  1
  Cu  Cu25  1  0.73122600  0.82898200  0.98564900  1
  Cu  Cu26  1  0.76879500  0.32894000  0.51432400  1
  Cu  Cu27  1  0.76879800  0.32893900  0.98568600  1
