# generated using pymatgen
data_CuNiC17
_symmetry_space_group_name_H-M   'P 1'
_cell_length_a   8.90585756
_cell_length_b   8.28003076
_cell_length_c   8.44695687
_cell_angle_alpha   59.61404903
_cell_angle_beta   63.90403484
_cell_angle_gamma   90.18768019
_symmetry_Int_Tables_number   1
_chemical_formula_structural   CuNiC17
_chemical_formula_sum   'Cu2 Ni2 C34'
_cell_volume   461.60144418
_cell_formula_units_Z   2
loop_
 _symmetry_equiv_pos_site_id
 _symmetry_equiv_pos_as_xyz
  1  'x, y, z'
loop_
 _atom_site_type_symbol
 _atom_site_label
 _atom_site_symmetry_multiplicity
 _atom_site_fract_x
 _atom_site_fract_y
 _atom_site_fract_z
 _atom_site_occupancy
  C  C0  1  0.14615400  0.33764500  0.93490600  1
  C  C1  1  0.86429000  0.67709100  0.06367900  1
  C  C2  1  0.87589000  0.92526500  0.38306900  1
  C  C3  1  0.86873200  0.24873200  0.81395900  1
  Ni  Ni4  1  0.56133400  0.86327100  0.29166000  1
  Ni  Ni5  1  0.43404200  0.13613200  0.71002800  1
  Cu  Cu6  1  0.04935500  0.34905400  0.31121500  1
  Cu  Cu7  1  0.96075900  0.65659300  0.69150100  1
  C  C8  1  0.24731800  0.04538500  0.21574800  1
  C  C9  1  0.25641400  0.46446100  0.49876900  1
  C  C10  1  0.25211200  0.75055900  0.79468700  1
  C  C11  1  0.75370900  0.25382800  0.20216800  1
  C  C12  1  0.74717800  0.52932600  0.50357100  1
  C  C13  1  0.74965100  0.95872300  0.77873400  1
  C  C14  1  0.10031900  0.84447300  0.38199400  1
  C  C15  1  0.25456700  0.13656100  0.00404300  1
  C  C16  1  0.18495200  0.18083100  0.29865600  1
  C  C17  1  0.18890400  0.48242800  0.35192600  1
  C  C18  1  0.10364000  0.46880600  0.68918900  1
  C  C19  1  0.09689900  0.77670900  0.74077900  1
  C  C20  1  0.42222200  0.02629000  0.20003700  1
  C  C21  1  0.27954400  0.26198500  0.61283000  1
  C  C22  1  0.42271700  0.62974700  0.36863000  1
  C  C23  1  0.17913200  0.53401600  0.99449400  1
  C  C24  1  0.25866800  0.88965700  0.86090100  1
  C  C25  1  0.41634900  0.77779400  0.61123700  1
  C  C26  1  0.58892600  0.21397300  0.39168000  1
  C  C27  1  0.74040500  0.11860000  0.12657900  1
  C  C28  1  0.81528400  0.47106400  0.00642300  1
  C  C29  1  0.57512000  0.37234300  0.64018400  1
  C  C30  1  0.73407800  0.74039600  0.38411900  1
  C  C31  1  0.57120700  0.97367100  0.80487400  1
  C  C32  1  0.90989500  0.21331200  0.24570400  1
  C  C33  1  0.88657600  0.51161300  0.32000500  1
  C  C34  1  0.82116100  0.51272300  0.64796500  1
  C  C35  1  0.81519000  0.83654700  0.68130800  1
  C  C36  1  0.74640300  0.87005000  0.98920400  1
  C  C37  1  0.88719900  0.16891100  0.62129000  1
