# generated using pymatgen
data_Cu12Ni2C13
_symmetry_space_group_name_H-M   'P 1'
_cell_length_a   10.31500200
_cell_length_b   10.31500200
_cell_length_c   10.31500200
_cell_angle_alpha   90.00000000
_cell_angle_beta   90.00000000
_cell_angle_gamma   90.00000000
_symmetry_Int_Tables_number   1
_chemical_formula_structural   Cu12Ni2C13
_chemical_formula_sum   'Cu48 Ni8 C52'
_cell_volume   1097.50864427
_cell_formula_units_Z   4
loop_
 _symmetry_equiv_pos_site_id
 _symmetry_equiv_pos_as_xyz
  1  'x, y, z'
loop_
 _atom_site_type_symbol
 _atom_site_label
 _atom_site_symmetry_multiplicity
 _atom_site_fract_x
 _atom_site_fract_y
 _atom_site_fract_z
 _atom_site_occupancy
  C  C0  1  0.58343100  0.41656900  0.91656900  1
  C  C1  1  0.65648000  0.84352000  0.15648000  1
  C  C2  1  0.84352000  0.15648000  0.65648000  1
  C  C3  1  0.91656900  0.58343100  0.41656900  1
  C  C4  1  0.08343100  0.08343100  0.08343100  1
  C  C5  1  0.15648000  0.65648000  0.84352000  1
  C  C6  1  0.34352000  0.34352000  0.34352000  1
  C  C7  1  0.41656900  0.91656900  0.58343100  1
  C  C8  1  0.50866600  0.50866600  0.50866600  1
  C  C9  1  0.52431600  0.57634400  0.65725400  1
  C  C10  1  0.57634400  0.65725400  0.52431600  1
  C  C11  1  0.65725400  0.52431600  0.57634400  1
  C  C12  1  0.64428600  0.14428600  0.35571400  1
  C  C13  1  0.65712100  0.21356900  0.20970800  1
  C  C14  1  0.71356900  0.29029200  0.34287900  1
  C  C15  1  0.70970800  0.84287900  0.78643100  1
  C  C16  1  0.79029200  0.15712100  0.28643100  1
  C  C17  1  0.78643100  0.70970800  0.84287900  1
  C  C18  1  0.84287900  0.78643100  0.70970800  1
  C  C19  1  0.85571400  0.85571400  0.85571400  1
  C  C20  1  0.84274600  0.47568400  0.07634400  1
  C  C21  1  0.92365600  0.34274600  0.02431600  1
  C  C22  1  0.97568400  0.42365600  0.15725400  1
  C  C23  1  0.99133400  0.49133400  0.00866600  1
  C  C24  1  0.00866600  0.99133400  0.49133400  1
  C  C25  1  0.02431600  0.92365600  0.34274600  1
  C  C26  1  0.07634400  0.84274600  0.47568400  1
  C  C27  1  0.15725400  0.97568400  0.42365600  1
  C  C28  1  0.14428600  0.35571400  0.64428600  1
  C  C29  1  0.15712100  0.28643100  0.79029200  1
  C  C30  1  0.21356900  0.20970800  0.65712100  1
  C  C31  1  0.20970800  0.65712100  0.21356900  1
  C  C32  1  0.29029200  0.34287900  0.71356900  1
  C  C33  1  0.28643100  0.79029200  0.15712100  1
  C  C34  1  0.34287900  0.71356900  0.29029200  1
  C  C35  1  0.35571400  0.64428600  0.14428600  1
  C  C36  1  0.34274600  0.02431600  0.92365600  1
  C  C37  1  0.42365600  0.15725400  0.97568400  1
  C  C38  1  0.47568400  0.07634400  0.84274600  1
  C  C39  1  0.49133400  0.00866600  0.99133400  1
  C  C40  1  0.53103900  0.23646500  0.62536300  1
  C  C41  1  0.62536300  0.53103900  0.23646500  1
  C  C42  1  0.73646500  0.87463700  0.46896100  1
  C  C43  1  0.76353500  0.12536300  0.96896100  1
  C  C44  1  0.87463700  0.46896100  0.73646500  1
  C  C45  1  0.96896100  0.76353500  0.12536300  1
  C  C46  1  0.03103900  0.26353500  0.37463700  1
  C  C47  1  0.12536300  0.96896100  0.76353500  1
  C  C48  1  0.23646500  0.62536300  0.53103900  1
  C  C49  1  0.26353500  0.37463700  0.03103900  1
  C  C50  1  0.37463700  0.03103900  0.26353500  1
  C  C51  1  0.46896100  0.73646500  0.87463700  1
  Ni  Ni52  1  0.56629800  0.56629800  0.56629800  1
  Ni  Ni53  1  0.70164200  0.20164200  0.29835800  1
  Ni  Ni54  1  0.79835800  0.79835800  0.79835800  1
  Ni  Ni55  1  0.93370200  0.43370200  0.06629800  1
  Ni  Ni56  1  0.06629800  0.93370200  0.43370200  1
  Ni  Ni57  1  0.20164200  0.29835800  0.70164200  1
  Ni  Ni58  1  0.29835800  0.70164200  0.20164200  1
  Ni  Ni59  1  0.43370200  0.06629800  0.93370200  1
  Cu  Cu60  1  0.50037400  0.59837900  0.84589700  1
  Cu  Cu61  1  0.50879700  0.31367400  0.74551900  1
  Cu  Cu62  1  0.52295100  0.44431800  0.28828100  1
  Cu  Cu63  1  0.55568200  0.78828100  0.97704900  1
  Cu  Cu64  1  0.58130900  0.66823800  0.24840900  1
  Cu  Cu65  1  0.59837900  0.84589700  0.50037400  1
  Cu  Cu66  1  0.65410300  0.49962600  0.09837900  1
  Cu  Cu67  1  0.66823800  0.24840900  0.58130900  1
  Cu  Cu68  1  0.68632600  0.24551900  0.99120300  1
  Cu  Cu69  1  0.71171900  0.02295100  0.05568200  1
  Cu  Cu70  1  0.74551900  0.50879700  0.31367400  1
  Cu  Cu71  1  0.74840900  0.91869100  0.33176200  1
  Cu  Cu72  1  0.75159100  0.08130900  0.83176200  1
  Cu  Cu73  1  0.75448100  0.49120300  0.81367400  1
  Cu  Cu74  1  0.78828100  0.97704900  0.55568200  1
  Cu  Cu75  1  0.81367400  0.75448100  0.49120300  1
  Cu  Cu76  1  0.83176200  0.75159100  0.08130900  1
  Cu  Cu77  1  0.84589700  0.50037400  0.59837900  1
  Cu  Cu78  1  0.90162100  0.15410300  0.00037400  1
  Cu  Cu79  1  0.91869100  0.33176200  0.74840900  1
  Cu  Cu80  1  0.94431800  0.21171900  0.47704900  1
  Cu  Cu81  1  0.97704900  0.55568200  0.78828100  1
  Cu  Cu82  1  0.99120300  0.68632600  0.24551900  1
  Cu  Cu83  1  0.99962600  0.40162100  0.34589700  1
  Cu  Cu84  1  0.00037400  0.90162100  0.15410300  1
  Cu  Cu85  1  0.00879700  0.18632600  0.25448100  1
  Cu  Cu86  1  0.02295100  0.05568200  0.71171900  1
  Cu  Cu87  1  0.05568200  0.71171900  0.02295100  1
  Cu  Cu88  1  0.08130900  0.83176200  0.75159100  1
  Cu  Cu89  1  0.09837900  0.65410300  0.49962600  1
  Cu  Cu90  1  0.15410300  0.00037400  0.90162100  1
  Cu  Cu91  1  0.16823800  0.25159100  0.41869100  1
  Cu  Cu92  1  0.18632600  0.25448100  0.00879700  1
  Cu  Cu93  1  0.21171900  0.47704900  0.94431800  1
  Cu  Cu94  1  0.24551900  0.99120300  0.68632600  1
  Cu  Cu95  1  0.24840900  0.58130900  0.66823800  1
  Cu  Cu96  1  0.25159100  0.41869100  0.16823800  1
  Cu  Cu97  1  0.25448100  0.00879700  0.18632600  1
  Cu  Cu98  1  0.28828100  0.52295100  0.44431800  1
  Cu  Cu99  1  0.31367400  0.74551900  0.50879700  1
  Cu  Cu100  1  0.33176200  0.74840900  0.91869100  1
  Cu  Cu101  1  0.34589700  0.99962600  0.40162100  1
  Cu  Cu102  1  0.40162100  0.34589700  0.99962600  1
  Cu  Cu103  1  0.41869100  0.16823800  0.25159100  1
  Cu  Cu104  1  0.44431800  0.28828100  0.52295100  1
  Cu  Cu105  1  0.47704900  0.94431800  0.21171900  1
  Cu  Cu106  1  0.49120300  0.81367400  0.75448100  1
  Cu  Cu107  1  0.49962600  0.09837900  0.65410300  1
