# generated using pymatgen
data_Cu2Ni8C7
_symmetry_space_group_name_H-M   'P 1'
_cell_length_a   10.94536900
_cell_length_b   6.46183800
_cell_length_c   10.58411781
_cell_angle_alpha   89.81560936
_cell_angle_beta   90.00000000
_cell_angle_gamma   90.00000000
_symmetry_Int_Tables_number   1
_chemical_formula_structural   Cu2Ni8C7
_chemical_formula_sum   'Cu8 Ni32 C28'
_cell_volume   748.58115467
_cell_formula_units_Z   4
loop_
 _symmetry_equiv_pos_site_id
 _symmetry_equiv_pos_as_xyz
  1  'x, y, z'
loop_
 _atom_site_type_symbol
 _atom_site_label
 _atom_site_symmetry_multiplicity
 _atom_site_fract_x
 _atom_site_fract_y
 _atom_site_fract_z
 _atom_site_occupancy
  C  C0  1  0.97592600  0.25119200  0.03930700  1
  C  C1  1  0.02407400  0.25119200  0.53930700  1
  C  C2  1  0.65379300  0.27117500  0.27292400  1
  C  C3  1  0.34620700  0.27117500  0.77292400  1
  C  C4  1  0.74533000  0.50038800  0.50483700  1
  C  C5  1  0.25529000  0.49872300  0.48981800  1
  C  C6  1  0.74471000  0.49872300  0.98981800  1
  C  C7  1  0.25467000  0.50038800  0.00483700  1
  C  C8  1  0.91882900  0.50565700  0.23286900  1
  C  C9  1  0.08117100  0.50565700  0.73286900  1
  C  C10  1  0.16169400  0.73456200  0.22554000  1
  C  C11  1  0.83830600  0.73456200  0.72554000  1
  C  C12  1  0.47831400  0.73032000  0.46162700  1
  C  C13  1  0.52168600  0.73032000  0.96162700  1
  C  C14  1  0.41735300  0.96898200  0.24521000  1
  C  C15  1  0.58264700  0.96898200  0.74521000  1
  C  C16  1  0.75329500  0.00743600  0.49733800  1
  C  C17  1  0.24865700  0.00725000  0.49752100  1
  C  C18  1  0.75134300  0.00725000  0.99752100  1
  C  C19  1  0.24670500  0.00743600  0.99733800  1
  C  C20  1  0.50719800  0.24536900  0.03301800  1
  C  C21  1  0.49280200  0.24536900  0.53301800  1
  C  C22  1  0.16731600  0.26556900  0.23950300  1
  C  C23  1  0.83268400  0.26556900  0.73950300  1
  C  C24  1  0.67138200  0.74620600  0.25754900  1
  C  C25  1  0.32861800  0.74620600  0.75754900  1
  C  C26  1  0.00847600  0.73574800  0.47050900  1
  C  C27  1  0.99152400  0.73574800  0.97050900  1
  Ni  Ni28  1  0.41744700  0.06330500  0.46343500  1
  Ni  Ni29  1  0.58255300  0.06330500  0.96343500  1
  Ni  Ni30  1  0.23042000  0.06685100  0.17354100  1
  Ni  Ni31  1  0.76958000  0.06685100  0.67354100  1
  Ni  Ni32  1  0.19977500  0.23796100  0.38399500  1
  Ni  Ni33  1  0.80022500  0.23796100  0.88399500  1
  Ni  Ni34  1  0.62628800  0.23008500  0.47535100  1
  Ni  Ni35  1  0.37371200  0.23008500  0.97535100  1
  Ni  Ni36  1  0.50671400  0.19862800  0.17384800  1
  Ni  Ni37  1  0.49328600  0.19862800  0.67384800  1
  Ni  Ni38  1  0.03017600  0.25623800  0.21919500  1
  Ni  Ni39  1  0.96982400  0.25623800  0.71919500  1
  Ni  Ni40  1  0.43605200  0.44968200  0.49544200  1
  Ni  Ni41  1  0.56394800  0.44968200  0.99544200  1
  Ni  Ni42  1  0.22823400  0.45985800  0.18882700  1
  Ni  Ni43  1  0.77176600  0.45985800  0.68882700  1
  Ni  Ni44  1  0.73469100  0.54797900  0.30323800  1
  Ni  Ni45  1  0.26530900  0.54797900  0.80323800  1
  Ni  Ni46  1  0.93280700  0.55374600  0.04121500  1
  Ni  Ni47  1  0.06719300  0.55374600  0.54121500  1
  Ni  Ni48  1  0.53545500  0.75406000  0.28422700  1
  Ni  Ni49  1  0.46454500  0.75406000  0.78422700  1
  Ni  Ni50  1  0.01051100  0.71395500  0.32803400  1
  Ni  Ni51  1  0.98948900  0.71395500  0.82803400  1
  Ni  Ni52  1  0.12459200  0.77480800  0.02231100  1
  Ni  Ni53  1  0.87540800  0.77480800  0.52231100  1
  Ni  Ni54  1  0.70140800  0.78346400  0.11470400  1
  Ni  Ni55  1  0.29859200  0.78346400  0.61470400  1
  Ni  Ni56  1  0.73255100  0.93784500  0.33008600  1
  Ni  Ni57  1  0.26744900  0.93784500  0.83008600  1
  Ni  Ni58  1  0.91716400  0.93886800  0.00971800  1
  Ni  Ni59  1  0.08283600  0.93886800  0.50971800  1
  Cu  Cu60  1  0.86572700  0.22551900  0.46133800  1
  Cu  Cu61  1  0.13427300  0.22551900  0.96133800  1
  Cu  Cu62  1  0.76460400  0.21951900  0.12158400  1
  Cu  Cu63  1  0.23539600  0.21951900  0.62158400  1
  Cu  Cu64  1  0.27171400  0.79116700  0.37185400  1
  Cu  Cu65  1  0.72828600  0.79116700  0.87185400  1
  Cu  Cu66  1  0.36673500  0.80302300  0.04883200  1
  Cu  Cu67  1  0.63326500  0.80302300  0.54883200  1
