# generated using pymatgen
data_Cu(NiC6)5
_symmetry_space_group_name_H-M   'P 1'
_cell_length_a   8.43919984
_cell_length_b   8.43920020
_cell_length_c   8.43920113
_cell_angle_alpha   63.42341131
_cell_angle_beta   63.42341016
_cell_angle_gamma   63.42341036
_symmetry_Int_Tables_number   1
_chemical_formula_structural   Cu(NiC6)5
_chemical_formula_sum   'Cu1 Ni5 C30'
_cell_volume   457.19341955
_cell_formula_units_Z   1
loop_
 _symmetry_equiv_pos_site_id
 _symmetry_equiv_pos_as_xyz
  1  'x, y, z'
loop_
 _atom_site_type_symbol
 _atom_site_label
 _atom_site_symmetry_multiplicity
 _atom_site_fract_x
 _atom_site_fract_y
 _atom_site_fract_z
 _atom_site_occupancy
  Ni  Ni0  1  0.99368400  0.99368400  0.99368400  1
  Ni  Ni1  1  0.49814000  0.49814000  0.49814000  1
  Ni  Ni2  1  0.14059300  0.14059300  0.14059300  1
  Ni  Ni3  1  0.36177300  0.36177300  0.36177300  1
  Ni  Ni4  1  0.64091300  0.64091300  0.64091300  1
  Cu  Cu5  1  0.86339300  0.86339300  0.86339300  1
  C  C6  1  0.04271000  0.75259300  0.45337100  1
  C  C7  1  0.45337100  0.04271000  0.75259300  1
  C  C8  1  0.25955300  0.53308600  0.95813800  1
  C  C9  1  0.53308600  0.95813800  0.25955300  1
  C  C10  1  0.95813800  0.25955300  0.53308600  1
  C  C11  1  0.75259300  0.45337100  0.04271000  1
  C  C12  1  0.11293700  0.32995400  0.49472100  1
  C  C13  1  0.32995400  0.49472100  0.11293700  1
  C  C14  1  0.05668700  0.90261300  0.25625000  1
  C  C15  1  0.49472100  0.11293700  0.32995400  1
  C  C16  1  0.00791600  0.82488800  0.60686200  1
  C  C17  1  0.23970400  0.59973500  0.44015900  1
  C  C18  1  0.25625000  0.05668700  0.90261300  1
  C  C19  1  0.44015900  0.23970400  0.59973500  1
  C  C20  1  0.18201000  0.38349000  0.99588200  1
  C  C21  1  0.59973500  0.44015900  0.23970400  1
  C  C22  1  0.10797900  0.73138600  0.94331100  1
  C  C23  1  0.38349000  0.99588200  0.18201000  1
  C  C24  1  0.60686200  0.00791600  0.82488800  1
  C  C25  1  0.90261300  0.25625000  0.05668700  1
  C  C26  1  0.40873900  0.55066100  0.76008900  1
  C  C27  1  0.82488800  0.60686200  0.00791600  1
  C  C28  1  0.55066100  0.76008900  0.40873900  1
  C  C29  1  0.73138600  0.94331100  0.10797900  1
  C  C30  1  0.76008900  0.40873900  0.55066100  1
  C  C31  1  0.99588200  0.18201000  0.38349000  1
  C  C32  1  0.50016300  0.88526100  0.68065400  1
  C  C33  1  0.94331100  0.10797900  0.73138600  1
  C  C34  1  0.68065400  0.50016300  0.88526100  1
  C  C35  1  0.88526100  0.68065400  0.50016300  1
