# generated using pymatgen
data_Cu5Ni3C20
_symmetry_space_group_name_H-M   'P 1'
_cell_length_a   5.91596945
_cell_length_b   5.91596945
_cell_length_c   9.72643304
_cell_angle_alpha   87.82038687
_cell_angle_beta   87.82038687
_cell_angle_gamma   60.40236138
_symmetry_Int_Tables_number   1
_chemical_formula_structural   Cu5Ni3C20
_chemical_formula_sum   'Cu5 Ni3 C20'
_cell_volume   295.70710592
_cell_formula_units_Z   1
loop_
 _symmetry_equiv_pos_site_id
 _symmetry_equiv_pos_as_xyz
  1  'x, y, z'
loop_
 _atom_site_type_symbol
 _atom_site_label
 _atom_site_symmetry_multiplicity
 _atom_site_fract_x
 _atom_site_fract_y
 _atom_site_fract_z
 _atom_site_occupancy
  C  C0  1  0.67511200  0.67511200  0.10680500  1
  C  C1  1  0.98998700  0.98998700  0.00433900  1
  C  C2  1  0.98684700  0.98684700  0.50392500  1
  C  C3  1  0.33723500  0.33723500  0.60687200  1
  Ni  Ni4  1  0.33822600  0.83744200  0.78349900  1
  Ni  Ni5  1  0.83744200  0.33822600  0.78349900  1
  Ni  Ni6  1  0.17030800  0.17030800  0.28902400  1
  Cu  Cu7  1  0.66676100  0.66676100  0.51073400  1
  Cu  Cu8  1  0.83050900  0.83050900  0.79035300  1
  Cu  Cu9  1  0.33980200  0.33980200  0.01304900  1
  Cu  Cu10  1  0.17426800  0.66359500  0.28393600  1
  Cu  Cu11  1  0.66359500  0.17426800  0.28393600  1
  C  C12  1  0.31185000  0.83996400  0.39343500  1
  C  C13  1  0.51905000  0.51905000  0.66716900  1
  C  C14  1  0.66456600  0.66456600  0.89336000  1
  C  C15  1  0.99643000  0.99643000  0.69013200  1
  C  C16  1  0.00224400  0.00224400  0.18946900  1
  C  C17  1  0.83996400  0.31185000  0.39343500  1
  C  C18  1  0.50583900  0.96861400  0.66341600  1
  C  C19  1  0.96861400  0.50583900  0.66341600  1
  C  C20  1  0.15353100  0.15353100  0.89312600  1
  C  C21  1  0.83297200  0.83297200  0.39163500  1
  C  C22  1  0.04909600  0.48448000  0.16300100  1
  C  C23  1  0.48448000  0.04909600  0.16300100  1
  C  C24  1  0.33033000  0.33033000  0.39296700  1
  C  C25  1  0.17235100  0.66667300  0.90223600  1
  C  C26  1  0.49168400  0.49168400  0.17014900  1
  C  C27  1  0.66667300  0.17235100  0.90223600  1
