# generated using pymatgen
data_Cu3NiC5
_symmetry_space_group_name_H-M   'P 1'
_cell_length_a   9.29857510
_cell_length_b   9.29857510
_cell_length_c   14.09534700
_cell_angle_alpha   90.00000000
_cell_angle_beta   90.00000000
_cell_angle_gamma   119.99999362
_symmetry_Int_Tables_number   1
_chemical_formula_structural   Cu3NiC5
_chemical_formula_sum   'Cu24 Ni8 C40'
_cell_volume   1055.45382414
_cell_formula_units_Z   8
loop_
 _symmetry_equiv_pos_site_id
 _symmetry_equiv_pos_as_xyz
  1  'x, y, z'
loop_
 _atom_site_type_symbol
 _atom_site_label
 _atom_site_symmetry_multiplicity
 _atom_site_fract_x
 _atom_site_fract_y
 _atom_site_fract_z
 _atom_site_occupancy
  C  C0  1  0.66666700  0.33333300  0.89037800  1
  C  C1  1  0.33333300  0.66666700  0.10962200  1
  C  C2  1  0.84882700  0.29793100  0.70156600  1
  C  C3  1  0.44910400  0.15117300  0.70156600  1
  C  C4  1  0.70206900  0.55089600  0.70156600  1
  C  C5  1  0.15117300  0.70206900  0.29843400  1
  C  C6  1  0.55089600  0.84882700  0.29843400  1
  C  C7  1  0.29793100  0.44910400  0.29843400  1
  Ni  Ni8  1  0.63309500  0.05796700  0.81108600  1
  Ni  Ni9  1  0.42487200  0.36690500  0.81108600  1
  Ni  Ni10  1  0.94203300  0.57512800  0.81108600  1
  Ni  Ni11  1  0.36690500  0.94203300  0.18891400  1
  Ni  Ni12  1  0.57512800  0.63309500  0.18891400  1
  Ni  Ni13  1  0.05796700  0.42487200  0.18891400  1
  Ni  Ni14  1  0.66666700  0.33333300  0.56645500  1
  Ni  Ni15  1  0.33333300  0.66666700  0.43354500  1
  Cu  Cu16  1  0.81371600  0.31243900  0.96720200  1
  Cu  Cu17  1  0.49872300  0.18628400  0.96720200  1
  Cu  Cu18  1  0.68756100  0.50127700  0.96720200  1
  Cu  Cu19  1  0.18628400  0.68756100  0.03279800  1
  Cu  Cu20  1  0.50127700  0.81371600  0.03279800  1
  Cu  Cu21  1  0.31243900  0.49872300  0.03279800  1
  Cu  Cu22  1  0.00138100  0.27355700  0.77068900  1
  Cu  Cu23  1  0.27217500  0.99861900  0.77068900  1
  Cu  Cu24  1  0.72644300  0.72782500  0.77068900  1
  Cu  Cu25  1  0.99861900  0.72644300  0.22931100  1
  Cu  Cu26  1  0.72782500  0.00138100  0.22931100  1
  Cu  Cu27  1  0.27355700  0.27217500  0.22931100  1
  Cu  Cu28  1  0.81582700  0.11841100  0.63052400  1
  Cu  Cu29  1  0.30258500  0.18417300  0.63052400  1
  Cu  Cu30  1  0.88158900  0.69741500  0.63052400  1
  Cu  Cu31  1  0.18417300  0.88158900  0.36947600  1
  Cu  Cu32  1  0.69741500  0.81582700  0.36947600  1
  Cu  Cu33  1  0.11841100  0.30258500  0.36947600  1
  Cu  Cu34  1  0.01924600  0.43368300  0.62257000  1
  Cu  Cu35  1  0.41443700  0.98075400  0.62257000  1
  Cu  Cu36  1  0.56631700  0.58556300  0.62257000  1
  Cu  Cu37  1  0.98075400  0.56631700  0.37743000  1
  Cu  Cu38  1  0.58556300  0.01924600  0.37743000  1
  Cu  Cu39  1  0.43368300  0.41443700  0.37743000  1
  C  C40  1  0.64058500  0.15997400  0.78706600  1
  C  C41  1  0.51938900  0.35941500  0.78706600  1
  C  C42  1  0.84002600  0.48061100  0.78706600  1
  C  C43  1  0.35941500  0.84002600  0.21293400  1
  C  C44  1  0.48061100  0.64058500  0.21293400  1
  C  C45  1  0.15997400  0.51938900  0.21293400  1
  C  C46  1  0.66666700  0.33333300  0.63583800  1
  C  C47  1  0.33333300  0.66666700  0.36416200  1
  C  C48  1  0.90517400  0.30332100  0.01993300  1
  C  C49  1  0.39814700  0.09482600  0.01993300  1
  C  C50  1  0.69667900  0.60185300  0.01993300  1
  C  C51  1  0.09482600  0.69667900  0.98006700  1
  C  C52  1  0.60185300  0.90517400  0.98006700  1
  C  C53  1  0.30332100  0.39814700  0.98006700  1
  C  C54  1  0.10622600  0.26002400  0.80800400  1
  C  C55  1  0.15379900  0.89377400  0.80800400  1
  C  C56  1  0.73997600  0.84620100  0.80800400  1
  C  C57  1  0.89377400  0.73997600  0.19199600  1
  C  C58  1  0.84620100  0.10622600  0.19199600  1
  C  C59  1  0.26002400  0.15379900  0.19199600  1
  C  C60  1  0.79699800  0.00304100  0.58854300  1
  C  C61  1  0.20604300  0.20300200  0.58854300  1
  C  C62  1  0.99695900  0.79395700  0.58854300  1
  C  C63  1  0.20300200  0.99695900  0.41145700  1
  C  C64  1  0.79395700  0.79699800  0.41145700  1
  C  C65  1  0.00304100  0.20604300  0.41145700  1
  C  C66  1  0.13000800  0.51377800  0.57223400  1
  C  C67  1  0.38377000  0.86999200  0.57223400  1
  C  C68  1  0.48622200  0.61623000  0.57223400  1
  C  C69  1  0.86999200  0.48622200  0.42776600  1
  C  C70  1  0.61623000  0.13000800  0.42776600  1
  C  C71  1  0.51377800  0.38377000  0.42776600  1
