# generated using pymatgen
data_Cu(Ni2C13)2
_symmetry_space_group_name_H-M   'P 1'
_cell_length_a   2.96166000
_cell_length_b   9.14792000
_cell_length_c   24.80830900
_cell_angle_alpha   90.00000000
_cell_angle_beta   90.00000000
_cell_angle_gamma   90.00000000
_symmetry_Int_Tables_number   1
_chemical_formula_structural   Cu(Ni2C13)2
_chemical_formula_sum   'Cu2 Ni8 C52'
_cell_volume   672.13222891
_cell_formula_units_Z   2
loop_
 _symmetry_equiv_pos_site_id
 _symmetry_equiv_pos_as_xyz
  1  'x, y, z'
loop_
 _atom_site_type_symbol
 _atom_site_label
 _atom_site_symmetry_multiplicity
 _atom_site_fract_x
 _atom_site_fract_y
 _atom_site_fract_z
 _atom_site_occupancy
  C  C0  1  0.00000000  0.19184800  0.98822100  1
  C  C1  1  0.00000000  0.20347900  0.18946500  1
  C  C2  1  0.00000000  0.29652100  0.68946500  1
  C  C3  1  0.00000000  0.30815200  0.48822100  1
  C  C4  1  0.00000000  0.69184800  0.51177900  1
  C  C5  1  0.00000000  0.70347900  0.31053500  1
  C  C6  1  0.00000000  0.79652100  0.81053500  1
  C  C7  1  0.00000000  0.80815200  0.01177900  1
  Ni  Ni8  1  0.00000000  0.99679300  0.10190800  1
  Ni  Ni9  1  0.50000000  0.15854700  0.80470300  1
  Ni  Ni10  1  0.50000000  0.34145300  0.30470300  1
  Ni  Ni11  1  0.00000000  0.50320700  0.60190800  1
  Ni  Ni12  1  0.00000000  0.49679300  0.39809200  1
  Ni  Ni13  1  0.50000000  0.65854700  0.69529700  1
  Ni  Ni14  1  0.50000000  0.84145300  0.19529700  1
  Ni  Ni15  1  0.00000000  0.00320700  0.89809200  1
  Cu  Cu16  1  0.00000000  0.00000000  0.50000000  1
  Cu  Cu17  1  0.00000000  0.50000000  0.00000000  1
  C  C18  1  0.00000000  0.00287600  0.31235400  1
  C  C19  1  0.50000000  0.15584000  0.58449000  1
  C  C20  1  0.50000000  0.34416000  0.08449000  1
  C  C21  1  0.00000000  0.49712400  0.81235400  1
  C  C22  1  0.00000000  0.50287600  0.18764600  1
  C  C23  1  0.50000000  0.65584000  0.91551000  1
  C  C24  1  0.50000000  0.84416000  0.41551000  1
  C  C25  1  0.00000000  0.99712400  0.68764600  1
  C  C26  1  0.00000000  0.99175400  0.42323200  1
  C  C27  1  0.00000000  0.00824600  0.57676800  1
  C  C28  1  0.50000000  0.06576100  0.94208800  1
  C  C29  1  0.50000000  0.04225600  0.15810700  1
  C  C30  1  0.50000000  0.12986300  0.66341900  1
  C  C31  1  0.00000000  0.10767500  0.75487200  1
  C  C32  1  0.50000000  0.14762800  0.50220900  1
  C  C33  1  0.50000000  0.13664400  0.28968300  1
  C  C34  1  0.00000000  0.18898800  0.85473400  1
  C  C35  1  0.00000000  0.19707000  0.08162400  1
  C  C36  1  0.00000000  0.30293000  0.58162400  1
  C  C37  1  0.00000000  0.31101200  0.35473400  1
  C  C38  1  0.50000000  0.36335600  0.78968300  1
  C  C39  1  0.50000000  0.35237200  0.00220900  1
  C  C40  1  0.00000000  0.39232500  0.25487200  1
  C  C41  1  0.50000000  0.37013700  0.16341900  1
  C  C42  1  0.50000000  0.45774400  0.65810700  1
  C  C43  1  0.50000000  0.43423900  0.44208800  1
  C  C44  1  0.00000000  0.49175400  0.07676800  1
  C  C45  1  0.00000000  0.50824600  0.92323200  1
  C  C46  1  0.50000000  0.56576100  0.55791200  1
  C  C47  1  0.50000000  0.54225600  0.34189300  1
  C  C48  1  0.50000000  0.62986300  0.83658100  1
  C  C49  1  0.00000000  0.60767500  0.74512800  1
  C  C50  1  0.50000000  0.64762800  0.99779100  1
  C  C51  1  0.50000000  0.63664400  0.21031700  1
  C  C52  1  0.00000000  0.68898800  0.64526600  1
  C  C53  1  0.00000000  0.69707000  0.41837600  1
  C  C54  1  0.00000000  0.80293000  0.91837600  1
  C  C55  1  0.00000000  0.81101200  0.14526600  1
  C  C56  1  0.50000000  0.86335600  0.71031700  1
  C  C57  1  0.50000000  0.85237200  0.49779100  1
  C  C58  1  0.00000000  0.89232500  0.24512800  1
  C  C59  1  0.50000000  0.87013700  0.33658100  1
  C  C60  1  0.50000000  0.95774400  0.84189300  1
  C  C61  1  0.50000000  0.93423900  0.05791200  1
