# generated using pymatgen
data_Cu13(NiC6)2
_symmetry_space_group_name_H-M   'P 1'
_cell_length_a   7.23028900
_cell_length_b   11.17431300
_cell_length_c   15.69823811
_cell_angle_alpha   54.70976453
_cell_angle_beta   90.00000000
_cell_angle_gamma   90.00000000
_symmetry_Int_Tables_number   1
_chemical_formula_structural   Cu13(NiC6)2
_chemical_formula_sum   'Cu52 Ni8 C48'
_cell_volume   1035.24508532
_cell_formula_units_Z   4
loop_
 _symmetry_equiv_pos_site_id
 _symmetry_equiv_pos_as_xyz
  1  'x, y, z'
loop_
 _atom_site_type_symbol
 _atom_site_label
 _atom_site_symmetry_multiplicity
 _atom_site_fract_x
 _atom_site_fract_y
 _atom_site_fract_z
 _atom_site_occupancy
  C  C0  1  0.57324700  0.07960600  0.88682100  1
  C  C1  1  0.07324700  0.92039400  0.61317900  1
  C  C2  1  0.42675300  0.92039400  0.11317900  1
  C  C3  1  0.92675300  0.07960600  0.38682100  1
  C  C4  1  0.91725600  0.05222000  0.55890100  1
  C  C5  1  0.41725600  0.94778000  0.94109900  1
  C  C6  1  0.08274400  0.94778000  0.44109900  1
  C  C7  1  0.58274400  0.05222000  0.05890100  1
  C  C8  1  0.91065100  0.92650200  0.69077800  1
  C  C9  1  0.41065100  0.07349800  0.80922200  1
  C  C10  1  0.08934900  0.07349800  0.30922200  1
  C  C11  1  0.58934900  0.92650200  0.19077800  1
  C  C12  1  0.64973500  0.86755600  0.76688300  1
  C  C13  1  0.14973500  0.13244400  0.73311700  1
  C  C14  1  0.35026500  0.13244400  0.23311700  1
  C  C15  1  0.85026500  0.86755600  0.26688300  1
  C  C16  1  0.80147000  0.91484000  0.81450100  1
  C  C17  1  0.30147000  0.08516000  0.68549900  1
  C  C18  1  0.19853000  0.08516000  0.18549900  1
  C  C19  1  0.69853000  0.91484000  0.31450100  1
  C  C20  1  0.82140900  0.67016600  0.87112300  1
  C  C21  1  0.32140900  0.32983400  0.62887700  1
  C  C22  1  0.17859100  0.32983400  0.12887700  1
  C  C23  1  0.67859100  0.67016600  0.37112300  1
  C  C24  1  0.76316800  0.50860100  0.88859800  1
  C  C25  1  0.26316800  0.49139900  0.61140200  1
  C  C26  1  0.23683200  0.49139900  0.11140200  1
  C  C27  1  0.73683200  0.50860100  0.38859800  1
  C  C28  1  0.98431100  0.57637700  0.86895000  1
  C  C29  1  0.48431100  0.42362300  0.63105000  1
  C  C30  1  0.01568900  0.42362300  0.13105000  1
  C  C31  1  0.51568900  0.57637700  0.36895000  1
  C  C32  1  0.59360400  0.49317800  0.79253900  1
  C  C33  1  0.09360400  0.50682200  0.70746100  1
  C  C34  1  0.40639600  0.50682200  0.20746100  1
  C  C35  1  0.90639600  0.49317800  0.29253900  1
  C  C36  1  0.50738500  0.42851400  0.90348500  1
  C  C37  1  0.00738500  0.57148600  0.59651500  1
  C  C38  1  0.49261500  0.57148600  0.09651500  1
  C  C39  1  0.99261500  0.42851400  0.40348500  1
  C  C40  1  0.66785700  0.24712500  0.91795900  1
  C  C41  1  0.16785700  0.75287500  0.58204100  1
  C  C42  1  0.33214300  0.75287500  0.08204100  1
  C  C43  1  0.83214300  0.24712500  0.41795900  1
  C  C44  1  0.81493100  0.11854200  0.96246400  1
  C  C45  1  0.31493100  0.88145800  0.53753600  1
  C  C46  1  0.18506900  0.88145800  0.03753600  1
  C  C47  1  0.68506900  0.11854200  0.46246400  1
  Ni  Ni48  1  0.66733900  0.72322700  0.59479200  1
  Ni  Ni49  1  0.16733900  0.27677300  0.90520800  1
  Ni  Ni50  1  0.33266100  0.27677300  0.40520800  1
  Ni  Ni51  1  0.83266100  0.72322700  0.09479200  1
  Ni  Ni52  1  0.80635200  0.25113800  0.67019500  1
  Ni  Ni53  1  0.30635200  0.74886200  0.82980500  1
  Ni  Ni54  1  0.19364800  0.74886200  0.32980500  1
  Ni  Ni55  1  0.69364800  0.25113800  0.17019500  1
  Cu  Cu56  1  0.76147000  0.68194400  0.53318100  1
  Cu  Cu57  1  0.26147000  0.31805600  0.96681900  1
  Cu  Cu58  1  0.23853000  0.31805600  0.46681900  1
  Cu  Cu59  1  0.73853000  0.68194400  0.03318100  1
  Cu  Cu60  1  0.58049800  0.86705800  0.52472900  1
  Cu  Cu61  1  0.08049800  0.13294200  0.97527100  1
  Cu  Cu62  1  0.41950200  0.13294200  0.47527100  1
  Cu  Cu63  1  0.91950200  0.86705800  0.02472900  1
  Cu  Cu64  1  0.52189000  0.61441200  0.65942200  1
  Cu  Cu65  1  0.02189000  0.38558800  0.84057800  1
  Cu  Cu66  1  0.47811000  0.38558800  0.34057800  1
  Cu  Cu67  1  0.97811000  0.61441200  0.15942200  1
  Cu  Cu68  1  0.79871800  0.72682100  0.66352000  1
  Cu  Cu69  1  0.29871800  0.27317900  0.83648000  1
  Cu  Cu70  1  0.20128200  0.27317900  0.33648000  1
  Cu  Cu71  1  0.70128200  0.72682100  0.16352000  1
  Cu  Cu72  1  0.93848700  0.35643700  0.59373700  1
  Cu  Cu73  1  0.43848700  0.64356300  0.90626300  1
  Cu  Cu74  1  0.06151300  0.64356300  0.40626300  1
  Cu  Cu75  1  0.56151300  0.35643700  0.09373700  1
  Cu  Cu76  1  0.90933800  0.12986200  0.76217700  1
  Cu  Cu77  1  0.40933800  0.87013800  0.73782300  1
  Cu  Cu78  1  0.09066200  0.87013800  0.23782300  1
  Cu  Cu79  1  0.59066200  0.12986200  0.26217700  1
  Cu  Cu80  1  0.69226700  0.19129200  0.62707500  1
  Cu  Cu81  1  0.19226700  0.80870800  0.87292500  1
  Cu  Cu82  1  0.30773300  0.80870800  0.37292500  1
  Cu  Cu83  1  0.80773300  0.19129200  0.12707500  1
  Cu  Cu84  1  0.68813400  0.32081200  0.70626200  1
  Cu  Cu85  1  0.18813400  0.67918800  0.79373800  1
  Cu  Cu86  1  0.31186600  0.67918800  0.29373800  1
  Cu  Cu87  1  0.81186600  0.32081200  0.20626200  1
  Cu  Cu88  1  0.99771300  0.98551300  0.62578000  1
  Cu  Cu89  1  0.49771300  0.01448700  0.87422000  1
  Cu  Cu90  1  0.00228700  0.01448700  0.37422000  1
  Cu  Cu91  1  0.50228700  0.98551300  0.12578000  1
  Cu  Cu92  1  0.78327800  0.85768700  0.78568600  1
  Cu  Cu93  1  0.28327800  0.14231300  0.71431400  1
  Cu  Cu94  1  0.21672200  0.14231300  0.21431400  1
  Cu  Cu95  1  0.71672200  0.85768700  0.28568600  1
  Cu  Cu96  1  0.86320200  0.56658400  0.90266300  1
  Cu  Cu97  1  0.36320200  0.43341600  0.59733700  1
  Cu  Cu98  1  0.13679800  0.43341600  0.09733700  1
  Cu  Cu99  1  0.63679800  0.56658400  0.40266300  1
  Cu  Cu100  1  0.62394500  0.43492300  0.86843900  1
  Cu  Cu101  1  0.12394500  0.56507700  0.63156100  1
  Cu  Cu102  1  0.37605500  0.56507700  0.13156100  1
  Cu  Cu103  1  0.87605500  0.43492300  0.36843900  1
  Cu  Cu104  1  0.68074600  0.13926500  0.95317900  1
  Cu  Cu105  1  0.18074600  0.86073500  0.54682100  1
  Cu  Cu106  1  0.31925400  0.86073500  0.04682100  1
  Cu  Cu107  1  0.81925400  0.13926500  0.45317900  1
