# generated using pymatgen
data_Cu2Ni4C5
_symmetry_space_group_name_H-M   'P 1'
_cell_length_a   9.25259584
_cell_length_b   9.25259584
_cell_length_c   14.66797600
_cell_angle_alpha   90.00000000
_cell_angle_beta   90.00000000
_cell_angle_gamma   119.99999884
_symmetry_Int_Tables_number   1
_chemical_formula_structural   Cu2Ni4C5
_chemical_formula_sum   'Cu8 Ni16 C20'
_cell_volume   1087.49686047
_cell_formula_units_Z   4
loop_
 _symmetry_equiv_pos_site_id
 _symmetry_equiv_pos_as_xyz
  1  'x, y, z'
loop_
 _atom_site_type_symbol
 _atom_site_label
 _atom_site_symmetry_multiplicity
 _atom_site_fract_x
 _atom_site_fract_y
 _atom_site_fract_z
 _atom_site_occupancy
  C  C0  1  0.50000000  0.50000000  0.50000000  1
  C  C1  1  0.50000000  0.00000000  0.50000000  1
  C  C2  1  0.00000000  0.50000000  0.50000000  1
  C  C3  1  0.50000000  0.50000000  0.00000000  1
  C  C4  1  0.50000000  0.00000000  0.00000000  1
  C  C5  1  0.00000000  0.50000000  0.00000000  1
  C  C6  1  0.17890400  0.35780800  0.25000000  1
  C  C7  1  0.64219200  0.82109600  0.25000000  1
  C  C8  1  0.17890400  0.82109600  0.25000000  1
  C  C9  1  0.82109600  0.64219200  0.75000000  1
  C  C10  1  0.35780800  0.17890400  0.75000000  1
  C  C11  1  0.82109600  0.17890400  0.75000000  1
  C  C12  1  0.00000000  0.00000000  0.50000000  1
  C  C13  1  0.00000000  0.00000000  0.00000000  1
  C  C14  1  0.42169500  0.84339100  0.75000000  1
  C  C15  1  0.15660900  0.57830500  0.75000000  1
  C  C16  1  0.42169500  0.57830500  0.75000000  1
  C  C17  1  0.57830500  0.15660900  0.25000000  1
  C  C18  1  0.84339100  0.42169500  0.25000000  1
  C  C19  1  0.57830500  0.42169500  0.25000000  1
  Ni  Ni20  1  0.13989200  0.86010800  0.89264500  1
  Ni  Ni21  1  0.13989200  0.27978300  0.89264500  1
  Ni  Ni22  1  0.72021700  0.86010800  0.89264500  1
  Ni  Ni23  1  0.86010800  0.13989200  0.10735500  1
  Ni  Ni24  1  0.86010800  0.72021700  0.10735500  1
  Ni  Ni25  1  0.27978300  0.13989200  0.10735500  1
  Ni  Ni26  1  0.86010800  0.13989200  0.39264500  1
  Ni  Ni27  1  0.86010800  0.72021700  0.39264500  1
  Ni  Ni28  1  0.27978300  0.13989200  0.39264500  1
  Ni  Ni29  1  0.13989200  0.86010800  0.60735500  1
  Ni  Ni30  1  0.13989200  0.27978300  0.60735500  1
  Ni  Ni31  1  0.72021700  0.86010800  0.60735500  1
  Ni  Ni32  1  0.33333300  0.66666700  0.10651000  1
  Ni  Ni33  1  0.66666700  0.33333300  0.89349000  1
  Ni  Ni34  1  0.66666700  0.33333300  0.60651000  1
  Ni  Ni35  1  0.33333300  0.66666700  0.39349000  1
  Cu  Cu36  1  0.33333300  0.66666700  0.75000000  1
  Cu  Cu37  1  0.66666700  0.33333300  0.25000000  1
  Cu  Cu38  1  0.48439200  0.96878500  0.75000000  1
  Cu  Cu39  1  0.03121500  0.51560800  0.75000000  1
  Cu  Cu40  1  0.48439200  0.51560800  0.75000000  1
  Cu  Cu41  1  0.51560800  0.03121500  0.25000000  1
  Cu  Cu42  1  0.96878500  0.48439200  0.25000000  1
  Cu  Cu43  1  0.51560800  0.48439200  0.25000000  1
