# generated using pymatgen
data_CuNiC10
_symmetry_space_group_name_H-M   'P 1'
_cell_length_a   6.40359300
_cell_length_b   5.17166700
_cell_length_c   8.88698471
_cell_angle_alpha   88.22095017
_cell_angle_beta   90.00000000
_cell_angle_gamma   90.00000000
_symmetry_Int_Tables_number   1
_chemical_formula_structural   CuNiC10
_chemical_formula_sum   'Cu2 Ni2 C20'
_cell_volume   294.17063502
_cell_formula_units_Z   2
loop_
 _symmetry_equiv_pos_site_id
 _symmetry_equiv_pos_as_xyz
  1  'x, y, z'
loop_
 _atom_site_type_symbol
 _atom_site_label
 _atom_site_symmetry_multiplicity
 _atom_site_fract_x
 _atom_site_fract_y
 _atom_site_fract_z
 _atom_site_occupancy
  C  C0  1  0.50470500  0.76308400  0.77226400  1
  C  C1  1  0.99529500  0.76308400  0.77226400  1
  C  C2  1  0.49529500  0.23691600  0.22773600  1
  C  C3  1  0.00470500  0.23691600  0.22773600  1
  Ni  Ni4  1  0.25000000  0.21739300  0.65004400  1
  Ni  Ni5  1  0.75000000  0.78260700  0.34995600  1
  Cu  Cu6  1  0.75000000  0.27921800  0.56956300  1
  Cu  Cu7  1  0.25000000  0.72078200  0.43043700  1
  C  C8  1  0.25000000  0.27209600  0.91661800  1
  C  C9  1  0.75000000  0.72790400  0.08338200  1
  C  C10  1  0.75000000  0.69165100  0.94499300  1
  C  C11  1  0.25000000  0.04509900  0.85442700  1
  C  C12  1  0.25000000  0.46181800  0.81217700  1
  C  C13  1  0.94640500  0.21540200  0.66406400  1
  C  C14  1  0.55359500  0.21540200  0.66406400  1
  C  C15  1  0.25000000  0.87947300  0.57669300  1
  C  C16  1  0.75000000  0.57488800  0.52477000  1
  C  C17  1  0.25000000  0.42511200  0.47523000  1
  C  C18  1  0.75000000  0.12052700  0.42330700  1
  C  C19  1  0.44640500  0.78459800  0.33593600  1
  C  C20  1  0.05359500  0.78459800  0.33593600  1
  C  C21  1  0.75000000  0.53818200  0.18782300  1
  C  C22  1  0.75000000  0.95490100  0.14557300  1
  C  C23  1  0.25000000  0.30834900  0.05500700  1
