# generated using pymatgen
data_CuNi5C6
_symmetry_space_group_name_H-M   'P 1'
_cell_length_a   3.48808816
_cell_length_b   3.48808816
_cell_length_c   15.96954300
_cell_angle_alpha   90.00000000
_cell_angle_beta   90.00000000
_cell_angle_gamma   120.00000298
_symmetry_Int_Tables_number   1
_chemical_formula_structural   CuNi5C6
_chemical_formula_sum   'Cu1 Ni5 C6'
_cell_volume   168.26663589
_cell_formula_units_Z   1
loop_
 _symmetry_equiv_pos_site_id
 _symmetry_equiv_pos_as_xyz
  1  'x, y, z'
loop_
 _atom_site_type_symbol
 _atom_site_label
 _atom_site_symmetry_multiplicity
 _atom_site_fract_x
 _atom_site_fract_y
 _atom_site_fract_z
 _atom_site_occupancy
  C  C0  1  0.66666700  0.33333300  0.84103900  1
  C  C1  1  0.33333300  0.66666700  0.32918500  1
  C  C2  1  0.33333300  0.66666700  0.99288700  1
  C  C3  1  0.33333300  0.66666700  0.66448700  1
  C  C4  1  0.66666700  0.33333300  0.49726300  1
  C  C5  1  0.66666700  0.33333300  0.16079600  1
  Ni  Ni6  1  0.33333300  0.66666700  0.46430900  1
  Ni  Ni7  1  0.33333300  0.66666700  0.12783200  1
  Ni  Ni8  1  0.66666700  0.33333300  0.29579300  1
  Ni  Ni9  1  0.66666700  0.33333300  0.95920100  1
  Ni  Ni10  1  0.66666700  0.33333300  0.63272500  1
  Cu  Cu11  1  0.33333300  0.66666700  0.79751400  1
