# generated using pymatgen
data_Cu6NiC10
_symmetry_space_group_name_H-M   'P 1'
_cell_length_a   8.31273200
_cell_length_b   10.03538600
_cell_length_c   11.16602400
_cell_angle_alpha   90.00000000
_cell_angle_beta   90.00000000
_cell_angle_gamma   90.00000000
_symmetry_Int_Tables_number   1
_chemical_formula_structural   Cu6NiC10
_chemical_formula_sum   'Cu24 Ni4 C40'
_cell_volume   931.48618453
_cell_formula_units_Z   4
loop_
 _symmetry_equiv_pos_site_id
 _symmetry_equiv_pos_as_xyz
  1  'x, y, z'
loop_
 _atom_site_type_symbol
 _atom_site_label
 _atom_site_symmetry_multiplicity
 _atom_site_fract_x
 _atom_site_fract_y
 _atom_site_fract_z
 _atom_site_occupancy
  C  C0  1  0.21309800  0.76138500  0.74411700  1
  C  C1  1  0.28690200  0.26138500  0.25588300  1
  C  C2  1  0.71309800  0.23861500  0.75588300  1
  C  C3  1  0.78690200  0.73861500  0.24411700  1
  C  C4  1  0.78690200  0.23861500  0.25588300  1
  C  C5  1  0.71309800  0.73861500  0.74411700  1
  C  C6  1  0.28690200  0.76138500  0.24411700  1
  C  C7  1  0.21309800  0.26138500  0.75588300  1
  Ni  Ni8  1  0.00000000  0.50000000  0.50000000  1
  Ni  Ni9  1  0.50000000  0.00000000  0.50000000  1
  Ni  Ni10  1  0.50000000  0.50000000  0.00000000  1
  Ni  Ni11  1  0.00000000  0.00000000  0.00000000  1
  Cu  Cu12  1  0.04035500  0.72852300  0.43552000  1
  Cu  Cu13  1  0.45964500  0.22852300  0.56448000  1
  Cu  Cu14  1  0.54035500  0.27147700  0.06448000  1
  Cu  Cu15  1  0.95964500  0.77147700  0.93552000  1
  Cu  Cu16  1  0.95964500  0.27147700  0.56448000  1
  Cu  Cu17  1  0.54035500  0.77147700  0.43552000  1
  Cu  Cu18  1  0.45964500  0.72852300  0.93552000  1
  Cu  Cu19  1  0.04035500  0.22852300  0.06448000  1
  Cu  Cu20  1  0.76221600  0.61437100  0.00396400  1
  Cu  Cu21  1  0.73778400  0.11437100  0.99603600  1
  Cu  Cu22  1  0.26221600  0.38562900  0.49603600  1
  Cu  Cu23  1  0.23778400  0.88562900  0.50396400  1
  Cu  Cu24  1  0.23778400  0.38562900  0.99603600  1
  Cu  Cu25  1  0.26221600  0.88562900  0.00396400  1
  Cu  Cu26  1  0.73778400  0.61437100  0.50396400  1
  Cu  Cu27  1  0.76221600  0.11437100  0.49603600  1
  Cu  Cu28  1  0.34811300  0.55396300  0.49140400  1
  Cu  Cu29  1  0.15188700  0.05396300  0.50859600  1
  Cu  Cu30  1  0.84811300  0.44603700  0.00859600  1
  Cu  Cu31  1  0.65188700  0.94603700  0.99140400  1
  Cu  Cu32  1  0.65188700  0.44603700  0.50859600  1
  Cu  Cu33  1  0.84811300  0.94603700  0.49140400  1
  Cu  Cu34  1  0.15188700  0.55396300  0.99140400  1
  Cu  Cu35  1  0.34811300  0.05396300  0.00859600  1
  C  C36  1  0.97961900  0.62418700  0.62218400  1
  C  C37  1  0.52038100  0.12418700  0.37781600  1
  C  C38  1  0.47961900  0.37581300  0.87781600  1
  C  C39  1  0.02038100  0.87581300  0.12218400  1
  C  C40  1  0.02038100  0.37581300  0.37781600  1
  C  C41  1  0.47961900  0.87581300  0.62218400  1
  C  C42  1  0.52038100  0.62418700  0.12218400  1
  C  C43  1  0.97961900  0.12418700  0.87781600  1
  C  C44  1  0.24281000  0.46633800  0.54226200  1
  C  C45  1  0.25719000  0.96633800  0.45773800  1
  C  C46  1  0.74281000  0.53366200  0.95773800  1
  C  C47  1  0.75719000  0.03366200  0.04226200  1
  C  C48  1  0.75719000  0.53366200  0.45773800  1
  C  C49  1  0.74281000  0.03366200  0.54226200  1
  C  C50  1  0.25719000  0.46633800  0.04226200  1
  C  C51  1  0.24281000  0.96633800  0.95773800  1
  C  C52  1  0.06361500  0.64746000  0.38792400  1
  C  C53  1  0.43638500  0.14746000  0.61207600  1
  C  C54  1  0.56361500  0.35254000  0.11207600  1
  C  C55  1  0.93638500  0.85254000  0.88792400  1
  C  C56  1  0.93638500  0.35254000  0.61207600  1
  C  C57  1  0.56361500  0.85254000  0.38792400  1
  C  C58  1  0.43638500  0.64746000  0.88792400  1
  C  C59  1  0.06361500  0.14746000  0.11207600  1
  C  C60  1  0.57441200  0.87929800  0.94864800  1
  C  C61  1  0.92558800  0.37929800  0.05135200  1
  C  C62  1  0.07441200  0.12070200  0.55135200  1
  C  C63  1  0.42558800  0.62070200  0.44864800  1
  C  C64  1  0.42558800  0.12070200  0.05135200  1
  C  C65  1  0.07441200  0.62070200  0.94864800  1
  C  C66  1  0.92558800  0.87929800  0.44864800  1
  C  C67  1  0.57441200  0.37929800  0.55135200  1
