# generated using pymatgen
data_CuNiC11
_symmetry_space_group_name_H-M   'P 1'
_cell_length_a   8.15790670
_cell_length_b   8.15897276
_cell_length_c   9.53970252
_cell_angle_alpha   74.33798518
_cell_angle_beta   105.65830177
_cell_angle_gamma   75.60374762
_symmetry_Int_Tables_number   1
_chemical_formula_structural   CuNiC11
_chemical_formula_sum   'Cu4 Ni4 C44'
_cell_volume   552.17340023
_cell_formula_units_Z   4
loop_
 _symmetry_equiv_pos_site_id
 _symmetry_equiv_pos_as_xyz
  1  'x, y, z'
loop_
 _atom_site_type_symbol
 _atom_site_label
 _atom_site_symmetry_multiplicity
 _atom_site_fract_x
 _atom_site_fract_y
 _atom_site_fract_z
 _atom_site_occupancy
  C  C0  1  0.57187100  0.67793900  0.10993400  1
  C  C1  1  0.07313600  0.17688700  0.11200700  1
  C  C2  1  0.92838400  0.81946800  0.89417500  1
  C  C3  1  0.43063400  0.32147100  0.89408500  1
  C  C4  1  0.27886200  0.74365100  0.27184700  1
  C  C5  1  0.77924000  0.23987200  0.26963600  1
  C  C6  1  0.50679900  0.97120100  0.27160000  1
  C  C7  1  0.01012400  0.47046700  0.26963300  1
  C  C8  1  0.98797900  0.53024500  0.72904000  1
  C  C9  1  0.48829300  0.03108500  0.72803000  1
  C  C10  1  0.21894500  0.76176600  0.72809400  1
  C  C11  1  0.71975100  0.26202800  0.72912400  1
  C  C12  1  0.05837500  0.19152200  0.66414400  1
  C  C13  1  0.55889400  0.69127800  0.66498100  1
  C  C14  1  0.93923400  0.80883200  0.33425300  1
  C  C15  1  0.44082700  0.31115700  0.33404100  1
  Ni  Ni16  1  0.69391100  0.55608500  0.40899800  1
  Ni  Ni17  1  0.19496000  0.05506700  0.41066800  1
  Ni  Ni18  1  0.80372200  0.94643700  0.58455000  1
  Ni  Ni19  1  0.30369700  0.44623300  0.58461700  1
  Cu  Cu20  1  0.74124700  0.00976900  0.04015700  1
  Cu  Cu21  1  0.24010600  0.50870600  0.03992000  1
  Cu  Cu22  1  0.76157200  0.48842300  0.96509800  1
  Cu  Cu23  1  0.26072600  0.98923100  0.96551100  1
  C  C24  1  0.87762000  0.87007300  0.06620000  1
  C  C25  1  0.38021000  0.37290900  0.06581900  1
  C  C26  1  0.37252500  0.87730000  0.10348500  1
  C  C27  1  0.87320600  0.37649600  0.10294000  1
  C  C28  1  0.71405100  0.04121800  0.16122500  1
  C  C29  1  0.20837400  0.53525500  0.16110400  1
  C  C30  1  0.67161600  0.07761700  0.42044100  1
  C  C31  1  0.17276000  0.57825200  0.42036900  1
  C  C32  1  0.54285500  0.70730400  0.41783900  1
  C  C33  1  0.04317900  0.20670300  0.41825200  1
  C  C34  1  0.95290300  0.79892300  0.56774400  1
  C  C35  1  0.45126600  0.29689500  0.56806300  1
  C  C36  1  0.82209400  0.42778800  0.57666700  1
  C  C37  1  0.32281000  0.92726700  0.57877100  1
  C  C38  1  0.78583700  0.46410100  0.84007600  1
  C  C39  1  0.28515500  0.96477600  0.84072600  1
  C  C40  1  0.13213500  0.61734800  0.89890300  1
  C  C41  1  0.63277200  0.11757900  0.89905700  1
  C  C42  1  0.62628300  0.62407000  0.94596600  1
  C  C43  1  0.12535700  0.12475700  0.94651100  1
  C  C44  1  0.60793900  0.45426900  0.30958400  1
  C  C45  1  0.10981600  0.95217600  0.31211700  1
  C  C46  1  0.79598000  0.64176100  0.30969400  1
  C  C47  1  0.29769700  0.14038000  0.31202300  1
  C  C48  1  0.89343200  0.04274700  0.68775400  1
  C  C49  1  0.39490400  0.54126800  0.68838800  1
  C  C50  1  0.70883100  0.85518300  0.68841500  1
  C  C51  1  0.20710000  0.35676900  0.68772300  1
