# generated using pymatgen
data_CuNiC6
_symmetry_space_group_name_H-M   'P 1'
_cell_length_a   5.13816755
_cell_length_b   5.95946114
_cell_length_c   10.46079000
_cell_angle_alpha   106.54288182
_cell_angle_beta   80.32967507
_cell_angle_gamma   89.99631721
_symmetry_Int_Tables_number   1
_chemical_formula_structural   CuNiC6
_chemical_formula_sum   'Cu4 Ni4 C24'
_cell_volume   302.30579730
_cell_formula_units_Z   4
loop_
 _symmetry_equiv_pos_site_id
 _symmetry_equiv_pos_as_xyz
  1  'x, y, z'
loop_
 _atom_site_type_symbol
 _atom_site_label
 _atom_site_symmetry_multiplicity
 _atom_site_fract_x
 _atom_site_fract_y
 _atom_site_fract_z
 _atom_site_occupancy
  C  C0  1  0.99998700  0.50000200  0.50000400  1
  C  C1  1  0.50000700  0.74999900  0.99999700  1
  C  C2  1  0.99998700  0.00000200  0.50000400  1
  C  C3  1  0.50001200  0.24999800  0.99999600  1
  C  C4  1  0.50001400  0.25000800  0.49999600  1
  C  C5  1  0.99999000  0.50001200  0.00000600  1
  C  C6  1  0.50001300  0.75000600  0.49999600  1
  C  C7  1  0.99999100  0.00001200  0.00000600  1
  Ni  Ni8  1  0.24998500  0.62497200  0.25001100  1
  Ni  Ni9  1  0.75002600  0.87495900  0.74998300  1
  Ni  Ni10  1  0.24998400  0.12496700  0.25001100  1
  Ni  Ni11  1  0.75002500  0.37495300  0.74998300  1
  Cu  Cu12  1  0.74998100  0.37500800  0.24999300  1
  Cu  Cu13  1  0.25002100  0.62501200  0.75000000  1
  Cu  Cu14  1  0.74998000  0.87500800  0.24999300  1
  Cu  Cu15  1  0.25002200  0.12501200  0.75000100  1
  C  C16  1  0.89517100  0.68401900  0.36800900  1
  C  C17  1  0.39524700  0.93401900  0.86801400  1
  C  C18  1  0.89517000  0.18401100  0.36800900  1
  C  C19  1  0.39524700  0.43401400  0.86801400  1
  C  C20  1  0.60476300  0.06599900  0.13198900  1
  C  C21  1  0.10482500  0.31599600  0.63198600  1
  C  C22  1  0.60476300  0.56600400  0.13198900  1
  C  C23  1  0.10482500  0.81600500  0.63198700  1
  C  C24  1  0.36484300  0.43224900  0.36453300  1
  C  C25  1  0.86483800  0.68225100  0.86453600  1
  C  C26  1  0.36482500  0.93225100  0.36453700  1
  C  C27  1  0.86482200  0.18225100  0.86453700  1
  C  C28  1  0.13516600  0.31774900  0.13547200  1
  C  C29  1  0.63516100  0.56774900  0.63547200  1
  C  C30  1  0.13518300  0.81774800  0.13547000  1
  C  C31  1  0.63517900  0.06774600  0.63546700  1
