# generated using pymatgen
data_Cu3Ni4C3
_symmetry_space_group_name_H-M   'P 1'
_cell_length_a   10.33798400
_cell_length_b   7.07148600
_cell_length_c   8.05703527
_cell_angle_alpha   89.44041212
_cell_angle_beta   90.00000000
_cell_angle_gamma   90.00000000
_symmetry_Int_Tables_number   1
_chemical_formula_structural   Cu3Ni4C3
_chemical_formula_sum   'Cu12 Ni16 C12'
_cell_volume   588.98073920
_cell_formula_units_Z   4
loop_
 _symmetry_equiv_pos_site_id
 _symmetry_equiv_pos_as_xyz
  1  'x, y, z'
loop_
 _atom_site_type_symbol
 _atom_site_label
 _atom_site_symmetry_multiplicity
 _atom_site_fract_x
 _atom_site_fract_y
 _atom_site_fract_z
 _atom_site_occupancy
  C  C0  1  0.02282000  0.67595600  0.57886000  1
  C  C1  1  0.97718000  0.67595600  0.07886000  1
  C  C2  1  0.47870700  0.80863200  0.57245800  1
  C  C3  1  0.52129300  0.80863200  0.07245800  1
  C  C4  1  0.75647300  0.00065700  0.50690600  1
  C  C5  1  0.24352700  0.00065700  0.00690600  1
  C  C6  1  0.74309100  0.50015800  0.50723000  1
  C  C7  1  0.25690900  0.50015800  0.00723000  1
  C  C8  1  0.24873500  0.25550200  0.68051900  1
  C  C9  1  0.75126500  0.25550200  0.18051900  1
  C  C10  1  0.75100400  0.74729500  0.83837600  1
  C  C11  1  0.24899600  0.74729500  0.33837600  1
  Ni  Ni12  1  0.18764300  0.10356100  0.79830900  1
  Ni  Ni13  1  0.81235700  0.10356100  0.29830900  1
  Ni  Ni14  1  0.34849400  0.16452700  0.58647300  1
  Ni  Ni15  1  0.65150600  0.16452700  0.08647300  1
  Ni  Ni16  1  0.14580300  0.35396900  0.59430200  1
  Ni  Ni17  1  0.85419700  0.35396900  0.09430200  1
  Ni  Ni18  1  0.31286300  0.40100100  0.79996500  1
  Ni  Ni19  1  0.68713700  0.40100100  0.29996500  1
  Ni  Ni20  1  0.81011400  0.59870600  0.72346700  1
  Ni  Ni21  1  0.18988600  0.59870600  0.22346700  1
  Ni  Ni22  1  0.64356500  0.67016700  0.93419000  1
  Ni  Ni23  1  0.35643500  0.67016700  0.43419000  1
  Ni  Ni24  1  0.85703000  0.82004300  0.93792100  1
  Ni  Ni25  1  0.14297000  0.82004300  0.43792100  1
  Ni  Ni26  1  0.69316500  0.90112700  0.72565700  1
  Ni  Ni27  1  0.30683500  0.90112700  0.22565700  1
  Cu  Cu28  1  0.41657500  0.99885300  0.95198400  1
  Cu  Cu29  1  0.58342500  0.99885300  0.45198400  1
  Cu  Cu30  1  0.75134000  0.24963600  0.60580700  1
  Cu  Cu31  1  0.24866000  0.24963600  0.10580700  1
  Cu  Cu32  1  0.08524500  0.50584200  0.94676600  1
  Cu  Cu33  1  0.91475500  0.50584200  0.44676600  1
  Cu  Cu34  1  0.58199200  0.55505700  0.58214900  1
  Cu  Cu35  1  0.41800800  0.55505700  0.08214900  1
  Cu  Cu36  1  0.25256300  0.75168000  0.89917700  1
  Cu  Cu37  1  0.74743700  0.75168000  0.39917700  1
  Cu  Cu38  1  0.91826500  0.94368200  0.57726800  1
  Cu  Cu39  1  0.08173500  0.94368200  0.07726800  1
