# generated using pymatgen
data_CuNi2C15
_symmetry_space_group_name_H-M   'P 1'
_cell_length_a   8.44516397
_cell_length_b   8.44516397
_cell_length_c   8.44516461
_cell_angle_alpha   61.61267189
_cell_angle_beta   61.61267189
_cell_angle_gamma   61.61267024
_symmetry_Int_Tables_number   1
_chemical_formula_structural   CuNi2C15
_chemical_formula_sum   'Cu2 Ni4 C30'
_cell_volume   441.30718764
_cell_formula_units_Z   2
loop_
 _symmetry_equiv_pos_site_id
 _symmetry_equiv_pos_as_xyz
  1  'x, y, z'
loop_
 _atom_site_type_symbol
 _atom_site_label
 _atom_site_symmetry_multiplicity
 _atom_site_fract_x
 _atom_site_fract_y
 _atom_site_fract_z
 _atom_site_occupancy
  Ni  Ni0  1  0.85517900  0.85517900  0.85517900  1
  Ni  Ni1  1  0.64482100  0.64482100  0.64482100  1
  Ni  Ni2  1  0.35517900  0.35517900  0.35517900  1
  Ni  Ni3  1  0.14482100  0.14482100  0.14482100  1
  Cu  Cu4  1  0.00000000  0.00000000  0.00000000  1
  Cu  Cu5  1  0.50000000  0.50000000  0.50000000  1
  C  C6  1  0.95193800  0.25000000  0.54806200  1
  C  C7  1  0.54806200  0.95193800  0.25000000  1
  C  C8  1  0.25000000  0.54806200  0.95193800  1
  C  C9  1  0.75000000  0.45193800  0.04806200  1
  C  C10  1  0.45193800  0.04806200  0.75000000  1
  C  C11  1  0.04806200  0.75000000  0.45193800  1
  C  C12  1  0.89353600  0.68162900  0.48758200  1
  C  C13  1  0.68162900  0.48758200  0.89353600  1
  C  C14  1  0.93710000  0.09452400  0.75127200  1
  C  C15  1  0.48758200  0.89353600  0.68162900  1
  C  C16  1  0.98758200  0.18162900  0.39353600  1
  C  C17  1  0.74872800  0.40547600  0.56290000  1
  C  C18  1  0.75127200  0.93710000  0.09452400  1
  C  C19  1  0.56290000  0.74872800  0.40547600  1
  C  C20  1  0.81837100  0.60646400  0.01241800  1
  C  C21  1  0.40547600  0.56290000  0.74872800  1
  C  C22  1  0.90547600  0.24872800  0.06290000  1
  C  C23  1  0.60646400  0.01241800  0.81837100  1
  C  C24  1  0.39353600  0.98758200  0.18162900  1
  C  C25  1  0.09452400  0.75127200  0.93710000  1
  C  C26  1  0.59452400  0.43710000  0.25127200  1
  C  C27  1  0.18162900  0.39353600  0.98758200  1
  C  C28  1  0.43710000  0.25127200  0.59452400  1
  C  C29  1  0.24872800  0.06290000  0.90547600  1
  C  C30  1  0.25127200  0.59452400  0.43710000  1
  C  C31  1  0.01241800  0.81837100  0.60646400  1
  C  C32  1  0.51241800  0.10646400  0.31837100  1
  C  C33  1  0.06290000  0.90547600  0.24872800  1
  C  C34  1  0.31837100  0.51241800  0.10646400  1
  C  C35  1  0.10646400  0.31837100  0.51241800  1
