# generated using pymatgen
data_CuNi10C11
_symmetry_space_group_name_H-M   'P 1'
_cell_length_a   10.89669200
_cell_length_b   11.32891600
_cell_length_c   13.10879800
_cell_angle_alpha   90.00000000
_cell_angle_beta   90.00000000
_cell_angle_gamma   90.00000000
_symmetry_Int_Tables_number   1
_chemical_formula_structural   CuNi10C11
_chemical_formula_sum   'Cu8 Ni80 C88'
_cell_volume   1618.25107227
_cell_formula_units_Z   8
loop_
 _symmetry_equiv_pos_site_id
 _symmetry_equiv_pos_as_xyz
  1  'x, y, z'
loop_
 _atom_site_type_symbol
 _atom_site_label
 _atom_site_symmetry_multiplicity
 _atom_site_fract_x
 _atom_site_fract_y
 _atom_site_fract_z
 _atom_site_occupancy
  C  C0  1  0.50000000  0.50000000  0.00000000  1
  C  C1  1  0.00000000  0.00000000  0.00000000  1
  C  C2  1  0.00000000  0.50000000  0.50000000  1
  C  C3  1  0.50000000  0.00000000  0.50000000  1
  C  C4  1  0.00000000  0.50000000  0.00000000  1
  C  C5  1  0.50000000  0.00000000  0.00000000  1
  C  C6  1  0.50000000  0.50000000  0.50000000  1
  C  C7  1  0.00000000  0.00000000  0.50000000  1
  Ni  Ni8  1  0.65178000  0.57092300  0.85981500  1
  Ni  Ni9  1  0.84822000  0.07092300  0.14018500  1
  Ni  Ni10  1  0.15178000  0.42907700  0.64018500  1
  Ni  Ni11  1  0.34822000  0.92907700  0.35981500  1
  Ni  Ni12  1  0.34822000  0.42907700  0.14018500  1
  Ni  Ni13  1  0.15178000  0.92907700  0.85981500  1
  Ni  Ni14  1  0.84822000  0.57092300  0.35981500  1
  Ni  Ni15  1  0.65178000  0.07092300  0.64018500  1
  Ni  Ni16  1  0.60077800  0.44068400  0.82809100  1
  Ni  Ni17  1  0.89922200  0.94068400  0.17190900  1
  Ni  Ni18  1  0.10077800  0.55931600  0.67190900  1
  Ni  Ni19  1  0.39922200  0.05931600  0.32809100  1
  Ni  Ni20  1  0.39922200  0.55931600  0.17190900  1
  Ni  Ni21  1  0.10077800  0.05931600  0.82809100  1
  Ni  Ni22  1  0.89922200  0.44068400  0.32809100  1
  Ni  Ni23  1  0.60077800  0.94068400  0.67190900  1
  Ni  Ni24  1  0.04068100  0.65044300  0.85667200  1
  Ni  Ni25  1  0.45931900  0.15044300  0.14332800  1
  Ni  Ni26  1  0.54068100  0.34955700  0.64332800  1
  Ni  Ni27  1  0.95931900  0.84955700  0.35667200  1
  Ni  Ni28  1  0.95931900  0.34955700  0.14332800  1
  Ni  Ni29  1  0.54068100  0.84955700  0.85667200  1
  Ni  Ni30  1  0.45931900  0.65044300  0.35667200  1
  Ni  Ni31  1  0.04068100  0.15044300  0.64332800  1
  Ni  Ni32  1  0.89580600  0.65507300  0.88547800  1
  Ni  Ni33  1  0.60419400  0.15507300  0.11452200  1
  Ni  Ni34  1  0.39580600  0.34492700  0.61452200  1
  Ni  Ni35  1  0.10419400  0.84492700  0.38547800  1
  Ni  Ni36  1  0.10419400  0.34492700  0.11452200  1
  Ni  Ni37  1  0.39580600  0.84492700  0.88547800  1
  Ni  Ni38  1  0.60419400  0.65507300  0.38547800  1
  Ni  Ni39  1  0.89580600  0.15507300  0.61452200  1
  Ni  Ni40  1  0.96359600  0.37741900  0.83495000  1
  Ni  Ni41  1  0.53640400  0.87741900  0.16505000  1
  Ni  Ni42  1  0.46359600  0.62258100  0.66505000  1
  Ni  Ni43  1  0.03640400  0.12258100  0.33495000  1
  Ni  Ni44  1  0.03640400  0.62258100  0.16505000  1
  Ni  Ni45  1  0.46359600  0.12258100  0.83495000  1
  Ni  Ni46  1  0.53640400  0.37741900  0.33495000  1
  Ni  Ni47  1  0.96359600  0.87741900  0.66505000  1
  Ni  Ni48  1  0.11030200  0.36909400  0.86678700  1
  Ni  Ni49  1  0.38969800  0.86909400  0.13321300  1
  Ni  Ni50  1  0.61030200  0.63090600  0.63321300  1
  Ni  Ni51  1  0.88969800  0.13090600  0.36678700  1
  Ni  Ni52  1  0.88969800  0.63090600  0.13321300  1
  Ni  Ni53  1  0.61030200  0.13090600  0.86678700  1
  Ni  Ni54  1  0.38969800  0.36909400  0.36678700  1
  Ni  Ni55  1  0.11030200  0.86909400  0.63321300  1
  Ni  Ni56  1  0.28019500  0.55859000  0.96349500  1
  Ni  Ni57  1  0.21980500  0.05859000  0.03650500  1
  Ni  Ni58  1  0.78019500  0.44141000  0.53650500  1
  Ni  Ni59  1  0.71980500  0.94141000  0.46349500  1
  Ni  Ni60  1  0.71980500  0.44141000  0.03650500  1
  Ni  Ni61  1  0.78019500  0.94141000  0.96349500  1
  Ni  Ni62  1  0.21980500  0.55859000  0.46349500  1
  Ni  Ni63  1  0.28019500  0.05859000  0.53650500  1
  Ni  Ni64  1  0.36501800  0.60018200  0.86431100  1
  Ni  Ni65  1  0.13498200  0.10018200  0.13568900  1
  Ni  Ni66  1  0.86501800  0.39981800  0.63568900  1
  Ni  Ni67  1  0.63498200  0.89981800  0.36431100  1
  Ni  Ni68  1  0.63498200  0.39981800  0.13568900  1
  Ni  Ni69  1  0.86501800  0.89981800  0.86431100  1
  Ni  Ni70  1  0.13498200  0.60018200  0.36431100  1
  Ni  Ni71  1  0.36501800  0.10018200  0.63568900  1
  Ni  Ni72  1  0.36571800  0.32894500  0.92246800  1
  Ni  Ni73  1  0.13428200  0.82894500  0.07753200  1
  Ni  Ni74  1  0.86571800  0.67105500  0.57753200  1
  Ni  Ni75  1  0.63428200  0.17105500  0.42246800  1
  Ni  Ni76  1  0.63428200  0.67105500  0.07753200  1
  Ni  Ni77  1  0.86571800  0.17105500  0.92246800  1
  Ni  Ni78  1  0.13428200  0.32894500  0.42246800  1
  Ni  Ni79  1  0.36571800  0.82894500  0.57753200  1
  Ni  Ni80  1  0.47023400  0.27443300  0.99967100  1
  Ni  Ni81  1  0.02976600  0.77443300  0.00032900  1
  Ni  Ni82  1  0.97023400  0.72556700  0.50032900  1
  Ni  Ni83  1  0.52976600  0.22556700  0.49967100  1
  Ni  Ni84  1  0.52976600  0.72556700  0.00032900  1
  Ni  Ni85  1  0.97023400  0.22556700  0.99967100  1
  Ni  Ni86  1  0.02976600  0.27443300  0.49967100  1
  Ni  Ni87  1  0.47023400  0.77443300  0.50032900  1
  Cu  Cu88  1  0.24692000  0.73875300  0.74779100  1
  Cu  Cu89  1  0.25308000  0.23875300  0.25220900  1
  Cu  Cu90  1  0.74692000  0.26124700  0.75220900  1
  Cu  Cu91  1  0.75308000  0.76124700  0.24779100  1
  Cu  Cu92  1  0.75308000  0.26124700  0.25220900  1
  Cu  Cu93  1  0.74692000  0.76124700  0.74779100  1
  Cu  Cu94  1  0.25308000  0.73875300  0.24779100  1
  Cu  Cu95  1  0.24692000  0.23875300  0.75220900  1
  C  C96  1  0.13111300  0.66853300  0.75689500  1
  C  C97  1  0.36888700  0.16853300  0.24310500  1
  C  C98  1  0.63111300  0.33146700  0.74310500  1
  C  C99  1  0.86888700  0.83146700  0.25689500  1
  C  C100  1  0.86888700  0.33146700  0.24310500  1
  C  C101  1  0.63111300  0.83146700  0.75689500  1
  C  C102  1  0.36888700  0.66853300  0.25689500  1
  C  C103  1  0.13111300  0.16853300  0.74310500  1
  C  C104  1  0.24434000  0.80475700  0.64915800  1
  C  C105  1  0.25566000  0.30475700  0.35084200  1
  C  C106  1  0.74434000  0.19524300  0.85084200  1
  C  C107  1  0.75566000  0.69524300  0.14915800  1
  C  C108  1  0.75566000  0.19524300  0.35084200  1
  C  C109  1  0.74434000  0.69524300  0.64915800  1
  C  C110  1  0.25566000  0.80475700  0.14915800  1
  C  C111  1  0.24434000  0.30475700  0.85084200  1
  C  C112  1  0.35592700  0.65918300  0.75026600  1
  C  C113  1  0.14407300  0.15918300  0.24973400  1
  C  C114  1  0.85592700  0.34081700  0.74973400  1
  C  C115  1  0.64407300  0.84081700  0.25026600  1
  C  C116  1  0.64407300  0.34081700  0.24973400  1
  C  C117  1  0.85592700  0.84081700  0.75026600  1
  C  C118  1  0.14407300  0.65918300  0.25026600  1
  C  C119  1  0.35592700  0.15918300  0.74973400  1
  C  C120  1  0.25536800  0.82241100  0.83581700  1
  C  C121  1  0.24463200  0.32241100  0.16418300  1
  C  C122  1  0.75536800  0.17758900  0.66418300  1
  C  C123  1  0.74463200  0.67758900  0.33581700  1
  C  C124  1  0.74463200  0.17758900  0.16418300  1
  C  C125  1  0.75536800  0.67758900  0.83581700  1
  C  C126  1  0.24463200  0.82241100  0.33581700  1
  C  C127  1  0.25536800  0.32241100  0.66418300  1
  C  C128  1  0.58649700  0.51059100  0.87323700  1
  C  C129  1  0.91350300  0.01059100  0.12676300  1
  C  C130  1  0.08649700  0.48940900  0.62676300  1
  C  C131  1  0.41350300  0.98940900  0.37323700  1
  C  C132  1  0.41350300  0.48940900  0.12676300  1
  C  C133  1  0.08649700  0.98940900  0.87323700  1
  C  C134  1  0.91350300  0.51059100  0.37323700  1
  C  C135  1  0.58649700  0.01059100  0.62676300  1
  C  C136  1  0.98041800  0.64250700  0.91468900  1
  C  C137  1  0.51958200  0.14250700  0.08531100  1
  C  C138  1  0.48041800  0.35749300  0.58531100  1
  C  C139  1  0.01958200  0.85749300  0.41468900  1
  C  C140  1  0.01958200  0.35749300  0.08531100  1
  C  C141  1  0.48041800  0.85749300  0.91468900  1
  C  C142  1  0.51958200  0.64250700  0.41468900  1
  C  C143  1  0.98041800  0.14250700  0.58531100  1
  C  C144  1  0.02929900  0.40831000  0.88055600  1
  C  C145  1  0.47070100  0.90831000  0.11944400  1
  C  C146  1  0.52929900  0.59169000  0.61944400  1
  C  C147  1  0.97070100  0.09169000  0.38055600  1
  C  C148  1  0.97070100  0.59169000  0.11944400  1
  C  C149  1  0.52929900  0.09169000  0.88055600  1
  C  C150  1  0.47070100  0.40831000  0.38055600  1
  C  C151  1  0.02929900  0.90831000  0.61944400  1
  C  C152  1  0.36582400  0.57173700  0.93693900  1
  C  C153  1  0.13417600  0.07173700  0.06306100  1
  C  C154  1  0.86582400  0.42826300  0.56306100  1
  C  C155  1  0.63417600  0.92826300  0.43693900  1
  C  C156  1  0.63417600  0.42826300  0.06306100  1
  C  C157  1  0.86582400  0.92826300  0.93693900  1
  C  C158  1  0.13417600  0.57173700  0.43693900  1
  C  C159  1  0.36582400  0.07173700  0.56306100  1
  C  C160  1  0.44072300  0.34618300  0.96460800  1
  C  C161  1  0.05927700  0.84618300  0.03539200  1
  C  C162  1  0.94072300  0.65381700  0.53539200  1
  C  C163  1  0.55927700  0.15381700  0.46460800  1
  C  C164  1  0.55927700  0.65381700  0.03539200  1
  C  C165  1  0.94072300  0.15381700  0.96460800  1
  C  C166  1  0.05927700  0.34618300  0.46460800  1
  C  C167  1  0.44072300  0.84618300  0.53539200  1
  C  C168  1  0.15908700  0.52823000  0.00973100  1
  C  C169  1  0.34091300  0.02823000  0.99026900  1
  C  C170  1  0.65908700  0.47177000  0.49026900  1
  C  C171  1  0.84091300  0.97177000  0.50973100  1
  C  C172  1  0.84091300  0.47177000  0.99026900  1
  C  C173  1  0.65908700  0.97177000  0.00973100  1
  C  C174  1  0.34091300  0.52823000  0.50973100  1
  C  C175  1  0.15908700  0.02823000  0.49026900  1
