# generated using pymatgen
data_Cu3Ni5C4
_symmetry_space_group_name_H-M   'P 1'
_cell_length_a   5.69484862
_cell_length_b   5.69484862
_cell_length_c   4.80803425
_cell_angle_alpha   84.31772375
_cell_angle_beta   84.31772375
_cell_angle_gamma   63.83331984
_symmetry_Int_Tables_number   1
_chemical_formula_structural   Cu3Ni5C4
_chemical_formula_sum   'Cu3 Ni5 C4'
_cell_volume   138.99485578
_cell_formula_units_Z   1
loop_
 _symmetry_equiv_pos_site_id
 _symmetry_equiv_pos_as_xyz
  1  'x, y, z'
loop_
 _atom_site_type_symbol
 _atom_site_label
 _atom_site_symmetry_multiplicity
 _atom_site_fract_x
 _atom_site_fract_y
 _atom_site_fract_z
 _atom_site_occupancy
  C  C0  1  0.02094100  0.02094100  0.54404000  1
  C  C1  1  0.49660600  0.49660600  0.49396500  1
  C  C2  1  0.48898300  0.00029700  0.98949100  1
  C  C3  1  0.00029700  0.48898300  0.98949100  1
  Ni  Ni4  1  0.15559100  0.15559100  0.81912800  1
  Ni  Ni5  1  0.16263000  0.64658300  0.69499600  1
  Ni  Ni6  1  0.64658300  0.16263000  0.69499600  1
  Ni  Ni7  1  0.83643900  0.35624500  0.30629900  1
  Ni  Ni8  1  0.35624500  0.83643900  0.30629900  1
  Cu  Cu9  1  0.65458900  0.65458900  0.79824400  1
  Cu  Cu10  1  0.34202500  0.34202500  0.19900100  1
  Cu  Cu11  1  0.83906900  0.83906900  0.16405300  1
