# generated using pymatgen
data_Cu7Ni10C29
_symmetry_space_group_name_H-M   'P 1'
_cell_length_a   15.26107133
_cell_length_b   15.26107133
_cell_length_c   15.26107146
_cell_angle_alpha   41.72884402
_cell_angle_beta   41.72884402
_cell_angle_gamma   41.72884322
_symmetry_Int_Tables_number   1
_chemical_formula_structural   Cu7Ni10C29
_chemical_formula_sum   'Cu14 Ni20 C58'
_cell_volume   1423.62929069
_cell_formula_units_Z   2
loop_
 _symmetry_equiv_pos_site_id
 _symmetry_equiv_pos_as_xyz
  1  'x, y, z'
loop_
 _atom_site_type_symbol
 _atom_site_label
 _atom_site_symmetry_multiplicity
 _atom_site_fract_x
 _atom_site_fract_y
 _atom_site_fract_z
 _atom_site_occupancy
  C  C0  1  0.82866900  0.82866900  0.82866900  1
  C  C1  1  0.32866900  0.32866900  0.32866900  1
  Ni  Ni2  1  0.92343300  0.93242800  0.35088300  1
  Ni  Ni3  1  0.93332300  0.50161200  0.56523700  1
  Ni  Ni4  1  0.56523700  0.93332300  0.50161200  1
  Ni  Ni5  1  0.99874100  0.99874100  0.99874100  1
  Ni  Ni6  1  0.93242800  0.35088300  0.92343300  1
  Ni  Ni7  1  0.50161200  0.56523700  0.93332300  1
  Ni  Ni8  1  0.58035000  0.55049700  0.14937400  1
  Ni  Ni9  1  0.35088300  0.92343300  0.93242800  1
  Ni  Ni10  1  0.85088300  0.43242800  0.42343300  1
  Ni  Ni11  1  0.42343300  0.85088300  0.43242800  1
  Ni  Ni12  1  0.49874100  0.49874100  0.49874100  1
  Ni  Ni13  1  0.55049700  0.14937400  0.58035000  1
  Ni  Ni14  1  0.14937400  0.58035000  0.55049700  1
  Ni  Ni15  1  0.43242800  0.42343300  0.85088300  1
  Ni  Ni16  1  0.64937400  0.05049700  0.08035000  1
  Ni  Ni17  1  0.43332300  0.06523700  0.00161200  1
  Ni  Ni18  1  0.08035000  0.64937400  0.05049700  1
  Ni  Ni19  1  0.00161200  0.43332300  0.06523700  1
  Ni  Ni20  1  0.06523700  0.00161200  0.43332300  1
  Ni  Ni21  1  0.05049700  0.08035000  0.64937400  1
  Cu  Cu22  1  0.73023900  0.73023900  0.73023900  1
  Cu  Cu23  1  0.74431900  0.70157600  0.15454400  1
  Cu  Cu24  1  0.80606700  0.77130200  0.31243000  1
  Cu  Cu25  1  0.81243000  0.27130200  0.30606700  1
  Cu  Cu26  1  0.65454400  0.20157600  0.24431900  1
  Cu  Cu27  1  0.30606700  0.81243000  0.27130200  1
  Cu  Cu28  1  0.24431900  0.65454400  0.20157600  1
  Cu  Cu29  1  0.70157600  0.15454400  0.74431900  1
  Cu  Cu30  1  0.77130200  0.31243000  0.80606700  1
  Cu  Cu31  1  0.31243000  0.80606700  0.77130200  1
  Cu  Cu32  1  0.20157600  0.24431900  0.65454400  1
  Cu  Cu33  1  0.15454400  0.74431900  0.70157600  1
  Cu  Cu34  1  0.27130200  0.30606700  0.81243000  1
  Cu  Cu35  1  0.23023900  0.23023900  0.23023900  1
  C  C36  1  0.81685600  0.81275000  0.37037100  1
  C  C37  1  0.86269200  0.77180500  0.59567500  1
  C  C38  1  0.69314400  0.69314400  0.69314400  1
  C  C39  1  0.81275000  0.37037100  0.81685600  1
  C  C40  1  0.59567500  0.86269200  0.77180500  1
  C  C41  1  0.77180500  0.59567500  0.86269200  1
  C  C42  1  0.89346600  0.60153700  0.16763500  1
  C  C43  1  0.87089900  0.84730700  0.14188800  1
  C  C44  1  0.87785900  0.33008300  0.13795100  1
  C  C45  1  0.81210000  0.14142600  0.13541100  1
  C  C46  1  0.77864800  0.68209200  0.04398100  1
  C  C47  1  0.37037100  0.81685600  0.81275000  1
  C  C48  1  0.88874600  0.60344400  0.36284000  1
  C  C49  1  0.69020500  0.86347700  0.10016700  1
  C  C50  1  0.87037100  0.31275000  0.31685600  1
  C  C51  1  0.60016700  0.36347700  0.19020500  1
  C  C52  1  0.86284000  0.10344400  0.38874600  1
  C  C53  1  0.38874600  0.86284000  0.10344400  1
  C  C54  1  0.39346600  0.66763500  0.10153700  1
  C  C55  1  0.63541100  0.64142600  0.31210000  1
  C  C56  1  0.63795100  0.83008300  0.37785900  1
  C  C57  1  0.64188800  0.34730700  0.37089900  1
  C  C58  1  0.66763500  0.10153700  0.39346600  1
  C  C59  1  0.86347700  0.10016700  0.69020500  1
  C  C60  1  0.83008300  0.37785900  0.63795100  1
  C  C61  1  0.31685600  0.87037100  0.31275000  1
  C  C62  1  0.37089900  0.64188800  0.34730700  1
  C  C63  1  0.13541100  0.81210000  0.14142600  1
  C  C64  1  0.64142600  0.31210000  0.63541100  1
  C  C65  1  0.84730700  0.14188800  0.87089900  1
  C  C66  1  0.68209200  0.04398100  0.77864800  1
  C  C67  1  0.13795100  0.87785900  0.33008300  1
  C  C68  1  0.19020500  0.60016700  0.36347700  1
  C  C69  1  0.36284000  0.88874600  0.60344400  1
  C  C70  1  0.36347700  0.19020500  0.60016700  1
  C  C71  1  0.34730700  0.37089900  0.64188800  1
  C  C72  1  0.31210000  0.63541100  0.64142600  1
  C  C73  1  0.60153700  0.16763500  0.89346600  1
  C  C74  1  0.60344400  0.36284000  0.88874600  1
  C  C75  1  0.16763500  0.89346600  0.60153700  1
  C  C76  1  0.37785900  0.63795100  0.83008300  1
  C  C77  1  0.04398100  0.77864800  0.68209200  1
  C  C78  1  0.33008300  0.13795100  0.87785900  1
  C  C79  1  0.10153700  0.39346600  0.66763500  1
  C  C80  1  0.31275000  0.31685600  0.87037100  1
  C  C81  1  0.54398100  0.18209200  0.27864800  1
  C  C82  1  0.14142600  0.13541100  0.81210000  1
  C  C83  1  0.14188800  0.87089900  0.84730700  1
  C  C84  1  0.10016700  0.69020500  0.86347700  1
  C  C85  1  0.10344400  0.38874600  0.86284000  1
  C  C86  1  0.36269200  0.09567500  0.27180500  1
  C  C87  1  0.27180500  0.36269200  0.09567500  1
  C  C88  1  0.27864800  0.54398100  0.18209200  1
  C  C89  1  0.19314400  0.19314400  0.19314400  1
  C  C90  1  0.09567500  0.27180500  0.36269200  1
  C  C91  1  0.18209200  0.27864800  0.54398100  1
