# generated using pymatgen
data_Cu3Ni2C15
_symmetry_space_group_name_H-M   'P 1'
_cell_length_a   9.37977300
_cell_length_b   8.49529700
_cell_length_c   12.83660500
_cell_angle_alpha   80.76599412
_cell_angle_beta   90.00000000
_cell_angle_gamma   90.00000000
_symmetry_Int_Tables_number   1
_chemical_formula_structural   Cu3Ni2C15
_chemical_formula_sum   'Cu12 Ni8 C60'
_cell_volume   1009.61629907
_cell_formula_units_Z   4
loop_
 _symmetry_equiv_pos_site_id
 _symmetry_equiv_pos_as_xyz
  1  'x, y, z'
loop_
 _atom_site_type_symbol
 _atom_site_label
 _atom_site_symmetry_multiplicity
 _atom_site_fract_x
 _atom_site_fract_y
 _atom_site_fract_z
 _atom_site_occupancy
  C  C0  1  0.18336200  0.70543400  0.94541200  1
  C  C1  1  0.61145500  0.50000000  0.75000000  1
  C  C2  1  0.18336200  0.29456600  0.55458800  1
  C  C3  1  0.50000000  0.50000000  0.50000000  1
  C  C4  1  0.00000000  0.00000000  0.50000000  1
  C  C5  1  0.81663800  0.70543400  0.44541200  1
  C  C6  1  0.88263400  0.00000000  0.75000000  1
  C  C7  1  0.38854500  0.50000000  0.25000000  1
  C  C8  1  0.11736600  0.00000000  0.25000000  1
  C  C9  1  0.00000000  0.00000000  0.00000000  1
  C  C10  1  0.50000000  0.50000000  0.00000000  1
  C  C11  1  0.81663800  0.29456600  0.05458800  1
  Ni  Ni12  1  0.50332200  0.81616000  0.84800700  1
  Ni  Ni13  1  0.01034900  0.68824200  0.65607800  1
  Ni  Ni14  1  0.01034900  0.31175800  0.84392200  1
  Ni  Ni15  1  0.50332200  0.18384000  0.65199300  1
  Ni  Ni16  1  0.98965100  0.68824200  0.15607800  1
  Ni  Ni17  1  0.98965100  0.31175800  0.34392200  1
  Ni  Ni18  1  0.49667800  0.81616000  0.34800700  1
  Ni  Ni19  1  0.49667800  0.18384000  0.15199300  1
  Cu  Cu20  1  0.32989900  0.50000000  0.75000000  1
  Cu  Cu21  1  0.82997000  0.67436400  0.92239600  1
  Cu  Cu22  1  0.66665200  0.82258800  0.58665500  1
  Cu  Cu23  1  0.16052800  0.00000000  0.75000000  1
  Cu  Cu24  1  0.17003000  0.67436400  0.42239600  1
  Cu  Cu25  1  0.66665200  0.17741200  0.91334500  1
  Cu  Cu26  1  0.82997000  0.32563600  0.57760400  1
  Cu  Cu27  1  0.33334800  0.82258800  0.08665500  1
  Cu  Cu28  1  0.33334800  0.17741200  0.41334500  1
  Cu  Cu29  1  0.17003000  0.32563600  0.07760400  1
  Cu  Cu30  1  0.67010100  0.50000000  0.25000000  1
  Cu  Cu31  1  0.83947200  0.00000000  0.25000000  1
  C  C32  1  0.24331100  0.86861300  0.81895200  1
  C  C33  1  0.60985000  0.00810800  0.91802100  1
  C  C34  1  0.05646500  0.92824200  0.67109500  1
  C  C35  1  0.43062100  0.56830400  0.83083900  1
  C  C36  1  0.23873800  0.36958100  0.81535000  1
  C  C37  1  0.66195100  0.67739200  0.93421900  1
  C  C38  1  0.90703600  0.76563100  0.00602500  1
  C  C39  1  0.23873800  0.63041900  0.68465000  1
  C  C40  1  0.05646500  0.07175800  0.82890500  1
  C  C41  1  0.60422300  0.26013000  0.00726600  1
  C  C42  1  0.09296400  0.76563100  0.50602500  1
  C  C43  1  0.63570600  0.71327100  0.68932900  1
  C  C44  1  0.86990100  0.49717500  0.94319000  1
  C  C45  1  0.39015000  0.00810800  0.41802100  1
  C  C46  1  0.87661300  0.76908900  0.81626600  1
  C  C47  1  0.43062100  0.43169600  0.66916100  1
  C  C48  1  0.12338700  0.76908900  0.31626600  1
  C  C49  1  0.63570600  0.28672900  0.81067100  1
  C  C50  1  0.83287400  0.83407300  0.56436200  1
  C  C51  1  0.60422300  0.73987000  0.49273400  1
  C  C52  1  0.24331100  0.13138700  0.68104800  1
  C  C53  1  0.13009900  0.49717500  0.44319000  1
  C  C54  1  0.33804900  0.67739200  0.43421900  1
  C  C55  1  0.83287400  0.16592700  0.93563800  1
  C  C56  1  0.66195100  0.32260800  0.56578100  1
  C  C57  1  0.16712600  0.83407300  0.06436200  1
  C  C58  1  0.75668900  0.86861300  0.31895200  1
  C  C59  1  0.86990100  0.50282500  0.55681000  1
  C  C60  1  0.16712600  0.16592700  0.43563800  1
  C  C61  1  0.39577700  0.26013000  0.50726600  1
  C  C62  1  0.87661300  0.23091100  0.68373400  1
  C  C63  1  0.36429400  0.71327100  0.18932900  1
  C  C64  1  0.56937900  0.56830400  0.33083900  1
  C  C65  1  0.12338700  0.23091100  0.18373400  1
  C  C66  1  0.60985000  0.99189200  0.58197900  1
  C  C67  1  0.13009900  0.50282500  0.05681000  1
  C  C68  1  0.36429400  0.28672900  0.31067100  1
  C  C69  1  0.39577700  0.73987000  0.99273400  1
  C  C70  1  0.94353500  0.92824200  0.17109500  1
  C  C71  1  0.90703600  0.23436900  0.49397500  1
  C  C72  1  0.76126200  0.36958100  0.31535000  1
  C  C73  1  0.33804900  0.32260800  0.06578100  1
  C  C74  1  0.09296400  0.23436900  0.99397500  1
  C  C75  1  0.76126200  0.63041900  0.18465000  1
  C  C76  1  0.56937900  0.43169600  0.16916100  1
  C  C77  1  0.94353500  0.07175800  0.32890500  1
  C  C78  1  0.39015000  0.99189200  0.08197900  1
  C  C79  1  0.75668900  0.13138700  0.18104800  1
