# generated using pymatgen
data_CuNiC6
_symmetry_space_group_name_H-M   'P 1'
_cell_length_a   6.03190258
_cell_length_b   6.03190258
_cell_length_c   9.29770291
_cell_angle_alpha   88.72494595
_cell_angle_beta   88.72494595
_cell_angle_gamma   59.68181780
_symmetry_Int_Tables_number   1
_chemical_formula_structural   CuNiC6
_chemical_formula_sum   'Cu3 Ni3 C18'
_cell_volume   291.92453219
_cell_formula_units_Z   3
loop_
 _symmetry_equiv_pos_site_id
 _symmetry_equiv_pos_as_xyz
  1  'x, y, z'
loop_
 _atom_site_type_symbol
 _atom_site_label
 _atom_site_symmetry_multiplicity
 _atom_site_fract_x
 _atom_site_fract_y
 _atom_site_fract_z
 _atom_site_occupancy
  Ni  Ni0  1  0.34089700  0.83636800  0.79134300  1
  Ni  Ni1  1  0.83636800  0.34089700  0.79134300  1
  Ni  Ni2  1  0.16329100  0.16329100  0.29392000  1
  Cu  Cu3  1  0.82928300  0.82928300  0.79266600  1
  Cu  Cu4  1  0.16533500  0.65371300  0.28624800  1
  Cu  Cu5  1  0.65371300  0.16533500  0.28624800  1
  C  C6  1  0.67053200  0.67053200  0.51175300  1
  C  C7  1  0.33889600  0.33889600  0.01288700  1
  C  C8  1  0.35638800  0.83132800  0.39779900  1
  C  C9  1  0.52466600  0.52466600  0.65471200  1
  C  C10  1  0.65066600  0.65066600  0.89812500  1
  C  C11  1  0.00873000  0.00873000  0.70707200  1
  C  C12  1  0.99831900  0.99831900  0.20667200  1
  C  C13  1  0.83132800  0.35638800  0.39779900  1
  C  C14  1  0.51054900  0.95316600  0.65196100  1
  C  C15  1  0.95316600  0.51054900  0.65196100  1
  C  C16  1  0.18277300  0.18277300  0.89498500  1
  C  C17  1  0.83036000  0.83036000  0.40771200  1
  C  C18  1  0.04555000  0.46815600  0.15189600  1
  C  C19  1  0.46815600  0.04555000  0.15189600  1
  C  C20  1  0.32875700  0.32875700  0.39035000  1
  C  C21  1  0.18280100  0.65202000  0.90001900  1
  C  C22  1  0.47686200  0.47686200  0.15506700  1
  C  C23  1  0.65202000  0.18280100  0.90001900  1
