# generated using pymatgen
data_Cu5NiC8
_symmetry_space_group_name_H-M   'P 1'
_cell_length_a   7.03967000
_cell_length_b   8.24719000
_cell_length_c   10.07689983
_cell_angle_alpha   78.47711874
_cell_angle_beta   90.00000000
_cell_angle_gamma   90.00000000
_symmetry_Int_Tables_number   1
_chemical_formula_structural   Cu5NiC8
_chemical_formula_sum   'Cu20 Ni4 C32'
_cell_volume   573.24810427
_cell_formula_units_Z   4
loop_
 _symmetry_equiv_pos_site_id
 _symmetry_equiv_pos_as_xyz
  1  'x, y, z'
loop_
 _atom_site_type_symbol
 _atom_site_label
 _atom_site_symmetry_multiplicity
 _atom_site_fract_x
 _atom_site_fract_y
 _atom_site_fract_z
 _atom_site_occupancy
  C  C0  1  0.62311100  0.54441200  0.75922500  1
  C  C1  1  0.12311100  0.45558800  0.74077500  1
  C  C2  1  0.87688900  0.54441200  0.25922500  1
  C  C3  1  0.37688900  0.45558800  0.24077500  1
  Ni  Ni4  1  0.35111400  0.72549500  0.50929800  1
  Ni  Ni5  1  0.14888600  0.72549500  0.00929800  1
  Ni  Ni6  1  0.85111400  0.27450500  0.99070200  1
  Ni  Ni7  1  0.64888600  0.27450500  0.49070200  1
  Cu  Cu8  1  0.77096200  0.04215200  0.61269900  1
  Cu  Cu9  1  0.34744400  0.99737400  0.68025100  1
  Cu  Cu10  1  0.72903800  0.04215200  0.11269900  1
  Cu  Cu11  1  0.99149600  0.72439800  0.82079100  1
  Cu  Cu12  1  0.15255600  0.99737400  0.18025100  1
  Cu  Cu13  1  0.50850400  0.72439800  0.32079100  1
  Cu  Cu14  1  0.48561000  0.89611300  0.79028800  1
  Cu  Cu15  1  0.01439000  0.89611300  0.29028800  1
  Cu  Cu16  1  0.54067900  0.67261600  0.94866800  1
  Cu  Cu17  1  0.95932100  0.67261600  0.44866800  1
  Cu  Cu18  1  0.04067900  0.32738400  0.55133200  1
  Cu  Cu19  1  0.45932100  0.32738400  0.05133200  1
  Cu  Cu20  1  0.98561000  0.10388700  0.70971200  1
  Cu  Cu21  1  0.51439000  0.10388700  0.20971200  1
  Cu  Cu22  1  0.49149600  0.27560200  0.67920900  1
  Cu  Cu23  1  0.84744400  0.00262600  0.81974900  1
  Cu  Cu24  1  0.00850400  0.27560200  0.17920900  1
  Cu  Cu25  1  0.27096200  0.95784800  0.88730100  1
  Cu  Cu26  1  0.65255600  0.00262600  0.31974900  1
  Cu  Cu27  1  0.22903800  0.95784800  0.38730100  1
  C  C28  1  0.90353700  0.00113300  0.73116700  1
  C  C29  1  0.59646300  0.00113300  0.23116700  1
  C  C30  1  0.30948000  0.91557900  0.47518600  1
  C  C31  1  0.19052000  0.91557900  0.97518600  1
  C  C32  1  0.58696000  0.71384900  0.85587200  1
  C  C33  1  0.10724900  0.67236700  0.86546400  1
  C  C34  1  0.91304000  0.71384900  0.35587200  1
  C  C35  1  0.52925200  0.69959300  0.59485500  1
  C  C36  1  0.39275100  0.67236700  0.36546400  1
  C  C37  1  0.17729800  0.62627200  0.56724600  1
  C  C38  1  0.97074800  0.69959300  0.09485500  1
  C  C39  1  0.86479500  0.55100600  0.71844600  1
  C  C40  1  0.32270200  0.62627200  0.06724600  1
  C  C41  1  0.63520500  0.55100600  0.21844600  1
  C  C42  1  0.36479500  0.44899400  0.78155400  1
  C  C43  1  0.67729800  0.37372800  0.93275400  1
  C  C44  1  0.13520500  0.44899400  0.28155400  1
  C  C45  1  0.02925200  0.30040700  0.90514500  1
  C  C46  1  0.82270200  0.37372800  0.43275400  1
  C  C47  1  0.60724900  0.32763300  0.63453600  1
  C  C48  1  0.47074800  0.30040700  0.40514500  1
  C  C49  1  0.08696000  0.28615100  0.64412800  1
  C  C50  1  0.89275100  0.32763300  0.13453600  1
  C  C51  1  0.41304000  0.28615100  0.14412800  1
  C  C52  1  0.80948000  0.08442100  0.02481400  1
  C  C53  1  0.69052000  0.08442100  0.52481400  1
  C  C54  1  0.40353700  0.99886700  0.76883300  1
  C  C55  1  0.09646300  0.99886700  0.26883300  1
