# generated using pymatgen
data_Cu8NiC18
_symmetry_space_group_name_H-M   'P 1'
_cell_length_a   11.98834700
_cell_length_b   9.62513300
_cell_length_c   11.70694107
_cell_angle_alpha   89.38378254
_cell_angle_beta   90.00000000
_cell_angle_gamma   90.00000000
_symmetry_Int_Tables_number   1
_chemical_formula_structural   Cu8NiC18
_chemical_formula_sum   'Cu32 Ni4 C72'
_cell_volume   1350.77918102
_cell_formula_units_Z   4
loop_
 _symmetry_equiv_pos_site_id
 _symmetry_equiv_pos_as_xyz
  1  'x, y, z'
loop_
 _atom_site_type_symbol
 _atom_site_label
 _atom_site_symmetry_multiplicity
 _atom_site_fract_x
 _atom_site_fract_y
 _atom_site_fract_z
 _atom_site_occupancy
  C  C0  1  0.93182300  0.07253100  0.59556000  1
  C  C1  1  0.30479000  0.10413400  0.54062800  1
  C  C2  1  0.56817700  0.07253100  0.09556000  1
  C  C3  1  0.19521000  0.10413400  0.04062800  1
  C  C4  1  0.76829900  0.49785600  0.68145200  1
  C  C5  1  0.73170100  0.49785600  0.18145200  1
  C  C6  1  0.26829900  0.50214400  0.81854800  1
  C  C7  1  0.23170100  0.50214400  0.31854800  1
  C  C8  1  0.80479000  0.89586600  0.95937200  1
  C  C9  1  0.43182300  0.92746900  0.90444000  1
  C  C10  1  0.69521000  0.89586600  0.45937200  1
  C  C11  1  0.06817700  0.92746900  0.40444000  1
  Ni  Ni12  1  0.85613600  0.25178000  0.95777100  1
  Ni  Ni13  1  0.64386400  0.25178000  0.45777100  1
  Ni  Ni14  1  0.35613600  0.74822000  0.54222900  1
  Ni  Ni15  1  0.14386400  0.74822000  0.04222900  1
  Cu  Cu16  1  0.64878000  0.11345400  0.89162000  1
  Cu  Cu17  1  0.85122000  0.11345400  0.39162000  1
  Cu  Cu18  1  0.26569000  0.13116400  0.77321200  1
  Cu  Cu19  1  0.23431000  0.13116400  0.27321200  1
  Cu  Cu20  1  0.46452400  0.17796700  0.80882900  1
  Cu  Cu21  1  0.03547600  0.17796700  0.30882900  1
  Cu  Cu22  1  0.09195200  0.18674700  0.87413300  1
  Cu  Cu23  1  0.63937500  0.24732200  0.71271700  1
  Cu  Cu24  1  0.40804800  0.18674700  0.37413300  1
  Cu  Cu25  1  0.86062500  0.24732200  0.21271700  1
  Cu  Cu26  1  0.11626900  0.26204600  0.67761400  1
  Cu  Cu27  1  0.38373100  0.26204600  0.17761400  1
  Cu  Cu28  1  0.39614800  0.32711100  0.97623400  1
  Cu  Cu29  1  0.10385200  0.32711100  0.47623400  1
  Cu  Cu30  1  0.71985500  0.53509500  0.89464100  1
  Cu  Cu31  1  0.78014500  0.53509500  0.39464100  1
  Cu  Cu32  1  0.21985500  0.46490500  0.60535900  1
  Cu  Cu33  1  0.28014500  0.46490500  0.10535900  1
  Cu  Cu34  1  0.89614800  0.67288900  0.52376600  1
  Cu  Cu35  1  0.60385200  0.67288900  0.02376600  1
  Cu  Cu36  1  0.61626900  0.73795400  0.82238600  1
  Cu  Cu37  1  0.88373100  0.73795400  0.32238600  1
  Cu  Cu38  1  0.13937500  0.75267800  0.78728300  1
  Cu  Cu39  1  0.59195200  0.81325300  0.62586700  1
  Cu  Cu40  1  0.36062500  0.75267800  0.28728300  1
  Cu  Cu41  1  0.90804800  0.81325300  0.12586700  1
  Cu  Cu42  1  0.96452400  0.82203300  0.69117100  1
  Cu  Cu43  1  0.53547600  0.82203300  0.19117100  1
  Cu  Cu44  1  0.76569000  0.86883600  0.72678800  1
  Cu  Cu45  1  0.73431000  0.86883600  0.22678800  1
  Cu  Cu46  1  0.14878000  0.88654600  0.60838000  1
  Cu  Cu47  1  0.35122000  0.88654600  0.10838000  1
  C  C48  1  0.53565200  0.09193600  0.88872000  1
  C  C49  1  0.71153400  0.08275400  0.98539300  1
  C  C50  1  0.37326800  0.08231000  0.77561700  1
  C  C51  1  0.96434800  0.09193600  0.38872000  1
  C  C52  1  0.78846600  0.08275400  0.48539300  1
  C  C53  1  0.12673200  0.08231000  0.27561700  1
  C  C54  1  0.20742700  0.15163200  0.87428100  1
  C  C55  1  0.70280400  0.18410600  0.80089600  1
  C  C56  1  0.29257300  0.15163200  0.37428100  1
  C  C57  1  0.79719600  0.18410600  0.30089600  1
  C  C58  1  0.04223500  0.17599500  0.97640900  1
  C  C59  1  0.45776500  0.17599500  0.47640900  1
  C  C60  1  0.21236900  0.15816500  0.67171400  1
  C  C61  1  0.52795200  0.22727800  0.71053400  1
  C  C62  1  0.28763100  0.15816500  0.17171400  1
  C  C63  1  0.97204800  0.22727800  0.21053400  1
  C  C64  1  0.69428700  0.32247300  0.62936500  1
  C  C65  1  0.05772000  0.25650200  0.56782100  1
  C  C66  1  0.80571300  0.32247300  0.12936500  1
  C  C67  1  0.04195400  0.22699400  0.77268100  1
  C  C68  1  0.44228000  0.25650200  0.06782100  1
  C  C69  1  0.45804600  0.22699400  0.27268100  1
  C  C70  1  0.41833700  0.30258700  0.86471600  1
  C  C71  1  0.08166300  0.30258700  0.36471600  1
  C  C72  1  0.80320900  0.44574600  0.87059900  1
  C  C73  1  0.69679100  0.44574600  0.37059900  1
  C  C74  1  0.16950600  0.39862700  0.69721700  1
  C  C75  1  0.31697100  0.43457100  0.99377600  1
  C  C76  1  0.33049400  0.39862700  0.19721700  1
  C  C77  1  0.18302900  0.43457100  0.49377600  1
  C  C78  1  0.81697100  0.56542900  0.50622400  1
  C  C79  1  0.66950600  0.60137300  0.80278300  1
  C  C80  1  0.68302900  0.56542900  0.00622400  1
  C  C81  1  0.83049400  0.60137300  0.30278300  1
  C  C82  1  0.30320900  0.55425400  0.62940100  1
  C  C83  1  0.19679100  0.55425400  0.12940100  1
  C  C84  1  0.91833700  0.69741300  0.63528400  1
  C  C85  1  0.58166300  0.69741300  0.13528400  1
  C  C86  1  0.54195400  0.77300600  0.72731900  1
  C  C87  1  0.55772000  0.74349800  0.93217900  1
  C  C88  1  0.95804600  0.77300600  0.22731900  1
  C  C89  1  0.19428700  0.67752700  0.87063500  1
  C  C90  1  0.94228000  0.74349800  0.43217900  1
  C  C91  1  0.30571300  0.67752700  0.37063500  1
  C  C92  1  0.02795200  0.77272200  0.78946600  1
  C  C93  1  0.71236900  0.84183500  0.82828600  1
  C  C94  1  0.47204800  0.77272200  0.28946600  1
  C  C95  1  0.78763100  0.84183500  0.32828600  1
  C  C96  1  0.54223500  0.82400500  0.52359100  1
  C  C97  1  0.95776500  0.82400500  0.02359100  1
  C  C98  1  0.20280400  0.81589400  0.69910400  1
  C  C99  1  0.70742700  0.84836800  0.62571900  1
  C  C100  1  0.29719600  0.81589400  0.19910400  1
  C  C101  1  0.79257300  0.84836800  0.12571900  1
  C  C102  1  0.87326800  0.91769000  0.72438300  1
  C  C103  1  0.21153400  0.91724600  0.51460700  1
  C  C104  1  0.03565200  0.90806400  0.61128000  1
  C  C105  1  0.62673200  0.91769000  0.22438300  1
  C  C106  1  0.28846600  0.91724600  0.01460700  1
  C  C107  1  0.46434800  0.90806400  0.11128000  1
