# generated using pymatgen
data_Cu8Ni5C6
_symmetry_space_group_name_H-M   'P 1'
_cell_length_a   5.77175000
_cell_length_b   5.86703400
_cell_length_c   34.51274118
_cell_angle_alpha   89.85262143
_cell_angle_beta   90.00000000
_cell_angle_gamma   90.00000000
_symmetry_Int_Tables_number   1
_chemical_formula_structural   Cu8Ni5C6
_chemical_formula_sum   'Cu32 Ni20 C24'
_cell_volume   1168.70293416
_cell_formula_units_Z   4
loop_
 _symmetry_equiv_pos_site_id
 _symmetry_equiv_pos_as_xyz
  1  'x, y, z'
loop_
 _atom_site_type_symbol
 _atom_site_label
 _atom_site_symmetry_multiplicity
 _atom_site_fract_x
 _atom_site_fract_y
 _atom_site_fract_z
 _atom_site_occupancy
  C  C0  1  0.74735900  0.71717800  0.00017900  1
  C  C1  1  0.75264100  0.71717800  0.50017900  1
  C  C2  1  0.29084900  0.72714200  0.25137400  1
  C  C3  1  0.20915100  0.72714200  0.75137400  1
  C  C4  1  0.73233500  0.71301200  0.33540100  1
  C  C5  1  0.79647400  0.70586700  0.66545000  1
  C  C6  1  0.76766500  0.71301200  0.83540100  1
  C  C7  1  0.70352600  0.70586700  0.16545000  1
  C  C8  1  0.27351200  0.70657600  0.08239900  1
  C  C9  1  0.28194200  0.70715200  0.41718100  1
  C  C10  1  0.22648800  0.70657600  0.58239900  1
  C  C11  1  0.21805800  0.70715200  0.91718100  1
  C  C12  1  0.78194200  0.29284800  0.08281900  1
  C  C13  1  0.72648800  0.29342400  0.91760100  1
  C  C14  1  0.71805800  0.29284800  0.58281900  1
  C  C15  1  0.77351200  0.29342400  0.41760100  1
  C  C16  1  0.23233500  0.28698800  0.16459900  1
  C  C17  1  0.29647400  0.29413300  0.83455000  1
  C  C18  1  0.26766500  0.28698800  0.66459900  1
  C  C19  1  0.20352600  0.29413300  0.33455000  1
  C  C20  1  0.70915100  0.27285800  0.74862600  1
  C  C21  1  0.79084900  0.27285800  0.24862600  1
  C  C22  1  0.24735900  0.28282200  0.49982100  1
  C  C23  1  0.25264100  0.28282200  0.99982100  1
  Ni  Ni24  1  0.01320900  0.52401800  0.28978300  1
  Ni  Ni25  1  0.48679100  0.52401800  0.78978300  1
  Ni  Ni26  1  0.50935500  0.52124900  0.87390600  1
  Ni  Ni27  1  0.50943500  0.51579100  0.62704700  1
  Ni  Ni28  1  0.99064500  0.52124900  0.37390600  1
  Ni  Ni29  1  0.99056500  0.51579100  0.12704700  1
  Ni  Ni30  1  0.48319000  0.50834600  0.54198500  1
  Ni  Ni31  1  0.01681000  0.50834600  0.04198500  1
  Ni  Ni32  1  0.01749600  0.50981900  0.45778800  1
  Ni  Ni33  1  0.48250400  0.50981900  0.95778800  1
  Ni  Ni34  1  0.98250400  0.49018100  0.54221200  1
  Ni  Ni35  1  0.51681000  0.49165400  0.45801500  1
  Ni  Ni36  1  0.51749600  0.49018100  0.04221200  1
  Ni  Ni37  1  0.98319000  0.49165400  0.95801500  1
  Ni  Ni38  1  0.00943500  0.48420900  0.87295300  1
  Ni  Ni39  1  0.00935500  0.47875100  0.62609400  1
  Ni  Ni40  1  0.49056500  0.48420900  0.37295300  1
  Ni  Ni41  1  0.49064500  0.47875100  0.12609400  1
  Ni  Ni42  1  0.51320900  0.47598200  0.21021700  1
  Ni  Ni43  1  0.98679100  0.47598200  0.71021700  1
  Cu  Cu44  1  0.42976500  0.96521900  0.03593200  1
  Cu  Cu45  1  0.43227200  0.97167100  0.46324600  1
  Cu  Cu46  1  0.07023500  0.96521900  0.53593200  1
  Cu  Cu47  1  0.06772800  0.97167100  0.96324600  1
  Cu  Cu48  1  0.61450700  0.92362600  0.11044100  1
  Cu  Cu49  1  0.62978200  0.92063900  0.38991700  1
  Cu  Cu50  1  0.88549300  0.92362600  0.61044100  1
  Cu  Cu51  1  0.87021800  0.92063900  0.88991700  1
  Cu  Cu52  1  0.35013400  0.89060900  0.18105700  1
  Cu  Cu53  1  0.35425300  0.87222500  0.31483300  1
  Cu  Cu54  1  0.14574700  0.87222500  0.81483300  1
  Cu  Cu55  1  0.14986600  0.89060900  0.68105700  1
  Cu  Cu56  1  0.66455300  0.88357400  0.25170100  1
  Cu  Cu57  1  0.83544700  0.88357400  0.75170100  1
  Cu  Cu58  1  0.48879600  0.53897700  0.70919600  1
  Cu  Cu59  1  0.01120400  0.53897700  0.20919600  1
  Cu  Cu60  1  0.51120400  0.46102300  0.29080400  1
  Cu  Cu61  1  0.98879600  0.46102300  0.79080400  1
  Cu  Cu62  1  0.33544700  0.11642600  0.74829900  1
  Cu  Cu63  1  0.16455300  0.11642600  0.24829900  1
  Cu  Cu64  1  0.85425300  0.12777500  0.18516700  1
  Cu  Cu65  1  0.64986600  0.10939100  0.81894300  1
  Cu  Cu66  1  0.85013400  0.10939100  0.31894300  1
  Cu  Cu67  1  0.64574700  0.12777500  0.68516700  1
  Cu  Cu68  1  0.37021800  0.07936100  0.61008300  1
  Cu  Cu69  1  0.12978200  0.07936100  0.11008300  1
  Cu  Cu70  1  0.38549300  0.07637400  0.88955900  1
  Cu  Cu71  1  0.11450700  0.07637400  0.38955900  1
  Cu  Cu72  1  0.93227200  0.02832900  0.03675400  1
  Cu  Cu73  1  0.92976500  0.03478100  0.46406800  1
  Cu  Cu74  1  0.56772800  0.02832900  0.53675400  1
  Cu  Cu75  1  0.57023500  0.03478100  0.96406800  1
