# generated using pymatgen
data_CuNi11C6
_symmetry_space_group_name_H-M   'P 1'
_cell_length_a   4.50718500
_cell_length_b   5.39903371
_cell_length_c   7.44730345
_cell_angle_alpha   86.15776352
_cell_angle_beta   89.46280934
_cell_angle_gamma   89.12560333
_symmetry_Int_Tables_number   1
_chemical_formula_structural   CuNi11C6
_chemical_formula_sum   'Cu1 Ni11 C6'
_cell_volume   180.79125941
_cell_formula_units_Z   1
loop_
 _symmetry_equiv_pos_site_id
 _symmetry_equiv_pos_as_xyz
  1  'x, y, z'
loop_
 _atom_site_type_symbol
 _atom_site_label
 _atom_site_symmetry_multiplicity
 _atom_site_fract_x
 _atom_site_fract_y
 _atom_site_fract_z
 _atom_site_occupancy
  C  C0  1  0.49638900  0.49729100  0.99873900  1
  C  C1  1  0.51699900  0.84441800  0.67276900  1
  C  C2  1  0.49912600  0.16559700  0.33370200  1
  C  C3  1  0.99248300  0.32463500  0.66780500  1
  C  C4  1  0.98734600  0.66385500  0.32265600  1
  C  C5  1  0.00642600  0.00282500  0.00419000  1
  Ni  Ni6  1  0.80417500  0.37067200  0.43408200  1
  Ni  Ni7  1  0.80823200  0.03558900  0.77220400  1
  Ni  Ni8  1  0.80316500  0.70446500  0.09883400  1
  Ni  Ni9  1  0.69320600  0.20274200  0.10202000  1
  Ni  Ni10  1  0.69513300  0.53716200  0.76756100  1
  Ni  Ni11  1  0.69625400  0.86990600  0.43602600  1
  Ni  Ni12  1  0.30627700  0.13009800  0.56656900  1
  Ni  Ni13  1  0.30658900  0.46584800  0.23228900  1
  Ni  Ni14  1  0.30205600  0.79399200  0.89619500  1
  Ni  Ni15  1  0.19345700  0.96166700  0.23230400  1
  Ni  Ni16  1  0.19457800  0.29468900  0.89831000  1
  Cu  Cu17  1  0.19810800  0.63454800  0.56374400  1
