# generated using pymatgen
data_Cu2Ni4C13
_symmetry_space_group_name_H-M   'P 1'
_cell_length_a   9.18311300
_cell_length_b   7.93188700
_cell_length_c   16.33706038
_cell_angle_alpha   61.61726771
_cell_angle_beta   90.00000000
_cell_angle_gamma   90.00000000
_symmetry_Int_Tables_number   1
_chemical_formula_structural   Cu2Ni4C13
_chemical_formula_sum   'Cu8 Ni16 C52'
_cell_volume   1046.93642119
_cell_formula_units_Z   4
loop_
 _symmetry_equiv_pos_site_id
 _symmetry_equiv_pos_as_xyz
  1  'x, y, z'
loop_
 _atom_site_type_symbol
 _atom_site_label
 _atom_site_symmetry_multiplicity
 _atom_site_fract_x
 _atom_site_fract_y
 _atom_site_fract_z
 _atom_site_occupancy
  C  C0  1  0.80332100  0.21958100  0.82136900  1
  C  C1  1  0.69667900  0.21958100  0.32136900  1
  C  C2  1  0.19667900  0.78041900  0.17863100  1
  C  C3  1  0.30332100  0.78041900  0.67863100  1
  C  C4  1  0.77758500  0.17395100  0.61219500  1
  C  C5  1  0.72241500  0.17395100  0.11219500  1
  C  C6  1  0.22241500  0.82604900  0.38780500  1
  C  C7  1  0.27758500  0.82604900  0.88780500  1
  C  C8  1  0.76648900  0.75407300  0.83900000  1
  C  C9  1  0.73351100  0.75407300  0.33900000  1
  C  C10  1  0.23351100  0.24592700  0.16100000  1
  C  C11  1  0.26648900  0.24592700  0.66100000  1
  Ni  Ni12  1  0.91138100  0.82281300  0.67362600  1
  Ni  Ni13  1  0.58861900  0.82281300  0.17362600  1
  Ni  Ni14  1  0.08861900  0.17718700  0.32637400  1
  Ni  Ni15  1  0.41138100  0.17718700  0.82637400  1
  Ni  Ni16  1  0.56194700  0.05083900  0.76470300  1
  Ni  Ni17  1  0.93805300  0.05083900  0.26470300  1
  Ni  Ni18  1  0.43805300  0.94916100  0.23529700  1
  Ni  Ni19  1  0.06194700  0.94916100  0.73529700  1
  Ni  Ni20  1  0.92700300  0.42710100  0.65187000  1
  Ni  Ni21  1  0.57299700  0.42710100  0.15187000  1
  Ni  Ni22  1  0.07299700  0.57289900  0.34813000  1
  Ni  Ni23  1  0.42700300  0.57289900  0.84813000  1
  Ni  Ni24  1  0.92853800  0.87552500  0.94048200  1
  Ni  Ni25  1  0.57146200  0.87552500  0.44048200  1
  Ni  Ni26  1  0.07146200  0.12447500  0.05951800  1
  Ni  Ni27  1  0.42853800  0.12447500  0.55951800  1
  Cu  Cu28  1  0.58998000  0.79543600  0.02360700  1
  Cu  Cu29  1  0.91002000  0.79543600  0.52360700  1
  Cu  Cu30  1  0.41002000  0.20456400  0.97639300  1
  Cu  Cu31  1  0.08998000  0.20456400  0.47639300  1
  Cu  Cu32  1  0.42956800  0.38604600  0.38828100  1
  Cu  Cu33  1  0.07043200  0.38604600  0.88828100  1
  Cu  Cu34  1  0.57043200  0.61395400  0.61171900  1
  Cu  Cu35  1  0.92956800  0.61395400  0.11171900  1
  C  C36  1  0.89235300  0.90233600  0.70443800  1
  C  C37  1  0.60764700  0.90233600  0.20443800  1
  C  C38  1  0.10764700  0.09766400  0.29556200  1
  C  C39  1  0.39235300  0.09766400  0.79556200  1
  C  C40  1  0.66984700  0.04234400  0.75739000  1
  C  C41  1  0.83015300  0.04234400  0.25739000  1
  C  C42  1  0.33015300  0.95765600  0.24261000  1
  C  C43  1  0.16984700  0.95765600  0.74261000  1
  C  C44  1  0.90619400  0.28748400  0.68739700  1
  C  C45  1  0.59380600  0.28748400  0.18739700  1
  C  C46  1  0.09380600  0.71251600  0.31260300  1
  C  C47  1  0.40619400  0.71251600  0.81260300  1
  C  C48  1  0.90263300  0.93254100  0.87372300  1
  C  C49  1  0.59736700  0.93254100  0.37372300  1
  C  C50  1  0.09736700  0.06745900  0.12627700  1
  C  C51  1  0.40263300  0.06745900  0.62627700  1
  C  C52  1  0.65618500  0.95057700  0.00034800  1
  C  C53  1  0.84381500  0.95057700  0.50034800  1
  C  C54  1  0.34381500  0.04942300  0.99965200  1
  C  C55  1  0.15618500  0.04942300  0.49965200  1
  C  C56  1  0.55274600  0.68970500  0.10812500  1
  C  C57  1  0.94725400  0.68970500  0.60812500  1
  C  C58  1  0.44725400  0.31029500  0.89187500  1
  C  C59  1  0.05274600  0.31029500  0.39187500  1
  C  C60  1  0.55875800  0.74242800  0.96333700  1
  C  C61  1  0.94124200  0.74242800  0.46333700  1
  C  C62  1  0.44124200  0.25757200  0.03666300  1
  C  C63  1  0.05875800  0.25757200  0.53666300  1
  C  C64  1  0.36459200  0.45814800  0.43257800  1
  C  C65  1  0.13540800  0.45814800  0.93257800  1
  C  C66  1  0.63540800  0.54185200  0.56742200  1
  C  C67  1  0.86459200  0.54185200  0.06742200  1
  C  C68  1  0.47607100  0.21277600  0.43232000  1
  C  C69  1  0.02392900  0.21277600  0.93232000  1
  C  C70  1  0.52392900  0.78722400  0.56768000  1
  C  C71  1  0.97607100  0.78722400  0.06768000  1
  C  C72  1  0.45232500  0.48167400  0.30156700  1
  C  C73  1  0.04767500  0.48167400  0.80156700  1
  C  C74  1  0.54767500  0.51832600  0.69843300  1
  C  C75  1  0.95232500  0.51832600  0.19843300  1
