# generated using pymatgen
data_Cu2NiC17
_symmetry_space_group_name_H-M   'P 1'
_cell_length_a   6.38820800
_cell_length_b   7.57898300
_cell_length_c   15.93186900
_cell_angle_alpha   90.00000000
_cell_angle_beta   90.00000000
_cell_angle_gamma   90.00000000
_symmetry_Int_Tables_number   1
_chemical_formula_structural   Cu2NiC17
_chemical_formula_sum   'Cu8 Ni4 C68'
_cell_volume   771.35927866
_cell_formula_units_Z   4
loop_
 _symmetry_equiv_pos_site_id
 _symmetry_equiv_pos_as_xyz
  1  'x, y, z'
loop_
 _atom_site_type_symbol
 _atom_site_label
 _atom_site_symmetry_multiplicity
 _atom_site_fract_x
 _atom_site_fract_y
 _atom_site_fract_z
 _atom_site_occupancy
  C  C0  1  0.01835500  0.53393700  0.06911600  1
  C  C1  1  0.48164500  0.53393700  0.06911600  1
  C  C2  1  0.75000000  0.33813200  0.14141900  1
  C  C3  1  0.00883700  0.10087600  0.11995400  1
  C  C4  1  0.49116300  0.10087600  0.11995400  1
  C  C5  1  0.25000000  0.33040200  0.16145800  1
  C  C6  1  0.75000000  0.80490200  0.19405100  1
  C  C7  1  0.50929700  0.55069500  0.21140300  1
  C  C8  1  0.99070300  0.55069500  0.21140300  1
  C  C9  1  0.00929700  0.05069500  0.28859700  1
  C  C10  1  0.49070300  0.05069500  0.28859700  1
  C  C11  1  0.25000000  0.30490200  0.30594900  1
  C  C12  1  0.75000000  0.83040200  0.33854200  1
  C  C13  1  0.99116300  0.60087600  0.38004600  1
  C  C14  1  0.50883700  0.60087600  0.38004600  1
  C  C15  1  0.25000000  0.83813200  0.35858100  1
  C  C16  1  0.51835500  0.03393700  0.43088400  1
  C  C17  1  0.98164500  0.03393700  0.43088400  1
  C  C18  1  0.01835500  0.96606300  0.56911600  1
  C  C19  1  0.48164500  0.96606300  0.56911600  1
  C  C20  1  0.75000000  0.16186800  0.64141900  1
  C  C21  1  0.49116300  0.39912400  0.61995400  1
  C  C22  1  0.00883700  0.39912400  0.61995400  1
  C  C23  1  0.25000000  0.16959800  0.66145800  1
  C  C24  1  0.75000000  0.69509800  0.69405100  1
  C  C25  1  0.50929700  0.94930500  0.71140300  1
  C  C26  1  0.99070300  0.94930500  0.71140300  1
  C  C27  1  0.00929700  0.44930500  0.78859700  1
  C  C28  1  0.49070300  0.44930500  0.78859700  1
  C  C29  1  0.25000000  0.19509800  0.80594900  1
  C  C30  1  0.75000000  0.66959800  0.83854200  1
  C  C31  1  0.99116300  0.89912400  0.88004600  1
  C  C32  1  0.50883700  0.89912400  0.88004600  1
  C  C33  1  0.25000000  0.66186800  0.85858100  1
  C  C34  1  0.51835500  0.46606300  0.93088400  1
  C  C35  1  0.98164500  0.46606300  0.93088400  1
  Ni  Ni36  1  0.25000000  0.83935100  0.00475100  1
  Ni  Ni37  1  0.75000000  0.33935100  0.49524900  1
  Ni  Ni38  1  0.25000000  0.66064900  0.50475100  1
  Ni  Ni39  1  0.75000000  0.16064900  0.99524900  1
  Cu  Cu40  1  0.75000000  0.76825400  0.03299900  1
  Cu  Cu41  1  0.25000000  0.79645800  0.19841300  1
  Cu  Cu42  1  0.75000000  0.29645800  0.30158700  1
  Cu  Cu43  1  0.25000000  0.26825400  0.46700100  1
  Cu  Cu44  1  0.75000000  0.73174600  0.53299900  1
  Cu  Cu45  1  0.25000000  0.70354200  0.69841300  1
  Cu  Cu46  1  0.75000000  0.20354200  0.80158700  1
  Cu  Cu47  1  0.25000000  0.23174600  0.96700100  1
  C  C48  1  0.97659200  0.28947400  0.02366100  1
  C  C49  1  0.52340800  0.28947400  0.02366100  1
  C  C50  1  0.75000000  0.00514300  0.08333700  1
  C  C51  1  0.75000000  0.59136400  0.12929100  1
  C  C52  1  0.25000000  0.56850500  0.14156100  1
  C  C53  1  0.25000000  0.96022700  0.10059500  1
  C  C54  1  0.50317900  0.27882000  0.22322700  1
  C  C55  1  0.99682100  0.27882000  0.22322700  1
  C  C56  1  0.00317900  0.77882000  0.27677300  1
  C  C57  1  0.49682100  0.77882000  0.27677300  1
  C  C58  1  0.75000000  0.46022700  0.39940500  1
  C  C59  1  0.75000000  0.06850500  0.35843900  1
  C  C60  1  0.25000000  0.09136400  0.37070900  1
  C  C61  1  0.25000000  0.50514300  0.41666300  1
  C  C62  1  0.47659200  0.78947400  0.47633900  1
  C  C63  1  0.02340800  0.78947400  0.47633900  1
  C  C64  1  0.97659200  0.21052600  0.52366100  1
  C  C65  1  0.52340800  0.21052600  0.52366100  1
  C  C66  1  0.75000000  0.49485700  0.58333700  1
  C  C67  1  0.75000000  0.90863600  0.62929100  1
  C  C68  1  0.25000000  0.93149500  0.64156100  1
  C  C69  1  0.25000000  0.53977300  0.60059500  1
  C  C70  1  0.50317900  0.22118000  0.72322700  1
  C  C71  1  0.99682100  0.22118000  0.72322700  1
  C  C72  1  0.00317900  0.72118000  0.77677300  1
  C  C73  1  0.49682100  0.72118000  0.77677300  1
  C  C74  1  0.75000000  0.03977300  0.89940500  1
  C  C75  1  0.75000000  0.43149500  0.85843900  1
  C  C76  1  0.25000000  0.40863600  0.87070900  1
  C  C77  1  0.25000000  0.99485700  0.91666300  1
  C  C78  1  0.47659200  0.71052600  0.97633900  1
  C  C79  1  0.02340800  0.71052600  0.97633900  1
