# generated using pymatgen
data_Cu3NiC5
_symmetry_space_group_name_H-M   'P 1'
_cell_length_a   8.61790900
_cell_length_b   9.52459900
_cell_length_c   10.06254952
_cell_angle_alpha   61.09199929
_cell_angle_beta   90.00000000
_cell_angle_gamma   90.00000000
_symmetry_Int_Tables_number   1
_chemical_formula_structural   Cu3NiC5
_chemical_formula_sum   'Cu24 Ni8 C40'
_cell_volume   723.03897015
_cell_formula_units_Z   8
loop_
 _symmetry_equiv_pos_site_id
 _symmetry_equiv_pos_as_xyz
  1  'x, y, z'
loop_
 _atom_site_type_symbol
 _atom_site_label
 _atom_site_symmetry_multiplicity
 _atom_site_fract_x
 _atom_site_fract_y
 _atom_site_fract_z
 _atom_site_occupancy
  C  C0  1  0.88277600  0.48807100  0.25628400  1
  C  C1  1  0.61722400  0.98807100  0.25628400  1
  C  C2  1  0.38277600  0.01192900  0.74371600  1
  C  C3  1  0.11722400  0.51192900  0.74371600  1
  Ni  Ni4  1  0.81488800  0.36578700  0.99811800  1
  Ni  Ni5  1  0.68511200  0.86578700  0.99811800  1
  Ni  Ni6  1  0.55102000  0.25769400  0.39088900  1
  Ni  Ni7  1  0.05102000  0.24230600  0.60911100  1
  Ni  Ni8  1  0.94898000  0.75769400  0.39088900  1
  Ni  Ni9  1  0.44898000  0.74230600  0.60911100  1
  Ni  Ni10  1  0.31488800  0.13421300  0.00188200  1
  Ni  Ni11  1  0.18511200  0.63421300  0.00188200  1
  Cu  Cu12  1  0.20707200  0.87771400  0.99444500  1
  Cu  Cu13  1  0.29292800  0.37771400  0.99444500  1
  Cu  Cu14  1  0.23198000  0.11916300  0.28379500  1
  Cu  Cu15  1  0.05210400  0.03737300  0.33415700  1
  Cu  Cu16  1  0.10975800  0.17464300  0.38382600  1
  Cu  Cu17  1  0.37521600  0.39671500  0.19495900  1
  Cu  Cu18  1  0.19616200  0.99173100  0.46522500  1
  Cu  Cu19  1  0.26802000  0.61916300  0.28379500  1
  Cu  Cu20  1  0.44789600  0.53737300  0.33415700  1
  Cu  Cu21  1  0.39024200  0.67464300  0.38382600  1
  Cu  Cu22  1  0.12478400  0.89671500  0.19495900  1
  Cu  Cu23  1  0.30383800  0.49173100  0.46522500  1
  Cu  Cu24  1  0.69616200  0.50826900  0.53477500  1
  Cu  Cu25  1  0.87521600  0.10328500  0.80504100  1
  Cu  Cu26  1  0.60975800  0.32535700  0.61617400  1
  Cu  Cu27  1  0.55210400  0.46262700  0.66584300  1
  Cu  Cu28  1  0.73198000  0.38083700  0.71620500  1
  Cu  Cu29  1  0.80383800  0.00826900  0.53477500  1
  Cu  Cu30  1  0.62478400  0.60328500  0.80504100  1
  Cu  Cu31  1  0.89024200  0.82535700  0.61617400  1
  Cu  Cu32  1  0.94789600  0.96262700  0.66584300  1
  Cu  Cu33  1  0.76802000  0.88083700  0.71620500  1
  Cu  Cu34  1  0.70707200  0.62228600  0.00555500  1
  Cu  Cu35  1  0.79292800  0.12228600  0.00555500  1
  C  C36  1  0.14703000  0.08039100  0.36606000  1
  C  C37  1  0.35297000  0.58039100  0.36606000  1
  C  C38  1  0.64703000  0.41960900  0.63394000  1
  C  C39  1  0.85297000  0.91960900  0.63394000  1
  C  C40  1  0.17840800  0.01710000  0.04163400  1
  C  C41  1  0.74318700  0.18681000  0.05148900  1
  C  C42  1  0.40874900  0.10773300  0.14192400  1
  C  C43  1  0.32159200  0.51710000  0.04163400  1
  C  C44  1  0.90702200  0.35427200  0.13322000  1
  C  C45  1  0.75681300  0.68681000  0.05148900  1
  C  C46  1  0.09125100  0.60773300  0.14192400  1
  C  C47  1  0.63744000  0.12574000  0.37437000  1
  C  C48  1  0.39111100  0.30172200  0.30450300  1
  C  C49  1  0.59297800  0.85427200  0.13322000  1
  C  C50  1  0.64715100  0.41327600  0.33276100  1
  C  C51  1  0.00985800  0.29920700  0.44058400  1
  C  C52  1  0.86256000  0.62574000  0.37437000  1
  C  C53  1  0.50985800  0.20079300  0.55941600  1
  C  C54  1  0.10888900  0.80172200  0.30450300  1
  C  C55  1  0.14715100  0.08672400  0.66723900  1
  C  C56  1  0.85284900  0.91327600  0.33276100  1
  C  C57  1  0.89111100  0.19827800  0.69549700  1
  C  C58  1  0.49014200  0.79920700  0.44058400  1
  C  C59  1  0.13744000  0.37426000  0.62563000  1
  C  C60  1  0.99014200  0.70079300  0.55941600  1
  C  C61  1  0.35284900  0.58672400  0.66723900  1
  C  C62  1  0.40702200  0.14572800  0.86678000  1
  C  C63  1  0.60888900  0.69827800  0.69549700  1
  C  C64  1  0.36256000  0.87426000  0.62563000  1
  C  C65  1  0.90874900  0.39226700  0.85807600  1
  C  C66  1  0.24318700  0.31319000  0.94851100  1
  C  C67  1  0.09297800  0.64572800  0.86678000  1
  C  C68  1  0.67840800  0.48290000  0.95836600  1
  C  C69  1  0.59125100  0.89226700  0.85807600  1
  C  C70  1  0.25681300  0.81319000  0.94851100  1
  C  C71  1  0.82159200  0.98290000  0.95836600  1
