# generated using pymatgen
data_Cu2(NiC)3
_symmetry_space_group_name_H-M   'P 1'
_cell_length_a   5.51881200
_cell_length_b   6.60507900
_cell_length_c   9.48367600
_cell_angle_alpha   90.00000000
_cell_angle_beta   90.00000000
_cell_angle_gamma   90.00000000
_symmetry_Int_Tables_number   1
_chemical_formula_structural   Cu2(NiC)3
_chemical_formula_sum   'Cu8 Ni12 C12'
_cell_volume   345.70075230
_cell_formula_units_Z   4
loop_
 _symmetry_equiv_pos_site_id
 _symmetry_equiv_pos_as_xyz
  1  'x, y, z'
loop_
 _atom_site_type_symbol
 _atom_site_label
 _atom_site_symmetry_multiplicity
 _atom_site_fract_x
 _atom_site_fract_y
 _atom_site_fract_z
 _atom_site_occupancy
  C  C0  1  0.71651400  0.25000000  0.25922800  1
  C  C1  1  0.21651400  0.25000000  0.24077200  1
  C  C2  1  0.28348600  0.75000000  0.74077200  1
  C  C3  1  0.78348600  0.75000000  0.75922800  1
  C  C4  1  0.03347500  0.25000000  0.62537400  1
  C  C5  1  0.53347500  0.25000000  0.87462600  1
  C  C6  1  0.46652500  0.75000000  0.12537400  1
  C  C7  1  0.96652500  0.75000000  0.37462600  1
  C  C8  1  0.47409000  0.25000000  0.55728100  1
  C  C9  1  0.97409000  0.25000000  0.94271900  1
  C  C10  1  0.02591000  0.75000000  0.05728100  1
  C  C11  1  0.52591000  0.75000000  0.44271900  1
  Ni  Ni12  1  0.80557600  0.25000000  0.03649000  1
  Ni  Ni13  1  0.30557600  0.25000000  0.46351000  1
  Ni  Ni14  1  0.69797200  0.25000000  0.53096400  1
  Ni  Ni15  1  0.19797200  0.25000000  0.96903600  1
  Ni  Ni16  1  0.88073700  0.25000000  0.81371200  1
  Ni  Ni17  1  0.38073700  0.25000000  0.68628800  1
  Ni  Ni18  1  0.80202800  0.75000000  0.03096400  1
  Ni  Ni19  1  0.11926300  0.75000000  0.18628800  1
  Ni  Ni20  1  0.61926300  0.75000000  0.31371200  1
  Ni  Ni21  1  0.30202800  0.75000000  0.46903600  1
  Ni  Ni22  1  0.69442400  0.75000000  0.53649000  1
  Ni  Ni23  1  0.19442400  0.75000000  0.96351000  1
  Cu  Cu24  1  0.45543200  0.04036500  0.16146400  1
  Cu  Cu25  1  0.95543200  0.04036500  0.33853600  1
  Cu  Cu26  1  0.45543200  0.45963500  0.16146400  1
  Cu  Cu27  1  0.95543200  0.45963500  0.33853600  1
  Cu  Cu28  1  0.54456800  0.54036500  0.83853600  1
  Cu  Cu29  1  0.04456800  0.54036500  0.66146400  1
  Cu  Cu30  1  0.04456800  0.95963500  0.66146400  1
  Cu  Cu31  1  0.54456800  0.95963500  0.83853600  1
