# generated using pymatgen
data_Cu8Ni2C5
_symmetry_space_group_name_H-M   'P 1'
_cell_length_a   4.84766800
_cell_length_b   7.96787894
_cell_length_c   10.13270720
_cell_angle_alpha   71.10086499
_cell_angle_beta   88.10222184
_cell_angle_gamma   89.11385846
_symmetry_Int_Tables_number   1
_chemical_formula_structural   Cu8Ni2C5
_chemical_formula_sum   'Cu16 Ni4 C10'
_cell_volume   370.07515166
_cell_formula_units_Z   2
loop_
 _symmetry_equiv_pos_site_id
 _symmetry_equiv_pos_as_xyz
  1  'x, y, z'
loop_
 _atom_site_type_symbol
 _atom_site_label
 _atom_site_symmetry_multiplicity
 _atom_site_fract_x
 _atom_site_fract_y
 _atom_site_fract_z
 _atom_site_occupancy
  C  C0  1  0.50166900  0.69847300  0.89475300  1
  C  C1  1  0.48825200  0.90967300  0.30601400  1
  C  C2  1  0.50420800  0.09796400  0.69653300  1
  C  C3  1  0.46830700  0.31095600  0.10831300  1
  C  C4  1  0.48917300  0.49416300  0.51108600  1
  C  C5  1  0.02770700  0.39255800  0.78641600  1
  C  C6  1  0.97541000  0.80272900  0.61057200  1
  C  C7  1  0.01748000  0.19326700  0.39314600  1
  C  C8  1  0.01905800  0.59808300  0.19156100  1
  C  C9  1  0.99437300  0.00655100  0.00140900  1
  Ni  Ni10  1  0.32128400  0.31321600  0.68004100  1
  Ni  Ni11  1  0.30418300  0.54813300  0.07298700  1
  Ni  Ni12  1  0.30885400  0.15080500  0.26850500  1
  Ni  Ni13  1  0.67771900  0.86099400  0.73639000  1
  Cu  Cu14  1  0.21362900  0.24388700  0.97999400  1
  Cu  Cu15  1  0.21168300  0.03562500  0.58260900  1
  Cu  Cu16  1  0.18427500  0.45664100  0.36714300  1
  Cu  Cu17  1  0.20799600  0.63676700  0.78576800  1
  Cu  Cu18  1  0.18267300  0.82788500  0.18292600  1
  Cu  Cu19  1  0.29639200  0.93377400  0.88642500  1
  Cu  Cu20  1  0.29126100  0.73877300  0.48625100  1
  Cu  Cu21  1  0.71189500  0.24604600  0.51806700  1
  Cu  Cu22  1  0.70028800  0.65837700  0.31785800  1
  Cu  Cu23  1  0.69991400  0.08240300  0.11247500  1
  Cu  Cu24  1  0.69973700  0.46240100  0.92248700  1
  Cu  Cu25  1  0.80678500  0.55823300  0.62154500  1
  Cu  Cu26  1  0.80724200  0.95503600  0.42013000  1
  Cu  Cu27  1  0.79447500  0.15505100  0.81958700  1
  Cu  Cu28  1  0.79631900  0.75183600  0.02962900  1
  Cu  Cu29  1  0.79775800  0.37969800  0.20937800  1
