# generated using pymatgen
data_Cu2Ni8C13
_symmetry_space_group_name_H-M   'P 1'
_cell_length_a   11.46605455
_cell_length_b   11.46605455
_cell_length_c   11.02732412
_cell_angle_alpha   68.62172383
_cell_angle_beta   68.62172383
_cell_angle_gamma   48.13114081
_symmetry_Int_Tables_number   1
_chemical_formula_structural   Cu2Ni8C13
_chemical_formula_sum   'Cu8 Ni32 C52'
_cell_volume   989.83855074
_cell_formula_units_Z   4
loop_
 _symmetry_equiv_pos_site_id
 _symmetry_equiv_pos_as_xyz
  1  'x, y, z'
loop_
 _atom_site_type_symbol
 _atom_site_label
 _atom_site_symmetry_multiplicity
 _atom_site_fract_x
 _atom_site_fract_y
 _atom_site_fract_z
 _atom_site_occupancy
  C  C0  1  0.00000000  0.50000000  0.00000000  1
  C  C1  1  0.74938800  0.25061200  0.75000000  1
  C  C2  1  0.50000000  0.00000000  0.50000000  1
  C  C3  1  0.25061200  0.74938800  0.25000000  1
  Ni  Ni4  1  0.98194300  0.74791600  0.97922600  1
  Ni  Ni5  1  0.24646900  0.48483200  0.96575800  1
  Ni  Ni6  1  0.65300100  0.09431400  0.96042000  1
  Ni  Ni7  1  0.99650700  0.96502300  0.83346200  1
  Ni  Ni8  1  0.46292600  0.49670100  0.83318300  1
  Ni  Ni9  1  0.19381300  0.20917200  0.95089100  1
  Ni  Ni10  1  0.72195300  0.68137800  0.94918700  1
  Ni  Ni11  1  0.60482200  0.13146000  0.81930900  1
  Ni  Ni12  1  0.86854000  0.39517800  0.68069100  1
  Ni  Ni13  1  0.31862200  0.27804700  0.55081300  1
  Ni  Ni14  1  0.74791600  0.98194300  0.47922600  1
  Ni  Ni15  1  0.79082800  0.80618700  0.54910900  1
  Ni  Ni16  1  0.48483200  0.24646900  0.46575800  1
  Ni  Ni17  1  0.09431400  0.65300100  0.46042000  1
  Ni  Ni18  1  0.96502300  0.99650700  0.33346200  1
  Ni  Ni19  1  0.49670100  0.46292600  0.33318300  1
  Ni  Ni20  1  0.50329900  0.53707400  0.66681700  1
  Ni  Ni21  1  0.03497700  0.00349300  0.66653800  1
  Ni  Ni22  1  0.90568600  0.34699900  0.53958000  1
  Ni  Ni23  1  0.51516800  0.75353100  0.53424200  1
  Ni  Ni24  1  0.20917200  0.19381300  0.45089100  1
  Ni  Ni25  1  0.25208400  0.01805700  0.52077400  1
  Ni  Ni26  1  0.68137800  0.72195300  0.44918700  1
  Ni  Ni27  1  0.13146000  0.60482200  0.31930900  1
  Ni  Ni28  1  0.39517800  0.86854000  0.18069100  1
  Ni  Ni29  1  0.27804700  0.31862200  0.05081300  1
  Ni  Ni30  1  0.80618700  0.79082800  0.04910900  1
  Ni  Ni31  1  0.53707400  0.50329900  0.16681700  1
  Ni  Ni32  1  0.00349300  0.03497700  0.16653800  1
  Ni  Ni33  1  0.34699900  0.90568600  0.03958000  1
  Ni  Ni34  1  0.75353100  0.51516800  0.03424200  1
  Ni  Ni35  1  0.01805700  0.25208400  0.02077400  1
  Cu  Cu36  1  0.23009800  0.73342100  0.96714600  1
  Cu  Cu37  1  0.50032700  0.98131700  0.79957500  1
  Cu  Cu38  1  0.01868300  0.49967300  0.70042500  1
  Cu  Cu39  1  0.73342100  0.23009800  0.46714600  1
  Cu  Cu40  1  0.26657900  0.76990200  0.53285400  1
  Cu  Cu41  1  0.98131700  0.50032700  0.29957500  1
  Cu  Cu42  1  0.49967300  0.01868300  0.20042500  1
  Cu  Cu43  1  0.76990200  0.26657900  0.03285400  1
  C  C44  1  0.06186900  0.82609900  0.95100100  1
  C  C45  1  0.32196700  0.56688500  0.94887900  1
  C  C46  1  0.91170000  0.71717000  0.99430200  1
  C  C47  1  0.22158400  0.41112400  0.97678700  1
  C  C48  1  0.63985600  0.16075800  0.86884000  1
  C  C49  1  0.95503300  0.04496700  0.75000000  1
  C  C50  1  0.54347800  0.45652200  0.75000000  1
  C  C51  1  0.36092300  0.03381800  0.91023500  1
  C  C52  1  0.01396000  0.55817200  0.80902300  1
  C  C53  1  0.63719200  0.81733700  0.83686200  1
  C  C54  1  0.53667400  0.09313300  0.74923100  1
  C  C55  1  0.71743900  0.21622600  0.61454400  1
  C  C56  1  0.19160800  0.69849300  0.61581200  1
  C  C57  1  0.30150700  0.80839200  0.88418800  1
  C  C58  1  0.78377400  0.28256100  0.88545600  1
  C  C59  1  0.90686700  0.46332600  0.75076900  1
  C  C60  1  0.18266300  0.36280800  0.66313800  1
  C  C61  1  0.44182800  0.98604000  0.69097700  1
  C  C62  1  0.96618200  0.63907700  0.58976500  1
  C  C63  1  0.82609900  0.06186900  0.45100100  1
  C  C64  1  0.56688500  0.32196700  0.44887900  1
  C  C65  1  0.71717000  0.91170000  0.49430200  1
  C  C66  1  0.41112400  0.22158400  0.47678700  1
  C  C67  1  0.83924200  0.36014400  0.63116000  1
  C  C68  1  0.16075800  0.63985600  0.36884000  1
  C  C69  1  0.58887600  0.77841600  0.52321300  1
  C  C70  1  0.28283000  0.08830000  0.50569800  1
  C  C71  1  0.04496700  0.95503300  0.25000000  1
  C  C72  1  0.45652200  0.54347800  0.25000000  1
  C  C73  1  0.43311500  0.67803300  0.55112100  1
  C  C74  1  0.17390100  0.93813100  0.54899900  1
  C  C75  1  0.03381800  0.36092300  0.41023500  1
  C  C76  1  0.55817200  0.01396000  0.30902300  1
  C  C77  1  0.81733700  0.63719200  0.33686200  1
  C  C78  1  0.09313300  0.53667400  0.24923100  1
  C  C79  1  0.21622600  0.71743900  0.11454400  1
  C  C80  1  0.69849300  0.19160800  0.11581200  1
  C  C81  1  0.80839200  0.30150700  0.38418800  1
  C  C82  1  0.28256100  0.78377400  0.38545600  1
  C  C83  1  0.46332600  0.90686700  0.25076900  1
  C  C84  1  0.36280800  0.18266300  0.16313800  1
  C  C85  1  0.98604000  0.44182800  0.19097700  1
  C  C86  1  0.63907700  0.96618200  0.08976500  1
  C  C87  1  0.36014400  0.83924200  0.13116000  1
  C  C88  1  0.77841600  0.58887600  0.02321300  1
  C  C89  1  0.08830000  0.28283000  0.00569800  1
  C  C90  1  0.67803300  0.43311500  0.05112100  1
  C  C91  1  0.93813100  0.17390100  0.04899900  1
