# generated using pymatgen
data_Cu(NiC)2
_symmetry_space_group_name_H-M   'P 1'
_cell_length_a   8.68941100
_cell_length_b   8.73010626
_cell_length_c   8.74878820
_cell_angle_alpha   109.44860277
_cell_angle_beta   109.33947760
_cell_angle_gamma   109.31668465
_symmetry_Int_Tables_number   1
_chemical_formula_structural   Cu(NiC)2
_chemical_formula_sum   'Cu8 Ni16 C16'
_cell_volume   512.83779808
_cell_formula_units_Z   8
loop_
 _symmetry_equiv_pos_site_id
 _symmetry_equiv_pos_as_xyz
  1  'x, y, z'
loop_
 _atom_site_type_symbol
 _atom_site_label
 _atom_site_symmetry_multiplicity
 _atom_site_fract_x
 _atom_site_fract_y
 _atom_site_fract_z
 _atom_site_occupancy
  C  C0  1  0.99002800  0.00127500  0.49116900  1
  C  C1  1  0.25188000  0.70699100  0.46485700  1
  C  C2  1  0.29187800  0.04077300  0.25062300  1
  C  C3  1  0.77618100  0.52722600  0.24918800  1
  C  C4  1  0.74171700  0.78798700  0.03299800  1
  C  C5  1  0.03218100  0.25937100  0.28575100  1
  C  C6  1  0.46982600  0.74791900  0.21488800  1
  C  C7  1  0.48955600  0.49128500  0.48944000  1
  C  C8  1  0.50102500  0.99988100  0.01107900  1
  C  C9  1  0.00540000  0.49188600  0.99576900  1
  C  C10  1  0.96696000  0.74154200  0.71384700  1
  C  C11  1  0.54262300  0.25312300  0.78551100  1
  C  C12  1  0.25635400  0.21417200  0.97283700  1
  C  C13  1  0.71347000  0.96851100  0.74963000  1
  C  C14  1  0.21129600  0.46535000  0.75065900  1
  C  C15  1  0.74782800  0.28578200  0.53519400  1
  Ni  Ni16  1  0.73385300  0.76286000  0.27236900  1
  Ni  Ni17  1  0.98847200  0.46360300  0.23073700  1
  Ni  Ni18  1  0.53329000  0.27460600  0.04024300  1
  Ni  Ni19  1  0.54327400  0.03230500  0.27192100  1
  Ni  Ni20  1  0.51173800  0.74352900  0.46955200  1
  Ni  Ni21  1  0.22508800  0.95491700  0.96451400  1
  Ni  Ni22  1  0.26014100  0.27208500  0.22856500  1
  Ni  Ni23  1  0.73037700  0.49275000  0.45669700  1
  Ni  Ni24  1  0.48546000  0.26302400  0.53815500  1
  Ni  Ni25  1  0.77413600  0.22768100  0.76869000  1
  Ni  Ni26  1  0.77449300  0.04230900  0.03085700  1
  Ni  Ni27  1  0.46756700  0.72582600  0.95125500  1
  Ni  Ni28  1  0.23832500  0.46437400  0.01153600  1
  Ni  Ni29  1  0.01198900  0.54587700  0.77480700  1
  Ni  Ni30  1  0.27343900  0.51599300  0.54854300  1
  Ni  Ni31  1  0.95446700  0.22219700  0.48774700  1
  Cu  Cu32  1  0.96002400  0.00601200  0.72899100  1
  Cu  Cu33  1  0.45129900  0.96709200  0.72409500  1
  Cu  Cu34  1  0.05911200  0.78537700  0.52489200  1
  Cu  Cu35  1  0.03950300  0.98542000  0.26754800  1
  Cu  Cu36  1  0.22166900  0.77350700  0.23533400  1
  Cu  Cu37  1  0.74957100  0.73117700  0.77769700  1
  Cu  Cu38  1  0.75788500  0.53611400  0.97764400  1
  Cu  Cu39  1  0.26662800  0.22829200  0.72416700  1
