# generated using pymatgen
data_Cu16Ni4C7
_symmetry_space_group_name_H-M   'P 1'
_cell_length_a   15.76226900
_cell_length_b   5.50668900
_cell_length_c   9.71002743
_cell_angle_alpha   74.91085976
_cell_angle_beta   90.00000000
_cell_angle_gamma   90.00000000
_symmetry_Int_Tables_number   1
_chemical_formula_structural   Cu16Ni4C7
_chemical_formula_sum   'Cu32 Ni8 C14'
_cell_volume   813.75170284
_cell_formula_units_Z   2
loop_
 _symmetry_equiv_pos_site_id
 _symmetry_equiv_pos_as_xyz
  1  'x, y, z'
loop_
 _atom_site_type_symbol
 _atom_site_label
 _atom_site_symmetry_multiplicity
 _atom_site_fract_x
 _atom_site_fract_y
 _atom_site_fract_z
 _atom_site_occupancy
  C  C0  1  0.50000000  0.00000000  0.50000000  1
  C  C1  1  0.00000000  0.00000000  0.00000000  1
  C  C2  1  0.79903400  0.53069500  0.67707800  1
  C  C3  1  0.29903400  0.46930500  0.82292200  1
  C  C4  1  0.20096600  0.46930500  0.32292200  1
  C  C5  1  0.70096600  0.53069500  0.17707800  1
  C  C6  1  0.26860300  0.18766900  0.72471900  1
  C  C7  1  0.76860300  0.81233100  0.77528100  1
  C  C8  1  0.73139700  0.81233100  0.27528100  1
  C  C9  1  0.23139700  0.18766900  0.22471900  1
  C  C10  1  0.26939200  0.81039700  0.45884400  1
  C  C11  1  0.76939200  0.18960300  0.04115600  1
  C  C12  1  0.73060800  0.18960300  0.54115600  1
  C  C13  1  0.23060800  0.81039700  0.95884400  1
  Ni  Ni14  1  0.56731900  0.59022800  0.27957400  1
  Ni  Ni15  1  0.06731900  0.40977200  0.22042600  1
  Ni  Ni16  1  0.43268100  0.40977200  0.72042600  1
  Ni  Ni17  1  0.93268100  0.59022800  0.77957400  1
  Ni  Ni18  1  0.32977000  0.86108100  0.26078300  1
  Ni  Ni19  1  0.82977000  0.13891900  0.23921700  1
  Ni  Ni20  1  0.67023000  0.13891900  0.73921700  1
  Ni  Ni21  1  0.17023000  0.86108100  0.76078300  1
  Cu  Cu22  1  0.81948800  0.62899300  0.74191100  1
  Cu  Cu23  1  0.31948800  0.37100700  0.75808900  1
  Cu  Cu24  1  0.18051200  0.37100700  0.25808900  1
  Cu  Cu25  1  0.68051200  0.62899300  0.24191100  1
  Cu  Cu26  1  0.71843800  0.86042800  0.54466400  1
  Cu  Cu27  1  0.21843800  0.13957200  0.95533600  1
  Cu  Cu28  1  0.28156200  0.13957200  0.45533600  1
  Cu  Cu29  1  0.78156200  0.86042800  0.04466400  1
  Cu  Cu30  1  0.43684100  0.68998000  0.67001500  1
  Cu  Cu31  1  0.93684100  0.31002000  0.82998500  1
  Cu  Cu32  1  0.56315900  0.31002000  0.32998500  1
  Cu  Cu33  1  0.06315900  0.68998000  0.17001500  1
  Cu  Cu34  1  0.43426500  0.29204300  0.59935600  1
  Cu  Cu35  1  0.93426500  0.70795700  0.90064400  1
  Cu  Cu36  1  0.56573500  0.70795700  0.40064400  1
  Cu  Cu37  1  0.06573500  0.29204300  0.09935600  1
  Cu  Cu38  1  0.60300100  0.00009000  0.69025200  1
  Cu  Cu39  1  0.10300100  0.99991000  0.80974800  1
  Cu  Cu40  1  0.39699900  0.99991000  0.30974800  1
  Cu  Cu41  1  0.89699900  0.00009000  0.19025200  1
  Cu  Cu42  1  0.14809400  0.70010200  0.67261900  1
  Cu  Cu43  1  0.64809400  0.29989800  0.82738100  1
  Cu  Cu44  1  0.85190600  0.29989800  0.32738100  1
  Cu  Cu45  1  0.35190600  0.70010200  0.17261900  1
  Cu  Cu46  1  0.23815500  0.04735200  0.68137400  1
  Cu  Cu47  1  0.73815500  0.95264800  0.81862600  1
  Cu  Cu48  1  0.76184500  0.95264800  0.31862600  1
  Cu  Cu49  1  0.26184500  0.04735200  0.18137400  1
  Cu  Cu50  1  0.71840400  0.30675900  0.60324900  1
  Cu  Cu51  1  0.21840400  0.69324100  0.89675100  1
  Cu  Cu52  1  0.28159600  0.69324100  0.39675100  1
  Cu  Cu53  1  0.78159600  0.30675900  0.10324900  1
