# generated using pymatgen
data_Cu8Ni2C
_symmetry_space_group_name_H-M   'P 1'
_cell_length_a   8.83688341
_cell_length_b   8.83688386
_cell_length_c   8.83688369
_cell_angle_alpha   55.96841835
_cell_angle_beta   55.96842886
_cell_angle_gamma   55.96842783
_symmetry_Int_Tables_number   1
_chemical_formula_structural   Cu8Ni2C
_chemical_formula_sum   'Cu24 Ni6 C3'
_cell_volume   442.37632128
_cell_formula_units_Z   3
loop_
 _symmetry_equiv_pos_site_id
 _symmetry_equiv_pos_as_xyz
  1  'x, y, z'
loop_
 _atom_site_type_symbol
 _atom_site_label
 _atom_site_symmetry_multiplicity
 _atom_site_fract_x
 _atom_site_fract_y
 _atom_site_fract_z
 _atom_site_occupancy
  C  C0  1  0.14950800  0.14950800  0.14950800  1
  C  C1  1  0.64378300  0.64378300  0.64378300  1
  C  C2  1  0.85036900  0.85036900  0.85036900  1
  Ni  Ni3  1  0.04514100  0.74887400  0.45929600  1
  Ni  Ni4  1  0.45929600  0.04514100  0.74887400  1
  Ni  Ni5  1  0.74887400  0.45929600  0.04514100  1
  Ni  Ni6  1  0.25337300  0.53802300  0.95944000  1
  Ni  Ni7  1  0.53802300  0.95944000  0.25337300  1
  Ni  Ni8  1  0.95944000  0.25337300  0.53802300  1
  Cu  Cu9  1  0.11150500  0.29638200  0.51029900  1
  Cu  Cu10  1  0.29638200  0.51029900  0.11150500  1
  Cu  Cu11  1  0.00749100  0.96030000  0.32948900  1
  Cu  Cu12  1  0.51029900  0.11150500  0.29638200  1
  Cu  Cu13  1  0.02065500  0.71918500  0.65624700  1
  Cu  Cu14  1  0.24043600  0.62223800  0.37767400  1
  Cu  Cu15  1  0.37767400  0.24043600  0.62223800  1
  Cu  Cu16  1  0.32948900  0.00749100  0.96030000  1
  Cu  Cu17  1  0.62223800  0.37767400  0.24043600  1
  Cu  Cu18  1  0.04529300  0.67285900  0.98196200  1
  Cu  Cu19  1  0.28233400  0.34632800  0.97363800  1
  Cu  Cu20  1  0.34632800  0.97363800  0.28233400  1
  Cu  Cu21  1  0.65624700  0.02065500  0.71918500  1
  Cu  Cu22  1  0.71918500  0.65624700  0.02065500  1
  Cu  Cu23  1  0.96030000  0.32948900  0.00749100  1
  Cu  Cu24  1  0.38244600  0.62164500  0.75738000  1
  Cu  Cu25  1  0.67285900  0.98196200  0.04529300  1
  Cu  Cu26  1  0.62164500  0.75738000  0.38244600  1
  Cu  Cu27  1  0.75738000  0.38244600  0.62164500  1
  Cu  Cu28  1  0.97363800  0.28233400  0.34632800  1
  Cu  Cu29  1  0.48696300  0.89094200  0.70346000  1
  Cu  Cu30  1  0.98196200  0.04529300  0.67285900  1
  Cu  Cu31  1  0.70346000  0.48696300  0.89094200  1
  Cu  Cu32  1  0.89094200  0.70346000  0.48696300  1
