# generated using pymatgen
data_CuNiC6
_symmetry_space_group_name_H-M   'P 1'
_cell_length_a   6.00266500
_cell_length_b   5.14486300
_cell_length_c   5.14759700
_cell_angle_alpha   71.00415139
_cell_angle_beta   90.00000000
_cell_angle_gamma   90.00000000
_symmetry_Int_Tables_number   1
_chemical_formula_structural   CuNiC6
_chemical_formula_sum   'Cu2 Ni2 C12'
_cell_volume   150.31535943
_cell_formula_units_Z   2
loop_
 _symmetry_equiv_pos_site_id
 _symmetry_equiv_pos_as_xyz
  1  'x, y, z'
loop_
 _atom_site_type_symbol
 _atom_site_label
 _atom_site_symmetry_multiplicity
 _atom_site_fract_x
 _atom_site_fract_y
 _atom_site_fract_z
 _atom_site_occupancy
  C  C0  1  0.12989000  0.00000000  0.75000000  1
  C  C1  1  0.62209200  0.00000000  0.75000000  1
  C  C2  1  0.37790800  0.00000000  0.25000000  1
  C  C3  1  0.87011000  0.00000000  0.25000000  1
  Ni  Ni4  1  0.87575900  0.50000000  0.75000000  1
  Ni  Ni5  1  0.12424100  0.50000000  0.25000000  1
  Cu  Cu6  1  0.37695000  0.50000000  0.75000000  1
  Cu  Cu7  1  0.62305000  0.50000000  0.25000000  1
  C  C8  1  0.13102300  0.72813000  0.50689200  1
  C  C9  1  0.62476000  0.72353600  0.51021200  1
  C  C10  1  0.37524000  0.27646400  0.48978800  1
  C  C11  1  0.37524000  0.72353600  0.01021200  1
  C  C12  1  0.86897700  0.27187000  0.49310800  1
  C  C13  1  0.13102300  0.27187000  0.99310800  1
  C  C14  1  0.86897700  0.72813000  0.00689200  1
  C  C15  1  0.62476000  0.27646400  0.98978800  1
