# generated using pymatgen
data_CuNiC18
_symmetry_space_group_name_H-M   'P 1'
_cell_length_a   8.63479800
_cell_length_b   8.67505830
_cell_length_c   12.64478438
_cell_angle_alpha   105.58365979
_cell_angle_beta   105.90136044
_cell_angle_gamma   95.38799171
_symmetry_Int_Tables_number   1
_chemical_formula_structural   CuNiC18
_chemical_formula_sum   'Cu4 Ni4 C72'
_cell_volume   862.99329790
_cell_formula_units_Z   4
loop_
 _symmetry_equiv_pos_site_id
 _symmetry_equiv_pos_as_xyz
  1  'x, y, z'
loop_
 _atom_site_type_symbol
 _atom_site_label
 _atom_site_symmetry_multiplicity
 _atom_site_fract_x
 _atom_site_fract_y
 _atom_site_fract_z
 _atom_site_occupancy
  C  C0  1  0.99627000  0.00313900  0.12515100  1
  C  C1  1  0.99566300  0.00286500  0.62548100  1
  C  C2  1  0.71108500  0.28851400  0.37315000  1
  C  C3  1  0.49966800  0.49852100  0.24907400  1
  C  C4  1  0.71506200  0.29138200  0.87786600  1
  C  C5  1  0.49916000  0.49985300  0.49929800  1
  C  C6  1  0.28750200  0.71087000  0.12413700  1
  C  C7  1  0.50054200  0.50149800  0.75092900  1
  C  C8  1  0.50112100  0.50036600  0.00108600  1
  C  C9  1  0.28824600  0.71041100  0.62415900  1
  C  C10  1  0.00495500  0.99698300  0.37213400  1
  C  C11  1  0.00506400  0.99821400  0.87604200  1
  Ni  Ni12  1  0.94054900  0.62947000  0.18370500  1
  Ni  Ni13  1  0.37482300  0.05628900  0.06514500  1
  Ni  Ni14  1  0.05786000  0.37101600  0.31497100  1
  Ni  Ni15  1  0.05716000  0.37545100  0.81650800  1
  Cu  Cu16  1  0.94210500  0.62355700  0.68011800  1
  Cu  Cu17  1  0.62104700  0.94294800  0.42950700  1
  Cu  Cu18  1  0.62356800  0.94287400  0.93172700  1
  Cu  Cu19  1  0.38014600  0.05492800  0.56909800  1
  C  C20  1  0.71438000  0.28727700  0.12479500  1
  C  C21  1  0.85969900  0.66575800  0.43077700  1
  C  C22  1  0.66552700  0.86546700  0.18288200  1
  C  C23  1  0.71434400  0.28739900  0.62497000  1
  C  C24  1  0.85933300  0.66431100  0.93263100  1
  C  C25  1  0.66228500  0.86248400  0.68188100  1
  C  C26  1  0.33937800  0.13359200  0.31629400  1
  C  C27  1  0.13588800  0.33532200  0.06721300  1
  C  C28  1  0.28319600  0.71036300  0.37423700  1
  C  C29  1  0.33822600  0.13313400  0.81819700  1
  C  C30  1  0.13913100  0.33918500  0.56807000  1
  C  C31  1  0.28636800  0.71359100  0.87526400  1
  C  C32  1  0.98451400  0.66220100  0.04800400  1
  C  C33  1  0.94606800  0.61359300  0.33550500  1
  C  C34  1  0.74303600  0.17417300  0.01655900  1
  C  C35  1  0.98677300  0.66100000  0.54385500  1
  C  C36  1  0.82733400  0.26401600  0.23745700  1
  C  C37  1  0.85084800  0.85526000  0.20306600  1
  C  C38  1  0.73708500  0.46190900  0.11448700  1
  C  C39  1  0.84033600  0.84904600  0.44999400  1
  C  C40  1  0.94633700  0.61438200  0.83817100  1
  C  C41  1  0.74151500  0.17373700  0.51673700  1
  C  C42  1  0.82795200  0.26445100  0.73731800  1
  C  C43  1  0.84524500  0.84365900  0.69560000  1
  C  C44  1  0.70101400  0.54649500  0.39739900  1
  C  C45  1  0.60997400  0.94838800  0.08652000  1
  C  C46  1  0.65740400  0.98968000  0.29550900  1
  C  C47  1  0.53842100  0.25930300  0.13480000  1
  C  C48  1  0.73585900  0.46232300  0.61523200  1
  C  C49  1  0.54920200  0.70490300  0.14928100  1
  C  C50  1  0.84049000  0.84753800  0.95069500  1
  C  C51  1  0.70054300  0.54462900  0.89752000  1
  C  C52  1  0.60171500  0.95097400  0.58754100  1
  C  C53  1  0.45382300  0.29545200  0.35194100  1
  C  C54  1  0.66293600  0.98706800  0.79625800  1
  C  C55  1  0.53826700  0.26093400  0.63428100  1
  C  C56  1  0.46030500  0.73575400  0.36701500  1
  C  C57  1  0.34041500  0.01257100  0.20031000  1
  C  C58  1  0.54405100  0.70351100  0.64756000  1
  C  C59  1  0.40299900  0.04654600  0.41148000  1
  C  C60  1  0.29744600  0.45110600  0.10165400  1
  C  C61  1  0.14670800  0.15139200  0.04890300  1
  C  C62  1  0.45212400  0.29477800  0.85232000  1
  C  C63  1  0.25845600  0.53628500  0.38573000  1
  C  C64  1  0.46237200  0.73565300  0.86576000  1
  C  C65  1  0.34346600  0.01031000  0.70463300  1
  C  C66  1  0.40449400  0.04695800  0.91434900  1
  C  C67  1  0.29908500  0.45670900  0.60348500  1
  C  C68  1  0.15581000  0.14372300  0.30334800  1
  C  C69  1  0.17335700  0.73521700  0.26193000  1
  C  C70  1  0.25712200  0.82667700  0.48251100  1
  C  C71  1  0.05108900  0.39163400  0.16351500  1
  C  C72  1  0.15768000  0.15752000  0.55606700  1
  C  C73  1  0.25949100  0.53857700  0.88570900  1
  C  C74  1  0.15442500  0.14268800  0.80370900  1
  C  C75  1  0.17392800  0.74221100  0.76628300  1
  C  C76  1  0.01495600  0.33820700  0.45187600  1
  C  C77  1  0.26360200  0.82724000  0.98685200  1
  C  C78  1  0.04875400  0.40080600  0.66224600  1
  C  C79  1  0.01182000  0.34178400  0.95253500  1
