# generated using pymatgen
data_Cu4NiC
_symmetry_space_group_name_H-M   'P 1'
_cell_length_a   8.83485040
_cell_length_b   8.83485040
_cell_length_c   8.83485147
_cell_angle_alpha   59.42299367
_cell_angle_beta   59.42299367
_cell_angle_gamma   59.42299338
_symmetry_Int_Tables_number   1
_chemical_formula_structural   Cu4NiC
_chemical_formula_sum   'Cu24 Ni6 C6'
_cell_volume   481.21940849
_cell_formula_units_Z   6
loop_
 _symmetry_equiv_pos_site_id
 _symmetry_equiv_pos_as_xyz
  1  'x, y, z'
loop_
 _atom_site_type_symbol
 _atom_site_label
 _atom_site_symmetry_multiplicity
 _atom_site_fract_x
 _atom_site_fract_y
 _atom_site_fract_z
 _atom_site_occupancy
  C  C0  1  0.00000000  0.00000000  0.00000000  1
  C  C1  1  0.50000000  0.50000000  0.50000000  1
  C  C2  1  0.35515900  0.35515900  0.35515900  1
  C  C3  1  0.14484100  0.14484100  0.14484100  1
  C  C4  1  0.64484100  0.64484100  0.64484100  1
  C  C5  1  0.85515900  0.85515900  0.85515900  1
  Ni  Ni6  1  0.75000000  0.04645800  0.45354200  1
  Ni  Ni7  1  0.95354200  0.54645800  0.25000000  1
  Ni  Ni8  1  0.54645800  0.25000000  0.95354200  1
  Ni  Ni9  1  0.45354200  0.75000000  0.04645800  1
  Ni  Ni10  1  0.04645800  0.45354200  0.75000000  1
  Ni  Ni11  1  0.25000000  0.95354200  0.54645800  1
  Cu  Cu12  1  0.90660300  0.05938300  0.27099900  1
  Cu  Cu13  1  0.72900100  0.09339700  0.94061700  1
  Cu  Cu14  1  0.89747700  0.49106800  0.69200000  1
  Cu  Cu15  1  0.00893200  0.60252300  0.80800000  1
  Cu  Cu16  1  0.59339700  0.22900100  0.44061700  1
  Cu  Cu17  1  0.77099900  0.55938300  0.40660300  1
  Cu  Cu18  1  0.94061700  0.72900100  0.09339700  1
  Cu  Cu19  1  0.19200000  0.99106800  0.39747700  1
  Cu  Cu20  1  0.50893200  0.30800000  0.10252300  1
  Cu  Cu21  1  0.30800000  0.10252300  0.50893200  1
  Cu  Cu22  1  0.39747700  0.19200000  0.99106800  1
  Cu  Cu23  1  0.55938300  0.40660300  0.77099900  1
  Cu  Cu24  1  0.44061700  0.59339700  0.22900100  1
  Cu  Cu25  1  0.69200000  0.89747700  0.49106800  1
  Cu  Cu26  1  0.60252300  0.80800000  0.00893200  1
  Cu  Cu27  1  0.80800000  0.00893200  0.60252300  1
  Cu  Cu28  1  0.49106800  0.69200000  0.89747700  1
  Cu  Cu29  1  0.05938300  0.27099900  0.90660300  1
  Cu  Cu30  1  0.22900100  0.44061700  0.59339700  1
  Cu  Cu31  1  0.40660300  0.77099900  0.55938300  1
  Cu  Cu32  1  0.10252300  0.50893200  0.30800000  1
  Cu  Cu33  1  0.99106800  0.39747700  0.19200000  1
  Cu  Cu34  1  0.27099900  0.90660300  0.05938300  1
  Cu  Cu35  1  0.09339700  0.94061700  0.72900100  1
