# generated using pymatgen
data_Cu3Ni3C22
_symmetry_space_group_name_H-M   'P 1'
_cell_length_a   6.01259562
_cell_length_b   6.01259562
_cell_length_c   9.87631019
_cell_angle_alpha   88.66454073
_cell_angle_beta   88.66454073
_cell_angle_gamma   59.81030671
_symmetry_Int_Tables_number   1
_chemical_formula_structural   Cu3Ni3C22
_chemical_formula_sum   'Cu3 Ni3 C22'
_cell_volume   308.50272433
_cell_formula_units_Z   1
loop_
 _symmetry_equiv_pos_site_id
 _symmetry_equiv_pos_as_xyz
  1  'x, y, z'
loop_
 _atom_site_type_symbol
 _atom_site_label
 _atom_site_symmetry_multiplicity
 _atom_site_fract_x
 _atom_site_fract_y
 _atom_site_fract_z
 _atom_site_occupancy
  C  C0  1  0.66520600  0.66520600  0.10107900  1
  C  C1  1  0.99616300  0.99616300  0.01154300  1
  C  C2  1  0.00269300  0.00269300  0.50574800  1
  C  C3  1  0.33245100  0.33245100  0.59874000  1
  Ni  Ni4  1  0.33644600  0.83890700  0.78566800  1
  Ni  Ni5  1  0.83890700  0.33644600  0.78566800  1
  Ni  Ni6  1  0.17358400  0.17358400  0.27988200  1
  Cu  Cu7  1  0.82607200  0.82607200  0.78794500  1
  Cu  Cu8  1  0.18542300  0.65176600  0.28880600  1
  Cu  Cu9  1  0.65176600  0.18542300  0.28880600  1
  C  C10  1  0.66979200  0.66979200  0.51080000  1
  C  C11  1  0.33933300  0.33933300  0.01247200  1
  C  C12  1  0.33677100  0.83611400  0.40496800  1
  C  C13  1  0.52239900  0.52239900  0.65728800  1
  C  C14  1  0.65062300  0.65062300  0.89421000  1
  C  C15  1  0.00528800  0.00528800  0.69166200  1
  C  C16  1  0.00715300  0.00715300  0.19771100  1
  C  C17  1  0.83611400  0.33677100  0.40496800  1
  C  C18  1  0.50731800  0.96119200  0.65554900  1
  C  C19  1  0.96119200  0.50731800  0.65554900  1
  C  C20  1  0.16299400  0.16299400  0.89152400  1
  C  C21  1  0.82996000  0.82996000  0.41095200  1
  C  C22  1  0.03809800  0.47427300  0.15752400  1
  C  C23  1  0.47427300  0.03809800  0.15752400  1
  C  C24  1  0.31935600  0.31935600  0.39900100  1
  C  C25  1  0.16986200  0.67457800  0.90054900  1
  C  C26  1  0.48573000  0.48573000  0.15549600  1
  C  C27  1  0.67457800  0.16986200  0.90054900  1
