# generated using pymatgen
data_Cu2NiC8
_symmetry_space_group_name_H-M   'P 1'
_cell_length_a   4.95138435
_cell_length_b   4.95138435
_cell_length_c   9.97715700
_cell_angle_alpha   90.00000000
_cell_angle_beta   90.00000000
_cell_angle_gamma   120.34035942
_symmetry_Int_Tables_number   1
_chemical_formula_structural   Cu2NiC8
_chemical_formula_sum   'Cu4 Ni2 C16'
_cell_volume   211.10133661
_cell_formula_units_Z   2
loop_
 _symmetry_equiv_pos_site_id
 _symmetry_equiv_pos_as_xyz
  1  'x, y, z'
loop_
 _atom_site_type_symbol
 _atom_site_label
 _atom_site_symmetry_multiplicity
 _atom_site_fract_x
 _atom_site_fract_y
 _atom_site_fract_z
 _atom_site_occupancy
  C  C0  1  0.66412100  0.16412100  0.25000000  1
  C  C1  1  0.83587900  0.33587900  0.75000000  1
  C  C2  1  0.16412100  0.66412100  0.25000000  1
  C  C3  1  0.33587900  0.83587900  0.75000000  1
  Ni  Ni4  1  0.50000000  0.50000000  0.50000000  1
  Ni  Ni5  1  0.00000000  0.00000000  0.00000000  1
  Cu  Cu6  1  0.83397500  0.16602500  0.50000000  1
  Cu  Cu7  1  0.33397500  0.66602500  0.00000000  1
  Cu  Cu8  1  0.66602500  0.33397500  0.00000000  1
  Cu  Cu9  1  0.16602500  0.83397500  0.50000000  1
  C  C10  1  0.66899700  0.66899700  0.09666300  1
  C  C11  1  0.83100300  0.83100300  0.59666300  1
  C  C12  1  0.16899700  0.16899700  0.40333700  1
  C  C13  1  0.49564700  0.83869100  0.39623800  1
  C  C14  1  0.33100300  0.33100300  0.90333700  1
  C  C15  1  0.66130900  0.00435300  0.89623800  1
  C  C16  1  0.99564700  0.33869100  0.10376200  1
  C  C17  1  0.16130900  0.50435300  0.60376200  1
  C  C18  1  0.50435300  0.16130900  0.60376200  1
  C  C19  1  0.83869100  0.49564700  0.39623800  1
  C  C20  1  0.00435300  0.66130900  0.89623800  1
  C  C21  1  0.33869100  0.99564700  0.10376200  1
