# generated using pymatgen
data_Cu3Ni2C3
_symmetry_space_group_name_H-M   'P 1'
_cell_length_a   5.36727082
_cell_length_b   5.36727082
_cell_length_c   10.14719125
_cell_angle_alpha   89.85963064
_cell_angle_beta   89.85963064
_cell_angle_gamma   43.28391352
_symmetry_Int_Tables_number   1
_chemical_formula_structural   Cu3Ni2C3
_chemical_formula_sum   'Cu6 Ni4 C6'
_cell_volume   200.41537226
_cell_formula_units_Z   2
loop_
 _symmetry_equiv_pos_site_id
 _symmetry_equiv_pos_as_xyz
  1  'x, y, z'
loop_
 _atom_site_type_symbol
 _atom_site_label
 _atom_site_symmetry_multiplicity
 _atom_site_fract_x
 _atom_site_fract_y
 _atom_site_fract_z
 _atom_site_occupancy
  C  C0  1  0.86858400  0.86858400  0.05408300  1
  C  C1  1  0.13141600  0.13141600  0.94591700  1
  C  C2  1  0.86212000  0.86212000  0.44566000  1
  C  C3  1  0.81089500  0.81089500  0.74445900  1
  C  C4  1  0.18910500  0.18910500  0.25554100  1
  C  C5  1  0.13788000  0.13788000  0.55434000  1
  Ni  Ni6  1  0.95808000  0.95808000  0.61963300  1
  Ni  Ni7  1  0.30594300  0.30594300  0.42192600  1
  Ni  Ni8  1  0.69405700  0.69405700  0.57807400  1
  Ni  Ni9  1  0.04192000  0.04192000  0.38036700  1
  Cu  Cu10  1  0.95085600  0.95085600  0.88009300  1
  Cu  Cu11  1  0.30813900  0.30813900  0.09641500  1
  Cu  Cu12  1  0.73766100  0.73766100  0.26063600  1
  Cu  Cu13  1  0.26233900  0.26233900  0.73936400  1
  Cu  Cu14  1  0.69186100  0.69186100  0.90358500  1
  Cu  Cu15  1  0.04914400  0.04914400  0.11990700  1
