# generated using pymatgen
data_CuNiC5
_symmetry_space_group_name_H-M   'P 1'
_cell_length_a   5.41315847
_cell_length_b   24.23483700
_cell_length_c   5.41316600
_cell_angle_alpha   90.00000236
_cell_angle_beta   120.00007940
_cell_angle_gamma   89.99997390
_symmetry_Int_Tables_number   1
_chemical_formula_structural   CuNiC5
_chemical_formula_sum   'Cu6 Ni6 C30'
_cell_volume   614.99625898
_cell_formula_units_Z   6
loop_
 _symmetry_equiv_pos_site_id
 _symmetry_equiv_pos_as_xyz
  1  'x, y, z'
loop_
 _atom_site_type_symbol
 _atom_site_label
 _atom_site_symmetry_multiplicity
 _atom_site_fract_x
 _atom_site_fract_y
 _atom_site_fract_z
 _atom_site_occupancy
  C  C0  1  0.00000000  0.00000000  0.00000000  1
  C  C1  1  0.00000000  0.50000000  0.00000000  1
  C  C2  1  0.00000000  0.16666600  0.00000000  1
  C  C3  1  0.00000000  0.66666700  0.00000000  1
  C  C4  1  0.00000000  0.33333400  0.00000000  1
  C  C5  1  0.00000000  0.83333400  0.00000000  1
  Ni  Ni6  1  0.49999900  0.91666700  0.99999900  1
  Ni  Ni7  1  0.49999900  0.58333300  0.49999900  1
  Ni  Ni8  1  0.00000100  0.25000000  0.49999900  1
  Ni  Ni9  1  0.50000100  0.41666700  0.00000200  1
  Ni  Ni10  1  0.50000000  0.08333300  0.50000100  1
  Ni  Ni11  1  0.99999900  0.75000000  0.50000000  1
  Cu  Cu12  1  0.50000000  0.16666600  0.00000000  1
  Cu  Cu13  1  0.50000000  0.66666800  0.00000000  1
  Cu  Cu14  1  0.50000000  0.33333400  0.50000000  1
  Cu  Cu15  1  0.50000000  0.83333200  0.50000000  1
  Cu  Cu16  1  0.00000000  0.00000100  0.50000000  1
  Cu  Cu17  1  0.00000000  0.49999900  0.50000000  1
  C  C18  1  0.78821200  0.20388700  0.18506900  1
  C  C19  1  0.78822000  0.70389800  0.18509100  1
  C  C20  1  0.81490900  0.46276900  0.21177900  1
  C  C21  1  0.81493100  0.96278000  0.21178800  1
  C  C22  1  0.39687100  0.12943600  0.18509300  1
  C  C23  1  0.39686000  0.62944700  0.18507000  1
  C  C24  1  0.39687100  0.37056400  0.21177900  1
  C  C25  1  0.39686000  0.87055300  0.21178900  1
  C  C26  1  0.81490800  0.03723100  0.60312800  1
  C  C27  1  0.81493100  0.53722000  0.60314000  1
  C  C28  1  0.78821100  0.29611300  0.60314100  1
  C  C29  1  0.78821900  0.79610300  0.60312700  1
  C  C30  1  0.21178900  0.29611300  0.39685900  1
  C  C31  1  0.21178100  0.79610300  0.39687300  1
  C  C32  1  0.18509200  0.03723100  0.39687200  1
  C  C33  1  0.18506900  0.53722000  0.39686000  1
  C  C34  1  0.60312900  0.37056400  0.78822200  1
  C  C35  1  0.60314100  0.87055300  0.78821100  1
  C  C36  1  0.60312800  0.12943600  0.81490700  1
  C  C37  1  0.60314100  0.62944700  0.81493100  1
  C  C38  1  0.18509200  0.46276900  0.78822100  1
  C  C39  1  0.18506900  0.96278000  0.78821200  1
  C  C40  1  0.21178800  0.20388700  0.81493100  1
  C  C41  1  0.21178000  0.70389800  0.81490900  1
