# generated using pymatgen
data_Cu2NiC30
_symmetry_space_group_name_H-M   'P 1'
_cell_length_a   10.49416400
_cell_length_b   12.32441556
_cell_length_c   7.15826411
_cell_angle_alpha   90.92091426
_cell_angle_beta   99.08397270
_cell_angle_gamma   93.18245351
_symmetry_Int_Tables_number   1
_chemical_formula_structural   Cu2NiC30
_chemical_formula_sum   'Cu4 Ni2 C60'
_cell_volume   912.49902029
_cell_formula_units_Z   2
loop_
 _symmetry_equiv_pos_site_id
 _symmetry_equiv_pos_as_xyz
  1  'x, y, z'
loop_
 _atom_site_type_symbol
 _atom_site_label
 _atom_site_symmetry_multiplicity
 _atom_site_fract_x
 _atom_site_fract_y
 _atom_site_fract_z
 _atom_site_occupancy
  C  C0  1  0.99422300  0.92769000  0.64905400  1
  C  C1  1  0.75762000  0.37939400  0.53885300  1
  C  C2  1  0.19792700  0.36489000  0.32653500  1
  C  C3  1  0.44486000  0.84095300  0.42342600  1
  Ni  Ni4  1  0.99031600  0.50288100  0.99801800  1
  Ni  Ni5  1  0.21309400  0.72664800  0.96553300  1
  Cu  Cu6  1  0.69290300  0.02575700  0.10209900  1
  Cu  Cu7  1  0.68185400  0.52210100  0.10473500  1
  Cu  Cu8  1  0.50927400  0.20386500  0.86043200  1
  Cu  Cu9  1  0.52118500  0.70605000  0.85603700  1
  C  C10  1  0.00121400  0.01639100  0.99444700  1
  C  C11  1  0.20470400  0.21356400  0.97026900  1
  C  C12  1  0.91265900  0.54300400  0.29208300  1
  C  C13  1  0.92167600  0.11569700  0.29816400  1
  C  C14  1  0.41013700  0.98511800  0.11254600  1
  C  C15  1  0.40243700  0.53870700  0.10960400  1
  C  C16  1  0.79364300  0.24116800  0.85101100  1
  C  C17  1  0.79963800  0.68974600  0.85470000  1
  C  C18  1  0.28364300  0.11393300  0.66686300  1
  C  C19  1  0.28792100  0.68300800  0.67036200  1
  C  C20  1  0.51674000  0.31102300  0.29751400  1
  C  C21  1  0.09421300  0.83531100  0.26279000  1
  C  C22  1  0.10978900  0.39712400  0.70259100  1
  C  C23  1  0.45099300  0.38238800  0.58434500  1
  C  C24  1  0.68568800  0.91636600  0.66557200  1
  C  C25  1  0.75062400  0.84382000  0.37776500  1
  C  C26  1  0.22216100  0.83077600  0.31161400  1
  C  C27  1  0.44661200  0.10925900  0.25654700  1
  C  C28  1  0.43881800  0.47974500  0.25352000  1
  C  C29  1  0.52552000  0.35357600  0.45723800  1
  C  C30  1  0.29456200  0.06105400  0.06180800  1
  C  C31  1  0.33996400  0.70265900  0.81332200  1
  C  C32  1  0.98052100  0.38529700  0.65839700  1
  C  C33  1  0.07684700  0.82590500  0.10722400  1
  C  C34  1  0.04056700  0.03065200  0.33869000  1
  C  C35  1  0.03404200  0.65125800  0.31127000  1
  C  C36  1  0.16418400  0.58326700  0.65189600  1
  C  C37  1  0.16743100  0.20628400  0.62617500  1
  C  C38  1  0.27190300  0.88548000  0.61678700  1
  C  C39  1  0.36533300  0.55540700  0.56385700  1
  C  C40  1  0.37687200  0.18462900  0.57526000  1
  C  C41  1  0.38728900  0.76951900  0.14172400  1
  C  C42  1  0.82982800  0.03703600  0.38875200  1
  C  C43  1  0.88844600  0.05564200  0.14676800  1
  C  C44  1  0.93139400  0.34446600  0.35182800  1
  C  C45  1  0.90990700  0.16708800  0.90100900  1
  C  C46  1  0.91781100  0.78711600  0.90303700  1
  C  C47  1  0.76067100  0.74422900  0.70985500  1
  C  C48  1  0.69622200  0.23329600  0.94726000  1
  C  C49  1  0.70322800  0.73712400  0.95302300  1
  C  C50  1  0.67435400  0.80840800  0.24804300  1
  C  C51  1  0.63419400  0.30288500  0.23930000  1
  C  C52  1  0.56816000  0.92723800  0.72347200  1
  C  C53  1  0.52737500  0.42129100  0.71411500  1
  C  C54  1  0.49898400  0.48897300  0.01173900  1
  C  C55  1  0.75900900  0.11556000  0.70589700  1
  C  C56  1  0.81408600  0.45882100  0.82482700  1
  C  C57  1  0.67675400  0.87497500  0.50574900  1
  C  C58  1  0.28369500  0.44414200  0.06073800  1
  C  C59  1  0.50620300  0.98947400  0.01363300  1
  C  C60  1  0.86317100  0.51454400  0.14784300  1
  C  C61  1  0.11486100  0.99508800  0.88375000  1
  C  C62  1  0.08974900  0.23400700  0.07915400  1
  C  C63  1  0.83322900  0.66745400  0.39676600  1
  C  C64  1  0.31680900  0.17747500  0.81854100  1
  C  C65  1  0.12725700  0.40630600  0.85822400  1
