# generated using pymatgen
data_Cu12Ni2C15
_symmetry_space_group_name_H-M   'P 1'
_cell_length_a   5.76370300
_cell_length_b   5.79951366
_cell_length_c   8.16201640
_cell_angle_alpha   97.15762603
_cell_angle_beta   109.55099689
_cell_angle_gamma   89.81676625
_symmetry_Int_Tables_number   1
_chemical_formula_structural   Cu12Ni2C15
_chemical_formula_sum   'Cu12 Ni2 C15'
_cell_volume   254.87895977
_cell_formula_units_Z   1
loop_
 _symmetry_equiv_pos_site_id
 _symmetry_equiv_pos_as_xyz
  1  'x, y, z'
loop_
 _atom_site_type_symbol
 _atom_site_label
 _atom_site_symmetry_multiplicity
 _atom_site_fract_x
 _atom_site_fract_y
 _atom_site_fract_z
 _atom_site_occupancy
  C  C0  1  0.77760800  0.50542400  0.76419300  1
  C  C1  1  0.22239200  0.49457600  0.23580700  1
  C  C2  1  0.00000000  0.00000000  0.00000000  1
  Ni  Ni3  1  0.24571200  0.28662800  0.59110200  1
  Ni  Ni4  1  0.75428800  0.71337200  0.40889800  1
  Cu  Cu5  1  0.47121600  0.00181500  0.61242000  1
  Cu  Cu6  1  0.04117400  0.05212000  0.37116500  1
  Cu  Cu7  1  0.43464300  0.06882600  0.09495600  1
  Cu  Cu8  1  0.20101300  0.22792800  0.82288100  1
  Cu  Cu9  1  0.70673000  0.29253200  0.04261000  1
  Cu  Cu10  1  0.80626400  0.36382800  0.38090300  1
  Cu  Cu11  1  0.19373600  0.63617200  0.61909700  1
  Cu  Cu12  1  0.29327000  0.70746800  0.95739000  1
  Cu  Cu13  1  0.79898700  0.77207200  0.17711900  1
  Cu  Cu14  1  0.56535700  0.93117400  0.90504400  1
  Cu  Cu15  1  0.95882600  0.94788000  0.62883500  1
  Cu  Cu16  1  0.52878400  0.99818500  0.38758000  1
  C  C17  1  0.48228700  0.16893200  0.64726200  1
  C  C18  1  0.09224400  0.24433600  0.70074000  1
  C  C19  1  0.09399800  0.21940500  0.40365500  1
  C  C20  1  0.30935300  0.17661800  0.04193800  1
  C  C21  1  0.85951500  0.30445700  0.01657400  1
  C  C22  1  0.67234300  0.46678700  0.38982100  1
  C  C23  1  0.32765700  0.53321300  0.61017900  1
  C  C24  1  0.14048500  0.69554300  0.98342600  1
  C  C25  1  0.69064700  0.82338200  0.95806200  1
  C  C26  1  0.90600200  0.78059500  0.59634500  1
  C  C27  1  0.90775600  0.75566400  0.29926000  1
  C  C28  1  0.51771300  0.83106800  0.35273800  1
