# generated using pymatgen
data_Cu3Ni3C13
_symmetry_space_group_name_H-M   'P 1'
_cell_length_a   13.74229200
_cell_length_b   5.25420700
_cell_length_c   13.35407572
_cell_angle_alpha   69.25219929
_cell_angle_beta   90.00000000
_cell_angle_gamma   90.00000000
_symmetry_Int_Tables_number   1
_chemical_formula_structural   Cu3Ni3C13
_chemical_formula_sum   'Cu12 Ni12 C52'
_cell_volume   901.69759295
_cell_formula_units_Z   4
loop_
 _symmetry_equiv_pos_site_id
 _symmetry_equiv_pos_as_xyz
  1  'x, y, z'
loop_
 _atom_site_type_symbol
 _atom_site_label
 _atom_site_symmetry_multiplicity
 _atom_site_fract_x
 _atom_site_fract_y
 _atom_site_fract_z
 _atom_site_occupancy
  C  C0  1  0.69542700  0.25331300  0.97829100  1
  C  C1  1  0.19542700  0.74668700  0.52170900  1
  C  C2  1  0.80457300  0.25331300  0.47829100  1
  C  C3  1  0.30457300  0.74668700  0.02170900  1
  Ni  Ni4  1  0.35857500  0.26376000  0.77860100  1
  Ni  Ni5  1  0.92280000  0.88056500  0.18437200  1
  Ni  Ni6  1  0.50880400  0.51752800  0.61816700  1
  Ni  Ni7  1  0.00880400  0.48247200  0.88183300  1
  Ni  Ni8  1  0.85857500  0.73624000  0.72139900  1
  Ni  Ni9  1  0.42280000  0.11943500  0.31562800  1
  Ni  Ni10  1  0.57720000  0.88056500  0.68437200  1
  Ni  Ni11  1  0.14142500  0.26376000  0.27860100  1
  Ni  Ni12  1  0.99119600  0.51752800  0.11816700  1
  Ni  Ni13  1  0.49119600  0.48247200  0.38183300  1
  Ni  Ni14  1  0.07720000  0.11943500  0.81562800  1
  Ni  Ni15  1  0.64142500  0.73624000  0.22139900  1
  Cu  Cu16  1  0.93967600  0.61777800  0.60911800  1
  Cu  Cu17  1  0.62327700  0.72186200  0.50638600  1
  Cu  Cu18  1  0.12327700  0.27813800  0.99361400  1
  Cu  Cu19  1  0.43967600  0.38222200  0.89088200  1
  Cu  Cu20  1  0.79928400  0.95459400  0.27082500  1
  Cu  Cu21  1  0.29928400  0.04540600  0.22917500  1
  Cu  Cu22  1  0.70071600  0.95459400  0.77082500  1
  Cu  Cu23  1  0.20071600  0.04540600  0.72917500  1
  Cu  Cu24  1  0.56032400  0.61777800  0.10911800  1
  Cu  Cu25  1  0.87672300  0.72186200  0.00638600  1
  Cu  Cu26  1  0.37672300  0.27813800  0.49361400  1
  Cu  Cu27  1  0.06032400  0.38222200  0.39088200  1
  C  C28  1  0.69307000  0.49402700  0.54211100  1
  C  C29  1  0.08858200  0.62616400  0.41326600  1
  C  C30  1  0.28834900  0.83340600  0.18305700  1
  C  C31  1  0.78947800  0.67894400  0.35120400  1
  C  C32  1  0.39235100  0.13691600  0.96558300  1
  C  C33  1  0.16771200  0.01543200  0.00441700  1
  C  C34  1  0.56509200  0.72945700  0.41484800  1
  C  C35  1  0.40034200  0.42350800  0.77576000  1
  C  C36  1  0.05253300  0.32178200  0.89351800  1
  C  C37  1  0.73202600  0.98404600  0.18142300  1
  C  C38  1  0.54475800  0.35998300  0.88437300  1
  C  C39  1  0.04475800  0.64001700  0.61562700  1
  C  C40  1  0.90627500  0.99580300  0.22773200  1
  C  C41  1  0.55253300  0.67821800  0.60648200  1
  C  C42  1  0.90034200  0.57649200  0.72424000  1
  C  C43  1  0.40627500  0.00419700  0.27226800  1
  C  C44  1  0.23202600  0.01595400  0.31857700  1
  C  C45  1  0.89235100  0.86308400  0.53441700  1
  C  C46  1  0.06509200  0.27054300  0.08515200  1
  C  C47  1  0.19307000  0.50597300  0.95788900  1
  C  C48  1  0.66771200  0.98456800  0.49558300  1
  C  C49  1  0.28947800  0.32105600  0.14879600  1
  C  C50  1  0.41141800  0.62616400  0.91326600  1
  C  C51  1  0.21165100  0.83340600  0.68305700  1
  C  C52  1  0.78834900  0.16659400  0.31694300  1
  C  C53  1  0.58858200  0.37383600  0.08673400  1
  C  C54  1  0.71052200  0.67894400  0.85120400  1
  C  C55  1  0.33228800  0.01543200  0.50441700  1
  C  C56  1  0.80693000  0.49402700  0.04211100  1
  C  C57  1  0.93490800  0.72945700  0.91484800  1
  C  C58  1  0.10764900  0.13691600  0.46558300  1
  C  C59  1  0.76797400  0.98404600  0.68142300  1
  C  C60  1  0.59372500  0.99580300  0.72773200  1
  C  C61  1  0.09965800  0.42350800  0.27576000  1
  C  C62  1  0.44746700  0.32178200  0.39351800  1
  C  C63  1  0.09372500  0.00419700  0.77226800  1
  C  C64  1  0.95524200  0.35998300  0.38437300  1
  C  C65  1  0.45524200  0.64001700  0.11562700  1
  C  C66  1  0.26797400  0.01595400  0.81857700  1
  C  C67  1  0.94746700  0.67821800  0.10648200  1
  C  C68  1  0.59965800  0.57649200  0.22424000  1
  C  C69  1  0.43490800  0.27054300  0.58515200  1
  C  C70  1  0.83228800  0.98456800  0.99558300  1
  C  C71  1  0.60764900  0.86308400  0.03441700  1
  C  C72  1  0.21052200  0.32105600  0.64879600  1
  C  C73  1  0.71165100  0.16659400  0.81694300  1
  C  C74  1  0.91141800  0.37383600  0.58673400  1
  C  C75  1  0.30693000  0.50597300  0.45788900  1
