# generated using pymatgen
data_Cu2(NiC2)3
_symmetry_space_group_name_H-M   'P 1'
_cell_length_a   5.07913065
_cell_length_b   5.07913065
_cell_length_c   5.86265591
_cell_angle_alpha   72.65121374
_cell_angle_beta   72.65121374
_cell_angle_gamma   45.51716244
_symmetry_Int_Tables_number   1
_chemical_formula_structural   Cu2(NiC2)3
_chemical_formula_sum   'Cu2 Ni3 C6'
_cell_volume   102.10811532
_cell_formula_units_Z   1
loop_
 _symmetry_equiv_pos_site_id
 _symmetry_equiv_pos_as_xyz
  1  'x, y, z'
loop_
 _atom_site_type_symbol
 _atom_site_label
 _atom_site_symmetry_multiplicity
 _atom_site_fract_x
 _atom_site_fract_y
 _atom_site_fract_z
 _atom_site_occupancy
  C  C0  1  0.32579700  0.32579700  0.37489800  1
  C  C1  1  0.30625700  0.30625700  0.80232000  1
  C  C2  1  0.69374300  0.69374300  0.19768000  1
  C  C3  1  0.67420300  0.67420300  0.62510200  1
  C  C4  1  0.00000000  0.00000000  0.00000000  1
  C  C5  1  0.00000000  0.00000000  0.50000000  1
  Ni  Ni6  1  0.86209800  0.86209800  0.32330500  1
  Ni  Ni7  1  0.13790200  0.13790200  0.67669500  1
  Ni  Ni8  1  0.50000000  0.50000000  0.50000000  1
  Cu  Cu9  1  0.82274400  0.82274400  0.84556300  1
  Cu  Cu10  1  0.17725600  0.17725600  0.15443700  1
