# generated using pymatgen
data_Cu4Ni3C13
_symmetry_space_group_name_H-M   'P 1'
_cell_length_a   9.70730200
_cell_length_b   10.29161500
_cell_length_c   13.24145800
_cell_angle_alpha   90.00000000
_cell_angle_beta   90.00000000
_cell_angle_gamma   90.00000000
_symmetry_Int_Tables_number   1
_chemical_formula_structural   Cu4Ni3C13
_chemical_formula_sum   'Cu32 Ni24 C104'
_cell_volume   1322.87216868
_cell_formula_units_Z   8
loop_
 _symmetry_equiv_pos_site_id
 _symmetry_equiv_pos_as_xyz
  1  'x, y, z'
loop_
 _atom_site_type_symbol
 _atom_site_label
 _atom_site_symmetry_multiplicity
 _atom_site_fract_x
 _atom_site_fract_y
 _atom_site_fract_z
 _atom_site_occupancy
  C  C0  1  0.50000000  0.00000000  0.00000000  1
  C  C1  1  0.00000000  0.50000000  0.50000000  1
  C  C2  1  0.00000000  0.50000000  0.00000000  1
  C  C3  1  0.50000000  0.00000000  0.50000000  1
  C  C4  1  0.64051300  0.01384700  0.83789800  1
  C  C5  1  0.35948700  0.98615300  0.83789800  1
  C  C6  1  0.14051300  0.48615300  0.66210200  1
  C  C7  1  0.85948700  0.51384700  0.66210200  1
  C  C8  1  0.35948700  0.98615300  0.16210200  1
  C  C9  1  0.64051300  0.01384700  0.16210200  1
  C  C10  1  0.85948700  0.51384700  0.33789800  1
  C  C11  1  0.14051300  0.48615300  0.33789800  1
  C  C12  1  0.60155500  0.85696000  0.86100500  1
  C  C13  1  0.39844500  0.14304000  0.86100500  1
  C  C14  1  0.10155500  0.64304000  0.63899500  1
  C  C15  1  0.89844500  0.35696000  0.63899500  1
  C  C16  1  0.39844500  0.14304000  0.13899500  1
  C  C17  1  0.60155500  0.85696000  0.13899500  1
  C  C18  1  0.89844500  0.35696000  0.36100500  1
  C  C19  1  0.10155500  0.64304000  0.36100500  1
  C  C20  1  0.72739000  0.92959900  0.92373900  1
  C  C21  1  0.27261000  0.07040100  0.92373900  1
  C  C22  1  0.22739000  0.57040100  0.57626100  1
  C  C23  1  0.77261000  0.42959900  0.57626100  1
  C  C24  1  0.27261000  0.07040100  0.07626100  1
  C  C25  1  0.72739000  0.92959900  0.07626100  1
  C  C26  1  0.77261000  0.42959900  0.42373900  1
  C  C27  1  0.22739000  0.57040100  0.42373900  1
  C  C28  1  0.56466100  0.22658000  0.93777900  1
  C  C29  1  0.43533900  0.77342000  0.93777900  1
  C  C30  1  0.06466100  0.27342000  0.56222100  1
  C  C31  1  0.93533900  0.72658000  0.56222100  1
  C  C32  1  0.43533900  0.77342000  0.06222100  1
  C  C33  1  0.56466100  0.22658000  0.06222100  1
  C  C34  1  0.93533900  0.72658000  0.43777900  1
  C  C35  1  0.06466100  0.27342000  0.43777900  1
  C  C36  1  0.69569300  0.15914100  0.00000000  1
  C  C37  1  0.30430700  0.84085900  0.00000000  1
  C  C38  1  0.19569300  0.34085900  0.50000000  1
  C  C39  1  0.80430700  0.65914100  0.50000000  1
  C  C40  1  0.02312200  0.36603200  0.84090100  1
  C  C41  1  0.97687800  0.63396800  0.84090100  1
  C  C42  1  0.52312200  0.13396800  0.65909900  1
  C  C43  1  0.47687800  0.86603200  0.65909900  1
  C  C44  1  0.97687800  0.63396800  0.15909900  1
  C  C45  1  0.02312200  0.36603200  0.15909900  1
  C  C46  1  0.47687800  0.86603200  0.34090100  1
  C  C47  1  0.52312200  0.13396800  0.34090100  1
  C  C48  1  0.91913000  0.28782300  0.92096700  1
  C  C49  1  0.08087000  0.71217700  0.92096700  1
  C  C50  1  0.41913000  0.21217700  0.57903300  1
  C  C51  1  0.58087000  0.78782300  0.57903300  1
  C  C52  1  0.08087000  0.71217700  0.07903300  1
  C  C53  1  0.91913000  0.28782300  0.07903300  1
  C  C54  1  0.58087000  0.78782300  0.42096700  1
  C  C55  1  0.41913000  0.21217700  0.42096700  1
  C  C56  1  0.85717300  0.41004300  0.85466000  1
  C  C57  1  0.14282700  0.58995700  0.85466000  1
  C  C58  1  0.35717300  0.08995700  0.64534000  1
  C  C59  1  0.64282700  0.91004300  0.64534000  1
  C  C60  1  0.14282700  0.58995700  0.14534000  1
  C  C61  1  0.85717300  0.41004300  0.14534000  1
  C  C62  1  0.64282700  0.91004300  0.35466000  1
  C  C63  1  0.35717300  0.08995700  0.35466000  1
  C  C64  1  0.75666000  0.56202700  0.93779500  1
  C  C65  1  0.24334000  0.43797300  0.93779500  1
  C  C66  1  0.25666000  0.93797300  0.56220500  1
  C  C67  1  0.74334000  0.06202700  0.56220500  1
  C  C68  1  0.24334000  0.43797300  0.06220500  1
  C  C69  1  0.75666000  0.56202700  0.06220500  1
  C  C70  1  0.74334000  0.06202700  0.43779500  1
  C  C71  1  0.25666000  0.93797300  0.43779500  1
  C  C72  1  0.83203500  0.68345800  0.00000000  1
  C  C73  1  0.16796500  0.31654200  0.00000000  1
  C  C74  1  0.33203500  0.81654200  0.50000000  1
  C  C75  1  0.66796500  0.18345800  0.50000000  1
  C  C76  1  0.76961200  0.14563900  0.72197800  1
  C  C77  1  0.23038800  0.85436100  0.72197800  1
  C  C78  1  0.26961200  0.35436100  0.77802200  1
  C  C79  1  0.73038800  0.64563900  0.77802200  1
  C  C80  1  0.23038800  0.85436100  0.27802200  1
  C  C81  1  0.76961200  0.14563900  0.27802200  1
  C  C82  1  0.73038800  0.64563900  0.22197800  1
  C  C83  1  0.26961200  0.35436100  0.22197800  1
  C  C84  1  0.66632800  0.24460000  0.77357400  1
  C  C85  1  0.33367200  0.75540000  0.77357400  1
  C  C86  1  0.16632800  0.25540000  0.72642600  1
  C  C87  1  0.83367200  0.74460000  0.72642600  1
  C  C88  1  0.33367200  0.75540000  0.22642600  1
  C  C89  1  0.66632800  0.24460000  0.22642600  1
  C  C90  1  0.83367200  0.74460000  0.27357400  1
  C  C91  1  0.16632800  0.25540000  0.27357400  1
  C  C92  1  0.99876300  0.07623700  0.00000000  1
  C  C93  1  0.00123700  0.92376300  0.00000000  1
  C  C94  1  0.49876300  0.42376300  0.50000000  1
  C  C95  1  0.50123700  0.57623700  0.50000000  1
  C  C96  1  0.52554700  0.42764600  0.83155000  1
  C  C97  1  0.47445300  0.57235400  0.83155000  1
  C  C98  1  0.02554700  0.07235400  0.66845000  1
  C  C99  1  0.97445300  0.92764600  0.66845000  1
  C  C100  1  0.47445300  0.57235400  0.16845000  1
  C  C101  1  0.52554700  0.42764600  0.16845000  1
  C  C102  1  0.97445300  0.92764600  0.33155000  1
  C  C103  1  0.02554700  0.07235400  0.33155000  1
  Ni  Ni104  1  0.63054300  0.94357500  0.89341000  1
  Ni  Ni105  1  0.36945700  0.05642500  0.89341000  1
  Ni  Ni106  1  0.13054300  0.55642500  0.60659000  1
  Ni  Ni107  1  0.86945700  0.44357500  0.60659000  1
  Ni  Ni108  1  0.36945700  0.05642500  0.10659000  1
  Ni  Ni109  1  0.63054300  0.94357500  0.10659000  1
  Ni  Ni110  1  0.86945700  0.44357500  0.39341000  1
  Ni  Ni111  1  0.13054300  0.55642500  0.39341000  1
  Ni  Ni112  1  0.59040600  0.17213200  0.00000000  1
  Ni  Ni113  1  0.40959400  0.82786800  0.00000000  1
  Ni  Ni114  1  0.09040600  0.32786800  0.50000000  1
  Ni  Ni115  1  0.90959400  0.67213200  0.50000000  1
  Ni  Ni116  1  0.94333600  0.37813500  0.89202700  1
  Ni  Ni117  1  0.05666400  0.62186500  0.89202700  1
  Ni  Ni118  1  0.44333600  0.12186500  0.60797300  1
  Ni  Ni119  1  0.55666400  0.87813500  0.60797300  1
  Ni  Ni120  1  0.05666400  0.62186500  0.10797300  1
  Ni  Ni121  1  0.94333600  0.37813500  0.10797300  1
  Ni  Ni122  1  0.55666400  0.87813500  0.39202700  1
  Ni  Ni123  1  0.44333600  0.12186500  0.39202700  1
  Ni  Ni124  1  0.81546000  0.58418000  0.00000000  1
  Ni  Ni125  1  0.18454000  0.41582000  0.00000000  1
  Ni  Ni126  1  0.31546000  0.91582000  0.50000000  1
  Ni  Ni127  1  0.68454000  0.08418000  0.50000000  1
  Cu  Cu128  1  0.88163300  0.13091500  0.00000000  1
  Cu  Cu129  1  0.11836700  0.86908500  0.00000000  1
  Cu  Cu130  1  0.38163300  0.36908500  0.50000000  1
  Cu  Cu131  1  0.61836700  0.63091500  0.50000000  1
  Cu  Cu132  1  0.11342200  0.13509700  0.00000000  1
  Cu  Cu133  1  0.88657800  0.86490300  0.00000000  1
  Cu  Cu134  1  0.61342200  0.36490300  0.50000000  1
  Cu  Cu135  1  0.38657800  0.63509700  0.50000000  1
  Cu  Cu136  1  0.65446800  0.40822700  0.82759700  1
  Cu  Cu137  1  0.34553200  0.59177300  0.82759700  1
  Cu  Cu138  1  0.15446800  0.09177300  0.67240300  1
  Cu  Cu139  1  0.84553200  0.90822700  0.67240300  1
  Cu  Cu140  1  0.34553200  0.59177300  0.17240300  1
  Cu  Cu141  1  0.65446800  0.40822700  0.17240300  1
  Cu  Cu142  1  0.84553200  0.90822700  0.32759700  1
  Cu  Cu143  1  0.15446800  0.09177300  0.32759700  1
  Cu  Cu144  1  0.43473400  0.33907200  0.83633400  1
  Cu  Cu145  1  0.56526600  0.66092800  0.83633400  1
  Cu  Cu146  1  0.93473400  0.16092800  0.66366600  1
  Cu  Cu147  1  0.06526600  0.83907200  0.66366600  1
  Cu  Cu148  1  0.56526600  0.66092800  0.16366600  1
  Cu  Cu149  1  0.43473400  0.33907200  0.16366600  1
  Cu  Cu150  1  0.06526600  0.83907200  0.33633400  1
  Cu  Cu151  1  0.93473400  0.16092800  0.33633400  1
  Cu  Cu152  1  0.67392800  0.15414100  0.74804100  1
  Cu  Cu153  1  0.32607200  0.84585900  0.74804100  1
  Cu  Cu154  1  0.17392800  0.34585900  0.75195900  1
  Cu  Cu155  1  0.82607200  0.65414100  0.75195900  1
  Cu  Cu156  1  0.32607200  0.84585900  0.25195900  1
  Cu  Cu157  1  0.67392800  0.15414100  0.25195900  1
  Cu  Cu158  1  0.82607200  0.65414100  0.24804100  1
  Cu  Cu159  1  0.17392800  0.34585900  0.24804100  1
