# generated using pymatgen
data_Cu2Ni2C11
_symmetry_space_group_name_H-M   'P 1'
_cell_length_a   5.02106700
_cell_length_b   6.40406000
_cell_length_c   10.75600130
_cell_angle_alpha   88.60775577
_cell_angle_beta   90.00000000
_cell_angle_gamma   90.00000000
_symmetry_Int_Tables_number   1
_chemical_formula_structural   Cu2Ni2C11
_chemical_formula_sum   'Cu4 Ni4 C22'
_cell_volume   345.75942470
_cell_formula_units_Z   2
loop_
 _symmetry_equiv_pos_site_id
 _symmetry_equiv_pos_as_xyz
  1  'x, y, z'
loop_
 _atom_site_type_symbol
 _atom_site_label
 _atom_site_symmetry_multiplicity
 _atom_site_fract_x
 _atom_site_fract_y
 _atom_site_fract_z
 _atom_site_occupancy
  C  C0  1  0.95056400  0.13064000  0.09358700  1
  C  C1  1  0.95317600  0.38358100  0.32642500  1
  C  C2  1  0.44427100  0.62817400  0.40853000  1
  C  C3  1  0.04943600  0.13064000  0.59358700  1
  C  C4  1  0.04682400  0.38358100  0.82642500  1
  C  C5  1  0.55572900  0.62817400  0.90853000  1
  Ni  Ni6  1  0.43666300  0.38245200  0.15793500  1
  Ni  Ni7  1  0.94240400  0.88115700  0.33848200  1
  Ni  Ni8  1  0.56333700  0.38245200  0.65793500  1
  Ni  Ni9  1  0.05759600  0.88115700  0.83848200  1
  Cu  Cu10  1  0.94636800  0.65005000  0.08928200  1
  Cu  Cu11  1  0.44928000  0.13121100  0.41459100  1
  Cu  Cu12  1  0.05363200  0.65005000  0.58928200  1
  Cu  Cu13  1  0.55072000  0.13121100  0.91459100  1
  C  C14  1  0.54975200  0.17788300  0.08234100  1
  C  C15  1  0.55995300  0.58890500  0.09066500  1
  C  C16  1  0.10955400  0.38509800  0.15717500  1
  C  C17  1  0.01042000  0.88761800  0.19216200  1
  C  C18  1  0.54038300  0.36040400  0.30717200  1
  C  C19  1  0.61586600  0.89551100  0.36479600  1
  C  C20  1  0.06885300  0.09221300  0.40572900  1
  C  C21  1  0.04275800  0.65861600  0.40316400  1
  C  C22  1  0.45024800  0.17788300  0.58234100  1
  C  C23  1  0.44004700  0.58890500  0.59066500  1
  C  C24  1  0.89044600  0.38509800  0.65717500  1
  C  C25  1  0.98958000  0.88761800  0.69216200  1
  C  C26  1  0.45961700  0.36040400  0.80717200  1
  C  C27  1  0.38413400  0.89551100  0.86479600  1
  C  C28  1  0.93114700  0.09221300  0.90572900  1
  C  C29  1  0.95724200  0.65861600  0.90316400  1
