# generated using pymatgen
data_Cu14Ni2C15
_symmetry_space_group_name_H-M   'P 1'
_cell_length_a   12.12637400
_cell_length_b   5.73253500
_cell_length_c   8.61304948
_cell_angle_alpha   79.84644217
_cell_angle_beta   90.00000000
_cell_angle_gamma   90.00000000
_symmetry_Int_Tables_number   1
_chemical_formula_structural   Cu14Ni2C15
_chemical_formula_sum   'Cu28 Ni4 C30'
_cell_volume   589.35806458
_cell_formula_units_Z   2
loop_
 _symmetry_equiv_pos_site_id
 _symmetry_equiv_pos_as_xyz
  1  'x, y, z'
loop_
 _atom_site_type_symbol
 _atom_site_label
 _atom_site_symmetry_multiplicity
 _atom_site_fract_x
 _atom_site_fract_y
 _atom_site_fract_z
 _atom_site_occupancy
  C  C0  1  0.38225600  0.64998200  0.17155200  1
  C  C1  1  0.88225600  0.35001800  0.32844800  1
  C  C2  1  0.11774400  0.64998200  0.67155200  1
  C  C3  1  0.61774400  0.35001800  0.82844800  1
  C  C4  1  0.00000000  0.00000000  0.00000000  1
  C  C5  1  0.50000000  0.00000000  0.50000000  1
  C  C6  1  0.06820800  0.34871800  0.11240100  1
  C  C7  1  0.80521300  0.04215900  0.14444900  1
  C  C8  1  0.84899900  0.65027100  0.03687500  1
  C  C9  1  0.38766900  0.07564700  0.22358200  1
  C  C10  1  0.62846100  0.08852700  0.24109400  1
  C  C11  1  0.08715600  0.66947100  0.21813300  1
  C  C12  1  0.58715600  0.33052900  0.28186700  1
  C  C13  1  0.12846100  0.91147300  0.25890600  1
  C  C14  1  0.88766900  0.92435300  0.27641800  1
  C  C15  1  0.34899900  0.34972900  0.46312500  1
  C  C16  1  0.30521300  0.95784100  0.35555100  1
  C  C17  1  0.56820800  0.65128200  0.38759900  1
  C  C18  1  0.43179200  0.34871800  0.61240100  1
  C  C19  1  0.69478700  0.04215900  0.64444900  1
  C  C20  1  0.65100100  0.65027100  0.53687500  1
  C  C21  1  0.11233100  0.07564700  0.72358200  1
  C  C22  1  0.87153900  0.08852700  0.74109400  1
  C  C23  1  0.41284400  0.66947100  0.71813300  1
  C  C24  1  0.91284400  0.33052900  0.78186700  1
  C  C25  1  0.37153900  0.91147300  0.75890600  1
  C  C26  1  0.61233100  0.92435300  0.77641800  1
  C  C27  1  0.15100100  0.34972900  0.96312500  1
  C  C28  1  0.19478700  0.95784100  0.85555100  1
  C  C29  1  0.93179200  0.65128200  0.88759900  1
  Ni  Ni30  1  0.63947700  0.71496600  0.07735100  1
  Ni  Ni31  1  0.13947700  0.28503400  0.42264900  1
  Ni  Ni32  1  0.86052300  0.71496600  0.57735100  1
  Ni  Ni33  1  0.36052300  0.28503400  0.92264900  1
  Cu  Cu34  1  0.07491300  0.30844500  0.00539900  1
  Cu  Cu35  1  0.39534900  0.32177000  0.08253800  1
  Cu  Cu36  1  0.87775300  0.06758500  0.19212600  1
  Cu  Cu37  1  0.73818400  0.56668900  0.12944200  1
  Cu  Cu38  1  0.66339700  0.97153800  0.07451800  1
  Cu  Cu39  1  0.11169500  0.83007600  0.16880200  1
  Cu  Cu40  1  0.54816400  0.63612900  0.19323500  1
  Cu  Cu41  1  0.04816400  0.36387100  0.30676500  1
  Cu  Cu42  1  0.61169500  0.16992400  0.33119800  1
  Cu  Cu43  1  0.16339700  0.02846200  0.42548200  1
  Cu  Cu44  1  0.23818400  0.43331100  0.37055800  1
  Cu  Cu45  1  0.37775300  0.93241500  0.30787400  1
  Cu  Cu46  1  0.42508700  0.30844500  0.50539900  1
  Cu  Cu47  1  0.89534900  0.67823000  0.41746200  1
  Cu  Cu48  1  0.10465100  0.32177000  0.58253800  1
  Cu  Cu49  1  0.57491300  0.69155500  0.49460100  1
  Cu  Cu50  1  0.62224700  0.06758500  0.69212600  1
  Cu  Cu51  1  0.76181600  0.56668900  0.62944200  1
  Cu  Cu52  1  0.83660300  0.97153800  0.57451800  1
  Cu  Cu53  1  0.38830500  0.83007600  0.66880200  1
  Cu  Cu54  1  0.95183600  0.63612900  0.69323500  1
  Cu  Cu55  1  0.45183600  0.36387100  0.80676500  1
  Cu  Cu56  1  0.88830500  0.16992400  0.83119800  1
  Cu  Cu57  1  0.33660300  0.02846200  0.92548200  1
  Cu  Cu58  1  0.26181600  0.43331100  0.87055800  1
  Cu  Cu59  1  0.12224700  0.93241500  0.80787400  1
  Cu  Cu60  1  0.60465100  0.67823000  0.91746200  1
  Cu  Cu61  1  0.92508700  0.69155500  0.99460100  1
