# generated using pymatgen
data_CuNiC11
_symmetry_space_group_name_H-M   'P 1'
_cell_length_a   7.55177200
_cell_length_b   5.68874700
_cell_length_c   10.14945489
_cell_angle_alpha   88.12280202
_cell_angle_beta   90.00000000
_cell_angle_gamma   90.00000000
_symmetry_Int_Tables_number   1
_chemical_formula_structural   CuNiC11
_chemical_formula_sum   'Cu2 Ni2 C22'
_cell_volume   435.78780410
_cell_formula_units_Z   2
loop_
 _symmetry_equiv_pos_site_id
 _symmetry_equiv_pos_as_xyz
  1  'x, y, z'
loop_
 _atom_site_type_symbol
 _atom_site_label
 _atom_site_symmetry_multiplicity
 _atom_site_fract_x
 _atom_site_fract_y
 _atom_site_fract_z
 _atom_site_occupancy
  C  C0  1  0.25000000  0.76361800  0.91631800  1
  C  C1  1  0.00227700  0.25654000  0.74252900  1
  C  C2  1  0.49772300  0.25654000  0.74252900  1
  C  C3  1  0.50227700  0.74346000  0.25747100  1
  C  C4  1  0.99772300  0.74346000  0.25747100  1
  C  C5  1  0.75000000  0.23638200  0.08368200  1
  C  C6  1  0.75000000  0.77355600  0.62734400  1
  C  C7  1  0.25000000  0.22644400  0.37265600  1
  Ni  Ni8  1  0.25000000  0.70828400  0.58885400  1
  Ni  Ni9  1  0.75000000  0.29171600  0.41114600  1
  Cu  Cu10  1  0.75000000  0.73794100  0.93336300  1
  Cu  Cu11  1  0.25000000  0.26205900  0.06663700  1
  C  C12  1  0.25000000  0.26932900  0.93819000  1
  C  C13  1  0.75000000  0.94111000  0.86892400  1
  C  C14  1  0.75000000  0.54333800  0.86870100  1
  C  C15  1  0.08227500  0.78096100  0.66795500  1
  C  C16  1  0.41772500  0.78096100  0.66795500  1
  C  C17  1  0.25000000  0.43469300  0.57574200  1
  C  C18  1  0.75000000  0.17310300  0.55333500  1
  C  C19  1  0.25000000  0.82689700  0.44666500  1
  C  C20  1  0.75000000  0.56530700  0.42425800  1
  C  C21  1  0.58227500  0.21903900  0.33204500  1
  C  C22  1  0.91772500  0.21903900  0.33204500  1
  C  C23  1  0.25000000  0.45666200  0.13129900  1
  C  C24  1  0.25000000  0.05889000  0.13107600  1
  C  C25  1  0.75000000  0.73067100  0.06181000  1
