# generated using pymatgen
data_Cu(NiC5)2
_symmetry_space_group_name_H-M   'P 1'
_cell_length_a   5.57672200
_cell_length_b   7.89235097
_cell_length_c   9.62314447
_cell_angle_alpha   101.60374355
_cell_angle_beta   90.00000000
_cell_angle_gamma   90.00000000
_symmetry_Int_Tables_number   1
_chemical_formula_structural   Cu(NiC5)2
_chemical_formula_sum   'Cu2 Ni4 C20'
_cell_volume   414.89133950
_cell_formula_units_Z   2
loop_
 _symmetry_equiv_pos_site_id
 _symmetry_equiv_pos_as_xyz
  1  'x, y, z'
loop_
 _atom_site_type_symbol
 _atom_site_label
 _atom_site_symmetry_multiplicity
 _atom_site_fract_x
 _atom_site_fract_y
 _atom_site_fract_z
 _atom_site_occupancy
  C  C0  1  0.25000000  0.57741300  0.21298500  1
  C  C1  1  0.75000000  0.42258700  0.78701500  1
  Ni  Ni2  1  0.25000000  0.65664900  0.64916600  1
  Ni  Ni3  1  0.75000000  0.34335100  0.35083400  1
  Ni  Ni4  1  0.25000000  0.15760300  0.87878800  1
  Ni  Ni5  1  0.75000000  0.84239700  0.12121200  1
  Cu  Cu6  1  0.25000000  0.08743600  0.23043700  1
  Cu  Cu7  1  0.75000000  0.91256400  0.76956300  1
  C  C8  1  0.25000000  0.71945500  0.49793000  1
  C  C9  1  0.75000000  0.28054500  0.50207000  1
  C  C10  1  0.25000000  0.44682700  0.62432600  1
  C  C11  1  0.75000000  0.55317300  0.37567400  1
  C  C12  1  0.50164100  0.73056500  0.74334800  1
  C  C13  1  0.00164100  0.26943500  0.25665200  1
  C  C14  1  0.49835900  0.26943500  0.25665200  1
  C  C15  1  0.99835900  0.73056500  0.74334800  1
  C  C16  1  0.25000000  0.06197700  0.01775400  1
  C  C17  1  0.75000000  0.93802300  0.98224600  1
  C  C18  1  0.25000000  0.36632200  0.93282900  1
  C  C19  1  0.75000000  0.63367800  0.06717100  1
  C  C20  1  0.50038200  0.10008700  0.78236500  1
  C  C21  1  0.00038200  0.89991300  0.21763500  1
  C  C22  1  0.49961800  0.89991300  0.21763500  1
  C  C23  1  0.99961800  0.10008700  0.78236500  1
  C  C24  1  0.25000000  0.09995300  0.45004800  1
  C  C25  1  0.75000000  0.90004700  0.54995200  1
