# generated using pymatgen
data_Cu3Ni3C22
_symmetry_space_group_name_H-M   'P 1'
_cell_length_a   5.75382597
_cell_length_b   5.75382597
_cell_length_c   9.56453612
_cell_angle_alpha   89.99218291
_cell_angle_beta   89.99218291
_cell_angle_gamma   60.15768234
_symmetry_Int_Tables_number   1
_chemical_formula_structural   Cu3Ni3C22
_chemical_formula_sum   'Cu3 Ni3 C22'
_cell_volume   274.66027270
_cell_formula_units_Z   1
loop_
 _symmetry_equiv_pos_site_id
 _symmetry_equiv_pos_as_xyz
  1  'x, y, z'
loop_
 _atom_site_type_symbol
 _atom_site_label
 _atom_site_symmetry_multiplicity
 _atom_site_fract_x
 _atom_site_fract_y
 _atom_site_fract_z
 _atom_site_occupancy
  C  C0  1  0.66991700  0.66991700  0.89153800  1
  C  C1  1  0.99474300  0.99474300  0.99643900  1
  C  C2  1  0.99531800  0.99531800  0.49887200  1
  C  C3  1  0.33682300  0.33682300  0.39622600  1
  Ni  Ni4  1  0.83150500  0.33623900  0.21443100  1
  Ni  Ni5  1  0.33623900  0.83150500  0.21443100  1
  Ni  Ni6  1  0.16865700  0.16865700  0.71444900  1
  Cu  Cu7  1  0.83064100  0.83064100  0.21418000  1
  Cu  Cu8  1  0.66301000  0.16875500  0.71347400  1
  Cu  Cu9  1  0.16875500  0.66301000  0.71347400  1
  C  C10  1  0.66660900  0.66660900  0.49150100  1
  C  C11  1  0.33312900  0.33312900  0.98932800  1
  C  C12  1  0.83981100  0.31672400  0.60879400  1
  C  C13  1  0.51841200  0.51841200  0.32878100  1
  C  C14  1  0.66930500  0.66930500  0.10407100  1
  C  C15  1  0.99503500  0.99503500  0.31458800  1
  C  C16  1  0.99500700  0.99500700  0.81166000  1
  C  C17  1  0.31672400  0.83981100  0.60879400  1
  C  C18  1  0.96438200  0.52144100  0.32893600  1
  C  C19  1  0.52144100  0.96438200  0.32893600  1
  C  C20  1  0.15942700  0.15942700  0.10789500  1
  C  C21  1  0.84089000  0.84089000  0.61285200  1
  C  C22  1  0.48511100  0.03696000  0.82668600  1
  C  C23  1  0.03696000  0.48511100  0.82668600  1
  C  C24  1  0.33728500  0.33728500  0.60735100  1
  C  C25  1  0.68184200  0.15647100  0.10943500  1
  C  C26  1  0.48167100  0.48167100  0.82460100  1
  C  C27  1  0.15647100  0.68184200  0.10943500  1
