# generated using pymatgen
data_Cu4Ni2C3
_symmetry_space_group_name_H-M   'P 1'
_cell_length_a   5.62533074
_cell_length_b   5.62533074
_cell_length_c   6.98413170
_cell_angle_alpha   74.40683974
_cell_angle_beta   74.40683974
_cell_angle_gamma   76.00241911
_symmetry_Int_Tables_number   1
_chemical_formula_structural   Cu4Ni2C3
_chemical_formula_sum   'Cu8 Ni4 C6'
_cell_volume   201.58284381
_cell_formula_units_Z   2
loop_
 _symmetry_equiv_pos_site_id
 _symmetry_equiv_pos_as_xyz
  1  'x, y, z'
loop_
 _atom_site_type_symbol
 _atom_site_label
 _atom_site_symmetry_multiplicity
 _atom_site_fract_x
 _atom_site_fract_y
 _atom_site_fract_z
 _atom_site_occupancy
  C  C0  1  0.66822300  0.66822300  0.83994800  1
  C  C1  1  0.65168600  0.65168600  0.33466000  1
  C  C2  1  0.34831400  0.34831400  0.66534000  1
  C  C3  1  0.33177700  0.33177700  0.16005200  1
  C  C4  1  0.00000000  0.00000000  0.50000000  1
  C  C5  1  0.00000000  0.00000000  0.00000000  1
  Ni  Ni6  1  0.56510400  0.56510400  0.62983100  1
  Ni  Ni7  1  0.24762800  0.24762800  0.95625500  1
  Ni  Ni8  1  0.43489600  0.43489600  0.37016900  1
  Ni  Ni9  1  0.75237200  0.75237200  0.04374500  1
  Cu  Cu10  1  0.97464300  0.35986600  0.32975000  1
  Cu  Cu11  1  0.64013400  0.02535700  0.67025000  1
  Cu  Cu12  1  0.87939400  0.87939400  0.30727400  1
  Cu  Cu13  1  0.12060600  0.12060600  0.69272600  1
  Cu  Cu14  1  0.35986600  0.97464300  0.32975000  1
  Cu  Cu15  1  0.02535700  0.64013400  0.67025000  1
  Cu  Cu16  1  0.70061000  0.29939000  0.00000000  1
  Cu  Cu17  1  0.29939000  0.70061000  0.00000000  1
