# generated using pymatgen
data_Cu3Ni2C31
_symmetry_space_group_name_H-M   'P 1'
_cell_length_a   8.44917874
_cell_length_b   8.44917874
_cell_length_c   8.44917936
_cell_angle_alpha   61.88912212
_cell_angle_beta   61.88912212
_cell_angle_gamma   61.88912108
_symmetry_Int_Tables_number   1
_chemical_formula_structural   Cu3Ni2C31
_chemical_formula_sum   'Cu3 Ni2 C31'
_cell_volume   444.54593672
_cell_formula_units_Z   1
loop_
 _symmetry_equiv_pos_site_id
 _symmetry_equiv_pos_as_xyz
  1  'x, y, z'
loop_
 _atom_site_type_symbol
 _atom_site_label
 _atom_site_symmetry_multiplicity
 _atom_site_fract_x
 _atom_site_fract_y
 _atom_site_fract_z
 _atom_site_occupancy
  Ni  Ni0  1  0.01171800  0.01171800  0.01171800  1
  Ni  Ni1  1  0.50329100  0.50329100  0.50329100  1
  Cu  Cu2  1  0.35658600  0.35658600  0.35658600  1
  Cu  Cu3  1  0.14799400  0.14799400  0.14799400  1
  Cu  Cu4  1  0.64256700  0.64256700  0.64256700  1
  C  C5  1  0.74168500  0.04910100  0.44969900  1
  C  C6  1  0.04910100  0.44969900  0.74168500  1
  C  C7  1  0.44969900  0.74168500  0.04910100  1
  C  C8  1  0.53823700  0.25523400  0.95368200  1
  C  C9  1  0.95368200  0.53823700  0.25523400  1
  C  C10  1  0.25523400  0.95368200  0.53823700  1
  C  C11  1  0.85806000  0.85806000  0.85806000  1
  C  C12  1  0.89570400  0.49564700  0.67278300  1
  C  C13  1  0.49564700  0.67278300  0.89570400  1
  C  C14  1  0.67278300  0.89570400  0.49564700  1
  C  C15  1  0.90085100  0.06401800  0.25375000  1
  C  C16  1  0.82349800  0.98720400  0.61721000  1
  C  C17  1  0.59855000  0.24723800  0.45288700  1
  C  C18  1  0.06401800  0.25375000  0.90085100  1
  C  C19  1  0.24723800  0.45288700  0.59855000  1
  C  C20  1  0.39787000  0.17103100  0.99136100  1
  C  C21  1  0.45288700  0.59855000  0.24723800  1
  C  C22  1  0.75208700  0.09132800  0.92790000  1
  C  C23  1  0.99136100  0.39787000  0.17103100  1
  C  C24  1  0.98720400  0.61721000  0.82349800  1
  C  C25  1  0.25375000  0.90085100  0.06401800  1
  C  C26  1  0.56213100  0.40207000  0.74983600  1
  C  C27  1  0.61721000  0.82349800  0.98720400  1
  C  C28  1  0.74983600  0.56213100  0.40207000  1
  C  C29  1  0.92790000  0.75208700  0.09132800  1
  C  C30  1  0.40207000  0.74983600  0.56213100  1
  C  C31  1  0.17103100  0.99136100  0.39787000  1
  C  C32  1  0.09132800  0.92790000  0.75208700  1
  C  C33  1  0.31108400  0.10720900  0.51890900  1
  C  C34  1  0.51890900  0.31108400  0.10720900  1
  C  C35  1  0.10720900  0.51890900  0.31108400  1
