# generated using pymatgen
data_Cu2Ni3C23
_symmetry_space_group_name_H-M   'P 1'
_cell_length_a   6.14073602
_cell_length_b   6.14073602
_cell_length_c   9.92688083
_cell_angle_alpha   89.05382084
_cell_angle_beta   89.05382084
_cell_angle_gamma   59.05487178
_symmetry_Int_Tables_number   1
_chemical_formula_structural   Cu2Ni3C23
_chemical_formula_sum   'Cu2 Ni3 C23'
_cell_volume   320.98938861
_cell_formula_units_Z   1
loop_
 _symmetry_equiv_pos_site_id
 _symmetry_equiv_pos_as_xyz
  1  'x, y, z'
loop_
 _atom_site_type_symbol
 _atom_site_label
 _atom_site_symmetry_multiplicity
 _atom_site_fract_x
 _atom_site_fract_y
 _atom_site_fract_z
 _atom_site_occupancy
  C  C0  1  0.66145900  0.66145900  0.09394600  1
  C  C1  1  0.00254000  0.00254000  0.01357000  1
  C  C2  1  0.00742700  0.00742700  0.50732600  1
  C  C3  1  0.32726000  0.32726000  0.59241900  1
  Ni  Ni4  1  0.17801300  0.17801300  0.26425200  1
  Ni  Ni5  1  0.34500500  0.84300400  0.78031000  1
  Ni  Ni6  1  0.84300400  0.34500500  0.78031000  1
  C  C7  1  0.83306200  0.83306200  0.78972900  1
  C  C8  1  0.16832900  0.66247500  0.29437700  1
  C  C9  1  0.66247500  0.16832900  0.29437700  1
  Cu  Cu10  1  0.66566900  0.66566900  0.50252500  1
  Cu  Cu11  1  0.35013600  0.35013600  0.01109900  1
  C  C12  1  0.34651000  0.83594300  0.41175300  1
  C  C13  1  0.52022600  0.52022600  0.66654400  1
  C  C14  1  0.64999100  0.64999100  0.89099900  1
  C  C15  1  0.01042300  0.01042300  0.69487500  1
  C  C16  1  0.01172900  0.01172900  0.20050500  1
  C  C17  1  0.83594300  0.34651000  0.41175300  1
  C  C18  1  0.49803400  0.96019500  0.66161100  1
  C  C19  1  0.96019500  0.49803400  0.66161100  1
  C  C20  1  0.16310000  0.16310000  0.89410600  1
  C  C21  1  0.83164800  0.83164800  0.42838800  1
  C  C22  1  0.03232100  0.46393600  0.14810300  1
  C  C23  1  0.46393600  0.03232100  0.14810300  1
  C  C24  1  0.31227400  0.31227400  0.39103800  1
  C  C25  1  0.17632800  0.66567800  0.90811400  1
  C  C26  1  0.47715200  0.47715200  0.14236800  1
  C  C27  1  0.66567800  0.17632800  0.90811400  1
