# generated using pymatgen
data_CuNiC6
_symmetry_space_group_name_H-M   'P 1'
_cell_length_a   5.07693800
_cell_length_b   6.28760300
_cell_length_c   10.96777600
_cell_angle_alpha   90.00000000
_cell_angle_beta   90.00000000
_cell_angle_gamma   90.00000000
_symmetry_Int_Tables_number   1
_chemical_formula_structural   CuNiC6
_chemical_formula_sum   'Cu4 Ni4 C24'
_cell_volume   350.11082946
_cell_formula_units_Z   4
loop_
 _symmetry_equiv_pos_site_id
 _symmetry_equiv_pos_as_xyz
  1  'x, y, z'
loop_
 _atom_site_type_symbol
 _atom_site_label
 _atom_site_symmetry_multiplicity
 _atom_site_fract_x
 _atom_site_fract_y
 _atom_site_fract_z
 _atom_site_occupancy
  C  C0  1  0.75808500  0.00078100  0.17269400  1
  C  C1  1  0.75823000  0.25400000  0.91069400  1
  C  C2  1  0.75823000  0.24600000  0.41069400  1
  C  C3  1  0.75808500  0.49921900  0.67269400  1
  C  C4  1  0.25808500  0.50078100  0.32730600  1
  C  C5  1  0.25823000  0.75400000  0.58930600  1
  C  C6  1  0.25823000  0.74600000  0.08930600  1
  C  C7  1  0.25808500  0.99921900  0.82730600  1
  Ni  Ni8  1  0.25740900  0.25006500  0.58334200  1
  Ni  Ni9  1  0.25740900  0.24993500  0.08334200  1
  Ni  Ni10  1  0.75740900  0.75006500  0.91665800  1
  Ni  Ni11  1  0.75740900  0.74993500  0.41665800  1
  Cu  Cu12  1  0.26411300  0.99963600  0.33433900  1
  Cu  Cu13  1  0.26411300  0.50036400  0.83433900  1
  Cu  Cu14  1  0.76411300  0.49963600  0.16566100  1
  Cu  Cu15  1  0.76411300  0.00036400  0.66566100  1
  C  C16  1  0.08786600  0.99750000  0.66695300  1
  C  C17  1  0.15589900  0.00174300  0.19127200  1
  C  C18  1  0.15787300  0.28256100  0.90558600  1
  C  C19  1  0.66365000  0.21908600  0.59322100  1
  C  C20  1  0.66365000  0.28091400  0.09322100  1
  C  C21  1  0.15787300  0.21743900  0.40558600  1
  C  C22  1  0.15589900  0.49825700  0.69127200  1
  C  C23  1  0.08786600  0.50250000  0.16695300  1
  C  C24  1  0.58786600  0.49750000  0.83304700  1
  C  C25  1  0.65589900  0.50174300  0.30872800  1
  C  C26  1  0.65787300  0.78256100  0.59441400  1
  C  C27  1  0.16365000  0.71908600  0.90677900  1
  C  C28  1  0.16365000  0.78091400  0.40677900  1
  C  C29  1  0.65787300  0.71743900  0.09441400  1
  C  C30  1  0.65589900  0.99825700  0.80872800  1
  C  C31  1  0.58786600  0.00250000  0.33304700  1
