# generated using pymatgen
data_Cu26Ni4C25
_symmetry_space_group_name_H-M   'P 1'
_cell_length_a   16.50933300
_cell_length_b   16.50933300
_cell_length_c   5.90155700
_cell_angle_alpha   90.00000000
_cell_angle_beta   90.00000000
_cell_angle_gamma   90.00000000
_symmetry_Int_Tables_number   1
_chemical_formula_structural   Cu26Ni4C25
_chemical_formula_sum   'Cu52 Ni8 C50'
_cell_volume   1608.51702194
_cell_formula_units_Z   2
loop_
 _symmetry_equiv_pos_site_id
 _symmetry_equiv_pos_as_xyz
  1  'x, y, z'
loop_
 _atom_site_type_symbol
 _atom_site_label
 _atom_site_symmetry_multiplicity
 _atom_site_fract_x
 _atom_site_fract_y
 _atom_site_fract_z
 _atom_site_occupancy
  C  C0  1  0.18030700  0.02798100  0.46869500  1
  C  C1  1  0.68030700  0.47201900  0.53130500  1
  C  C2  1  0.81969300  0.97201900  0.46869500  1
  C  C3  1  0.31969300  0.52798100  0.53130500  1
  C  C4  1  0.02798100  0.81969300  0.53130500  1
  C  C5  1  0.52798100  0.68030700  0.46869500  1
  C  C6  1  0.97201900  0.18030700  0.53130500  1
  C  C7  1  0.47201900  0.31969300  0.46869500  1
  C  C8  1  0.10886200  0.60886200  0.99563200  1
  C  C9  1  0.60886200  0.89113800  0.00436800  1
  C  C10  1  0.89113800  0.39113800  0.99563200  1
  C  C11  1  0.39113800  0.10886200  0.00436800  1
  C  C12  1  0.18798000  0.78883900  0.00898100  1
  C  C13  1  0.68798000  0.71116100  0.99101900  1
  C  C14  1  0.81202000  0.21116100  0.00898100  1
  C  C15  1  0.31202000  0.28883900  0.99101900  1
  C  C16  1  0.78883900  0.81202000  0.99101900  1
  C  C17  1  0.28883900  0.68798000  0.00898100  1
  C  C18  1  0.21116100  0.18798000  0.99101900  1
  C  C19  1  0.71116100  0.31202000  0.00898100  1
  C  C20  1  0.21720800  0.89105200  0.01038300  1
  C  C21  1  0.71720800  0.60894800  0.98961700  1
  C  C22  1  0.78279200  0.10894800  0.01038300  1
  C  C23  1  0.28279200  0.39105200  0.98961700  1
  C  C24  1  0.89105200  0.78279200  0.98961700  1
  C  C25  1  0.39105200  0.71720800  0.01038300  1
  C  C26  1  0.10894800  0.21720800  0.98961700  1
  C  C27  1  0.60894800  0.28279200  0.01038300  1
  C  C28  1  0.24975700  0.81728300  0.51312100  1
  C  C29  1  0.74975700  0.68271700  0.48687900  1
  C  C30  1  0.75024300  0.18271700  0.51312100  1
  C  C31  1  0.25024300  0.31728300  0.48687900  1
  C  C32  1  0.81728300  0.75024300  0.48687900  1
  C  C33  1  0.31728300  0.74975700  0.51312100  1
  C  C34  1  0.18271700  0.24975700  0.48687900  1
  C  C35  1  0.68271700  0.25024300  0.51312100  1
  C  C36  1  0.00000000  0.00000000  0.00000000  1
  C  C37  1  0.50000000  0.50000000  0.00000000  1
  C  C38  1  0.41614400  0.91614400  0.51400900  1
  C  C39  1  0.91614400  0.58385600  0.48599100  1
  C  C40  1  0.58385600  0.08385600  0.51400900  1
  C  C41  1  0.08385600  0.41614400  0.48599100  1
  C  C42  1  0.31128400  0.81128400  0.01331400  1
  C  C43  1  0.81128400  0.68871600  0.98668600  1
  C  C44  1  0.68871600  0.18871600  0.01331400  1
  C  C45  1  0.18871600  0.31128400  0.98668600  1
  C  C46  1  0.38555900  0.88555900  0.01222100  1
  C  C47  1  0.88555900  0.61444100  0.98777900  1
  C  C48  1  0.61444100  0.11444100  0.01222100  1
  C  C49  1  0.11444100  0.38555900  0.98777900  1
  Ni  Ni50  1  0.23317400  0.83164100  0.01318400  1
  Ni  Ni51  1  0.73317400  0.66835900  0.98681600  1
  Ni  Ni52  1  0.76682600  0.16835900  0.01318400  1
  Ni  Ni53  1  0.26682600  0.33164100  0.98681600  1
  Ni  Ni54  1  0.83164100  0.76682600  0.98681600  1
  Ni  Ni55  1  0.33164100  0.73317400  0.01318400  1
  Ni  Ni56  1  0.16835900  0.23317400  0.98681600  1
  Ni  Ni57  1  0.66835900  0.26682600  0.01318400  1
  Cu  Cu58  1  0.14224400  0.99517700  0.20515500  1
  Cu  Cu59  1  0.64224400  0.50482300  0.79484500  1
  Cu  Cu60  1  0.85775600  0.00482300  0.20515500  1
  Cu  Cu61  1  0.35775600  0.49517700  0.79484500  1
  Cu  Cu62  1  0.99517700  0.85775600  0.79484500  1
  Cu  Cu63  1  0.49517700  0.64224400  0.20515500  1
  Cu  Cu64  1  0.00482300  0.14224400  0.79484500  1
  Cu  Cu65  1  0.50482300  0.35775600  0.20515500  1
  Cu  Cu66  1  0.11310200  0.99554900  0.68095800  1
  Cu  Cu67  1  0.61310200  0.50445100  0.31904200  1
  Cu  Cu68  1  0.88689800  0.00445100  0.68095800  1
  Cu  Cu69  1  0.38689800  0.49554900  0.31904200  1
  Cu  Cu70  1  0.99554900  0.88689800  0.31904200  1
  Cu  Cu71  1  0.49554900  0.61310200  0.68095800  1
  Cu  Cu72  1  0.00445100  0.11310200  0.31904200  1
  Cu  Cu73  1  0.50445100  0.38689800  0.68095800  1
  Cu  Cu74  1  0.27502400  0.98304200  0.51522800  1
  Cu  Cu75  1  0.77502400  0.51695800  0.48477200  1
  Cu  Cu76  1  0.72497600  0.01695800  0.51522800  1
  Cu  Cu77  1  0.22497600  0.48304200  0.48477200  1
  Cu  Cu78  1  0.98304200  0.72497600  0.48477200  1
  Cu  Cu79  1  0.48304200  0.77502400  0.51522800  1
  Cu  Cu80  1  0.01695800  0.27502400  0.48477200  1
  Cu  Cu81  1  0.51695800  0.22497600  0.51522800  1
  Cu  Cu82  1  0.18929600  0.13343600  0.47928900  1
  Cu  Cu83  1  0.68929600  0.36656400  0.52071100  1
  Cu  Cu84  1  0.81070400  0.86656400  0.47928900  1
  Cu  Cu85  1  0.31070400  0.63343600  0.52071100  1
  Cu  Cu86  1  0.13343600  0.81070400  0.52071100  1
  Cu  Cu87  1  0.63343600  0.68929600  0.47928900  1
  Cu  Cu88  1  0.86656400  0.18929600  0.52071100  1
  Cu  Cu89  1  0.36656400  0.31070400  0.47928900  1
  Cu  Cu90  1  0.06681900  0.56681900  0.74782000  1
  Cu  Cu91  1  0.56681900  0.93318100  0.25218000  1
  Cu  Cu92  1  0.93318100  0.43318100  0.74782000  1
  Cu  Cu93  1  0.43318100  0.06681900  0.25218000  1
  Cu  Cu94  1  0.06533600  0.56533600  0.24047400  1
  Cu  Cu95  1  0.56533600  0.93466400  0.75952600  1
  Cu  Cu96  1  0.93466400  0.43466400  0.24047400  1
  Cu  Cu97  1  0.43466400  0.06533600  0.75952600  1
  Cu  Cu98  1  0.28624300  0.09318700  0.00340400  1
  Cu  Cu99  1  0.78624300  0.40681300  0.99659600  1
  Cu  Cu100  1  0.71375700  0.90681300  0.00340400  1
  Cu  Cu101  1  0.21375700  0.59318700  0.99659600  1
  Cu  Cu102  1  0.09318700  0.71375700  0.99659600  1
  Cu  Cu103  1  0.59318700  0.78624300  0.00340400  1
  Cu  Cu104  1  0.90681300  0.28624300  0.99659600  1
  Cu  Cu105  1  0.40681300  0.21375700  0.00340400  1
  Cu  Cu106  1  0.30856200  0.80856200  0.50894500  1
  Cu  Cu107  1  0.80856200  0.69143800  0.49105500  1
  Cu  Cu108  1  0.69143800  0.19143800  0.50894500  1
  Cu  Cu109  1  0.19143800  0.30856200  0.49105500  1
