# generated using pymatgen
data_CuNi2C25
_symmetry_space_group_name_H-M   'P 1'
_cell_length_a   10.37028643
_cell_length_b   10.35559446
_cell_length_c   17.92346481
_cell_angle_alpha   106.30574361
_cell_angle_beta   73.76720121
_cell_angle_gamma   119.68911127
_symmetry_Int_Tables_number   1
_chemical_formula_structural   CuNi2C25
_chemical_formula_sum   'Cu4 Ni8 C100'
_cell_volume   1581.93033851
_cell_formula_units_Z   4
loop_
 _symmetry_equiv_pos_site_id
 _symmetry_equiv_pos_as_xyz
  1  'x, y, z'
loop_
 _atom_site_type_symbol
 _atom_site_label
 _atom_site_symmetry_multiplicity
 _atom_site_fract_x
 _atom_site_fract_y
 _atom_site_fract_z
 _atom_site_occupancy
  C  C0  1  0.28240033  0.21653952  0.03321167  1
  C  C1  1  0.21689228  0.89961833  0.46484634  1
  C  C2  1  0.51720065  0.58929256  0.15540919  1
  C  C3  1  0.58988368  0.90659352  0.34198231  1
  C  C4  1  0.91492699  0.59638452  0.15950664  1
  C  C5  1  0.90369399  0.21767037  0.03197456  1
  C  C6  1  0.59286128  0.52917897  0.34280556  1
  C  C7  1  0.21541639  0.28423589  0.46573655  1
  C  C8  1  0.78311587  0.71667364  0.53287265  1
  C  C9  1  0.60418331  0.28537363  0.46667066  1
  C  C10  1  0.90772621  0.97193337  0.16263504  1
  C  C11  1  0.10024542  0.78317373  0.96514130  1
  C  C12  1  0.41035901  0.48326763  0.65546655  1
  C  C13  1  0.09395905  0.41008591  0.84197803  1
  C  C14  1  0.40394190  0.08488719  0.65912510  1
  C  C15  1  0.47068270  0.40791476  0.84250221  1
  C  C16  1  0.78197641  0.09635722  0.53199176  1
  C  C17  1  0.71633900  0.78473803  0.96543974  1
  C  C18  1  0.02849042  0.09320121  0.66257622  1
  C  C19  1  0.71468274  0.39556521  0.96663651  1
  Ni  Ni20  1  0.24611044  0.74942072  0.24827927  1
  Ni  Ni21  1  0.00850235  0.50382694  0.49934089  1
  Ni  Ni22  1  0.24500343  0.24549094  0.25253227  1
  Ni  Ni23  1  0.49701199  0.99237274  0.99950161  1
  Ni  Ni24  1  0.75487654  0.25300327  0.25000161  1
  Ni  Ni25  1  0.24985754  0.75402888  0.74822974  1
  Ni  Ni26  1  0.75290354  0.75469767  0.75198801  1
  Ni  Ni27  1  0.74610633  0.24641305  0.75064432  1
  Cu  Cu28  1  0.81065976  0.68554614  0.06248391  1
  Cu  Cu29  1  0.68738395  0.81272357  0.43753881  1
  Cu  Cu30  1  0.31445006  0.18940505  0.56248828  1
  Cu  Cu31  1  0.18731010  0.31230429  0.93748794  1
  C  C32  1  0.19301838  0.91936476  0.13619069  1
  C  C33  1  0.58828090  0.91941784  0.14091184  1
  C  C34  1  0.10828334  0.38712562  0.16808041  1
  C  C35  1  0.30442643  0.58297438  0.35927185  1
  C  C36  1  0.07983158  0.80718649  0.63668337  1
  C  C37  1  0.58307742  0.30638126  0.13873388  1
  C  C38  1  0.39506710  0.11466312  0.33469113  1
  C  C39  1  0.08005544  0.41095412  0.64034285  1
  C  C40  1  0.91818560  0.58157337  0.36116263  1
  C  C41  1  0.61154568  0.88929729  0.66824881  1
  C  C42  1  0.91602409  0.19679976  0.36116650  1
  C  C43  1  0.41961827  0.69528331  0.85903389  1
  C  C44  1  0.69351454  0.41669737  0.63852925  1
  C  C45  1  0.88716117  0.60542194  0.83451012  1
  C  C46  1  0.41988434  0.08351556  0.86029847  1
  C  C47  1  0.80234531  0.08275206  0.86238421  1
  C  C48  1  0.25625001  0.86710199  0.06994321  1
  C  C49  1  0.13358094  0.84649521  0.19472254  1
  C  C50  1  0.64302701  0.97376802  0.07507623  1
  C  C51  1  0.10921417  0.51542024  0.17459258  1
  C  C52  1  0.46443675  0.79665990  0.14712698  1
  C  C53  1  0.04766102  0.69920698  0.35618045  1
  C  C54  1  0.38438139  0.98365746  0.33357945  1
  C  C55  1  0.65901934  0.59426457  0.03003541  1
  C  C56  1  0.90292174  0.84077523  0.03346983  1
  C  C57  1  0.23055476  0.37964437  0.16718129  1
  C  C58  1  0.36923375  0.65278682  0.29873290  1
  C  C59  1  0.90350167  0.59437406  0.03199570  1
  C  C60  1  0.77679914  0.71269772  0.15452105  1
  C  C61  1  0.18670652  0.04546555  0.14289595  1
  C  C62  1  0.52831500  0.24187472  0.07341946  1
  C  C63  1  0.02656780  0.74091081  0.57041835  1
  C  C64  1  0.23441295  0.63780452  0.42102631  1
  C  C65  1  0.98543273  0.14534610  0.29750460  1
  C  C66  1  0.51295688  0.36502906  0.19896024  1
  C  C67  1  0.30923824  0.45822010  0.35690968  1
  C  C68  1  0.59881887  0.90903274  0.46648638  1
  C  C69  1  0.71265050  0.77998486  0.34509625  1
  C  C70  1  0.71009181  0.31351818  0.14326227  1
  C  C71  1  0.20429793  0.81476206  0.64334292  1
  C  C72  1  0.27614810  0.12818565  0.33683942  1
  C  C73  1  0.13475569  0.46153211  0.57415038  1
  C  C74  1  0.59939402  0.65739156  0.46730331  1
  C  C75  1  0.83859691  0.90436090  0.47117027  1
  C  C76  1  0.36239714  0.01368521  0.79661885  1
  C  C77  1  0.84598009  0.51560128  0.30152117  1
  C  C78  1  0.01683597  0.72222202  0.83418672  1
  C  C79  1  0.52593878  0.23426797  0.33499553  1
  C  C80  1  0.48361210  0.77035976  0.67518071  1
  C  C81  1  0.98136729  0.26360372  0.16362432  1
  C  C82  1  0.14975929  0.48285166  0.70044049  1
  C  C83  1  0.66214750  0.99022980  0.20011856  1
  C  C84  1  0.15940383  0.09702560  0.53345265  1
  C  C85  1  0.40589220  0.34111778  0.53001765  1
  C  C86  1  0.85917092  0.52619595  0.42686926  1
  C  C87  1  0.73535120  0.88172452  0.66559398  1
  C  C88  1  0.29401697  0.69077569  0.85524458  1
  C  C89  1  0.78696040  0.18884505  0.35976117  1
  C  C90  1  0.40545033  0.09631954  0.53195468  1
  C  C91  1  0.28742124  0.22346385  0.65450552  1
  C  C92  1  0.68830370  0.54191696  0.64328152  1
  C  C93  1  0.48492241  0.62908692  0.79970957  1
  C  C94  1  0.75899010  0.36176752  0.57409333  1
  C  C95  1  0.00779602  0.86738908  0.69457593  1
  C  C96  1  0.79678928  0.95347181  0.85900347  1
  C  C97  1  0.97425297  0.25842480  0.42549030  1
  C  C98  1  0.48335801  0.76664596  0.92125324  1
  C  C99  1  0.09099439  0.40092989  0.96656499  1
  C  C100  1  0.22023019  0.28688292  0.84504075  1
  C  C101  1  0.63128296  0.34545070  0.69861620  1
  C  C102  1  0.76708547  0.61710079  0.83492840  1
  C  C103  1  0.09532794  0.16103822  0.97126260  1
  C  C104  1  0.34274206  0.40031295  0.96709489  1
  C  C105  1  0.61995955  0.01746352  0.66500301  1
  C  C106  1  0.95525190  0.28511612  0.64605733  1
  C  C107  1  0.54162213  0.21270409  0.85918865  1
  C  C108  1  0.87379397  0.47342197  0.83577028  1
  C  C109  1  0.36013165  0.02644457  0.92512728  1
  C  C110  1  0.86582774  0.15172014  0.80157704  1
  C  C111  1  0.74119932  0.14282339  0.92706679  1
