# generated using pymatgen
data_CuNiC3
_symmetry_space_group_name_H-M   'P 1'
_cell_length_a   7.77896083
_cell_length_b   7.77896083
_cell_length_c   5.15800273
_cell_angle_alpha   81.14945767
_cell_angle_beta   81.14945767
_cell_angle_gamma   88.23298173
_symmetry_Int_Tables_number   1
_chemical_formula_structural   CuNiC3
_chemical_formula_sum   'Cu4 Ni4 C12'
_cell_volume   304.72545222
_cell_formula_units_Z   4
loop_
 _symmetry_equiv_pos_site_id
 _symmetry_equiv_pos_as_xyz
  1  'x, y, z'
loop_
 _atom_site_type_symbol
 _atom_site_label
 _atom_site_symmetry_multiplicity
 _atom_site_fract_x
 _atom_site_fract_y
 _atom_site_fract_z
 _atom_site_occupancy
  Ni  Ni0  1  0.22633900  0.77366100  0.75000000  1
  Ni  Ni1  1  0.59615900  0.40384100  0.75000000  1
  Ni  Ni2  1  0.40384100  0.59615900  0.25000000  1
  Ni  Ni3  1  0.77366100  0.22633900  0.25000000  1
  Cu  Cu4  1  0.70068600  0.87800700  0.77057900  1
  Cu  Cu5  1  0.87800700  0.70068600  0.27057900  1
  Cu  Cu6  1  0.12199300  0.29931400  0.72942100  1
  Cu  Cu7  1  0.29931400  0.12199300  0.22942100  1
  C  C8  1  0.88912400  0.80409600  0.55857400  1
  C  C9  1  0.80409600  0.88912400  0.05857400  1
  C  C10  1  0.54561800  0.72410000  0.82689900  1
  C  C11  1  0.91521800  0.34856200  0.84243600  1
  C  C12  1  0.72410000  0.54561800  0.32689900  1
  C  C13  1  0.34856200  0.91521800  0.34243600  1
  C  C14  1  0.65143800  0.08478200  0.65756400  1
  C  C15  1  0.27590000  0.45438200  0.67310100  1
  C  C16  1  0.08478200  0.65143800  0.15756400  1
  C  C17  1  0.45438200  0.27590000  0.17310100  1
  C  C18  1  0.19590400  0.11087600  0.94142600  1
  C  C19  1  0.11087600  0.19590400  0.44142600  1
