# generated using pymatgen
data_Cu6NiC29
_symmetry_space_group_name_H-M   'P 1'
_cell_length_a   8.70139292
_cell_length_b   8.70139292
_cell_length_c   8.70139341
_cell_angle_alpha   59.81437639
_cell_angle_beta   59.81437639
_cell_angle_gamma   59.81437627
_symmetry_Int_Tables_number   1
_chemical_formula_structural   Cu6NiC29
_chemical_formula_sum   'Cu6 Ni1 C29'
_cell_volume   463.89279466
_cell_formula_units_Z   1
loop_
 _symmetry_equiv_pos_site_id
 _symmetry_equiv_pos_as_xyz
  1  'x, y, z'
loop_
 _atom_site_type_symbol
 _atom_site_label
 _atom_site_symmetry_multiplicity
 _atom_site_fract_x
 _atom_site_fract_y
 _atom_site_fract_z
 _atom_site_occupancy
  C  C0  1  0.00673100  0.00673100  0.00673100  1
  C  C1  1  0.49947300  0.49947300  0.49947300  1
  C  C2  1  0.14687900  0.14687900  0.14687900  1
  C  C3  1  0.35387100  0.35387100  0.35387100  1
  C  C4  1  0.64491400  0.64491400  0.64491400  1
  Ni  Ni5  1  0.85579000  0.85579000  0.85579000  1
  Cu  Cu6  1  0.04499400  0.45408300  0.74649800  1
  Cu  Cu7  1  0.45408300  0.74649800  0.04499400  1
  Cu  Cu8  1  0.74649800  0.04499400  0.45408300  1
  Cu  Cu9  1  0.25236800  0.95575400  0.53940600  1
  Cu  Cu10  1  0.53940600  0.25236800  0.95575400  1
  Cu  Cu11  1  0.95575400  0.53940600  0.25236800  1
  C  C12  1  0.11543200  0.51062100  0.30154700  1
  C  C13  1  0.30154700  0.11543200  0.51062100  1
  C  C14  1  0.05751000  0.26568200  0.91378400  1
  C  C15  1  0.51062100  0.30154700  0.11543200  1
  C  C16  1  0.01162800  0.61610600  0.80555200  1
  C  C17  1  0.23669500  0.44265900  0.58544000  1
  C  C18  1  0.26568200  0.91378400  0.05751000  1
  C  C19  1  0.44265900  0.58544000  0.23669500  1
  C  C20  1  0.18775400  0.99417700  0.38656600  1
  C  C21  1  0.58544000  0.23669500  0.44265900  1
  C  C22  1  0.08160400  0.94033000  0.73907000  1
  C  C23  1  0.38656600  0.18775400  0.99417700  1
  C  C24  1  0.61610600  0.80555200  0.01162800  1
  C  C25  1  0.91378400  0.05751000  0.26568200  1
  C  C26  1  0.41043600  0.76151900  0.56208200  1
  C  C27  1  0.80555200  0.01162800  0.61610600  1
  C  C28  1  0.56208200  0.41043600  0.76151900  1
  C  C29  1  0.73907000  0.08160400  0.94033000  1
  C  C30  1  0.76151900  0.56208200  0.41043600  1
  C  C31  1  0.99417700  0.38656600  0.18775400  1
  C  C32  1  0.49917100  0.69024200  0.88363400  1
  C  C33  1  0.94033000  0.73907000  0.08160400  1
  C  C34  1  0.69024200  0.88363400  0.49917100  1
  C  C35  1  0.88363400  0.49917100  0.69024200  1
