# generated using pymatgen
data_CuNiC5
_symmetry_space_group_name_H-M   'P 1'
_cell_length_a   6.54187500
_cell_length_b   9.92067800
_cell_length_c   13.63179800
_cell_angle_alpha   90.00000000
_cell_angle_beta   90.00000000
_cell_angle_gamma   90.00000000
_symmetry_Int_Tables_number   1
_chemical_formula_structural   CuNiC5
_chemical_formula_sum   'Cu16 Ni16 C80'
_cell_volume   884.70144629
_cell_formula_units_Z   16
loop_
 _symmetry_equiv_pos_site_id
 _symmetry_equiv_pos_as_xyz
  1  'x, y, z'
loop_
 _atom_site_type_symbol
 _atom_site_label
 _atom_site_symmetry_multiplicity
 _atom_site_fract_x
 _atom_site_fract_y
 _atom_site_fract_z
 _atom_site_occupancy
  C  C0  1  0.20266000  0.41481000  0.68610600  1
  C  C1  1  0.70266000  0.58519000  0.81389400  1
  C  C2  1  0.79734000  0.08519000  0.18610600  1
  C  C3  1  0.29734000  0.91481000  0.31389400  1
  C  C4  1  0.79734000  0.58519000  0.31389400  1
  C  C5  1  0.29734000  0.41481000  0.18610600  1
  C  C6  1  0.20266000  0.91481000  0.81389400  1
  C  C7  1  0.70266000  0.08519000  0.68610600  1
  C  C8  1  0.98122000  0.50952000  0.65931300  1
  C  C9  1  0.48122000  0.49048000  0.84068700  1
  C  C10  1  0.01878000  0.99048000  0.15931300  1
  C  C11  1  0.51878000  0.00952000  0.34068700  1
  C  C12  1  0.01878000  0.49048000  0.34068700  1
  C  C13  1  0.51878000  0.50952000  0.15931300  1
  C  C14  1  0.98122000  0.00952000  0.84068700  1
  C  C15  1  0.48122000  0.99048000  0.65931300  1
  C  C16  1  0.10211400  0.52678800  0.76870000  1
  C  C17  1  0.60211400  0.47321200  0.73130000  1
  C  C18  1  0.89788600  0.97321200  0.26870000  1
  C  C19  1  0.39788600  0.02678800  0.23130000  1
  C  C20  1  0.89788600  0.47321200  0.23130000  1
  C  C21  1  0.39788600  0.52678800  0.26870000  1
  C  C22  1  0.10211400  0.02678800  0.73130000  1
  C  C23  1  0.60211400  0.97321200  0.76870000  1
  C  C24  1  0.93403400  0.27995300  0.71031500  1
  C  C25  1  0.43403400  0.72004700  0.78968500  1
  C  C26  1  0.06596600  0.22004700  0.21031500  1
  C  C27  1  0.56596600  0.77995300  0.28968500  1
  C  C28  1  0.06596600  0.72004700  0.28968500  1
  C  C29  1  0.56596600  0.27995300  0.21031500  1
  C  C30  1  0.93403400  0.77995300  0.78968500  1
  C  C31  1  0.43403400  0.22004700  0.71031500  1
  C  C32  1  0.03596200  0.17934400  0.54253100  1
  C  C33  1  0.53596200  0.82065600  0.95746900  1
  C  C34  1  0.96403800  0.32065600  0.04253100  1
  C  C35  1  0.46403800  0.67934400  0.45746900  1
  C  C36  1  0.96403800  0.82065600  0.45746900  1
  C  C37  1  0.46403800  0.17934400  0.04253100  1
  C  C38  1  0.03596200  0.67934400  0.95746900  1
  C  C39  1  0.53596200  0.32065600  0.54253100  1
  C  C40  1  0.12384100  0.28370600  0.44856300  1
  C  C41  1  0.62384100  0.71629400  0.05143700  1
  C  C42  1  0.87615900  0.21629400  0.94856300  1
  C  C43  1  0.37615900  0.78370600  0.55143700  1
  C  C44  1  0.87615900  0.71629400  0.55143700  1
  C  C45  1  0.37615900  0.28370600  0.94856300  1
  C  C46  1  0.12384100  0.78370600  0.05143700  1
  C  C47  1  0.62384100  0.21629400  0.44856300  1
  C  C48  1  0.99275000  0.13993300  0.42239100  1
  C  C49  1  0.49275000  0.86006700  0.07760900  1
  C  C50  1  0.00725000  0.36006700  0.92239100  1
  C  C51  1  0.50725000  0.63993300  0.57760900  1
  C  C52  1  0.00725000  0.86006700  0.57760900  1
  C  C53  1  0.50725000  0.13993300  0.92239100  1
  C  C54  1  0.99275000  0.63993300  0.07760900  1
  C  C55  1  0.49275000  0.36006700  0.42239100  1
  C  C56  1  0.28123600  0.03962800  0.51602900  1
  C  C57  1  0.78123600  0.96037200  0.98397100  1
  C  C58  1  0.71876400  0.46037200  0.01602900  1
  C  C59  1  0.21876400  0.53962800  0.48397100  1
  C  C60  1  0.71876400  0.96037200  0.48397100  1
  C  C61  1  0.21876400  0.03962800  0.01602900  1
  C  C62  1  0.28123600  0.53962800  0.98397100  1
  C  C63  1  0.78123600  0.46037200  0.51602900  1
  Ni  Ni64  1  0.06695900  0.45874100  0.71344100  1
  Ni  Ni65  1  0.56695900  0.54125900  0.78655900  1
  Ni  Ni66  1  0.93304100  0.04125900  0.21344100  1
  Ni  Ni67  1  0.43304100  0.95874100  0.28655900  1
  Ni  Ni68  1  0.93304100  0.54125900  0.28655900  1
  Ni  Ni69  1  0.43304100  0.45874100  0.21344100  1
  Ni  Ni70  1  0.06695900  0.95874100  0.78655900  1
  Ni  Ni71  1  0.56695900  0.04125900  0.71344100  1
  Ni  Ni72  1  0.09666700  0.18352200  0.47063100  1
  Ni  Ni73  1  0.59666700  0.81647800  0.02936900  1
  Ni  Ni74  1  0.90333300  0.31647800  0.97063100  1
  Ni  Ni75  1  0.40333300  0.68352200  0.52936900  1
  Ni  Ni76  1  0.90333300  0.81647800  0.52936900  1
  Ni  Ni77  1  0.40333300  0.18352200  0.97063100  1
  Ni  Ni78  1  0.09666700  0.68352200  0.02936900  1
  Ni  Ni79  1  0.59666700  0.31647800  0.47063100  1
  Cu  Cu80  1  0.93894000  0.36107200  0.75835900  1
  Cu  Cu81  1  0.43894000  0.63892800  0.74164100  1
  Cu  Cu82  1  0.06106000  0.13892800  0.25835900  1
  Cu  Cu83  1  0.56106000  0.86107200  0.24164100  1
  Cu  Cu84  1  0.06106000  0.63892800  0.24164100  1
  Cu  Cu85  1  0.56106000  0.36107200  0.25835900  1
  Cu  Cu86  1  0.93894000  0.86107200  0.74164100  1
  Cu  Cu87  1  0.43894000  0.13892800  0.75835900  1
  Cu  Cu88  1  0.28794600  0.11651100  0.46493000  1
  Cu  Cu89  1  0.78794600  0.88348900  0.03507000  1
  Cu  Cu90  1  0.71205400  0.38348900  0.96493000  1
  Cu  Cu91  1  0.21205400  0.61651100  0.53507000  1
  Cu  Cu92  1  0.71205400  0.88348900  0.53507000  1
  Cu  Cu93  1  0.21205400  0.11651100  0.96493000  1
  Cu  Cu94  1  0.28794600  0.61651100  0.03507000  1
  Cu  Cu95  1  0.78794600  0.38348900  0.46493000  1
  C  C96  1  0.92179100  0.16080000  0.64974600  1
  C  C97  1  0.42179100  0.83920000  0.85025400  1
  C  C98  1  0.07820900  0.33920000  0.14974600  1
  C  C99  1  0.57820900  0.66080000  0.35025400  1
  C  C100  1  0.07820900  0.83920000  0.35025400  1
  C  C101  1  0.57820900  0.16080000  0.14974600  1
  C  C102  1  0.92179100  0.66080000  0.85025400  1
  C  C103  1  0.42179100  0.33920000  0.64974600  1
  C  C104  1  0.28292200  0.93391800  0.59014400  1
  C  C105  1  0.78292200  0.06608200  0.90985600  1
  C  C106  1  0.71707800  0.56608200  0.09014400  1
  C  C107  1  0.21707800  0.43391800  0.40985600  1
  C  C108  1  0.71707800  0.06608200  0.40985600  1
  C  C109  1  0.21707800  0.93391800  0.09014400  1
  C  C110  1  0.28292200  0.43391800  0.90985600  1
  C  C111  1  0.78292200  0.56608200  0.59014400  1
