# generated using pymatgen
data_Cu3Ni5C26
_symmetry_space_group_name_H-M   'P 1'
_cell_length_a   8.28060900
_cell_length_b   14.57787900
_cell_length_c   15.93083700
_cell_angle_alpha   90.00000000
_cell_angle_beta   90.00000000
_cell_angle_gamma   90.00000000
_symmetry_Int_Tables_number   1
_chemical_formula_structural   Cu3Ni5C26
_chemical_formula_sum   'Cu12 Ni20 C104'
_cell_volume   1923.07053403
_cell_formula_units_Z   4
loop_
 _symmetry_equiv_pos_site_id
 _symmetry_equiv_pos_as_xyz
  1  'x, y, z'
loop_
 _atom_site_type_symbol
 _atom_site_label
 _atom_site_symmetry_multiplicity
 _atom_site_fract_x
 _atom_site_fract_y
 _atom_site_fract_z
 _atom_site_occupancy
  C  C0  1  0.94369800  0.65319600  0.75000000  1
  C  C1  1  0.44369800  0.84680400  0.25000000  1
  C  C2  1  0.50466400  0.15175600  0.41699200  1
  C  C3  1  0.99533600  0.65175600  0.08300800  1
  C  C4  1  0.50466400  0.15175600  0.08300800  1
  C  C5  1  0.05630200  0.34680400  0.25000000  1
  C  C6  1  0.55630200  0.15319600  0.75000000  1
  C  C7  1  0.49533600  0.84824400  0.58300800  1
  C  C8  1  0.99533600  0.65175600  0.41699200  1
  C  C9  1  0.00466400  0.34824400  0.58300800  1
  C  C10  1  0.00466400  0.34824400  0.91699200  1
  C  C11  1  0.49533600  0.84824400  0.91699200  1
  Ni  Ni12  1  0.71418900  0.64517200  0.92798200  1
  Ni  Ni13  1  0.82039900  0.43768800  0.40541600  1
  Ni  Ni14  1  0.17960100  0.56231200  0.59458400  1
  Ni  Ni15  1  0.28581100  0.35482800  0.07201800  1
  Ni  Ni16  1  0.21418900  0.85482800  0.07201800  1
  Ni  Ni17  1  0.78581100  0.14517200  0.92798200  1
  Ni  Ni18  1  0.67960100  0.93768800  0.40541600  1
  Ni  Ni19  1  0.79869700  0.43299400  0.75000000  1
  Ni  Ni20  1  0.78581100  0.14517200  0.57201800  1
  Ni  Ni21  1  0.17960100  0.56231200  0.90541600  1
  Ni  Ni22  1  0.67960100  0.93768800  0.09458400  1
  Ni  Ni23  1  0.71418900  0.64517200  0.57201800  1
  Ni  Ni24  1  0.29869700  0.06700600  0.25000000  1
  Ni  Ni25  1  0.70130300  0.93299400  0.75000000  1
  Ni  Ni26  1  0.28581100  0.35482800  0.42798200  1
  Ni  Ni27  1  0.21418900  0.85482800  0.42798200  1
  Ni  Ni28  1  0.32039900  0.06231200  0.90541600  1
  Ni  Ni29  1  0.20130300  0.56700600  0.25000000  1
  Ni  Ni30  1  0.32039900  0.06231200  0.59458400  1
  Ni  Ni31  1  0.82039900  0.43768800  0.09458400  1
  Cu  Cu32  1  0.95680300  0.90342200  0.91514600  1
  Cu  Cu33  1  0.54528300  0.39024700  0.25000000  1
  Cu  Cu34  1  0.45471700  0.60975300  0.75000000  1
  Cu  Cu35  1  0.95680300  0.90342200  0.58485400  1
  Cu  Cu36  1  0.04319700  0.09657800  0.41514600  1
  Cu  Cu37  1  0.04528300  0.10975300  0.75000000  1
  Cu  Cu38  1  0.54319700  0.40342200  0.91514600  1
  Cu  Cu39  1  0.95471700  0.89024700  0.25000000  1
  Cu  Cu40  1  0.54319700  0.40342200  0.58485400  1
  Cu  Cu41  1  0.04319700  0.09657800  0.08485400  1
  Cu  Cu42  1  0.45680300  0.59657800  0.08485400  1
  Cu  Cu43  1  0.45680300  0.59657800  0.41514600  1
  C  C44  1  0.91777000  0.21852400  0.94423300  1
  C  C45  1  0.24971300  0.35676900  0.16744700  1
  C  C46  1  0.55708600  0.01703700  0.08423600  1
  C  C47  1  0.31881500  0.12894900  0.16956800  1
  C  C48  1  0.37014900  0.82746000  0.02531200  1
  C  C49  1  0.57269300  0.00771000  0.75000000  1
  C  C50  1  0.79999800  0.38817300  0.00867400  1
  C  C51  1  0.46479900  0.72892300  0.25000000  1
  C  C52  1  0.35729200  0.44628400  0.04145300  1
  C  C53  1  0.84230200  0.97330600  0.36894100  1
  C  C54  1  0.08223000  0.78147600  0.44423300  1
  C  C55  1  0.87014900  0.67254000  0.52531200  1
  C  C56  1  0.74971300  0.14323100  0.66744700  1
  C  C57  1  0.07269300  0.49229000  0.25000000  1
  C  C58  1  0.65769800  0.47330600  0.36894100  1
  C  C59  1  0.38475900  0.13279300  0.84025700  1
  C  C60  1  0.11524100  0.63279300  0.65974300  1
  C  C61  1  0.58223000  0.71852400  0.55576700  1
  C  C62  1  0.18118500  0.62894900  0.33043200  1
  C  C63  1  0.85729200  0.05371600  0.95854700  1
  C  C64  1  0.12985100  0.32746000  0.02531200  1
  C  C65  1  0.35729200  0.44628400  0.45854700  1
  C  C66  1  0.87014900  0.67254000  0.97468800  1
  C  C67  1  0.87871000  0.96734400  0.75000000  1
  C  C68  1  0.20000200  0.61182700  0.50867400  1
  C  C69  1  0.29999800  0.11182700  0.50867400  1
  C  C70  1  0.29999800  0.11182700  0.99132600  1
  C  C71  1  0.31881500  0.12894900  0.33043200  1
  C  C72  1  0.20000200  0.61182700  0.99132600  1
  C  C73  1  0.65769800  0.47330600  0.13105900  1
  C  C74  1  0.79999800  0.38817300  0.49132600  1
  C  C75  1  0.70000200  0.88817300  0.00867400  1
  C  C76  1  0.58223000  0.71852400  0.94423300  1
  C  C77  1  0.14270800  0.94628400  0.45854700  1
  C  C78  1  0.38475900  0.13279300  0.65974300  1
  C  C79  1  0.74971300  0.14323100  0.83255300  1
  C  C80  1  0.70000200  0.88817300  0.49132600  1
  C  C81  1  0.14270800  0.94628400  0.04145300  1
  C  C82  1  0.25028700  0.85676900  0.33255300  1
  C  C83  1  0.88475900  0.36720700  0.15974300  1
  C  C84  1  0.85729200  0.05371600  0.54145300  1
  C  C85  1  0.11524100  0.63279300  0.84025700  1
  C  C86  1  0.03520100  0.22892300  0.25000000  1
  C  C87  1  0.61524100  0.86720700  0.34025700  1
  C  C88  1  0.44291400  0.98296300  0.58423600  1
  C  C89  1  0.64270800  0.55371600  0.54145300  1
  C  C90  1  0.37871000  0.53265600  0.25000000  1
  C  C91  1  0.05708600  0.48296300  0.58423600  1
  C  C92  1  0.08223000  0.78147600  0.05576700  1
  C  C93  1  0.68118500  0.87105100  0.83043200  1
  C  C94  1  0.34230200  0.52669400  0.63105900  1
  C  C95  1  0.62985100  0.17254000  0.52531200  1
  C  C96  1  0.41777000  0.28147600  0.05576700  1
  C  C97  1  0.75028700  0.64323100  0.83255300  1
  C  C98  1  0.62129000  0.46734400  0.75000000  1
  C  C99  1  0.42730700  0.99229000  0.25000000  1
  C  C100  1  0.64769100  0.18866100  0.15298100  1
  C  C101  1  0.14769100  0.31133900  0.84701900  1
  C  C102  1  0.15769800  0.02669400  0.63105900  1
  C  C103  1  0.18118500  0.62894900  0.16956800  1
  C  C104  1  0.53520100  0.27107700  0.75000000  1
  C  C105  1  0.81881500  0.37105100  0.83043200  1
  C  C106  1  0.92730700  0.50771000  0.75000000  1
  C  C107  1  0.64769100  0.18866100  0.34701900  1
  C  C108  1  0.24971300  0.35676900  0.33255300  1
  C  C109  1  0.81881500  0.37105100  0.66956800  1
  C  C110  1  0.88475900  0.36720700  0.34025700  1
  C  C111  1  0.25028700  0.85676900  0.16744700  1
  C  C112  1  0.61524100  0.86720700  0.15974300  1
  C  C113  1  0.37014900  0.82746000  0.47468800  1
  C  C114  1  0.96479900  0.77107700  0.75000000  1
  C  C115  1  0.15769800  0.02669400  0.86894100  1
  C  C116  1  0.35230900  0.81133900  0.65298100  1
  C  C117  1  0.14769100  0.31133900  0.65298100  1
  C  C118  1  0.12129000  0.03265600  0.25000000  1
  C  C119  1  0.94291400  0.51703700  0.41576400  1
  C  C120  1  0.75028700  0.64323100  0.66744700  1
  C  C121  1  0.85230900  0.68866100  0.34701900  1
  C  C122  1  0.62985100  0.17254000  0.97468800  1
  C  C123  1  0.34230200  0.52669400  0.86894100  1
  C  C124  1  0.94291400  0.51703700  0.08423600  1
  C  C125  1  0.41777000  0.28147600  0.44423300  1
  C  C126  1  0.68118500  0.87105100  0.66956800  1
  C  C127  1  0.12985100  0.32746000  0.47468800  1
  C  C128  1  0.84230200  0.97330600  0.13105900  1
  C  C129  1  0.05708600  0.48296300  0.91576400  1
  C  C130  1  0.35230900  0.81133900  0.84701900  1
  C  C131  1  0.85230900  0.68866100  0.15298100  1
  C  C132  1  0.64270800  0.55371600  0.95854700  1
  C  C133  1  0.44291400  0.98296300  0.91576400  1
  C  C134  1  0.55708600  0.01703700  0.41576400  1
  C  C135  1  0.91777000  0.21852400  0.55576700  1
