# generated using pymatgen
data_Cu8Ni2C5
_symmetry_space_group_name_H-M   'P 1'
_cell_length_a   8.95742100
_cell_length_b   10.09019000
_cell_length_c   11.65522806
_cell_angle_alpha   54.75384532
_cell_angle_beta   90.00000000
_cell_angle_gamma   90.00000000
_symmetry_Int_Tables_number   1
_chemical_formula_structural   Cu8Ni2C5
_chemical_formula_sum   'Cu16 Ni4 C10'
_cell_volume   860.31041287
_cell_formula_units_Z   2
loop_
 _symmetry_equiv_pos_site_id
 _symmetry_equiv_pos_as_xyz
  1  'x, y, z'
loop_
 _atom_site_type_symbol
 _atom_site_label
 _atom_site_symmetry_multiplicity
 _atom_site_fract_x
 _atom_site_fract_y
 _atom_site_fract_z
 _atom_site_occupancy
  C  C0  1  0.00000000  0.00000000  0.00000000  1
  C  C1  1  0.50000000  0.00000000  0.50000000  1
  Ni  Ni2  1  0.61563300  0.21549100  0.81131900  1
  Ni  Ni3  1  0.11563300  0.78450900  0.68868100  1
  Ni  Ni4  1  0.38436700  0.78450900  0.18868100  1
  Ni  Ni5  1  0.88436700  0.21549100  0.31131900  1
  Cu  Cu6  1  0.83038400  0.35991800  0.94893600  1
  Cu  Cu7  1  0.33038400  0.64008200  0.55106400  1
  Cu  Cu8  1  0.16961600  0.64008200  0.05106400  1
  Cu  Cu9  1  0.66961600  0.35991800  0.44893600  1
  Cu  Cu10  1  0.94259700  0.30643000  0.99192800  1
  Cu  Cu11  1  0.44259700  0.69357000  0.50807200  1
  Cu  Cu12  1  0.05740300  0.69357000  0.00807200  1
  Cu  Cu13  1  0.55740300  0.30643000  0.49192800  1
  Cu  Cu14  1  0.19282500  0.19464300  0.71845800  1
  Cu  Cu15  1  0.69282500  0.80535700  0.78154200  1
  Cu  Cu16  1  0.80717500  0.80535700  0.28154200  1
  Cu  Cu17  1  0.30717500  0.19464300  0.21845800  1
  Cu  Cu18  1  0.13466300  0.29090100  0.62041700  1
  Cu  Cu19  1  0.63466300  0.70909900  0.87958300  1
  Cu  Cu20  1  0.86533700  0.70909900  0.37958300  1
  Cu  Cu21  1  0.36533700  0.29090100  0.12041700  1
  C  C22  1  0.70637000  0.12675400  0.81809900  1
  C  C23  1  0.20637000  0.87324600  0.68190100  1
  C  C24  1  0.29363000  0.87324600  0.18190100  1
  C  C25  1  0.79363000  0.12675400  0.31809900  1
  C  C26  1  0.52439300  0.30373800  0.80424600  1
  C  C27  1  0.02439300  0.69626200  0.69575400  1
  C  C28  1  0.47560700  0.69626200  0.19575400  1
  C  C29  1  0.97560700  0.30373800  0.30424600  1
