# generated using pymatgen
data_Cu2Ni4C3
_symmetry_space_group_name_H-M   'P 1'
_cell_length_a   6.78707227
_cell_length_b   6.78707227
_cell_length_c   5.66139281
_cell_angle_alpha   83.84598608
_cell_angle_beta   83.84598608
_cell_angle_gamma   42.29543519
_symmetry_Int_Tables_number   1
_chemical_formula_structural   Cu2Ni4C3
_chemical_formula_sum   'Cu2 Ni4 C3'
_cell_volume   174.33529915
_cell_formula_units_Z   1
loop_
 _symmetry_equiv_pos_site_id
 _symmetry_equiv_pos_as_xyz
  1  'x, y, z'
loop_
 _atom_site_type_symbol
 _atom_site_label
 _atom_site_symmetry_multiplicity
 _atom_site_fract_x
 _atom_site_fract_y
 _atom_site_fract_z
 _atom_site_occupancy
  C  C0  1  0.00000000  0.00000000  0.00000000  1
  Ni  Ni1  1  0.86165600  0.30377500  0.74110700  1
  Ni  Ni2  1  0.30377500  0.86165600  0.74110700  1
  Ni  Ni3  1  0.13834400  0.69622500  0.25889300  1
  Ni  Ni4  1  0.69622500  0.13834400  0.25889300  1
  Cu  Cu5  1  0.31148800  0.31148800  0.11945400  1
  Cu  Cu6  1  0.68851200  0.68851200  0.88054600  1
  C  C7  1  0.86330800  0.86330800  0.36908300  1
  C  C8  1  0.13669200  0.13669200  0.63091700  1
