# generated using pymatgen
data_Cu8NiC6
_symmetry_space_group_name_H-M   'P 1'
_cell_length_a   5.15700251
_cell_length_b   5.15700251
_cell_length_c   14.05720032
_cell_angle_alpha   89.58235347
_cell_angle_beta   89.58235347
_cell_angle_gamma   59.47323688
_symmetry_Int_Tables_number   1
_chemical_formula_structural   Cu8NiC6
_chemical_formula_sum   'Cu16 Ni2 C12'
_cell_volume   322.01718296
_cell_formula_units_Z   2
loop_
 _symmetry_equiv_pos_site_id
 _symmetry_equiv_pos_as_xyz
  1  'x, y, z'
loop_
 _atom_site_type_symbol
 _atom_site_label
 _atom_site_symmetry_multiplicity
 _atom_site_fract_x
 _atom_site_fract_y
 _atom_site_fract_z
 _atom_site_occupancy
  C  C0  1  0.00542700  0.99730600  0.84641600  1
  C  C1  1  0.99817500  0.02154500  0.64507000  1
  C  C2  1  0.99730600  0.00542700  0.34641600  1
  C  C3  1  0.02154500  0.99817500  0.14507000  1
  C  C4  1  0.68740100  0.65352100  0.68055500  1
  C  C5  1  0.65474300  0.66930900  0.98763400  1
  C  C6  1  0.65352100  0.68740100  0.18055500  1
  C  C7  1  0.66930900  0.65474300  0.48763400  1
  C  C8  1  0.33601700  0.32934700  0.81865700  1
  C  C9  1  0.34177200  0.30543700  0.02431100  1
  C  C10  1  0.32934700  0.33601700  0.31865700  1
  C  C11  1  0.30543700  0.34177200  0.52431100  1
  Ni  Ni12  1  0.37633600  0.95223200  0.08176900  1
  Ni  Ni13  1  0.95223200  0.37633600  0.58176900  1
  Cu  Cu14  1  0.30850900  0.68877500  0.25271300  1
  Cu  Cu15  1  0.34815900  0.67725100  0.58306800  1
  Cu  Cu16  1  0.68877500  0.30850900  0.75271300  1
  Cu  Cu17  1  0.67725100  0.34815900  0.08306800  1
  Cu  Cu18  1  0.99323900  0.32417500  0.25266100  1
  Cu  Cu19  1  0.02311700  0.33353400  0.91566200  1
  Cu  Cu20  1  0.65910500  0.98492900  0.58497900  1
  Cu  Cu21  1  0.32417500  0.99323900  0.75266100  1
  Cu  Cu22  1  0.33353400  0.02311700  0.41566200  1
  Cu  Cu23  1  0.98492900  0.65910500  0.08497900  1
  Cu  Cu24  1  0.00908000  0.68693900  0.75207800  1
  Cu  Cu25  1  0.02349900  0.64637500  0.41457600  1
  Cu  Cu26  1  0.33105400  0.62769200  0.91747200  1
  Cu  Cu27  1  0.64637500  0.02349900  0.91457600  1
  Cu  Cu28  1  0.68693900  0.00908000  0.25207800  1
  Cu  Cu29  1  0.62769200  0.33105400  0.41747200  1
