# generated using pymatgen
data_Cu7NiC4
_symmetry_space_group_name_H-M   'P 1'
_cell_length_a   4.85683355
_cell_length_b   4.85683355
_cell_length_c   12.71144000
_cell_angle_alpha   90.00000000
_cell_angle_beta   90.00000000
_cell_angle_gamma   90.53860868
_symmetry_Int_Tables_number   1
_chemical_formula_structural   Cu7NiC4
_chemical_formula_sum   'Cu14 Ni2 C8'
_cell_volume   299.83477530
_cell_formula_units_Z   2
loop_
 _symmetry_equiv_pos_site_id
 _symmetry_equiv_pos_as_xyz
  1  'x, y, z'
loop_
 _atom_site_type_symbol
 _atom_site_label
 _atom_site_symmetry_multiplicity
 _atom_site_fract_x
 _atom_site_fract_y
 _atom_site_fract_z
 _atom_site_occupancy
  C  C0  1  0.97986100  0.97986100  0.75000000  1
  C  C1  1  0.00000000  0.00000000  0.00000000  1
  C  C2  1  0.02013900  0.02013900  0.25000000  1
  C  C3  1  0.00000000  0.00000000  0.50000000  1
  C  C4  1  0.50858900  0.50858900  0.86522500  1
  C  C5  1  0.49141100  0.49141100  0.36522500  1
  C  C6  1  0.50858900  0.50858900  0.63477500  1
  C  C7  1  0.49141100  0.49141100  0.13477500  1
  Ni  Ni8  1  0.30565800  0.30565800  0.25000000  1
  Ni  Ni9  1  0.69434200  0.69434200  0.75000000  1
  Cu  Cu10  1  0.79240000  0.20555600  0.87775700  1
  Cu  Cu11  1  0.79444400  0.20760000  0.12224300  1
  Cu  Cu12  1  0.79444400  0.20760000  0.37775700  1
  Cu  Cu13  1  0.79240000  0.20555600  0.62224300  1
  Cu  Cu14  1  0.28469300  0.28469300  0.75000000  1
  Cu  Cu15  1  0.30716600  0.30716600  0.99825800  1
  Cu  Cu16  1  0.30716600  0.30716600  0.50174200  1
  Cu  Cu17  1  0.69283400  0.69283400  0.00174200  1
  Cu  Cu18  1  0.71530700  0.71530700  0.25000000  1
  Cu  Cu19  1  0.69283400  0.69283400  0.49825800  1
  Cu  Cu20  1  0.20555600  0.79240000  0.87775700  1
  Cu  Cu21  1  0.20760000  0.79444400  0.12224300  1
  Cu  Cu22  1  0.20760000  0.79444400  0.37775700  1
  Cu  Cu23  1  0.20555600  0.79240000  0.62224300  1
