# generated using pymatgen
data_Cu2Ni3C13
_symmetry_space_group_name_H-M   'P 1'
_cell_length_a   8.87610500
_cell_length_b   8.58974700
_cell_length_c   14.81124866
_cell_angle_alpha   54.85205478
_cell_angle_beta   90.00000000
_cell_angle_gamma   90.00000000
_symmetry_Int_Tables_number   1
_chemical_formula_structural   Cu2Ni3C13
_chemical_formula_sum   'Cu8 Ni12 C52'
_cell_volume   923.36119566
_cell_formula_units_Z   4
loop_
 _symmetry_equiv_pos_site_id
 _symmetry_equiv_pos_as_xyz
  1  'x, y, z'
loop_
 _atom_site_type_symbol
 _atom_site_label
 _atom_site_symmetry_multiplicity
 _atom_site_fract_x
 _atom_site_fract_y
 _atom_site_fract_z
 _atom_site_occupancy
  C  C0  1  0.21657400  0.99567100  0.18511000  1
  C  C1  1  0.71657400  0.00432900  0.31489000  1
  C  C2  1  0.28342600  0.99567100  0.68511000  1
  C  C3  1  0.78342600  0.00432900  0.81489000  1
  Ni  Ni4  1  0.74942500  0.53772000  0.49155200  1
  Ni  Ni5  1  0.61545500  0.25925200  0.85562900  1
  Ni  Ni6  1  0.88469000  0.97165100  0.13869100  1
  Ni  Ni7  1  0.11545500  0.74074800  0.64437100  1
  Ni  Ni8  1  0.38469000  0.02834900  0.36130900  1
  Ni  Ni9  1  0.24942500  0.46228000  0.00844800  1
  Ni  Ni10  1  0.75057500  0.53772000  0.99155200  1
  Ni  Ni11  1  0.61531000  0.97165100  0.63869100  1
  Ni  Ni12  1  0.88454500  0.25925200  0.35562900  1
  Ni  Ni13  1  0.11531000  0.02834900  0.86130900  1
  Ni  Ni14  1  0.38454500  0.74074800  0.14437100  1
  Ni  Ni15  1  0.25057500  0.46228000  0.50844800  1
  Cu  Cu16  1  0.97475100  0.36600200  0.88630300  1
  Cu  Cu17  1  0.47475100  0.63399800  0.61369700  1
  Cu  Cu18  1  0.02780900  0.87220000  0.37948900  1
  Cu  Cu19  1  0.52780900  0.12780000  0.12051100  1
  Cu  Cu20  1  0.47219100  0.87220000  0.87948900  1
  Cu  Cu21  1  0.97219100  0.12780000  0.62051100  1
  Cu  Cu22  1  0.52524900  0.36600200  0.38630300  1
  Cu  Cu23  1  0.02524900  0.63399800  0.11369700  1
  C  C24  1  0.11054000  0.17941300  0.90218100  1
  C  C25  1  0.34055600  0.46597200  0.61208400  1
  C  C26  1  0.11852700  0.64096000  0.43864600  1
  C  C27  1  0.42197700  0.89895000  0.18175400  1
  C  C28  1  0.62934800  0.51577500  0.59070500  1
  C  C29  1  0.81431800  0.27183400  0.85044100  1
  C  C30  1  0.56225500  0.15377500  0.99031300  1
  C  C31  1  0.01150600  0.89190100  0.24660500  1
  C  C32  1  0.70652300  0.99186700  0.18163300  1
  C  C33  1  0.83391000  0.76355600  0.42264000  1
  C  C34  1  0.52435400  0.47239700  0.76669900  1
  C  C35  1  0.02435400  0.52760300  0.73330100  1
  C  C36  1  0.44311600  0.79825700  0.46344100  1
  C  C37  1  0.94311600  0.20174300  0.03655900  1
  C  C38  1  0.33391000  0.23644400  0.07736000  1
  C  C39  1  0.20652300  0.00813300  0.31836700  1
  C  C40  1  0.06225500  0.84622500  0.50968700  1
  C  C41  1  0.31431800  0.72816600  0.64955900  1
  C  C42  1  0.12934800  0.48422500  0.90929500  1
  C  C43  1  0.51150600  0.10809900  0.25339500  1
  C  C44  1  0.84055600  0.53402800  0.88791600  1
  C  C45  1  0.61054000  0.82058700  0.59781900  1
  C  C46  1  0.92197700  0.10105000  0.31824600  1
  C  C47  1  0.61852700  0.35904000  0.06135400  1
  C  C48  1  0.38147300  0.64096000  0.93864600  1
  C  C49  1  0.07802300  0.89895000  0.68175400  1
  C  C50  1  0.38946000  0.17941300  0.40218100  1
  C  C51  1  0.15944400  0.46597200  0.11208400  1
  C  C52  1  0.48849400  0.89190100  0.74660500  1
  C  C53  1  0.87065200  0.51577500  0.09070500  1
  C  C54  1  0.68568200  0.27183400  0.35044100  1
  C  C55  1  0.93774500  0.15377500  0.49031300  1
  C  C56  1  0.79347700  0.99186700  0.68163300  1
  C  C57  1  0.66609000  0.76355600  0.92264000  1
  C  C58  1  0.05688400  0.79825700  0.96344100  1
  C  C59  1  0.55688400  0.20174300  0.53655900  1
  C  C60  1  0.97564600  0.47239700  0.26669900  1
  C  C61  1  0.47564600  0.52760300  0.23330100  1
  C  C62  1  0.16609000  0.23644400  0.57736000  1
  C  C63  1  0.29347700  0.00813300  0.81836700  1
  C  C64  1  0.98849400  0.10809900  0.75339500  1
  C  C65  1  0.43774500  0.84622500  0.00968700  1
  C  C66  1  0.18568200  0.72816600  0.14955900  1
  C  C67  1  0.37065200  0.48422500  0.40929500  1
  C  C68  1  0.57802300  0.10105000  0.81824600  1
  C  C69  1  0.88147300  0.35904000  0.56135400  1
  C  C70  1  0.65944400  0.53402800  0.38791600  1
  C  C71  1  0.88946000  0.82058700  0.09781900  1
