# generated using pymatgen
data_Cu3NiC2
_symmetry_space_group_name_H-M   'P 1'
_cell_length_a   4.69482187
_cell_length_b   4.69482187
_cell_length_c   9.52522800
_cell_angle_alpha   90.00000000
_cell_angle_beta   90.00000000
_cell_angle_gamma   92.74565280
_symmetry_Int_Tables_number   1
_chemical_formula_structural   Cu3NiC2
_chemical_formula_sum   'Cu9 Ni3 C6'
_cell_volume   209.70789083
_cell_formula_units_Z   3
loop_
 _symmetry_equiv_pos_site_id
 _symmetry_equiv_pos_as_xyz
  1  'x, y, z'
loop_
 _atom_site_type_symbol
 _atom_site_label
 _atom_site_symmetry_multiplicity
 _atom_site_fract_x
 _atom_site_fract_y
 _atom_site_fract_z
 _atom_site_occupancy
  C  C0  1  0.96433200  0.96433200  0.00000000  1
  C  C1  1  0.02696300  0.02696300  0.33139500  1
  C  C2  1  0.02696300  0.02696300  0.66860500  1
  C  C3  1  0.49763300  0.49763300  0.16521200  1
  C  C4  1  0.49763300  0.49763300  0.83478800  1
  C  C5  1  0.48598100  0.48598100  0.50000000  1
  Ni  Ni6  1  0.30389700  0.30389700  0.33131200  1
  Ni  Ni7  1  0.30389700  0.30389700  0.66868800  1
  Ni  Ni8  1  0.68893500  0.68893500  0.00000000  1
  Cu  Cu9  1  0.80219700  0.18956100  0.16599500  1
  Cu  Cu10  1  0.80219700  0.18956100  0.83400500  1
  Cu  Cu11  1  0.81081700  0.20195900  0.50000000  1
  Cu  Cu12  1  0.27603500  0.27603500  0.00000000  1
  Cu  Cu13  1  0.71571800  0.71571800  0.66443100  1
  Cu  Cu14  1  0.71571800  0.71571800  0.33556900  1
  Cu  Cu15  1  0.18956100  0.80219700  0.16599500  1
  Cu  Cu16  1  0.18956100  0.80219700  0.83400500  1
  Cu  Cu17  1  0.20195900  0.81081700  0.50000000  1
