# generated using pymatgen
data_CuNi6C19
_symmetry_space_group_name_H-M   'P 1'
_cell_length_a   12.27398100
_cell_length_b   12.27398100
_cell_length_c   7.68284200
_cell_angle_alpha   90.00000000
_cell_angle_beta   90.00000000
_cell_angle_gamma   90.00000000
_symmetry_Int_Tables_number   1
_chemical_formula_structural   CuNi6C19
_chemical_formula_sum   'Cu4 Ni24 C76'
_cell_volume   1157.42483067
_cell_formula_units_Z   4
loop_
 _symmetry_equiv_pos_site_id
 _symmetry_equiv_pos_as_xyz
  1  'x, y, z'
loop_
 _atom_site_type_symbol
 _atom_site_label
 _atom_site_symmetry_multiplicity
 _atom_site_fract_x
 _atom_site_fract_y
 _atom_site_fract_z
 _atom_site_occupancy
  C  C0  1  0.00000000  0.50000000  0.88821700  1
  C  C1  1  0.00000000  0.50000000  0.38821700  1
  C  C2  1  0.50000000  0.00000000  0.11178300  1
  C  C3  1  0.50000000  0.00000000  0.61178300  1
  Ni  Ni4  1  0.82132200  0.30385700  0.18507100  1
  Ni  Ni5  1  0.17867800  0.30385700  0.68507100  1
  Ni  Ni6  1  0.19614300  0.32132200  0.18507100  1
  Ni  Ni7  1  0.80385700  0.32132200  0.68507100  1
  Ni  Ni8  1  0.38401600  0.38401600  0.25000000  1
  Ni  Ni9  1  0.61598400  0.38401600  0.75000000  1
  Ni  Ni10  1  0.38401600  0.61598400  0.75000000  1
  Ni  Ni11  1  0.61598400  0.61598400  0.25000000  1
  Ni  Ni12  1  0.80385700  0.67867800  0.18507100  1
  Ni  Ni13  1  0.19614300  0.67867800  0.68507100  1
  Ni  Ni14  1  0.82132200  0.69614300  0.68507100  1
  Ni  Ni15  1  0.17867800  0.69614300  0.18507100  1
  Ni  Ni16  1  0.32132200  0.80385700  0.81492900  1
  Ni  Ni17  1  0.67867800  0.80385700  0.31492900  1
  Ni  Ni18  1  0.30385700  0.82132200  0.31492900  1
  Ni  Ni19  1  0.69614300  0.82132200  0.81492900  1
  Ni  Ni20  1  0.88401600  0.88401600  0.75000000  1
  Ni  Ni21  1  0.11598400  0.88401600  0.25000000  1
  Ni  Ni22  1  0.88401600  0.11598400  0.25000000  1
  Ni  Ni23  1  0.11598400  0.11598400  0.75000000  1
  Ni  Ni24  1  0.69614300  0.17867800  0.31492900  1
  Ni  Ni25  1  0.30385700  0.17867800  0.81492900  1
  Ni  Ni26  1  0.67867800  0.19614300  0.81492900  1
  Ni  Ni27  1  0.32132200  0.19614300  0.31492900  1
  Cu  Cu28  1  0.50000000  0.50000000  0.00000000  1
  Cu  Cu29  1  0.50000000  0.50000000  0.50000000  1
  Cu  Cu30  1  0.00000000  0.00000000  0.00000000  1
  Cu  Cu31  1  0.00000000  0.00000000  0.50000000  1
  C  C32  1  0.04048200  0.28420300  0.13455000  1
  C  C33  1  0.95951800  0.28420300  0.63455000  1
  C  C34  1  0.78420300  0.45951800  0.13455000  1
  C  C35  1  0.21579700  0.45951800  0.63455000  1
  C  C36  1  0.21579700  0.54048200  0.13455000  1
  C  C37  1  0.78420300  0.54048200  0.63455000  1
  C  C38  1  0.95951800  0.71579700  0.13455000  1
  C  C39  1  0.04048200  0.71579700  0.63455000  1
  C  C40  1  0.45951800  0.78420300  0.36545000  1
  C  C41  1  0.54048200  0.78420300  0.86545000  1
  C  C42  1  0.71579700  0.95951800  0.36545000  1
  C  C43  1  0.28420300  0.95951800  0.86545000  1
  C  C44  1  0.28420300  0.04048200  0.36545000  1
  C  C45  1  0.71579700  0.04048200  0.86545000  1
  C  C46  1  0.45951800  0.21579700  0.86545000  1
  C  C47  1  0.54048200  0.21579700  0.36545000  1
  C  C48  1  0.40142300  0.27347800  0.31723400  1
  C  C49  1  0.59857700  0.27347800  0.81723400  1
  C  C50  1  0.28180000  0.28180000  0.75000000  1
  C  C51  1  0.71820000  0.28180000  0.25000000  1
  C  C52  1  0.09338800  0.34458600  0.12333200  1
  C  C53  1  0.90661200  0.34458600  0.62333200  1
  C  C54  1  0.46696300  0.40033700  0.11060600  1
  C  C55  1  0.53303700  0.40033700  0.61060600  1
  C  C56  1  0.27347800  0.40142300  0.18276600  1
  C  C57  1  0.72652200  0.40142300  0.68276600  1
  C  C58  1  0.84458600  0.40661200  0.12333200  1
  C  C59  1  0.15541400  0.40661200  0.62333200  1
  C  C60  1  0.40033700  0.46696300  0.38939400  1
  C  C61  1  0.59966300  0.46696300  0.88939400  1
  C  C62  1  0.59966300  0.53303700  0.38939400  1
  C  C63  1  0.40033700  0.53303700  0.88939400  1
  C  C64  1  0.84458600  0.59338800  0.62333200  1
  C  C65  1  0.15541400  0.59338800  0.12333200  1
  C  C66  1  0.27347800  0.59857700  0.68276600  1
  C  C67  1  0.72652200  0.59857700  0.18276600  1
  C  C68  1  0.46696300  0.59966300  0.61060600  1
  C  C69  1  0.53303700  0.59966300  0.11060600  1
  C  C70  1  0.90661200  0.65541400  0.12333200  1
  C  C71  1  0.09338800  0.65541400  0.62333200  1
  C  C72  1  0.71820000  0.71820000  0.75000000  1
  C  C73  1  0.28180000  0.71820000  0.25000000  1
  C  C74  1  0.40142300  0.72652200  0.81723400  1
  C  C75  1  0.59857700  0.72652200  0.31723400  1
  C  C76  1  0.90142300  0.77347800  0.68276600  1
  C  C77  1  0.09857700  0.77347800  0.18276600  1
  C  C78  1  0.78180000  0.78180000  0.25000000  1
  C  C79  1  0.21820000  0.78180000  0.75000000  1
  C  C80  1  0.40661200  0.84458600  0.37666800  1
  C  C81  1  0.59338800  0.84458600  0.87666800  1
  C  C82  1  0.96696300  0.90033700  0.88939400  1
  C  C83  1  0.03303700  0.90033700  0.38939400  1
  C  C84  1  0.77347800  0.90142300  0.81723400  1
  C  C85  1  0.22652200  0.90142300  0.31723400  1
  C  C86  1  0.34458600  0.90661200  0.87666800  1
  C  C87  1  0.65541400  0.90661200  0.37666800  1
  C  C88  1  0.90033700  0.96696300  0.61060600  1
  C  C89  1  0.09966300  0.96696300  0.11060600  1
  C  C90  1  0.90033700  0.03303700  0.11060600  1
  C  C91  1  0.09966300  0.03303700  0.61060600  1
  C  C92  1  0.34458600  0.09338800  0.37666800  1
  C  C93  1  0.65541400  0.09338800  0.87666800  1
  C  C94  1  0.77347800  0.09857700  0.31723400  1
  C  C95  1  0.22652200  0.09857700  0.81723400  1
  C  C96  1  0.96696300  0.09966300  0.38939400  1
  C  C97  1  0.03303700  0.09966300  0.88939400  1
  C  C98  1  0.40661200  0.15541400  0.87666800  1
  C  C99  1  0.59338800  0.15541400  0.37666800  1
  C  C100  1  0.78180000  0.21820000  0.75000000  1
  C  C101  1  0.21820000  0.21820000  0.25000000  1
  C  C102  1  0.90142300  0.22652200  0.18276600  1
  C  C103  1  0.09857700  0.22652200  0.68276600  1
