# generated using pymatgen
data_Cu2(NiC4)3
_symmetry_space_group_name_H-M   'P 1'
_cell_length_a   9.14687101
_cell_length_b   9.14687101
_cell_length_c   15.04505324
_cell_angle_alpha   79.41514733
_cell_angle_beta   79.41514733
_cell_angle_gamma   110.45182445
_symmetry_Int_Tables_number   1
_chemical_formula_structural   Cu2(NiC4)3
_chemical_formula_sum   'Cu4 Ni6 C24'
_cell_volume   1116.56006141
_cell_formula_units_Z   2
loop_
 _symmetry_equiv_pos_site_id
 _symmetry_equiv_pos_as_xyz
  1  'x, y, z'
loop_
 _atom_site_type_symbol
 _atom_site_label
 _atom_site_symmetry_multiplicity
 _atom_site_fract_x
 _atom_site_fract_y
 _atom_site_fract_z
 _atom_site_occupancy
  Ni  Ni0  1  0.55162200  0.78579900  0.92764400  1
  Ni  Ni1  1  0.13039200  0.86960800  0.75000000  1
  Ni  Ni2  1  0.78579900  0.55162200  0.42764400  1
  Ni  Ni3  1  0.21420100  0.44837800  0.57235600  1
  Ni  Ni4  1  0.86960800  0.13039200  0.25000000  1
  Ni  Ni5  1  0.44837800  0.21420100  0.07235600  1
  Cu  Cu6  1  0.66544700  0.93772600  0.59337900  1
  Cu  Cu7  1  0.93772600  0.66544700  0.09337900  1
  Cu  Cu8  1  0.06227400  0.33455300  0.90662100  1
  Cu  Cu9  1  0.33455300  0.06227400  0.40662100  1
  C  C10  1  0.16186400  0.63747500  0.92753000  1
  C  C11  1  0.49752700  0.98768000  0.74599900  1
  C  C12  1  0.77907500  0.82277900  0.72790200  1
  C  C13  1  0.63747500  0.16186400  0.42753000  1
  C  C14  1  0.98768000  0.49752700  0.24599900  1
  C  C15  1  0.14765900  0.07844500  0.55853600  1
  C  C16  1  0.39927100  0.43756000  0.90135300  1
  C  C17  1  0.74026200  0.14249000  0.93252600  1
  C  C18  1  0.82277900  0.77907500  0.22790200  1
  C  C19  1  0.85751000  0.25973800  0.56747400  1
  C  C20  1  0.56244000  0.60072900  0.59864700  1
  C  C21  1  0.92155500  0.85234100  0.94146400  1
  C  C22  1  0.07844500  0.14765900  0.05853600  1
  C  C23  1  0.43756000  0.39927100  0.40135300  1
  C  C24  1  0.14249000  0.74026200  0.43252600  1
  C  C25  1  0.17722100  0.22092500  0.77209800  1
  C  C26  1  0.25973800  0.85751000  0.06747400  1
  C  C27  1  0.60072900  0.56244000  0.09864700  1
  C  C28  1  0.85234100  0.92155500  0.44146400  1
  C  C29  1  0.01232000  0.50247300  0.75400100  1
  C  C30  1  0.36252500  0.83813600  0.57247000  1
  C  C31  1  0.22092500  0.17722100  0.27209800  1
  C  C32  1  0.50247300  0.01232000  0.25400100  1
  C  C33  1  0.83813600  0.36252500  0.07247000  1
