# generated using pymatgen
data_Cu3(NiC2)5
_symmetry_space_group_name_H-M   'P 1'
_cell_length_a   11.31903700
_cell_length_b   11.18186400
_cell_length_c   16.20144927
_cell_angle_alpha   56.56038720
_cell_angle_beta   90.00000000
_cell_angle_gamma   90.00000000
_symmetry_Int_Tables_number   1
_chemical_formula_structural   Cu3(NiC2)5
_chemical_formula_sum   'Cu24 Ni40 C80'
_cell_volume   1711.14478050
_cell_formula_units_Z   8
loop_
 _symmetry_equiv_pos_site_id
 _symmetry_equiv_pos_as_xyz
  1  'x, y, z'
loop_
 _atom_site_type_symbol
 _atom_site_label
 _atom_site_symmetry_multiplicity
 _atom_site_fract_x
 _atom_site_fract_y
 _atom_site_fract_z
 _atom_site_occupancy
  C  C0  1  0.27981500  0.73376800  0.93085800  1
  C  C1  1  0.22018500  0.73376800  0.43085800  1
  C  C2  1  0.72018500  0.26623200  0.06914200  1
  C  C3  1  0.77981500  0.26623200  0.56914200  1
  C  C4  1  0.59412800  0.89593000  0.64824400  1
  C  C5  1  0.90587200  0.89593000  0.14824400  1
  C  C6  1  0.40587200  0.10407000  0.35175600  1
  C  C7  1  0.09412800  0.10407000  0.85175600  1
  C  C8  1  0.09285500  0.72804500  0.67700700  1
  C  C9  1  0.40714500  0.72804500  0.17700700  1
  C  C10  1  0.90714500  0.27195500  0.32299300  1
  C  C11  1  0.59285500  0.27195500  0.82299300  1
  Ni  Ni12  1  0.56912100  0.98828800  0.79791900  1
  Ni  Ni13  1  0.93087900  0.98828800  0.29791900  1
  Ni  Ni14  1  0.43087900  0.01171200  0.20208100  1
  Ni  Ni15  1  0.06912100  0.01171200  0.70208100  1
  Ni  Ni16  1  0.66919400  0.86921900  0.83772000  1
  Ni  Ni17  1  0.83080600  0.86921900  0.33772000  1
  Ni  Ni18  1  0.33080600  0.13078100  0.16228000  1
  Ni  Ni19  1  0.16919400  0.13078100  0.66228000  1
  Ni  Ni20  1  0.47253300  0.16647400  0.59942900  1
  Ni  Ni21  1  0.02746700  0.16647400  0.09942900  1
  Ni  Ni22  1  0.52746700  0.83352600  0.40057100  1
  Ni  Ni23  1  0.97253300  0.83352600  0.90057100  1
  Ni  Ni24  1  0.53534800  0.21131100  0.50244000  1
  Ni  Ni25  1  0.96465200  0.21131100  0.00244000  1
  Ni  Ni26  1  0.46465200  0.78868900  0.49756000  1
  Ni  Ni27  1  0.03534800  0.78868900  0.99756000  1
  Ni  Ni28  1  0.78509800  0.77297100  0.98258000  1
  Ni  Ni29  1  0.71490200  0.77297100  0.48258000  1
  Ni  Ni30  1  0.21490200  0.22702900  0.01742000  1
  Ni  Ni31  1  0.28509800  0.22702900  0.51742000  1
  Ni  Ni32  1  0.79365600  0.68576500  0.93161600  1
  Ni  Ni33  1  0.70634400  0.68576500  0.43161600  1
  Ni  Ni34  1  0.20634400  0.31423500  0.06838400  1
  Ni  Ni35  1  0.29365600  0.31423500  0.56838400  1
  Ni  Ni36  1  0.09591700  0.48133100  0.10455100  1
  Ni  Ni37  1  0.40408300  0.48133100  0.60455100  1
  Ni  Ni38  1  0.90408300  0.51866900  0.89544900  1
  Ni  Ni39  1  0.59591700  0.51866900  0.39544900  1
  Ni  Ni40  1  0.06095500  0.42441800  0.04139400  1
  Ni  Ni41  1  0.43904500  0.42441800  0.54139400  1
  Ni  Ni42  1  0.93904500  0.57558200  0.95860600  1
  Ni  Ni43  1  0.56095500  0.57558200  0.45860600  1
  Ni  Ni44  1  0.53407600  0.67144400  0.01998200  1
  Ni  Ni45  1  0.96592400  0.67144400  0.51998200  1
  Ni  Ni46  1  0.46592400  0.32855600  0.98001800  1
  Ni  Ni47  1  0.03407600  0.32855600  0.48001800  1
  Ni  Ni48  1  0.56197200  0.56140200  0.99154300  1
  Ni  Ni49  1  0.93802800  0.56140200  0.49154300  1
  Ni  Ni50  1  0.43802800  0.43859800  0.00845700  1
  Ni  Ni51  1  0.06197200  0.43859800  0.50845700  1
  Cu  Cu52  1  0.86198800  0.80086500  0.60630400  1
  Cu  Cu53  1  0.63801200  0.80086500  0.10630400  1
  Cu  Cu54  1  0.13801200  0.19913500  0.39369600  1
  Cu  Cu55  1  0.36198800  0.19913500  0.89369600  1
  Cu  Cu56  1  0.88729900  0.88216200  0.65716300  1
  Cu  Cu57  1  0.61270100  0.88216200  0.15716300  1
  Cu  Cu58  1  0.11270100  0.11783800  0.34283700  1
  Cu  Cu59  1  0.38729900  0.11783800  0.84283700  1
  Cu  Cu60  1  0.31478100  0.80238800  0.70898100  1
  Cu  Cu61  1  0.18521900  0.80238800  0.20898100  1
  Cu  Cu62  1  0.68521900  0.19761200  0.29101900  1
  Cu  Cu63  1  0.81478100  0.19761200  0.79101900  1
  Cu  Cu64  1  0.29861500  0.88746000  0.59548100  1
  Cu  Cu65  1  0.20138500  0.88746000  0.09548100  1
  Cu  Cu66  1  0.70138500  0.11254000  0.40451900  1
  Cu  Cu67  1  0.79861500  0.11254000  0.90451900  1
  Cu  Cu68  1  0.13296000  0.45211500  0.71987100  1
  Cu  Cu69  1  0.36704000  0.45211500  0.21987100  1
  Cu  Cu70  1  0.86704000  0.54788500  0.28012900  1
  Cu  Cu71  1  0.63296000  0.54788500  0.78012900  1
  Cu  Cu72  1  0.04789700  0.43323500  0.80170200  1
  Cu  Cu73  1  0.45210300  0.43323500  0.30170200  1
  Cu  Cu74  1  0.95210300  0.56676500  0.19829800  1
  Cu  Cu75  1  0.54789700  0.56676500  0.69829800  1
  C  C76  1  0.95466800  0.74539600  0.59289100  1
  C  C77  1  0.54533200  0.74539600  0.09289100  1
  C  C78  1  0.04533200  0.25460400  0.40710900  1
  C  C79  1  0.45466800  0.25460400  0.90710900  1
  C  C80  1  0.75995300  0.79562700  0.58060400  1
  C  C81  1  0.74004700  0.79562700  0.08060400  1
  C  C82  1  0.24004700  0.20437300  0.41939600  1
  C  C83  1  0.25995300  0.20437300  0.91939600  1
  C  C84  1  0.99430300  0.86679000  0.69061600  1
  C  C85  1  0.50569700  0.86679000  0.19061600  1
  C  C86  1  0.00569700  0.13321000  0.30938400  1
  C  C87  1  0.49430300  0.13321000  0.80938400  1
  C  C88  1  0.80896600  0.95677100  0.66050900  1
  C  C89  1  0.69103400  0.95677100  0.16050900  1
  C  C90  1  0.19103400  0.04322900  0.33949100  1
  C  C91  1  0.30896600  0.04322900  0.83949100  1
  C  C92  1  0.22408600  0.72607200  0.75959900  1
  C  C93  1  0.27591400  0.72607200  0.25959900  1
  C  C94  1  0.77591400  0.27392800  0.24040100  1
  C  C95  1  0.72408600  0.27392800  0.74040100  1
  C  C96  1  0.40813900  0.81013600  0.74569500  1
  C  C97  1  0.09186100  0.81013600  0.24569500  1
  C  C98  1  0.59186100  0.18986400  0.25430500  1
  C  C99  1  0.90813900  0.18986400  0.75430500  1
  C  C100  1  0.19502200  0.87637700  0.56685800  1
  C  C101  1  0.30497800  0.87637700  0.06685800  1
  C  C102  1  0.80497800  0.12362300  0.43314200  1
  C  C103  1  0.69502200  0.12362300  0.93314200  1
  C  C104  1  0.38312200  0.95803300  0.54072700  1
  C  C105  1  0.11687800  0.95803300  0.04072700  1
  C  C106  1  0.61687800  0.04196700  0.45927300  1
  C  C107  1  0.88312200  0.04196700  0.95927300  1
  C  C108  1  0.16804800  0.58258800  0.65827600  1
  C  C109  1  0.33195200  0.58258800  0.15827600  1
  C  C110  1  0.83195200  0.41741200  0.34172400  1
  C  C111  1  0.66804800  0.41741200  0.84172400  1
  C  C112  1  0.16142900  0.34665700  0.71794300  1
  C  C113  1  0.33857100  0.34665700  0.21794300  1
  C  C114  1  0.83857100  0.65334300  0.28205700  1
  C  C115  1  0.66142900  0.65334300  0.78205700  1
  C  C116  1  0.01675500  0.55063300  0.79364100  1
  C  C117  1  0.48324500  0.55063300  0.29364100  1
  C  C118  1  0.98324500  0.44936700  0.20635900  1
  C  C119  1  0.51675500  0.44936700  0.70635900  1
  C  C120  1  0.01511700  0.31050400  0.86819800  1
  C  C121  1  0.48488300  0.31050400  0.36819800  1
  C  C122  1  0.98488300  0.68949600  0.13180200  1
  C  C123  1  0.51511700  0.68949600  0.63180200  1
  C  C124  1  0.61544800  0.92958100  0.78193800  1
  C  C125  1  0.88455200  0.92958100  0.28193800  1
  C  C126  1  0.38455200  0.07041900  0.21806200  1
  C  C127  1  0.11544800  0.07041900  0.71806200  1
  C  C128  1  0.54994100  0.15898000  0.57433200  1
  C  C129  1  0.95005900  0.15898000  0.07433200  1
  C  C130  1  0.45005900  0.84102000  0.42566800  1
  C  C131  1  0.04994100  0.84102000  0.92566800  1
  C  C132  1  0.80586600  0.78083700  0.92032900  1
  C  C133  1  0.69413400  0.78083700  0.42032900  1
  C  C134  1  0.19413400  0.21916300  0.07967100  1
  C  C135  1  0.30586600  0.21916300  0.57967100  1
  C  C136  1  0.12190900  0.48224800  0.04610200  1
  C  C137  1  0.37809100  0.48224800  0.54610200  1
  C  C138  1  0.87809100  0.51775200  0.95389800  1
  C  C139  1  0.62190900  0.51775200  0.45389800  1
  C  C140  1  0.50893900  0.63919900  0.97703600  1
  C  C141  1  0.99106100  0.63919900  0.47703600  1
  C  C142  1  0.49106100  0.36080100  0.02296400  1
  C  C143  1  0.00893900  0.36080100  0.52296400  1
