# generated using pymatgen
data_Cu3NiC36
_symmetry_space_group_name_H-M   'P 1'
_cell_length_a   8.70881500
_cell_length_b   8.74863803
_cell_length_c   8.76159972
_cell_angle_alpha   60.80267655
_cell_angle_beta   60.60740216
_cell_angle_gamma   61.15822589
_symmetry_Int_Tables_number   1
_chemical_formula_structural   Cu3NiC36
_chemical_formula_sum   'Cu3 Ni1 C36'
_cell_volume   481.11707710
_cell_formula_units_Z   1
loop_
 _symmetry_equiv_pos_site_id
 _symmetry_equiv_pos_as_xyz
  1  'x, y, z'
loop_
 _atom_site_type_symbol
 _atom_site_label
 _atom_site_symmetry_multiplicity
 _atom_site_fract_x
 _atom_site_fract_y
 _atom_site_fract_z
 _atom_site_occupancy
  C  C0  1  0.03441900  0.02098400  0.01162500  1
  C  C1  1  0.73708300  0.16120700  0.35604900  1
  C  C2  1  0.47223900  0.50048400  0.49088000  1
  C  C3  1  0.30984700  0.83615900  0.64364600  1
  C  C4  1  0.64568200  0.31428700  0.83148000  1
  C  C5  1  0.83458700  0.64395900  0.31271400  1
  Ni  Ni6  1  0.85282000  0.85094300  0.85267000  1
  Cu  Cu7  1  0.14812600  0.15207000  0.14087500  1
  Cu  Cu8  1  0.35552900  0.36166200  0.35260900  1
  Cu  Cu9  1  0.65118800  0.65090400  0.64936700  1
  C  C10  1  0.05121300  0.75030100  0.43883100  1
  C  C11  1  0.44426200  0.04896000  0.74681400  1
  C  C12  1  0.74977500  0.44196700  0.04575100  1
  C  C13  1  0.24970100  0.53929200  0.95876800  1
  C  C14  1  0.54111500  0.96178600  0.25241000  1
  C  C15  1  0.95569900  0.25041700  0.53300500  1
  C  C16  1  0.13063700  0.27073600  0.50644000  1
  C  C17  1  0.27938100  0.52260100  0.12289800  1
  C  C18  1  0.06256700  0.92148600  0.26122700  1
  C  C19  1  0.54415700  0.11810700  0.28236700  1
  C  C20  1  0.23485000  0.59477700  0.44099100  1
  C  C21  1  0.98400200  0.81392700  0.61121900  1
  C  C22  1  0.26041400  0.08436300  0.90458500  1
  C  C23  1  0.47384600  0.22207200  0.57795600  1
  C  C24  1  0.59579700  0.43964500  0.23498000  1
  C  C25  1  0.17864900  0.38689900  0.00242000  1
  C  C26  1  0.09926000  0.73746300  0.90365500  1
  C  C27  1  0.38012200  0.01577400  0.19189100  1
  C  C28  1  0.61267000  0.97647000  0.81852900  1
  C  C29  1  0.90615900  0.25478900  0.07558700  1
  C  C30  1  0.81821500  0.60847200  0.98300800  1
  C  C31  1  0.41841500  0.54544900  0.77608500  1
  C  C32  1  0.54567700  0.77852100  0.41978700  1
  C  C33  1  0.73705200  0.90290300  0.09692900  1
  C  C34  1  0.97141400  0.19201000  0.38458500  1
  C  C35  1  0.77653700  0.42111200  0.54900400  1
  C  C36  1  0.46555400  0.89341200  0.69642900  1
  C  C37  1  0.90398200  0.09715200  0.73369800  1
  C  C38  1  0.69253100  0.47122300  0.89215700  1
  C  C39  1  0.89482400  0.69425600  0.46707800  1
