# generated using pymatgen
data_Cu(NiC6)5
_symmetry_space_group_name_H-M   'P 1'
_cell_length_a   8.75764927
_cell_length_b   8.75764927
_cell_length_c   8.75764872
_cell_angle_alpha   60.08253236
_cell_angle_beta   60.08253236
_cell_angle_gamma   60.08253270
_symmetry_Int_Tables_number   1
_chemical_formula_structural   Cu(NiC6)5
_chemical_formula_sum   'Cu1 Ni5 C30'
_cell_volume   475.83797310
_cell_formula_units_Z   1
loop_
 _symmetry_equiv_pos_site_id
 _symmetry_equiv_pos_as_xyz
  1  'x, y, z'
loop_
 _atom_site_type_symbol
 _atom_site_label
 _atom_site_symmetry_multiplicity
 _atom_site_fract_x
 _atom_site_fract_y
 _atom_site_fract_z
 _atom_site_occupancy
  Ni  Ni0  1  0.99102500  0.99102500  0.99102500  1
  Ni  Ni1  1  0.64551000  0.64551000  0.64551000  1
  Ni  Ni2  1  0.50006400  0.50006400  0.50006400  1
  Ni  Ni3  1  0.85178100  0.85178100  0.85178100  1
  Ni  Ni4  1  0.35540900  0.35540900  0.35540900  1
  C  C5  1  0.95507100  0.25238200  0.54745600  1
  C  C6  1  0.54745600  0.95507100  0.25238200  1
  C  C7  1  0.25238200  0.54745600  0.95507100  1
  C  C8  1  0.74434800  0.45874400  0.04879300  1
  C  C9  1  0.45874400  0.04879300  0.74434800  1
  C  C10  1  0.04879300  0.74434800  0.45874400  1
  Cu  Cu11  1  0.14386900  0.14386900  0.14386900  1
  C  C12  1  0.50473800  0.10791000  0.31636900  1
  C  C13  1  0.31636900  0.50473800  0.10791000  1
  C  C14  1  0.10791000  0.31636900  0.50473800  1
  C  C15  1  0.94335700  0.08646400  0.73286900  1
  C  C16  1  0.01720700  0.17902700  0.38100500  1
  C  C17  1  0.76503700  0.40416000  0.54522900  1
  C  C18  1  0.73286900  0.94335700  0.08646400  1
  C  C19  1  0.54522900  0.76503700  0.40416000  1
  C  C20  1  0.80683400  0.60976300  0.01466400  1
  C  C21  1  0.40416000  0.54522900  0.76503700  1
  C  C22  1  0.91603500  0.25960500  0.07673500  1
  C  C23  1  0.60976300  0.01466400  0.80683400  1
  C  C24  1  0.38100500  0.01720700  0.17902700  1
  C  C25  1  0.08646400  0.73286900  0.94335700  1
  C  C26  1  0.59158100  0.43211800  0.24420700  1
  C  C27  1  0.17902700  0.38100500  0.01720700  1
  C  C28  1  0.43211800  0.24420700  0.59158100  1
  C  C29  1  0.25960500  0.07673500  0.91603500  1
  C  C30  1  0.24420700  0.59158100  0.43211800  1
  C  C31  1  0.01466400  0.80683400  0.60976300  1
  C  C32  1  0.07673500  0.91603500  0.25960500  1
  C  C33  1  0.89383600  0.70153700  0.47525000  1
  C  C34  1  0.70153700  0.47525000  0.89383600  1
  C  C35  1  0.47525000  0.89383600  0.70153700  1
