# generated using pymatgen
data_Cu(NiC)2
_symmetry_space_group_name_H-M   'P 1'
_cell_length_a   3.09556400
_cell_length_b   8.41953800
_cell_length_c   8.48221200
_cell_angle_alpha   90.00000000
_cell_angle_beta   90.00000000
_cell_angle_gamma   90.00000000
_symmetry_Int_Tables_number   1
_chemical_formula_structural   Cu(NiC)2
_chemical_formula_sum   'Cu4 Ni8 C8'
_cell_volume   221.07374667
_cell_formula_units_Z   4
loop_
 _symmetry_equiv_pos_site_id
 _symmetry_equiv_pos_as_xyz
  1  'x, y, z'
loop_
 _atom_site_type_symbol
 _atom_site_label
 _atom_site_symmetry_multiplicity
 _atom_site_fract_x
 _atom_site_fract_y
 _atom_site_fract_z
 _atom_site_occupancy
  C  C0  1  0.25000000  0.17867400  0.00390900  1
  C  C1  1  0.25000000  0.50143500  0.18150800  1
  C  C2  1  0.75000000  0.00143500  0.31849200  1
  C  C3  1  0.75000000  0.67867400  0.49609100  1
  C  C4  1  0.25000000  0.32132600  0.50390900  1
  C  C5  1  0.25000000  0.99856500  0.68150800  1
  C  C6  1  0.75000000  0.49856500  0.81849200  1
  C  C7  1  0.75000000  0.82132600  0.99609100  1
  Ni  Ni8  1  0.75000000  0.36651500  0.04724200  1
  Ni  Ni9  1  0.25000000  0.94495800  0.12478700  1
  Ni  Ni10  1  0.75000000  0.44495800  0.37521300  1
  Ni  Ni11  1  0.25000000  0.86651500  0.45275800  1
  Ni  Ni12  1  0.75000000  0.13348500  0.54724200  1
  Ni  Ni13  1  0.25000000  0.55504200  0.62478700  1
  Ni  Ni14  1  0.75000000  0.05504200  0.87521300  1
  Ni  Ni15  1  0.25000000  0.63348500  0.95275800  1
  Cu  Cu16  1  0.75000000  0.69004400  0.22522800  1
  Cu  Cu17  1  0.25000000  0.19004400  0.27477200  1
  Cu  Cu18  1  0.75000000  0.80995600  0.72522800  1
  Cu  Cu19  1  0.25000000  0.30995600  0.77477200  1
