# generated using pymatgen
data_Cu3(NiC2)2
_symmetry_space_group_name_H-M   'P 1'
_cell_length_a   6.59418900
_cell_length_b   9.95903800
_cell_length_c   13.20438000
_cell_angle_alpha   90.00000000
_cell_angle_beta   90.00000000
_cell_angle_gamma   90.00000000
_symmetry_Int_Tables_number   1
_chemical_formula_structural   Cu3(NiC2)2
_chemical_formula_sum   'Cu24 Ni16 C32'
_cell_volume   867.15512295
_cell_formula_units_Z   8
loop_
 _symmetry_equiv_pos_site_id
 _symmetry_equiv_pos_as_xyz
  1  'x, y, z'
loop_
 _atom_site_type_symbol
 _atom_site_label
 _atom_site_symmetry_multiplicity
 _atom_site_fract_x
 _atom_site_fract_y
 _atom_site_fract_z
 _atom_site_occupancy
  C  C0  1  0.55459100  0.21018100  0.32768000  1
  C  C1  1  0.05459100  0.28981900  0.67232000  1
  C  C2  1  0.44540900  0.71018100  0.17232000  1
  C  C3  1  0.94540900  0.78981900  0.82768000  1
  C  C4  1  0.44540900  0.78981900  0.67232000  1
  C  C5  1  0.94540900  0.71018100  0.32768000  1
  C  C6  1  0.55459100  0.28981900  0.82768000  1
  C  C7  1  0.05459100  0.21018100  0.17232000  1
  C  C8  1  0.14921500  0.25513400  0.41841400  1
  C  C9  1  0.64921500  0.24486600  0.58158600  1
  C  C10  1  0.85078500  0.75513400  0.08158600  1
  C  C11  1  0.35078500  0.74486600  0.91841400  1
  C  C12  1  0.85078500  0.74486600  0.58158600  1
  C  C13  1  0.35078500  0.75513400  0.41841400  1
  C  C14  1  0.14921500  0.24486600  0.91841400  1
  C  C15  1  0.64921500  0.25513400  0.08158600  1
  C  C16  1  0.98437500  0.38193900  0.46477200  1
  C  C17  1  0.48437500  0.11806100  0.53522800  1
  C  C18  1  0.01562500  0.88193900  0.03522800  1
  C  C19  1  0.51562500  0.61806100  0.96477200  1
  C  C20  1  0.01562500  0.61806100  0.53522800  1
  C  C21  1  0.51562500  0.88193900  0.46477200  1
  C  C22  1  0.98437500  0.11806100  0.96477200  1
  C  C23  1  0.48437500  0.38193900  0.03522800  1
  Ni  Ni24  1  0.55857300  0.50564100  0.34460100  1
  Ni  Ni25  1  0.05857300  0.99435900  0.65539900  1
  Ni  Ni26  1  0.44142700  0.00564100  0.15539900  1
  Ni  Ni27  1  0.94142700  0.49435900  0.84460100  1
  Ni  Ni28  1  0.44142700  0.49435900  0.65539900  1
  Ni  Ni29  1  0.94142700  0.00564100  0.34460100  1
  Ni  Ni30  1  0.55857300  0.99435900  0.84460100  1
  Ni  Ni31  1  0.05857300  0.50564100  0.15539900  1
  Ni  Ni32  1  0.24794600  0.45082600  0.40716100  1
  Ni  Ni33  1  0.74794600  0.04917400  0.59283900  1
  Ni  Ni34  1  0.75205400  0.95082600  0.09283900  1
  Ni  Ni35  1  0.25205400  0.54917400  0.90716100  1
  Ni  Ni36  1  0.75205400  0.54917400  0.59283900  1
  Ni  Ni37  1  0.25205400  0.95082600  0.40716100  1
  Ni  Ni38  1  0.24794600  0.04917400  0.90716100  1
  Ni  Ni39  1  0.74794600  0.45082600  0.09283900  1
  Cu  Cu40  1  0.67832400  0.58908300  0.32172900  1
  Cu  Cu41  1  0.17832400  0.91091700  0.67827100  1
  Cu  Cu42  1  0.32167600  0.08908300  0.17827100  1
  Cu  Cu43  1  0.82167600  0.41091700  0.82172900  1
  Cu  Cu44  1  0.32167600  0.41091700  0.67827100  1
  Cu  Cu45  1  0.82167600  0.08908300  0.32172900  1
  Cu  Cu46  1  0.67832400  0.91091700  0.82172900  1
  Cu  Cu47  1  0.17832400  0.58908300  0.17827100  1
  Cu  Cu48  1  0.43072000  0.41015800  0.36421700  1
  Cu  Cu49  1  0.93072000  0.08984200  0.63578300  1
  Cu  Cu50  1  0.56928000  0.91015800  0.13578300  1
  Cu  Cu51  1  0.06928000  0.58984200  0.86421700  1
  Cu  Cu52  1  0.56928000  0.58984200  0.63578300  1
  Cu  Cu53  1  0.06928000  0.91015800  0.36421700  1
  Cu  Cu54  1  0.43072000  0.08984200  0.86421700  1
  Cu  Cu55  1  0.93072000  0.41015800  0.13578300  1
  Cu  Cu56  1  0.10908000  0.35422700  0.42289700  1
  Cu  Cu57  1  0.60908000  0.14577300  0.57710300  1
  Cu  Cu58  1  0.89092000  0.85422700  0.07710300  1
  Cu  Cu59  1  0.39092000  0.64577300  0.92289700  1
  Cu  Cu60  1  0.89092000  0.64577300  0.57710300  1
  Cu  Cu61  1  0.39092000  0.85422700  0.42289700  1
  Cu  Cu62  1  0.10908000  0.14577300  0.92289700  1
  Cu  Cu63  1  0.60908000  0.35422700  0.07710300  1
  C  C64  1  0.21354900  0.57263800  0.42929600  1
  C  C65  1  0.71354900  0.92736200  0.57070400  1
  C  C66  1  0.78645100  0.07263800  0.07070400  1
  C  C67  1  0.28645100  0.42736200  0.92929600  1
  C  C68  1  0.78645100  0.42736200  0.57070400  1
  C  C69  1  0.28645100  0.07263800  0.42929600  1
  C  C70  1  0.21354900  0.92736200  0.92929600  1
  C  C71  1  0.71354900  0.57263800  0.07070400  1
