# generated using pymatgen
data_Cu6Ni18C11
_symmetry_space_group_name_H-M   'P 1'
_cell_length_a   17.02501500
_cell_length_b   9.32398700
_cell_length_c   10.73805824
_cell_angle_alpha   57.25121415
_cell_angle_beta   90.00000000
_cell_angle_gamma   90.00000000
_symmetry_Int_Tables_number   1
_chemical_formula_structural   Cu6Ni18C11
_chemical_formula_sum   'Cu12 Ni36 C22'
_cell_volume   1433.62966490
_cell_formula_units_Z   2
loop_
 _symmetry_equiv_pos_site_id
 _symmetry_equiv_pos_as_xyz
  1  'x, y, z'
loop_
 _atom_site_type_symbol
 _atom_site_label
 _atom_site_symmetry_multiplicity
 _atom_site_fract_x
 _atom_site_fract_y
 _atom_site_fract_z
 _atom_site_occupancy
  C  C0  1  0.00000000  0.50000000  0.50000000  1
  C  C1  1  0.50000000  0.50000000  0.00000000  1
  Ni  Ni2  1  0.91492700  0.27568900  0.74215500  1
  Ni  Ni3  1  0.50791400  0.28370800  0.90220100  1
  Ni  Ni4  1  0.14567400  0.62245800  0.39585600  1
  Ni  Ni5  1  0.85919100  0.65130900  0.38977100  1
  Ni  Ni6  1  0.92392700  0.75455300  0.25944500  1
  Ni  Ni7  1  0.46050000  0.45356300  0.77793200  1
  Ni  Ni8  1  0.55629100  0.45564800  0.78498600  1
  Ni  Ni9  1  0.05629100  0.54435200  0.71501400  1
  Ni  Ni10  1  0.96050000  0.54643700  0.72206800  1
  Ni  Ni11  1  0.09432900  0.78005000  0.37742000  1
  Ni  Ni12  1  0.91551400  0.79230000  0.39087700  1
  Ni  Ni13  1  0.00791400  0.71629200  0.59779900  1
  Ni  Ni14  1  0.35432600  0.62245800  0.89585600  1
  Ni  Ni15  1  0.41492700  0.72431100  0.75784500  1
  Ni  Ni16  1  0.64080900  0.65130900  0.88977100  1
  Ni  Ni17  1  0.57607300  0.75455300  0.75944500  1
  Ni  Ni18  1  0.41551400  0.20770000  0.10912300  1
  Ni  Ni19  1  0.59432900  0.21995000  0.12258000  1
  Ni  Ni20  1  0.40567100  0.78005000  0.87742000  1
  Ni  Ni21  1  0.58448600  0.79230000  0.89087700  1
  Ni  Ni22  1  0.42392700  0.24544700  0.24055500  1
  Ni  Ni23  1  0.35919100  0.34869100  0.11022900  1
  Ni  Ni24  1  0.58507300  0.27568900  0.24215500  1
  Ni  Ni25  1  0.64567400  0.37754200  0.10414400  1
  Ni  Ni26  1  0.99208600  0.28370800  0.40220100  1
  Ni  Ni27  1  0.08448600  0.20770000  0.60912300  1
  Ni  Ni28  1  0.90567100  0.21995000  0.62258000  1
  Ni  Ni29  1  0.03950000  0.45356300  0.27793200  1
  Ni  Ni30  1  0.94370900  0.45564800  0.28498600  1
  Ni  Ni31  1  0.44370900  0.54435200  0.21501400  1
  Ni  Ni32  1  0.53950000  0.54643700  0.22206800  1
  Ni  Ni33  1  0.07607300  0.24544700  0.74055500  1
  Ni  Ni34  1  0.14080900  0.34869100  0.61022900  1
  Ni  Ni35  1  0.85432600  0.37754200  0.60414400  1
  Ni  Ni36  1  0.49208600  0.71629200  0.09779900  1
  Ni  Ni37  1  0.08507300  0.72431100  0.25784500  1
  C  C38  1  0.64244000  0.00763300  0.98951500  1
  C  C39  1  0.29319300  0.49827200  0.64906000  1
  C  C40  1  0.33252700  0.73781200  0.34374300  1
  C  C41  1  0.79319300  0.50172800  0.85094000  1
  C  C42  1  0.52699300  0.80952600  0.43039600  1
  C  C43  1  0.18054700  0.11237600  0.02507600  1
  C  C44  1  0.68054700  0.88762400  0.47492400  1
  C  C45  1  0.02699300  0.19047400  0.06960400  1
  C  C46  1  0.16747300  0.73781200  0.84374300  1
  C  C47  1  0.14244000  0.99236700  0.51048500  1
  C  C48  1  0.85756000  0.00763300  0.48951500  1
  C  C49  1  0.83252700  0.26218800  0.15625700  1
  C  C50  1  0.97300700  0.80952600  0.93039600  1
  C  C51  1  0.31945300  0.11237600  0.52507600  1
  C  C52  1  0.81945300  0.88762400  0.97492400  1
  C  C53  1  0.47300700  0.19047400  0.56960400  1
  C  C54  1  0.20680700  0.49827200  0.14906000  1
  C  C55  1  0.66747300  0.26218800  0.65625700  1
  C  C56  1  0.70680700  0.50172800  0.35094000  1
  C  C57  1  0.35756000  0.99236700  0.01048500  1
  Cu  Cu58  1  0.09107000  0.67646800  0.36821600  1
  Cu  Cu59  1  0.91570500  0.69641400  0.37110000  1
  Cu  Cu60  1  0.50701300  0.41359200  0.84967300  1
  Cu  Cu61  1  0.00701300  0.58640800  0.65032700  1
  Cu  Cu62  1  0.40893000  0.67646800  0.86821600  1
  Cu  Cu63  1  0.58429500  0.69641400  0.87110000  1
  Cu  Cu64  1  0.41570500  0.30358600  0.12890000  1
  Cu  Cu65  1  0.59107000  0.32353200  0.13178400  1
  Cu  Cu66  1  0.99298700  0.41359200  0.34967300  1
  Cu  Cu67  1  0.49298700  0.58640800  0.15032700  1
  Cu  Cu68  1  0.08429500  0.30358600  0.62890000  1
  Cu  Cu69  1  0.90893000  0.32353200  0.63178400  1
