# generated using pymatgen
data_Cu8Ni2C
_symmetry_space_group_name_H-M   'P 1'
_cell_length_a   8.98868600
_cell_length_b   9.11040200
_cell_length_c   13.45145200
_cell_angle_alpha   90.00000000
_cell_angle_beta   90.00000000
_cell_angle_gamma   90.00000000
_symmetry_Int_Tables_number   1
_chemical_formula_structural   Cu8Ni2C
_chemical_formula_sum   'Cu64 Ni16 C8'
_cell_volume   1101.54670723
_cell_formula_units_Z   8
loop_
 _symmetry_equiv_pos_site_id
 _symmetry_equiv_pos_as_xyz
  1  'x, y, z'
loop_
 _atom_site_type_symbol
 _atom_site_label
 _atom_site_symmetry_multiplicity
 _atom_site_fract_x
 _atom_site_fract_y
 _atom_site_fract_z
 _atom_site_occupancy
  C  C0  1  0.89404700  0.86029700  0.12574000  1
  C  C1  1  0.60595300  0.86029700  0.62574000  1
  C  C2  1  0.39404700  0.63970300  0.12574000  1
  C  C3  1  0.10595300  0.63970300  0.62574000  1
  C  C4  1  0.89404700  0.36029700  0.37426000  1
  C  C5  1  0.60595300  0.36029700  0.87426000  1
  C  C6  1  0.39404700  0.13970300  0.37426000  1
  C  C7  1  0.10595300  0.13970300  0.87426000  1
  Ni  Ni8  1  0.93434100  0.92429200  0.72260700  1
  Ni  Ni9  1  0.56565900  0.92429200  0.22260700  1
  Ni  Ni10  1  0.31168400  0.84133300  0.48861400  1
  Ni  Ni11  1  0.18831600  0.84133300  0.98861400  1
  Ni  Ni12  1  0.81168400  0.65866700  0.48861400  1
  Ni  Ni13  1  0.68831600  0.65866700  0.98861400  1
  Ni  Ni14  1  0.06565900  0.57570800  0.22260700  1
  Ni  Ni15  1  0.43434100  0.57570800  0.72260700  1
  Ni  Ni16  1  0.56565900  0.42429200  0.27739300  1
  Ni  Ni17  1  0.93434100  0.42429200  0.77739300  1
  Ni  Ni18  1  0.31168400  0.34133300  0.01138600  1
  Ni  Ni19  1  0.18831600  0.34133300  0.51138600  1
  Ni  Ni20  1  0.81168400  0.15866700  0.01138600  1
  Ni  Ni21  1  0.68831600  0.15866700  0.51138600  1
  Ni  Ni22  1  0.43434100  0.07570800  0.77739300  1
  Ni  Ni23  1  0.06565900  0.07570800  0.27739300  1
  Cu  Cu24  1  0.29858200  0.00503100  0.47246500  1
  Cu  Cu25  1  0.20141800  0.00503100  0.97246500  1
  Cu  Cu26  1  0.01107500  0.98319000  0.35660100  1
  Cu  Cu27  1  0.48892500  0.98319000  0.85660100  1
  Cu  Cu28  1  0.52713800  0.97769100  0.32515000  1
  Cu  Cu29  1  0.97286200  0.97769100  0.82515000  1
  Cu  Cu30  1  0.76625800  0.91453700  0.72221200  1
  Cu  Cu31  1  0.73374200  0.91453700  0.22221200  1
  Cu  Cu32  1  0.27727600  0.81266800  0.08128700  1
  Cu  Cu33  1  0.22272400  0.81266800  0.58128700  1
  Cu  Cu34  1  0.02917900  0.80669900  0.01486300  1
  Cu  Cu35  1  0.47082100  0.80669900  0.51486300  1
  Cu  Cu36  1  0.99435100  0.77007500  0.71797600  1
  Cu  Cu37  1  0.50564900  0.77007500  0.21797600  1
  Cu  Cu38  1  0.26644500  0.75912500  0.40219600  1
  Cu  Cu39  1  0.23355500  0.75912500  0.90219600  1
  Cu  Cu40  1  0.76644500  0.74087500  0.40219600  1
  Cu  Cu41  1  0.73355500  0.74087500  0.90219600  1
  Cu  Cu42  1  0.00564900  0.72992500  0.21797600  1
  Cu  Cu43  1  0.49435100  0.72992500  0.71797600  1
  Cu  Cu44  1  0.97082100  0.69330100  0.51486300  1
  Cu  Cu45  1  0.52917900  0.69330100  0.01486300  1
  Cu  Cu46  1  0.77727600  0.68733200  0.08128700  1
  Cu  Cu47  1  0.72272400  0.68733200  0.58128700  1
  Cu  Cu48  1  0.23374200  0.58546300  0.22221200  1
  Cu  Cu49  1  0.26625800  0.58546300  0.72221200  1
  Cu  Cu50  1  0.47286200  0.52230900  0.82515000  1
  Cu  Cu51  1  0.02713800  0.52230900  0.32515000  1
  Cu  Cu52  1  0.51107500  0.51681000  0.35660100  1
  Cu  Cu53  1  0.98892500  0.51681000  0.85660100  1
  Cu  Cu54  1  0.79858200  0.49496900  0.47246500  1
  Cu  Cu55  1  0.70141800  0.49496900  0.97246500  1
  Cu  Cu56  1  0.29858200  0.50503100  0.02753500  1
  Cu  Cu57  1  0.20141800  0.50503100  0.52753500  1
  Cu  Cu58  1  0.48892500  0.48319000  0.64339900  1
  Cu  Cu59  1  0.01107500  0.48319000  0.14339900  1
  Cu  Cu60  1  0.52713800  0.47769100  0.17485000  1
  Cu  Cu61  1  0.97286200  0.47769100  0.67485000  1
  Cu  Cu62  1  0.73374200  0.41453700  0.27778800  1
  Cu  Cu63  1  0.76625800  0.41453700  0.77778800  1
  Cu  Cu64  1  0.27727600  0.31266800  0.41871300  1
  Cu  Cu65  1  0.22272400  0.31266800  0.91871300  1
  Cu  Cu66  1  0.47082100  0.30669900  0.98513700  1
  Cu  Cu67  1  0.02917900  0.30669900  0.48513700  1
  Cu  Cu68  1  0.50564900  0.27007500  0.28202400  1
  Cu  Cu69  1  0.99435100  0.27007500  0.78202400  1
  Cu  Cu70  1  0.26644500  0.25912500  0.09780400  1
  Cu  Cu71  1  0.23355500  0.25912500  0.59780400  1
  Cu  Cu72  1  0.76644500  0.24087500  0.09780400  1
  Cu  Cu73  1  0.73355500  0.24087500  0.59780400  1
  Cu  Cu74  1  0.49435100  0.22992500  0.78202400  1
  Cu  Cu75  1  0.00564900  0.22992500  0.28202400  1
  Cu  Cu76  1  0.52917900  0.19330100  0.48513700  1
  Cu  Cu77  1  0.97082100  0.19330100  0.98513700  1
  Cu  Cu78  1  0.77727600  0.18733200  0.41871300  1
  Cu  Cu79  1  0.72272400  0.18733200  0.91871300  1
  Cu  Cu80  1  0.26625800  0.08546300  0.77778800  1
  Cu  Cu81  1  0.23374200  0.08546300  0.27778800  1
  Cu  Cu82  1  0.47286200  0.02230900  0.67485000  1
  Cu  Cu83  1  0.02713800  0.02230900  0.17485000  1
  Cu  Cu84  1  0.98892500  0.01681000  0.64339900  1
  Cu  Cu85  1  0.51107500  0.01681000  0.14339900  1
  Cu  Cu86  1  0.79858200  0.99496900  0.02753500  1
  Cu  Cu87  1  0.70141800  0.99496900  0.52753500  1
