# generated using pymatgen
data_Cu5NiC9
_symmetry_space_group_name_H-M   'P 1'
_cell_length_a   11.89954900
_cell_length_b   6.84109400
_cell_length_c   8.59119411
_cell_angle_alpha   62.61605676
_cell_angle_beta   90.00000000
_cell_angle_gamma   90.00000000
_symmetry_Int_Tables_number   1
_chemical_formula_structural   Cu5NiC9
_chemical_formula_sum   'Cu20 Ni4 C36'
_cell_volume   621.00532474
_cell_formula_units_Z   4
loop_
 _symmetry_equiv_pos_site_id
 _symmetry_equiv_pos_as_xyz
  1  'x, y, z'
loop_
 _atom_site_type_symbol
 _atom_site_label
 _atom_site_symmetry_multiplicity
 _atom_site_fract_x
 _atom_site_fract_y
 _atom_site_fract_z
 _atom_site_occupancy
  C  C0  1  0.31779400  0.43220600  0.01933300  1
  C  C1  1  0.18220600  0.43220600  0.51933300  1
  C  C2  1  0.68220600  0.56779400  0.98066700  1
  C  C3  1  0.81779400  0.56779400  0.48066700  1
  C  C4  1  0.07214200  0.11959600  0.11521400  1
  C  C5  1  0.42785800  0.11959600  0.61521400  1
  C  C6  1  0.92785800  0.88040400  0.88478600  1
  C  C7  1  0.57214200  0.88040400  0.38478600  1
  Ni  Ni8  1  0.16577200  0.43294300  0.77861500  1
  Ni  Ni9  1  0.33422800  0.43294300  0.27861500  1
  Ni  Ni10  1  0.83422800  0.56705700  0.22138500  1
  Ni  Ni11  1  0.66577200  0.56705700  0.72138500  1
  Cu  Cu12  1  0.11744600  0.24787900  0.37311200  1
  Cu  Cu13  1  0.38255400  0.24787900  0.87311200  1
  Cu  Cu14  1  0.88255400  0.75212100  0.62688800  1
  Cu  Cu15  1  0.61744600  0.75212100  0.12688800  1
  Cu  Cu16  1  0.48598200  0.32962400  0.94301900  1
  Cu  Cu17  1  0.01401800  0.32962400  0.44301900  1
  Cu  Cu18  1  0.51401800  0.67037600  0.05698100  1
  Cu  Cu19  1  0.98598200  0.67037600  0.55698100  1
  Cu  Cu20  1  0.46590100  0.97342600  0.16369100  1
  Cu  Cu21  1  0.03409900  0.97342600  0.66369100  1
  Cu  Cu22  1  0.53409900  0.02657400  0.83630900  1
  Cu  Cu23  1  0.96590100  0.02657400  0.33630900  1
  Cu  Cu24  1  0.18028600  0.78375000  0.22039300  1
  Cu  Cu25  1  0.31971400  0.78375000  0.72039300  1
  Cu  Cu26  1  0.81971400  0.21625000  0.77960700  1
  Cu  Cu27  1  0.68028600  0.21625000  0.27960700  1
  Cu  Cu28  1  0.05708400  0.78160800  0.14052800  1
  Cu  Cu29  1  0.44291600  0.78160800  0.64052800  1
  Cu  Cu30  1  0.94291600  0.21839200  0.85947200  1
  Cu  Cu31  1  0.55708400  0.21839200  0.35947200  1
  C  C32  1  0.23638100  0.56127100  0.85363400  1
  C  C33  1  0.26361900  0.56127100  0.35363400  1
  C  C34  1  0.76361900  0.43872900  0.14636600  1
  C  C35  1  0.73638100  0.43872900  0.64636600  1
  C  C36  1  0.07718200  0.29296100  0.91638100  1
  C  C37  1  0.42281800  0.29296100  0.41638100  1
  C  C38  1  0.92281800  0.70703900  0.08361900  1
  C  C39  1  0.57718200  0.70703900  0.58361900  1
  C  C40  1  0.99913400  0.84662200  0.75967500  1
  C  C41  1  0.50086600  0.84662200  0.25967500  1
  C  C42  1  0.00086600  0.15337800  0.24032500  1
  C  C43  1  0.49913400  0.15337800  0.74032500  1
  C  C44  1  0.10969800  0.58127100  0.59695800  1
  C  C45  1  0.39030200  0.58127100  0.09695800  1
  C  C46  1  0.89030200  0.41872900  0.40304200  1
  C  C47  1  0.60969800  0.41872900  0.90304200  1
  C  C48  1  0.25797100  0.29510900  0.21732600  1
  C  C49  1  0.24202900  0.29510900  0.71732600  1
  C  C50  1  0.74202900  0.70489100  0.78267400  1
  C  C51  1  0.75797100  0.70489100  0.28267400  1
  C  C52  1  0.90424700  0.71912800  0.52977900  1
  C  C53  1  0.59575300  0.71912800  0.02977900  1
  C  C54  1  0.09575300  0.28087200  0.47022100  1
  C  C55  1  0.40424700  0.28087200  0.97022100  1
  C  C56  1  0.61699500  0.12263300  0.35092100  1
  C  C57  1  0.88300500  0.12263300  0.85092100  1
  C  C58  1  0.38300500  0.87736700  0.64907900  1
  C  C59  1  0.11699500  0.87736700  0.14907900  1
