# generated using pymatgen
data_CuNi2C5
_symmetry_space_group_name_H-M   'P 1'
_cell_length_a   6.89299500
_cell_length_b   10.90863000
_cell_length_c   11.02785100
_cell_angle_alpha   90.00000000
_cell_angle_beta   90.00000000
_cell_angle_gamma   90.00000000
_symmetry_Int_Tables_number   1
_chemical_formula_structural   CuNi2C5
_chemical_formula_sum   'Cu8 Ni16 C40'
_cell_volume   829.21865644
_cell_formula_units_Z   8
loop_
 _symmetry_equiv_pos_site_id
 _symmetry_equiv_pos_as_xyz
  1  'x, y, z'
loop_
 _atom_site_type_symbol
 _atom_site_label
 _atom_site_symmetry_multiplicity
 _atom_site_fract_x
 _atom_site_fract_y
 _atom_site_fract_z
 _atom_site_occupancy
  C  C0  1  0.53330200  0.66634600  0.44407900  1
  C  C1  1  0.03330200  0.83365400  0.05592100  1
  C  C2  1  0.46669800  0.33365400  0.94407900  1
  C  C3  1  0.96669800  0.16634600  0.55592100  1
  C  C4  1  0.46669800  0.33365400  0.55592100  1
  C  C5  1  0.96669800  0.16634600  0.94407900  1
  C  C6  1  0.53330200  0.66634600  0.05592100  1
  C  C7  1  0.03330200  0.83365400  0.44407900  1
  Ni  Ni8  1  0.34208200  0.11351100  0.44754600  1
  Ni  Ni9  1  0.84208200  0.38648900  0.05245400  1
  Ni  Ni10  1  0.65791800  0.88648900  0.94754600  1
  Ni  Ni11  1  0.15791800  0.61351100  0.55245400  1
  Ni  Ni12  1  0.65791800  0.88648900  0.55245400  1
  Ni  Ni13  1  0.15791800  0.61351100  0.94754600  1
  Ni  Ni14  1  0.34208200  0.11351100  0.05245400  1
  Ni  Ni15  1  0.84208200  0.38648900  0.44754600  1
  Ni  Ni16  1  0.26092100  0.22554300  0.37192100  1
  Ni  Ni17  1  0.76092100  0.27445700  0.12807900  1
  Ni  Ni18  1  0.73907900  0.77445700  0.87192100  1
  Ni  Ni19  1  0.23907900  0.72554300  0.62807900  1
  Ni  Ni20  1  0.73907900  0.77445700  0.62807900  1
  Ni  Ni21  1  0.23907900  0.72554300  0.87192100  1
  Ni  Ni22  1  0.26092100  0.22554300  0.12807900  1
  Ni  Ni23  1  0.76092100  0.27445700  0.37192100  1
  Cu  Cu24  1  0.82827000  0.04790400  0.25000000  1
  Cu  Cu25  1  0.32827000  0.45209600  0.25000000  1
  Cu  Cu26  1  0.17173000  0.95209600  0.75000000  1
  Cu  Cu27  1  0.67173000  0.54790400  0.75000000  1
  Cu  Cu28  1  0.45423000  0.89588000  0.25000000  1
  Cu  Cu29  1  0.95423000  0.60412000  0.25000000  1
  Cu  Cu30  1  0.54577000  0.10412000  0.75000000  1
  Cu  Cu31  1  0.04577000  0.39588000  0.75000000  1
  C  C32  1  0.93963100  0.01916300  0.13830800  1
  C  C33  1  0.43963100  0.48083700  0.36169200  1
  C  C34  1  0.06036900  0.98083700  0.63830800  1
  C  C35  1  0.56036900  0.51916300  0.86169200  1
  C  C36  1  0.06036900  0.98083700  0.86169200  1
  C  C37  1  0.56036900  0.51916300  0.63830800  1
  C  C38  1  0.93963100  0.01916300  0.36169200  1
  C  C39  1  0.43963100  0.48083700  0.13830800  1
  C  C40  1  0.74904800  0.17454000  0.25000000  1
  C  C41  1  0.24904800  0.32546000  0.25000000  1
  C  C42  1  0.25095200  0.82546000  0.75000000  1
  C  C43  1  0.75095200  0.67454000  0.75000000  1
  C  C44  1  0.48423800  0.03142100  0.85889600  1
  C  C45  1  0.98423800  0.46857900  0.64110400  1
  C  C46  1  0.51576200  0.96857900  0.35889600  1
  C  C47  1  0.01576200  0.53142100  0.14110400  1
  C  C48  1  0.51576200  0.96857900  0.14110400  1
  C  C49  1  0.01576200  0.53142100  0.35889600  1
  C  C50  1  0.48423800  0.03142100  0.64110400  1
  C  C51  1  0.98423800  0.46857900  0.85889600  1
  C  C52  1  0.55309800  0.77245900  0.25000000  1
  C  C53  1  0.05309800  0.72754100  0.25000000  1
  C  C54  1  0.44690200  0.22754100  0.75000000  1
  C  C55  1  0.94690200  0.27245900  0.75000000  1
  C  C56  1  0.77101900  0.30909800  0.04494100  1
  C  C57  1  0.27101900  0.19090200  0.45505900  1
  C  C58  1  0.22898100  0.69090200  0.54494100  1
  C  C59  1  0.72898100  0.80909800  0.95505900  1
  C  C60  1  0.22898100  0.69090200  0.95505900  1
  C  C61  1  0.72898100  0.80909800  0.54494100  1
  C  C62  1  0.77101900  0.30909800  0.45505900  1
  C  C63  1  0.27101900  0.19090200  0.04494100  1
