# generated using pymatgen
data_CuNiC6
_symmetry_space_group_name_H-M   'P 1'
_cell_length_a   6.81560600
_cell_length_b   7.36584200
_cell_length_c   8.76165000
_cell_angle_alpha   90.00000000
_cell_angle_beta   90.00000000
_cell_angle_gamma   90.00000000
_symmetry_Int_Tables_number   1
_chemical_formula_structural   CuNiC6
_chemical_formula_sum   'Cu4 Ni4 C24'
_cell_volume   439.85828433
_cell_formula_units_Z   4
loop_
 _symmetry_equiv_pos_site_id
 _symmetry_equiv_pos_as_xyz
  1  'x, y, z'
loop_
 _atom_site_type_symbol
 _atom_site_label
 _atom_site_symmetry_multiplicity
 _atom_site_fract_x
 _atom_site_fract_y
 _atom_site_fract_z
 _atom_site_occupancy
  C  C0  1  0.00000000  0.00000000  0.00000000  1
  C  C1  1  0.50000000  0.00000000  0.00000000  1
  C  C2  1  0.00000000  0.50000000  0.50000000  1
  C  C3  1  0.50000000  0.50000000  0.50000000  1
  Ni  Ni4  1  0.25000000  0.72151500  0.13715600  1
  Ni  Ni5  1  0.75000000  0.22151500  0.36284400  1
  Ni  Ni6  1  0.25000000  0.77848500  0.63715600  1
  Ni  Ni7  1  0.75000000  0.27848500  0.86284400  1
  Cu  Cu8  1  0.75000000  0.63668300  0.12699200  1
  Cu  Cu9  1  0.25000000  0.13668300  0.37300800  1
  Cu  Cu10  1  0.75000000  0.86331700  0.62699200  1
  Cu  Cu11  1  0.25000000  0.36331700  0.87300800  1
  C  C12  1  0.25000000  0.47306500  0.02589000  1
  C  C13  1  0.75000000  0.14331200  0.04151200  1
  C  C14  1  0.56831500  0.76613500  0.12406600  1
  C  C15  1  0.93168500  0.76613500  0.12406600  1
  C  C16  1  0.25000000  0.01625100  0.22965900  1
  C  C17  1  0.75000000  0.51625100  0.27034100  1
  C  C18  1  0.06831500  0.26613500  0.37593400  1
  C  C19  1  0.43168500  0.26613500  0.37593400  1
  C  C20  1  0.25000000  0.64331200  0.45848800  1
  C  C21  1  0.75000000  0.97306500  0.47411000  1
  C  C22  1  0.25000000  0.02693500  0.52589000  1
  C  C23  1  0.75000000  0.35668800  0.54151200  1
  C  C24  1  0.56831500  0.73386500  0.62406600  1
  C  C25  1  0.93168500  0.73386500  0.62406600  1
  C  C26  1  0.25000000  0.48374900  0.72965900  1
  C  C27  1  0.75000000  0.98374900  0.77034100  1
  C  C28  1  0.06831500  0.23386500  0.87593400  1
  C  C29  1  0.43168500  0.23386500  0.87593400  1
  C  C30  1  0.25000000  0.85668800  0.95848800  1
  C  C31  1  0.75000000  0.52693500  0.97411000  1
