# generated using pymatgen
data_Cu3Ni3C22
_symmetry_space_group_name_H-M   'P 1'
_cell_length_a   6.18750109
_cell_length_b   6.18750109
_cell_length_c   9.86566328
_cell_angle_alpha   89.51784324
_cell_angle_beta   89.51784324
_cell_angle_gamma   59.89606372
_symmetry_Int_Tables_number   1
_chemical_formula_structural   Cu3Ni3C22
_chemical_formula_sum   'Cu3 Ni3 C22'
_cell_volume   326.74670046
_cell_formula_units_Z   1
loop_
 _symmetry_equiv_pos_site_id
 _symmetry_equiv_pos_as_xyz
  1  'x, y, z'
loop_
 _atom_site_type_symbol
 _atom_site_label
 _atom_site_symmetry_multiplicity
 _atom_site_fract_x
 _atom_site_fract_y
 _atom_site_fract_z
 _atom_site_occupancy
  C  C0  1  0.66671800  0.66671800  0.10282200  1
  C  C1  1  0.98268500  0.98268500  0.02156300  1
  C  C2  1  0.99025700  0.99025700  0.50168800  1
  C  C3  1  0.33136000  0.33136000  0.58894800  1
  Ni  Ni4  1  0.82944300  0.82944300  0.78634700  1
  Ni  Ni5  1  0.17604600  0.65859300  0.28799200  1
  Ni  Ni6  1  0.65859300  0.17604600  0.28799200  1
  Cu  Cu7  1  0.33954100  0.83210300  0.78659300  1
  Cu  Cu8  1  0.83210300  0.33954100  0.78659300  1
  Cu  Cu9  1  0.17142900  0.17142900  0.28720700  1
  C  C10  1  0.67354000  0.67354000  0.50690100  1
  C  C11  1  0.34216700  0.34216700  0.02131600  1
  C  C12  1  0.34191600  0.83355400  0.41189800  1
  C  C13  1  0.51846700  0.51846700  0.65315500  1
  C  C14  1  0.66371000  0.66371000  0.89696100  1
  C  C15  1  0.00087100  0.00087100  0.69198400  1
  C  C16  1  0.00274100  0.00274100  0.20395900  1
  C  C17  1  0.83355400  0.34191600  0.41189800  1
  C  C18  1  0.51635800  0.95974700  0.65262200  1
  C  C19  1  0.95974700  0.51635800  0.65262200  1
  C  C20  1  0.16788900  0.16788900  0.90422500  1
  C  C21  1  0.83286700  0.83286700  0.40936900  1
  C  C22  1  0.03824000  0.47764100  0.14377200  1
  C  C23  1  0.47764100  0.03824000  0.14377200  1
  C  C24  1  0.33105500  0.33105500  0.39184200  1
  C  C25  1  0.17055800  0.66538000  0.90519200  1
  C  C26  1  0.48455000  0.48455000  0.14775400  1
  C  C27  1  0.66538000  0.17055800  0.90519200  1
