# generated using pymatgen
data_CuNiC6
_symmetry_space_group_name_H-M   'P 1'
_cell_length_a   5.94637897
_cell_length_b   5.94637897
_cell_length_c   9.34218145
_cell_angle_alpha   88.90151358
_cell_angle_beta   88.90151358
_cell_angle_gamma   59.57061042
_symmetry_Int_Tables_number   1
_chemical_formula_structural   CuNiC6
_chemical_formula_sum   'Cu3 Ni3 C18'
_cell_volume   284.76243576
_cell_formula_units_Z   3
loop_
 _symmetry_equiv_pos_site_id
 _symmetry_equiv_pos_as_xyz
  1  'x, y, z'
loop_
 _atom_site_type_symbol
 _atom_site_label
 _atom_site_symmetry_multiplicity
 _atom_site_fract_x
 _atom_site_fract_y
 _atom_site_fract_z
 _atom_site_occupancy
  Ni  Ni0  1  0.17125000  0.17125000  0.78616500  1
  Ni  Ni1  1  0.83280600  0.33880700  0.28736100  1
  Ni  Ni2  1  0.33880700  0.83280600  0.28736100  1
  C  C3  1  0.33121500  0.33121500  0.50370700  1
  C  C4  1  0.66677300  0.66677300  0.00092700  1
  Cu  Cu5  1  0.66691600  0.17066400  0.78780500  1
  Cu  Cu6  1  0.17066400  0.66691600  0.78780500  1
  Cu  Cu7  1  0.83359500  0.83359500  0.28659000  1
  C  C8  1  0.66320100  0.17072400  0.40080700  1
  C  C9  1  0.47731900  0.47731900  0.65670200  1
  C  C10  1  0.32758000  0.32758000  0.89268500  1
  C  C11  1  0.00773700  0.00773700  0.69141600  1
  C  C12  1  0.00623100  0.00623100  0.19101900  1
  C  C13  1  0.17072400  0.66320100  0.40080700  1
  C  C14  1  0.46739300  0.03991000  0.66274600  1
  C  C15  1  0.03991000  0.46739300  0.66274600  1
  C  C16  1  0.83254500  0.83254500  0.90545300  1
  C  C17  1  0.16680700  0.16680700  0.39557500  1
  C  C18  1  0.95509100  0.51189400  0.16497800  1
  C  C19  1  0.51189400  0.95509100  0.16497800  1
  C  C20  1  0.66089500  0.66089500  0.39146100  1
  C  C21  1  0.83786100  0.33839600  0.90168100  1
  C  C22  1  0.52103200  0.52103200  0.17227400  1
  C  C23  1  0.33839600  0.83786100  0.90168100  1
