# generated using pymatgen
data_Cu4(NiC)3
_symmetry_space_group_name_H-M   'P 1'
_cell_length_a   9.34679828
_cell_length_b   9.34679828
_cell_length_c   12.40178659
_cell_angle_alpha   65.62333871
_cell_angle_beta   65.62333871
_cell_angle_gamma   41.85195864
_symmetry_Int_Tables_number   1
_chemical_formula_structural   Cu4(NiC)3
_chemical_formula_sum   'Cu16 Ni12 C12'
_cell_volume   648.48521104
_cell_formula_units_Z   4
loop_
 _symmetry_equiv_pos_site_id
 _symmetry_equiv_pos_as_xyz
  1  'x, y, z'
loop_
 _atom_site_type_symbol
 _atom_site_label
 _atom_site_symmetry_multiplicity
 _atom_site_fract_x
 _atom_site_fract_y
 _atom_site_fract_z
 _atom_site_occupancy
  C  C0  1  0.42335500  0.95889100  0.66310000  1
  C  C1  1  0.04110900  0.57664500  0.83690000  1
  C  C2  1  0.57664500  0.04110900  0.33690000  1
  C  C3  1  0.95889100  0.42335500  0.16310000  1
  C  C4  1  0.67812600  0.19195500  0.63623200  1
  C  C5  1  0.80804500  0.32187400  0.86376800  1
  C  C6  1  0.32187400  0.80804500  0.36376800  1
  C  C7  1  0.19195500  0.67812600  0.13623200  1
  C  C8  1  0.34012400  0.99988400  0.96617100  1
  C  C9  1  0.00011600  0.65987600  0.53382900  1
  C  C10  1  0.65987600  0.00011600  0.03382900  1
  C  C11  1  0.99988400  0.34012400  0.46617100  1
  Ni  Ni12  1  0.23899900  0.92225300  0.91614800  1
  Ni  Ni13  1  0.07774700  0.76100100  0.58385200  1
  Ni  Ni14  1  0.76100100  0.07774700  0.08385200  1
  Ni  Ni15  1  0.92225300  0.23899900  0.41614800  1
  Ni  Ni16  1  0.47124200  0.74378100  0.92297700  1
  Ni  Ni17  1  0.25621900  0.52875800  0.57702300  1
  Ni  Ni18  1  0.52875800  0.25621900  0.07702300  1
  Ni  Ni19  1  0.74378100  0.47124200  0.42297700  1
  Ni  Ni20  1  0.38602400  0.66606700  0.69594300  1
  Ni  Ni21  1  0.33393300  0.61397600  0.80405700  1
  Ni  Ni22  1  0.61397600  0.33393300  0.30405700  1
  Ni  Ni23  1  0.66606700  0.38602400  0.19594300  1
  Cu  Cu24  1  0.72922300  0.07713200  0.86539500  1
  Cu  Cu25  1  0.92286800  0.27077700  0.63460500  1
  Cu  Cu26  1  0.27077700  0.92286800  0.13460500  1
  Cu  Cu27  1  0.07713200  0.72922300  0.36539500  1
  Cu  Cu28  1  0.65148600  0.81062100  0.98408900  1
  Cu  Cu29  1  0.18937900  0.34851400  0.51591100  1
  Cu  Cu30  1  0.34851400  0.18937900  0.01591100  1
  Cu  Cu31  1  0.81062100  0.65148600  0.48408900  1
  Cu  Cu32  1  0.39878300  0.12316900  0.80760800  1
  Cu  Cu33  1  0.87683100  0.60121700  0.69239200  1
  Cu  Cu34  1  0.60121700  0.87683100  0.19239200  1
  Cu  Cu35  1  0.12316900  0.39878300  0.30760800  1
  Cu  Cu36  1  0.72061600  0.96557700  0.52718400  1
  Cu  Cu37  1  0.03442300  0.27938400  0.97281600  1
  Cu  Cu38  1  0.27938400  0.03442300  0.47281600  1
  Cu  Cu39  1  0.96557700  0.72061600  0.02718400  1
