# generated using pymatgen
data_Cu3NiC8
_symmetry_space_group_name_H-M   'P 1'
_cell_length_a   8.58476698
_cell_length_b   8.58476698
_cell_length_c   5.22425300
_cell_angle_alpha   90.00000000
_cell_angle_beta   90.00000000
_cell_angle_gamma   119.99999217
_symmetry_Int_Tables_number   1
_chemical_formula_structural   Cu3NiC8
_chemical_formula_sum   'Cu6 Ni2 C16'
_cell_volume   333.43554131
_cell_formula_units_Z   2
loop_
 _symmetry_equiv_pos_site_id
 _symmetry_equiv_pos_as_xyz
  1  'x, y, z'
loop_
 _atom_site_type_symbol
 _atom_site_label
 _atom_site_symmetry_multiplicity
 _atom_site_fract_x
 _atom_site_fract_y
 _atom_site_fract_z
 _atom_site_occupancy
  C  C0  1  0.00000000  0.00000000  0.01971400  1
  C  C1  1  0.00000000  0.00000000  0.51971400  1
  Ni  Ni2  1  0.33333300  0.66666700  0.17346300  1
  Ni  Ni3  1  0.66666700  0.33333300  0.67346300  1
  Cu  Cu4  1  0.08792500  0.73269700  0.70118100  1
  Cu  Cu5  1  0.26730300  0.35522800  0.70118100  1
  Cu  Cu6  1  0.64477200  0.91207500  0.70118100  1
  Cu  Cu7  1  0.35522800  0.08792500  0.20118100  1
  Cu  Cu8  1  0.73269700  0.64477200  0.20118100  1
  Cu  Cu9  1  0.91207500  0.26730300  0.20118100  1
  C  C10  1  0.08273800  0.85517800  0.32780300  1
  C  C11  1  0.13084200  0.53103800  0.05013100  1
  C  C12  1  0.40019700  0.86915800  0.05013100  1
  C  C13  1  0.33333300  0.66666700  0.48727800  1
  C  C14  1  0.14482200  0.22756000  0.32780300  1
  C  C15  1  0.46896200  0.59980300  0.05013100  1
  C  C16  1  0.22756000  0.08273800  0.82780300  1
  C  C17  1  0.77244000  0.91726200  0.32780300  1
  C  C18  1  0.53103800  0.40019700  0.55013100  1
  C  C19  1  0.85517800  0.77244000  0.82780300  1
  C  C20  1  0.66666700  0.33333300  0.98727800  1
  C  C21  1  0.59980300  0.13084200  0.55013100  1
  C  C22  1  0.86915800  0.46896200  0.55013100  1
  C  C23  1  0.91726200  0.14482200  0.82780300  1
