# generated using pymatgen
data_CuNiC3
_symmetry_space_group_name_H-M   'P 1'
_cell_length_a   5.51997100
_cell_length_b   9.74505700
_cell_length_c   9.85231600
_cell_angle_alpha   90.00000000
_cell_angle_beta   90.00000000
_cell_angle_gamma   90.00000000
_symmetry_Int_Tables_number   1
_chemical_formula_structural   CuNiC3
_chemical_formula_sum   'Cu8 Ni8 C24'
_cell_volume   529.98003880
_cell_formula_units_Z   8
loop_
 _symmetry_equiv_pos_site_id
 _symmetry_equiv_pos_as_xyz
  1  'x, y, z'
loop_
 _atom_site_type_symbol
 _atom_site_label
 _atom_site_symmetry_multiplicity
 _atom_site_fract_x
 _atom_site_fract_y
 _atom_site_fract_z
 _atom_site_occupancy
  Ni  Ni0  1  0.25000000  0.89739800  0.00000000  1
  Ni  Ni1  1  0.25000000  0.27774200  0.00000000  1
  Ni  Ni2  1  0.75000000  0.72225800  0.00000000  1
  Ni  Ni3  1  0.75000000  0.10260200  0.00000000  1
  Ni  Ni4  1  0.25000000  0.39739800  0.50000000  1
  Ni  Ni5  1  0.25000000  0.77774200  0.50000000  1
  Ni  Ni6  1  0.75000000  0.22225800  0.50000000  1
  Ni  Ni7  1  0.75000000  0.60260200  0.50000000  1
  Cu  Cu8  1  0.08336200  0.58326100  0.20979500  1
  Cu  Cu9  1  0.58336200  0.41673900  0.20979500  1
  Cu  Cu10  1  0.08336200  0.08326100  0.29020500  1
  Cu  Cu11  1  0.58336200  0.91673900  0.29020500  1
  Cu  Cu12  1  0.41663800  0.08326100  0.70979500  1
  Cu  Cu13  1  0.91663800  0.91673900  0.70979500  1
  Cu  Cu14  1  0.91663800  0.41673900  0.79020500  1
  Cu  Cu15  1  0.41663800  0.58326100  0.79020500  1
  C  C16  1  0.09105600  0.09037500  0.12463000  1
  C  C17  1  0.59105600  0.90962500  0.12463000  1
  C  C18  1  0.56819200  0.27025200  0.13163500  1
  C  C19  1  0.06819200  0.72974800  0.13163500  1
  C  C20  1  0.82683700  0.50439000  0.15818300  1
  C  C21  1  0.32683700  0.49561000  0.15818300  1
  C  C22  1  0.32683700  0.99561000  0.34181700  1
  C  C23  1  0.82683700  0.00439000  0.34181700  1
  C  C24  1  0.06819200  0.22974800  0.36836500  1
  C  C25  1  0.56819200  0.77025200  0.36836500  1
  C  C26  1  0.09105600  0.59037500  0.37537000  1
  C  C27  1  0.59105600  0.40962500  0.37537000  1
  C  C28  1  0.90894400  0.40962500  0.62463000  1
  C  C29  1  0.40894400  0.59037500  0.62463000  1
  C  C30  1  0.43180800  0.22974800  0.63163500  1
  C  C31  1  0.93180800  0.77025200  0.63163500  1
  C  C32  1  0.17316300  0.99561000  0.65818300  1
  C  C33  1  0.67316300  0.00439000  0.65818300  1
  C  C34  1  0.17316300  0.49561000  0.84181700  1
  C  C35  1  0.67316300  0.50439000  0.84181700  1
  C  C36  1  0.93180800  0.27025200  0.86836500  1
  C  C37  1  0.43180800  0.72974800  0.86836500  1
  C  C38  1  0.40894400  0.09037500  0.87537000  1
  C  C39  1  0.90894400  0.90962500  0.87537000  1
