# generated using pymatgen
data_Cu7Ni3C5
_symmetry_space_group_name_H-M   'P 1'
_cell_length_a   4.82493200
_cell_length_b   4.83426700
_cell_length_c   16.36254810
_cell_angle_alpha   73.01393963
_cell_angle_beta   90.00000000
_cell_angle_gamma   90.00000000
_symmetry_Int_Tables_number   1
_chemical_formula_structural   Cu7Ni3C5
_chemical_formula_sum   'Cu14 Ni6 C10'
_cell_volume   365.00714981
_cell_formula_units_Z   2
loop_
 _symmetry_equiv_pos_site_id
 _symmetry_equiv_pos_as_xyz
  1  'x, y, z'
loop_
 _atom_site_type_symbol
 _atom_site_label
 _atom_site_symmetry_multiplicity
 _atom_site_fract_x
 _atom_site_fract_y
 _atom_site_fract_z
 _atom_site_occupancy
  C  C0  1  0.24550300  0.00340200  0.00047200  1
  C  C1  1  0.25992100  0.17141000  0.80599900  1
  C  C2  1  0.27066700  0.37627400  0.59998500  1
  C  C3  1  0.22758200  0.64947200  0.39277600  1
  C  C4  1  0.27566700  0.82331800  0.19824800  1
  C  C5  1  0.77241800  0.64947200  0.89277600  1
  C  C6  1  0.75449700  0.00340200  0.50047200  1
  C  C7  1  0.72433300  0.82331800  0.69824800  1
  C  C8  1  0.74007900  0.17141000  0.30599900  1
  C  C9  1  0.72933300  0.37627400  0.09998500  1
  Ni  Ni10  1  0.42927500  0.88537000  0.29896500  1
  Ni  Ni11  1  0.42451900  0.07781200  0.09641800  1
  Ni  Ni12  1  0.94064700  0.90101800  0.40938100  1
  Ni  Ni13  1  0.57072500  0.88537000  0.79896500  1
  Ni  Ni14  1  0.57548100  0.07781200  0.59641800  1
  Ni  Ni15  1  0.05935300  0.90101800  0.90938100  1
  Cu  Cu16  1  0.46561800  0.30668800  0.90817200  1
  Cu  Cu17  1  0.45697400  0.49357000  0.70134700  1
  Cu  Cu18  1  0.44775400  0.70497000  0.49588100  1
  Cu  Cu19  1  0.94872400  0.31436400  0.99392300  1
  Cu  Cu20  1  0.95320000  0.50893300  0.79789500  1
  Cu  Cu21  1  0.95030500  0.69568600  0.60173500  1
  Cu  Cu22  1  0.94909800  0.08771300  0.19880100  1
  Cu  Cu23  1  0.55224600  0.70497000  0.99588100  1
  Cu  Cu24  1  0.53438200  0.30668800  0.40817200  1
  Cu  Cu25  1  0.54302600  0.49357000  0.20134700  1
  Cu  Cu26  1  0.05127600  0.31436400  0.49392300  1
  Cu  Cu27  1  0.05090200  0.08771300  0.69880100  1
  Cu  Cu28  1  0.04969500  0.69568600  0.10173500  1
  Cu  Cu29  1  0.04680000  0.50893300  0.29789500  1
