# generated using pymatgen
data_Cu2NiC33
_symmetry_space_group_name_H-M   'P 1'
_cell_length_a   8.48152107
_cell_length_b   8.48152107
_cell_length_c   8.48152090
_cell_angle_alpha   60.96258392
_cell_angle_beta   60.96258392
_cell_angle_gamma   60.96258506
_symmetry_Int_Tables_number   1
_chemical_formula_structural   Cu2NiC33
_chemical_formula_sum   'Cu2 Ni1 C33'
_cell_volume   440.78249693
_cell_formula_units_Z   1
loop_
 _symmetry_equiv_pos_site_id
 _symmetry_equiv_pos_as_xyz
  1  'x, y, z'
loop_
 _atom_site_type_symbol
 _atom_site_label
 _atom_site_symmetry_multiplicity
 _atom_site_fract_x
 _atom_site_fract_y
 _atom_site_fract_z
 _atom_site_occupancy
  C  C0  1  0.14367900  0.14367900  0.14367900  1
  C  C1  1  0.35520400  0.35520400  0.35520400  1
  C  C2  1  0.64363400  0.64363400  0.64363400  1
  Ni  Ni3  1  0.85573400  0.85573400  0.85573400  1
  Cu  Cu4  1  0.99958500  0.99958500  0.99958500  1
  Cu  Cu5  1  0.49992800  0.49992800  0.49992800  1
  C  C6  1  0.75034300  0.04461900  0.45601500  1
  C  C7  1  0.04461900  0.45601500  0.75034300  1
  C  C8  1  0.45601500  0.75034300  0.04461900  1
  C  C9  1  0.54576600  0.24877100  0.95233700  1
  C  C10  1  0.95233700  0.54576600  0.24877100  1
  C  C11  1  0.24877100  0.95233700  0.54576600  1
  C  C12  1  0.31709300  0.10908300  0.50572600  1
  C  C13  1  0.50572600  0.31709300  0.10908300  1
  C  C14  1  0.90845600  0.05920900  0.25610700  1
  C  C15  1  0.10908300  0.50572600  0.31709300  1
  C  C16  1  0.81359700  0.01641800  0.61166500  1
  C  C17  1  0.59207500  0.24533800  0.43696900  1
  C  C18  1  0.05920900  0.25610700  0.90845600  1
  C  C19  1  0.24533800  0.43696900  0.59207500  1
  C  C20  1  0.38895700  0.18185400  0.99326400  1
  C  C21  1  0.43696900  0.59207500  0.24533800  1
  C  C22  1  0.74441000  0.08891300  0.94416000  1
  C  C23  1  0.99326400  0.38895700  0.18185400  1
  C  C24  1  0.01641800  0.61166500  0.81359700  1
  C  C25  1  0.25610700  0.90845600  0.05920900  1
  C  C26  1  0.56180500  0.40711500  0.75380800  1
  C  C27  1  0.61166500  0.81359700  0.01641800  1
  C  C28  1  0.75380800  0.56180500  0.40711500  1
  C  C29  1  0.94416000  0.74441000  0.08891300  1
  C  C30  1  0.40711500  0.75380800  0.56180500  1
  C  C31  1  0.18185400  0.99326400  0.38895700  1
  C  C32  1  0.88808000  0.49721900  0.68306900  1
  C  C33  1  0.08891300  0.94416000  0.74441000  1
  C  C34  1  0.49721900  0.68306900  0.88808000  1
  C  C35  1  0.68306900  0.88808000  0.49721900  1
