# generated using pymatgen
data_CuNi2C7
_symmetry_space_group_name_H-M   'P 1'
_cell_length_a   7.63610800
_cell_length_b   12.96505700
_cell_length_c   15.38446600
_cell_angle_alpha   90.00000000
_cell_angle_beta   90.00000000
_cell_angle_gamma   90.00000000
_symmetry_Int_Tables_number   1
_chemical_formula_structural   CuNi2C7
_chemical_formula_sum   'Cu4 Ni8 C28'
_cell_volume   1523.10175636
_cell_formula_units_Z   4
loop_
 _symmetry_equiv_pos_site_id
 _symmetry_equiv_pos_as_xyz
  1  'x, y, z'
loop_
 _atom_site_type_symbol
 _atom_site_label
 _atom_site_symmetry_multiplicity
 _atom_site_fract_x
 _atom_site_fract_y
 _atom_site_fract_z
 _atom_site_occupancy
  Ni  Ni0  1  0.25000000  0.25673500  0.45551900  1
  Ni  Ni1  1  0.25000000  0.25907100  0.74368800  1
  Ni  Ni2  1  0.75000000  0.24092900  0.24368800  1
  Ni  Ni3  1  0.75000000  0.24326500  0.95551900  1
  Ni  Ni4  1  0.25000000  0.75673500  0.04448100  1
  Ni  Ni5  1  0.25000000  0.75907100  0.75631200  1
  Ni  Ni6  1  0.75000000  0.74092900  0.25631200  1
  Ni  Ni7  1  0.75000000  0.74326500  0.54448100  1
  Cu  Cu8  1  0.25000000  0.94093900  0.30641900  1
  Cu  Cu9  1  0.75000000  0.55906100  0.80641900  1
  Cu  Cu10  1  0.25000000  0.44093900  0.19358100  1
  Cu  Cu11  1  0.75000000  0.05906100  0.69358100  1
  C  C12  1  0.75000000  0.09419000  0.09868700  1
  C  C13  1  0.02810200  0.09670600  0.34247000  1
  C  C14  1  0.47189800  0.09670600  0.34247000  1
  C  C15  1  0.96793300  0.10904700  0.82347900  1
  C  C16  1  0.53206700  0.10904700  0.82347900  1
  C  C17  1  0.52231900  0.16973300  0.60176500  1
  C  C18  1  0.97768100  0.16973300  0.60176500  1
  C  C19  1  0.02231900  0.33026700  0.10176500  1
  C  C20  1  0.47768100  0.33026700  0.10176500  1
  C  C21  1  0.03206700  0.39095300  0.32347900  1
  C  C22  1  0.46793300  0.39095300  0.32347900  1
  C  C23  1  0.97189800  0.40329400  0.84247000  1
  C  C24  1  0.52810200  0.40329400  0.84247000  1
  C  C25  1  0.25000000  0.40581000  0.59868700  1
  C  C26  1  0.75000000  0.59419000  0.40131300  1
  C  C27  1  0.02810200  0.59670600  0.15753000  1
  C  C28  1  0.47189800  0.59670600  0.15753000  1
  C  C29  1  0.96793300  0.60904700  0.67652100  1
  C  C30  1  0.53206700  0.60904700  0.67652100  1
  C  C31  1  0.97768100  0.66973300  0.89823500  1
  C  C32  1  0.52231900  0.66973300  0.89823500  1
  C  C33  1  0.47768100  0.83026700  0.39823500  1
  C  C34  1  0.02231900  0.83026700  0.39823500  1
  C  C35  1  0.46793300  0.89095300  0.17652100  1
  C  C36  1  0.03206700  0.89095300  0.17652100  1
  C  C37  1  0.52810200  0.90329400  0.65753000  1
  C  C38  1  0.97189800  0.90329400  0.65753000  1
  C  C39  1  0.25000000  0.90581000  0.90131300  1
