# generated using pymatgen
data_Cu6NiC29
_symmetry_space_group_name_H-M   'P 1'
_cell_length_a   8.57281109
_cell_length_b   8.57281109
_cell_length_c   8.57281069
_cell_angle_alpha   60.90910713
_cell_angle_beta   60.90910713
_cell_angle_gamma   60.90910439
_symmetry_Int_Tables_number   1
_chemical_formula_structural   Cu6NiC29
_chemical_formula_sum   'Cu6 Ni1 C29'
_cell_volume   454.63568834
_cell_formula_units_Z   1
loop_
 _symmetry_equiv_pos_site_id
 _symmetry_equiv_pos_as_xyz
  1  'x, y, z'
loop_
 _atom_site_type_symbol
 _atom_site_label
 _atom_site_symmetry_multiplicity
 _atom_site_fract_x
 _atom_site_fract_y
 _atom_site_fract_z
 _atom_site_occupancy
  C  C0  1  0.00566500  0.00566500  0.00566500  1
  C  C1  1  0.35593400  0.35593400  0.35593400  1
  C  C2  1  0.49946600  0.49946600  0.49946600  1
  C  C3  1  0.14433200  0.14433200  0.14433200  1
  C  C4  1  0.64200100  0.64200100  0.64200100  1
  Ni  Ni5  1  0.85753900  0.85753900  0.85753900  1
  Cu  Cu6  1  0.74493300  0.04532800  0.45512300  1
  Cu  Cu7  1  0.04532800  0.45512300  0.74493300  1
  Cu  Cu8  1  0.45512300  0.74493300  0.04532800  1
  Cu  Cu9  1  0.53948600  0.25219400  0.95541600  1
  Cu  Cu10  1  0.95541600  0.53948600  0.25219400  1
  Cu  Cu11  1  0.25219400  0.95541600  0.53948600  1
  C  C12  1  0.88803100  0.50381500  0.67851800  1
  C  C13  1  0.50381500  0.67851800  0.88803100  1
  C  C14  1  0.67851800  0.88803100  0.50381500  1
  C  C15  1  0.90917400  0.05768400  0.26406100  1
  C  C16  1  0.81293400  0.01002000  0.61435600  1
  C  C17  1  0.58912100  0.24079900  0.44268400  1
  C  C18  1  0.05768400  0.26406100  0.90917400  1
  C  C19  1  0.24079900  0.44268400  0.58912100  1
  C  C20  1  0.39069800  0.17795400  0.99579900  1
  C  C21  1  0.44268400  0.58912100  0.24079900  1
  C  C22  1  0.74383400  0.08676600  0.93993200  1
  C  C23  1  0.99579900  0.39069800  0.17795400  1
  C  C24  1  0.01002000  0.61435600  0.81293400  1
  C  C25  1  0.26406100  0.90917400  0.05768400  1
  C  C26  1  0.56294300  0.40518600  0.75728000  1
  C  C27  1  0.61435600  0.81293400  0.01002000  1
  C  C28  1  0.75728000  0.56294300  0.40518600  1
  C  C29  1  0.93993200  0.74383400  0.08676600  1
  C  C30  1  0.40518600  0.75728000  0.56294300  1
  C  C31  1  0.17795400  0.99579900  0.39069800  1
  C  C32  1  0.08676600  0.93993200  0.74383400  1
  C  C33  1  0.31037500  0.11210400  0.50850200  1
  C  C34  1  0.50850200  0.31037500  0.11210400  1
  C  C35  1  0.11210400  0.50850200  0.31037500  1
