# generated using pymatgen
data_CuNiC5
_symmetry_space_group_name_H-M   'P 1'
_cell_length_a   20.47084800
_cell_length_b   6.08254600
_cell_length_c   9.53887195
_cell_angle_alpha   56.83349819
_cell_angle_beta   90.00000000
_cell_angle_gamma   90.00000000
_symmetry_Int_Tables_number   1
_chemical_formula_structural   CuNiC5
_chemical_formula_sum   'Cu8 Ni8 C40'
_cell_volume   994.23135145
_cell_formula_units_Z   8
loop_
 _symmetry_equiv_pos_site_id
 _symmetry_equiv_pos_as_xyz
  1  'x, y, z'
loop_
 _atom_site_type_symbol
 _atom_site_label
 _atom_site_symmetry_multiplicity
 _atom_site_fract_x
 _atom_site_fract_y
 _atom_site_fract_z
 _atom_site_occupancy
  Ni  Ni0  1  0.54965800  0.37587000  0.76539100  1
  Ni  Ni1  1  0.27551600  0.80843300  0.46800500  1
  Ni  Ni2  1  0.04965800  0.62413000  0.73460900  1
  Ni  Ni3  1  0.77551600  0.19156700  0.03199500  1
  Ni  Ni4  1  0.22448400  0.80843300  0.96800500  1
  Ni  Ni5  1  0.95034200  0.37587000  0.26539100  1
  Ni  Ni6  1  0.72448400  0.19156700  0.53199500  1
  Ni  Ni7  1  0.45034200  0.62413000  0.23460900  1
  Cu  Cu8  1  0.36954600  0.30381600  0.97320900  1
  Cu  Cu9  1  0.86954600  0.69618400  0.52679100  1
  Cu  Cu10  1  0.09886900  0.05650100  0.15077600  1
  Cu  Cu11  1  0.59886900  0.94349900  0.34922400  1
  Cu  Cu12  1  0.40113100  0.05650100  0.65077600  1
  Cu  Cu13  1  0.90113100  0.94349900  0.84922400  1
  Cu  Cu14  1  0.13045400  0.30381600  0.47320900  1
  Cu  Cu15  1  0.63045400  0.69618400  0.02679100  1
  C  C16  1  0.11686200  0.13093300  0.90377800  1
  C  C17  1  0.36620500  0.46364800  0.51841500  1
  C  C18  1  0.15646200  0.56103900  0.55481600  1
  C  C19  1  0.92468800  0.36754300  0.74533200  1
  C  C20  1  0.58607400  0.93546100  0.12120500  1
  C  C21  1  0.34072900  0.92080700  0.18582800  1
  C  C22  1  0.28408700  0.31115600  0.83511700  1
  C  C23  1  0.19954100  0.90196200  0.20929500  1
  C  C24  1  0.96798400  0.79569000  0.42327300  1
  C  C25  1  0.50508900  0.76197400  0.43956800  1
  C  C26  1  0.78408700  0.68884400  0.66488300  1
  C  C27  1  0.00508900  0.23802600  0.06043200  1
  C  C28  1  0.46798400  0.20431000  0.07672700  1
  C  C29  1  0.69954100  0.09803800  0.29070500  1
  C  C30  1  0.42468800  0.63245700  0.75466800  1
  C  C31  1  0.65646200  0.43896100  0.94518400  1
  C  C32  1  0.84072900  0.07919300  0.31417200  1
  C  C33  1  0.08607400  0.06453900  0.37879500  1
  C  C34  1  0.86620500  0.53635200  0.98158500  1
  C  C35  1  0.61686200  0.86906700  0.59622200  1
  C  C36  1  0.38313800  0.13093300  0.40377800  1
  C  C37  1  0.13379500  0.46364800  0.01841500  1
  C  C38  1  0.91392600  0.93546100  0.62120500  1
  C  C39  1  0.15927100  0.92080700  0.68582800  1
  C  C40  1  0.34353800  0.56103900  0.05481600  1
  C  C41  1  0.57531200  0.36754300  0.24533200  1
  C  C42  1  0.30045900  0.90196200  0.70929500  1
  C  C43  1  0.53201600  0.79569000  0.92327300  1
  C  C44  1  0.99491100  0.76197400  0.93956800  1
  C  C45  1  0.21591300  0.31115600  0.33511700  1
  C  C46  1  0.49491100  0.23802600  0.56043200  1
  C  C47  1  0.03201600  0.20431000  0.57672700  1
  C  C48  1  0.80045900  0.09803800  0.79070500  1
  C  C49  1  0.71591300  0.68884400  0.16488300  1
  C  C50  1  0.65927100  0.07919300  0.81417200  1
  C  C51  1  0.41392600  0.06453900  0.87879500  1
  C  C52  1  0.07531200  0.63245700  0.25466800  1
  C  C53  1  0.84353800  0.43896100  0.44518400  1
  C  C54  1  0.63379500  0.53635200  0.48158500  1
  C  C55  1  0.88313800  0.86906700  0.09622200  1
