# generated using pymatgen
data_CuNiC6
_symmetry_space_group_name_H-M   'P 1'
_cell_length_a   11.03472000
_cell_length_b   5.12523500
_cell_length_c   8.23192529
_cell_angle_alpha   51.81975428
_cell_angle_beta   90.00000000
_cell_angle_gamma   90.00000000
_symmetry_Int_Tables_number   1
_chemical_formula_structural   CuNiC6
_chemical_formula_sum   'Cu4 Ni4 C24'
_cell_volume   365.96350285
_cell_formula_units_Z   4
loop_
 _symmetry_equiv_pos_site_id
 _symmetry_equiv_pos_as_xyz
  1  'x, y, z'
loop_
 _atom_site_type_symbol
 _atom_site_label
 _atom_site_symmetry_multiplicity
 _atom_site_fract_x
 _atom_site_fract_y
 _atom_site_fract_z
 _atom_site_occupancy
  C  C0  1  0.66415000  0.68393100  0.50592200  1
  C  C1  1  0.42275600  0.46547100  0.73822100  1
  C  C2  1  0.92275600  0.53452900  0.76177900  1
  C  C3  1  0.16415000  0.31606900  0.99407800  1
  C  C4  1  0.83585000  0.68393100  0.00592200  1
  C  C5  1  0.07724400  0.46547100  0.23822100  1
  C  C6  1  0.57724400  0.53452900  0.26177900  1
  C  C7  1  0.33585000  0.31606900  0.49407800  1
  Ni  Ni8  1  0.08572100  0.06738100  0.74606300  1
  Ni  Ni9  1  0.58572100  0.93261900  0.75393700  1
  Ni  Ni10  1  0.41427900  0.06738100  0.24606300  1
  Ni  Ni11  1  0.91427900  0.93261900  0.25393700  1
  Cu  Cu12  1  0.83368400  0.18440300  0.50372500  1
  Cu  Cu13  1  0.33368400  0.81559700  0.99627500  1
  Cu  Cu14  1  0.66631600  0.18440300  0.00372500  1
  Cu  Cu15  1  0.16631600  0.81559700  0.49627500  1
  C  C16  1  0.16214300  0.17519500  0.52043300  1
  C  C17  1  0.66626200  0.26176900  0.53018300  1
  C  C18  1  0.43310600  0.04425400  0.74948100  1
  C  C19  1  0.09040200  0.42425400  0.73803100  1
  C  C20  1  0.59040200  0.57574600  0.76196900  1
  C  C21  1  0.93310600  0.95574600  0.75051900  1
  C  C22  1  0.16626200  0.73823100  0.96981700  1
  C  C23  1  0.66214300  0.82480500  0.97956700  1
  C  C24  1  0.33785700  0.17519500  0.02043300  1
  C  C25  1  0.83373800  0.26176900  0.03018300  1
  C  C26  1  0.06689400  0.04425400  0.24948100  1
  C  C27  1  0.40959800  0.42425400  0.23803100  1
  C  C28  1  0.90959800  0.57574600  0.26196900  1
  C  C29  1  0.56689400  0.95574600  0.25051900  1
  C  C30  1  0.33373800  0.73823100  0.46981700  1
  C  C31  1  0.83785700  0.82480500  0.47956700  1
