# generated using pymatgen
data_Cu2Ni3C31
_symmetry_space_group_name_H-M   'P 1'
_cell_length_a   8.47112535
_cell_length_b   8.47112535
_cell_length_c   8.47112621
_cell_angle_alpha   61.60271836
_cell_angle_beta   61.60271836
_cell_angle_gamma   61.60271990
_symmetry_Int_Tables_number   1
_chemical_formula_structural   Cu2Ni3C31
_chemical_formula_sum   'Cu2 Ni3 C31'
_cell_volume   445.29473839
_cell_formula_units_Z   1
loop_
 _symmetry_equiv_pos_site_id
 _symmetry_equiv_pos_as_xyz
  1  'x, y, z'
loop_
 _atom_site_type_symbol
 _atom_site_label
 _atom_site_symmetry_multiplicity
 _atom_site_fract_x
 _atom_site_fract_y
 _atom_site_fract_z
 _atom_site_occupancy
  C  C0  1  0.14743800  0.14743800  0.14743800  1
  Ni  Ni1  1  0.64781000  0.64781000  0.64781000  1
  Ni  Ni2  1  0.85151000  0.85151000  0.85151000  1
  Ni  Ni3  1  0.35394800  0.35394800  0.35394800  1
  Cu  Cu4  1  0.99775700  0.99775700  0.99775700  1
  Cu  Cu5  1  0.49852600  0.49852600  0.49852600  1
  C  C6  1  0.95597300  0.25189100  0.54524400  1
  C  C7  1  0.54524400  0.95597300  0.25189100  1
  C  C8  1  0.25189100  0.54524400  0.95597300  1
  C  C9  1  0.74993300  0.45704300  0.04515500  1
  C  C10  1  0.45704300  0.04515500  0.74993300  1
  C  C11  1  0.04515500  0.74993300  0.45704300  1
  C  C12  1  0.50859200  0.10376400  0.32327600  1
  C  C13  1  0.32327700  0.50859200  0.10376400  1
  C  C14  1  0.10376400  0.32327700  0.50859200  1
  C  C15  1  0.93335800  0.09511000  0.74739400  1
  C  C16  1  0.00263500  0.17531300  0.38748500  1
  C  C17  1  0.75319600  0.40331200  0.55375700  1
  C  C18  1  0.74739400  0.93335800  0.09511000  1
  C  C19  1  0.55375700  0.75319600  0.40331200  1
  C  C20  1  0.82416500  0.60185900  0.01359800  1
  C  C21  1  0.40331200  0.55375700  0.75319600  1
  C  C22  1  0.91285900  0.24846300  0.06798500  1
  C  C23  1  0.60185900  0.01359800  0.82416500  1
  C  C24  1  0.38748500  0.00263500  0.17531300  1
  C  C25  1  0.09511000  0.74739400  0.93335800  1
  C  C26  1  0.59783400  0.43025100  0.25117300  1
  C  C27  1  0.17531300  0.38748500  0.00263500  1
  C  C28  1  0.43025100  0.25117300  0.59783400  1
  C  C29  1  0.24846300  0.06798500  0.91285900  1
  C  C30  1  0.25117300  0.59783400  0.43025100  1
  C  C31  1  0.01359800  0.82416500  0.60185900  1
  C  C32  1  0.06798500  0.91285900  0.24846300  1
  C  C33  1  0.89596900  0.68579800  0.48061500  1
  C  C34  1  0.68579800  0.48061500  0.89596900  1
  C  C35  1  0.48061500  0.89596900  0.68579800  1
