# generated using pymatgen
data_Cu4Ni3C17
_symmetry_space_group_name_H-M   'P 1'
_cell_length_a   4.89385151
_cell_length_b   10.17102120
_cell_length_c   6.85555853
_cell_angle_alpha   89.95998115
_cell_angle_beta   90.15569799
_cell_angle_gamma   94.51696624
_symmetry_Int_Tables_number   1
_chemical_formula_structural   Cu4Ni3C17
_chemical_formula_sum   'Cu4 Ni3 C17'
_cell_volume   340.17746684
_cell_formula_units_Z   1
loop_
 _symmetry_equiv_pos_site_id
 _symmetry_equiv_pos_as_xyz
  1  'x, y, z'
loop_
 _atom_site_type_symbol
 _atom_site_label
 _atom_site_symmetry_multiplicity
 _atom_site_fract_x
 _atom_site_fract_y
 _atom_site_fract_z
 _atom_site_occupancy
  C  C0  1  0.93111500  0.27130000  0.24853100  1
  Ni  Ni1  1  0.09495900  0.71547800  0.75067300  1
  Ni  Ni2  1  0.40629200  0.20134400  0.74920500  1
  Ni  Ni3  1  0.58873100  0.79702200  0.25085400  1
  Cu  Cu4  1  0.11734900  0.59910200  0.24967100  1
  Cu  Cu5  1  0.32227100  0.10158100  0.25038100  1
  Cu  Cu6  1  0.69056600  0.91128200  0.74959900  1
  Cu  Cu7  1  0.86934400  0.39085400  0.75054300  1
  C  C8  1  0.12328600  0.44944100  0.25017700  1
  C  C9  1  0.28327800  0.66909600  0.07565900  1
  C  C10  1  0.28556300  0.66934600  0.42295000  1
  C  C11  1  0.18086800  0.37457500  0.74997500  1
  C  C12  1  0.37437300  0.89958700  0.75034800  1
  C  C13  1  0.18652000  0.17648500  0.07666800  1
  C  C14  1  0.18783700  0.17660600  0.42384100  1
  C  C15  1  0.24842600  0.95396900  0.25043300  1
  C  C16  1  0.79249600  0.05557800  0.74958400  1
  C  C17  1  0.80672200  0.82738300  0.57487700  1
  C  C18  1  0.80920400  0.82712300  0.92354800  1
  C  C19  1  0.63454500  0.13252600  0.25027900  1
  C  C20  1  0.81467700  0.62932200  0.25030000  1
  C  C21  1  0.71955700  0.31724300  0.57124700  1
  C  C22  1  0.72141500  0.31722300  0.93015500  1
  C  C23  1  0.81060800  0.53653600  0.75050200  1
