# generated using pymatgen
data_CuNiC5
_symmetry_space_group_name_H-M   'P 1'
_cell_length_a   8.71254226
_cell_length_b   8.71254226
_cell_length_c   8.09886200
_cell_angle_alpha   90.00000000
_cell_angle_beta   90.00000000
_cell_angle_gamma   120.00000195
_symmetry_Int_Tables_number   1
_chemical_formula_structural   CuNiC5
_chemical_formula_sum   'Cu6 Ni6 C30'
_cell_volume   532.40780930
_cell_formula_units_Z   6
loop_
 _symmetry_equiv_pos_site_id
 _symmetry_equiv_pos_as_xyz
  1  'x, y, z'
loop_
 _atom_site_type_symbol
 _atom_site_label
 _atom_site_symmetry_multiplicity
 _atom_site_fract_x
 _atom_site_fract_y
 _atom_site_fract_z
 _atom_site_occupancy
  C  C0  1  0.33333300  0.66666700  0.26364100  1
  C  C1  1  0.33333300  0.66666700  0.71546000  1
  C  C2  1  0.00000000  0.00000000  0.11301300  1
  C  C3  1  0.00000000  0.00000000  0.61301300  1
  C  C4  1  0.66666700  0.33333300  0.76364100  1
  C  C5  1  0.66666700  0.33333300  0.21546000  1
  Ni  Ni6  1  0.02934600  0.68815800  0.40325200  1
  Ni  Ni7  1  0.31184200  0.34118800  0.40325200  1
  Ni  Ni8  1  0.65881200  0.97065400  0.40325200  1
  Ni  Ni9  1  0.34118800  0.02934600  0.90325200  1
  Ni  Ni10  1  0.68815800  0.65881200  0.90325200  1
  Ni  Ni11  1  0.97065400  0.31184200  0.90325200  1
  Cu  Cu12  1  0.03990400  0.68525100  0.01765100  1
  Cu  Cu13  1  0.31474900  0.35465300  0.01765100  1
  Cu  Cu14  1  0.64534700  0.96009600  0.01765100  1
  Cu  Cu15  1  0.35465300  0.03990400  0.51765100  1
  Cu  Cu16  1  0.68525100  0.64534700  0.51765100  1
  Cu  Cu17  1  0.96009600  0.31474900  0.51765100  1
  C  C18  1  0.13656900  0.90962900  0.51596200  1
  C  C19  1  0.14608500  0.73097800  0.19573600  1
  C  C20  1  0.09255200  0.52931800  0.49730500  1
  C  C21  1  0.19496300  0.77906900  0.87401500  1
  C  C22  1  0.22093100  0.41589400  0.87401500  1
  C  C23  1  0.43676600  0.90744800  0.49730500  1
  C  C24  1  0.09037100  0.22694000  0.51596200  1
  C  C25  1  0.26902200  0.41510700  0.19573600  1
  C  C26  1  0.58489300  0.85391500  0.19573600  1
  C  C27  1  0.47068200  0.56323400  0.49730500  1
  C  C28  1  0.22694000  0.13656900  0.01596200  1
  C  C29  1  0.58410600  0.80503700  0.87401500  1
  C  C30  1  0.41589400  0.19496300  0.37401500  1
  C  C31  1  0.77306000  0.86343100  0.51596200  1
  C  C32  1  0.52931800  0.43676600  0.99730500  1
  C  C33  1  0.41510700  0.14608500  0.69573600  1
  C  C34  1  0.73097800  0.58489300  0.69573600  1
  C  C35  1  0.90962900  0.77306000  0.01596200  1
  C  C36  1  0.56323400  0.09255200  0.99730500  1
  C  C37  1  0.77906900  0.58410600  0.37401500  1
  C  C38  1  0.80503700  0.22093100  0.37401500  1
  C  C39  1  0.90744800  0.47068200  0.99730500  1
  C  C40  1  0.85391500  0.26902200  0.69573600  1
  C  C41  1  0.86343100  0.09037100  0.01596200  1
