# generated using pymatgen
data_Cu3Ni2C23
_symmetry_space_group_name_H-M   'P 1'
_cell_length_a   6.11290591
_cell_length_b   6.11290591
_cell_length_c   10.01914797
_cell_angle_alpha   89.90885349
_cell_angle_beta   89.90885349
_cell_angle_gamma   60.37333208
_symmetry_Int_Tables_number   1
_chemical_formula_structural   Cu3Ni2C23
_chemical_formula_sum   'Cu3 Ni2 C23'
_cell_volume   325.44502558
_cell_formula_units_Z   1
loop_
 _symmetry_equiv_pos_site_id
 _symmetry_equiv_pos_as_xyz
  1  'x, y, z'
loop_
 _atom_site_type_symbol
 _atom_site_label
 _atom_site_symmetry_multiplicity
 _atom_site_fract_x
 _atom_site_fract_y
 _atom_site_fract_z
 _atom_site_occupancy
  C  C0  1  0.32843700  0.32843700  0.09920200  1
  C  C1  1  0.99202100  0.99202100  0.99418800  1
  C  C2  1  0.99071100  0.99071100  0.50934700  1
  C  C3  1  0.66309100  0.66309100  0.63101700  1
  Ni  Ni4  1  0.34596400  0.34596400  0.52035100  1
  Ni  Ni5  1  0.67388300  0.67388300  0.98330700  1
  Cu  Cu6  1  0.66385700  0.16883800  0.78508400  1
  Cu  Cu7  1  0.16883800  0.66385700  0.78508400  1
  Cu  Cu8  1  0.83252000  0.83252000  0.28338400  1
  C  C9  1  0.16933100  0.16933100  0.78437800  1
  C  C10  1  0.83281300  0.33739700  0.28349800  1
  C  C11  1  0.33739700  0.83281300  0.28349800  1
  C  C12  1  0.69474100  0.15996500  0.39120100  1
  C  C13  1  0.48398200  0.48398200  0.67289400  1
  C  C14  1  0.33181700  0.33181700  0.89396400  1
  C  C15  1  0.00135500  0.00135500  0.68681200  1
  C  C16  1  0.00067400  0.00067400  0.18013500  1
  C  C17  1  0.15996500  0.69474100  0.39120100  1
  C  C18  1  0.47978700  0.03024200  0.66946600  1
  C  C19  1  0.03024200  0.47978700  0.66946600  1
  C  C20  1  0.84579500  0.84579500  0.89199700  1
  C  C21  1  0.15467200  0.15467200  0.39476800  1
  C  C22  1  0.96843800  0.51071400  0.17390100  1
  C  C23  1  0.51071400  0.96843800  0.17390100  1
  C  C24  1  0.66663100  0.66663100  0.39425400  1
  C  C25  1  0.85266000  0.30783100  0.89665800  1
  C  C26  1  0.51207900  0.51207900  0.17254900  1
  C  C27  1  0.30783100  0.85266000  0.89665800  1
