# generated using pymatgen
data_CuNiC10
_symmetry_space_group_name_H-M   'P 1'
_cell_length_a   6.21251200
_cell_length_b   10.49003101
_cell_length_c   10.08129356
_cell_angle_alpha   118.05557534
_cell_angle_beta   90.00177296
_cell_angle_gamma   89.99955392
_symmetry_Int_Tables_number   1
_chemical_formula_structural   CuNiC10
_chemical_formula_sum   'Cu4 Ni4 C40'
_cell_volume   579.79031201
_cell_formula_units_Z   4
loop_
 _symmetry_equiv_pos_site_id
 _symmetry_equiv_pos_as_xyz
  1  'x, y, z'
loop_
 _atom_site_type_symbol
 _atom_site_label
 _atom_site_symmetry_multiplicity
 _atom_site_fract_x
 _atom_site_fract_y
 _atom_site_fract_z
 _atom_site_occupancy
  C  C0  1  0.52545400  0.21676900  0.18372600  1
  C  C1  1  0.52544100  0.71673100  0.18368100  1
  C  C2  1  0.97456700  0.21674800  0.18373900  1
  C  C3  1  0.97457600  0.71674800  0.18368100  1
  C  C4  1  0.47457700  0.78325600  0.81631300  1
  C  C5  1  0.47456400  0.28324900  0.81626500  1
  C  C6  1  0.02543600  0.78326000  0.81630900  1
  C  C7  1  0.02544900  0.28324700  0.81627100  1
  C  C8  1  0.74996500  0.05840800  0.32835600  1
  C  C9  1  0.25000900  0.44160200  0.67163900  1
  C  C10  1  0.74996100  0.55828000  0.32835300  1
  C  C11  1  0.24999500  0.94161800  0.67163900  1
  Ni  Ni12  1  0.75001200  0.39999200  0.05949100  1
  Ni  Ni13  1  0.75000000  0.89991700  0.05954300  1
  Ni  Ni14  1  0.25000600  0.60007900  0.94045000  1
  Ni  Ni15  1  0.25001100  0.10003400  0.94050500  1
  Cu  Cu16  1  0.25000800  0.57873100  0.43976400  1
  Cu  Cu17  1  0.24993400  0.07871800  0.43979900  1
  Cu  Cu18  1  0.74999200  0.42127900  0.56021000  1
  Cu  Cu19  1  0.75000500  0.92127300  0.56022900  1
  C  C20  1  0.25000700  0.18515000  0.08714600  1
  C  C21  1  0.25000900  0.68515200  0.08713300  1
  C  C22  1  0.75001800  0.81484400  0.91285500  1
  C  C23  1  0.75000600  0.31486700  0.91288000  1
  C  C24  1  0.75001500  0.55491100  0.13552700  1
  C  C25  1  0.74998500  0.05491200  0.13557000  1
  C  C26  1  0.25000600  0.44509000  0.86441600  1
  C  C27  1  0.25001300  0.94508600  0.86448700  1
  C  C28  1  0.75001400  0.35631900  0.17492600  1
  C  C29  1  0.74998700  0.85629600  0.17490500  1
  C  C30  1  0.25000300  0.64370500  0.82508600  1
  C  C31  1  0.25001100  0.14366700  0.82508100  1
  C  C32  1  0.74997500  0.27754200  0.41360000  1
  C  C33  1  0.75001900  0.77756100  0.41359200  1
  C  C34  1  0.25002500  0.72243900  0.58642000  1
  C  C35  1  0.24998800  0.22247200  0.58639500  1
  C  C36  1  0.25001800  0.45077700  0.47438100  1
  C  C37  1  0.24999100  0.95079700  0.47449800  1
  C  C38  1  0.75001400  0.54920500  0.52550400  1
  C  C39  1  0.74998900  0.04924300  0.52562200  1
  C  C40  1  0.05392900  0.56872400  0.33949300  1
  C  C41  1  0.05384300  0.06861200  0.33952900  1
  C  C42  1  0.44611300  0.56872500  0.33950500  1
  C  C43  1  0.44603600  0.06861500  0.33951400  1
  C  C44  1  0.55390000  0.43139000  0.66047300  1
  C  C45  1  0.55392800  0.93128600  0.66051800  1
  C  C46  1  0.94609200  0.43138000  0.66047100  1
  C  C47  1  0.94610000  0.93129400  0.66051400  1
