# generated using pymatgen
data_Cu6Ni4C19
_symmetry_space_group_name_H-M   'P 1'
_cell_length_a   9.76564413
_cell_length_b   9.76564413
_cell_length_c   14.40702157
_cell_angle_alpha   61.43812188
_cell_angle_beta   61.43812188
_cell_angle_gamma   42.12739040
_symmetry_Int_Tables_number   1
_chemical_formula_structural   Cu6Ni4C19
_chemical_formula_sum   'Cu12 Ni8 C38'
_cell_volume   791.47962837
_cell_formula_units_Z   2
loop_
 _symmetry_equiv_pos_site_id
 _symmetry_equiv_pos_as_xyz
  1  'x, y, z'
loop_
 _atom_site_type_symbol
 _atom_site_label
 _atom_site_symmetry_multiplicity
 _atom_site_fract_x
 _atom_site_fract_y
 _atom_site_fract_z
 _atom_site_occupancy
  C  C0  1  0.18493000  0.36362800  0.87386300  1
  C  C1  1  0.63637200  0.81507000  0.62613700  1
  C  C2  1  0.81507000  0.63637200  0.12613700  1
  C  C3  1  0.36362800  0.18493000  0.37386300  1
  C  C4  1  0.79485000  0.23623000  0.10380400  1
  C  C5  1  0.76377000  0.20515000  0.39619600  1
  C  C6  1  0.20515000  0.76377000  0.89619600  1
  C  C7  1  0.23623000  0.79485000  0.60380400  1
  Ni  Ni8  1  0.04989600  0.23506000  0.71379800  1
  Ni  Ni9  1  0.76494000  0.95010400  0.78620200  1
  Ni  Ni10  1  0.95010400  0.76494000  0.28620200  1
  Ni  Ni11  1  0.23506000  0.04989600  0.21379800  1
  Ni  Ni12  1  0.28107500  0.38305700  0.59233900  1
  Ni  Ni13  1  0.61694300  0.71892500  0.90766100  1
  Ni  Ni14  1  0.71892500  0.61694300  0.40766100  1
  Ni  Ni15  1  0.38305700  0.28107500  0.09233900  1
  Cu  Cu16  1  0.79439300  0.39246500  0.84838400  1
  Cu  Cu17  1  0.60753500  0.20560700  0.65161600  1
  Cu  Cu18  1  0.20560700  0.60753500  0.15161600  1
  Cu  Cu19  1  0.39246500  0.79439300  0.34838400  1
  Cu  Cu20  1  0.09823600  0.61313500  0.46420700  1
  Cu  Cu21  1  0.38686500  0.90176400  0.03579300  1
  Cu  Cu22  1  0.90176400  0.38686500  0.53579300  1
  Cu  Cu23  1  0.61313500  0.09823700  0.96420700  1
  Cu  Cu24  1  0.63588700  0.46248400  0.71317400  1
  Cu  Cu25  1  0.53751600  0.36411300  0.78682600  1
  Cu  Cu26  1  0.36411300  0.53751600  0.28682600  1
  Cu  Cu27  1  0.46248400  0.63588700  0.21317300  1
  C  C28  1  0.92912400  0.24168400  0.83678500  1
  C  C29  1  0.75831600  0.07087600  0.66321500  1
  C  C30  1  0.07087600  0.75831600  0.16321500  1
  C  C31  1  0.24168400  0.92912400  0.33678500  1
  C  C32  1  0.89268700  0.39703600  0.64072800  1
  C  C33  1  0.60296400  0.10731300  0.85927200  1
  C  C34  1  0.10731300  0.60296400  0.35927200  1
  C  C35  1  0.39703600  0.89268700  0.14072800  1
  C  C36  1  0.21700300  0.01443500  0.69863200  1
  C  C37  1  0.98556500  0.78299700  0.80136800  1
  C  C38  1  0.78299700  0.98556500  0.30136800  1
  C  C39  1  0.01443500  0.21700300  0.19863200  1
  C  C40  1  0.15511500  0.31970300  0.70182100  1
  C  C41  1  0.68029700  0.84488500  0.79817900  1
  C  C42  1  0.84488500  0.68029700  0.29817900  1
  C  C43  1  0.31970300  0.15511500  0.20182100  1
  C  C44  1  0.37988700  0.39996900  0.63695900  1
  C  C45  1  0.60003100  0.62011300  0.86304100  1
  C  C46  1  0.62011300  0.60003100  0.36304100  1
  C  C47  1  0.39996900  0.37988700  0.13695900  1
  C  C48  1  0.42518900  0.22764100  0.52151100  1
  C  C49  1  0.77235900  0.57481100  0.97848900  1
  C  C50  1  0.57481100  0.77236000  0.47848900  1
  C  C51  1  0.22764000  0.42518900  0.02151100  1
  C  C52  1  0.10055800  0.61048100  0.53625200  1
  C  C53  1  0.38951900  0.89944200  0.96374800  1
  C  C54  1  0.89944200  0.38951900  0.46374800  1
  C  C55  1  0.61048100  0.10055800  0.03625200  1
  C  C56  1  0.49950800  0.50049200  0.75000000  1
  C  C57  1  0.50049200  0.49950800  0.25000000  1
