# generated using pymatgen
data_Cu16Ni4C7
_symmetry_space_group_name_H-M   'P 1'
_cell_length_a   9.92293495
_cell_length_b   9.88472090
_cell_length_c   9.71476857
_cell_angle_alpha   60.82609288
_cell_angle_beta   60.43327112
_cell_angle_gamma   58.74063601
_symmetry_Int_Tables_number   1
_chemical_formula_structural   Cu16Ni4C7
_chemical_formula_sum   'Cu32 Ni8 C14'
_cell_volume   673.28740652
_cell_formula_units_Z   2
loop_
 _symmetry_equiv_pos_site_id
 _symmetry_equiv_pos_as_xyz
  1  'x, y, z'
loop_
 _atom_site_type_symbol
 _atom_site_label
 _atom_site_symmetry_multiplicity
 _atom_site_fract_x
 _atom_site_fract_y
 _atom_site_fract_z
 _atom_site_occupancy
  C  C0  1  0.54119300  0.95880700  0.54119300  1
  C  C1  1  0.95937600  0.54062400  0.54062500  1
  C  C2  1  0.70937500  0.29062400  0.29062400  1
  C  C3  1  0.29119300  0.70880700  0.29119300  1
  C  C4  1  0.95880700  0.54119300  0.95880700  1
  C  C5  1  0.54062400  0.95937600  0.95937600  1
  C  C6  1  0.29062400  0.70937600  0.70937600  1
  C  C7  1  0.70880700  0.29119300  0.70880700  1
  C  C8  1  0.12500000  0.12500000  0.62500000  1
  C  C9  1  0.12500000  0.12500000  0.12500000  1
  C  C10  1  0.62500000  0.12500000  0.12500000  1
  C  C11  1  0.12500000  0.62500000  0.12500000  1
  Ni  Ni12  1  0.91417200  0.91680100  0.26360500  1
  Ni  Ni13  1  0.33319900  0.33582800  0.34457700  1
  Ni  Ni14  1  0.26360500  0.90542300  0.91417200  1
  Ni  Ni15  1  0.90542300  0.26360500  0.91680100  1
  Ni  Ni16  1  0.34457700  0.98639500  0.33319900  1
  Ni  Ni17  1  0.98639500  0.34457700  0.33582800  1
  Ni  Ni18  1  0.91680100  0.91417200  0.90542300  1
  Ni  Ni19  1  0.33582800  0.33319900  0.98639500  1
  C  C20  1  0.50000000  0.50000000  0.50000000  1
  C  C21  1  0.75000000  0.75000000  0.75000000  1
  Cu  Cu22  1  0.76999800  0.94289400  0.26896200  1
  Cu  Cu23  1  0.56811200  0.31335400  0.55894100  1
  Cu  Cu24  1  0.94055600  0.03324300  0.26036400  1
  Cu  Cu25  1  0.21675700  0.30944400  0.48416300  1
  Cu  Cu26  1  0.26036400  0.76583700  0.94055600  1
  Cu  Cu27  1  0.48075700  0.21920400  0.31956400  1
  Cu  Cu28  1  0.55894100  0.55959200  0.56811200  1
  Cu  Cu29  1  0.31335400  0.56811200  0.55959200  1
  Cu  Cu30  1  0.98047500  0.31956400  0.21920400  1
  Cu  Cu31  1  0.76583700  0.26036400  0.03324300  1
  Cu  Cu32  1  0.30710600  0.48000200  0.23185300  1
  Cu  Cu33  1  0.55959200  0.55894100  0.31335400  1
  Cu  Cu34  1  0.26896200  0.01814700  0.76999800  1
  Cu  Cu35  1  0.01814700  0.26896200  0.94289400  1
  Cu  Cu36  1  0.03079600  0.76924300  0.26952500  1
  Cu  Cu37  1  0.31956400  0.98047500  0.48075700  1
  Cu  Cu38  1  0.93043600  0.26952500  0.76924300  1
  Cu  Cu39  1  0.21920400  0.48075700  0.98047500  1
  Cu  Cu40  1  0.23185300  0.98103800  0.30710600  1
  Cu  Cu41  1  0.98103800  0.23185300  0.48000200  1
  Cu  Cu42  1  0.69040800  0.69105900  0.93664600  1
  Cu  Cu43  1  0.94289400  0.76999800  0.01814700  1
  Cu  Cu44  1  0.48416300  0.98963600  0.21675700  1
  Cu  Cu45  1  0.26952500  0.93043600  0.03079600  1
  Cu  Cu46  1  0.93664600  0.68188800  0.69040800  1
  Cu  Cu47  1  0.69105900  0.69040800  0.68188800  1
  Cu  Cu48  1  0.76924300  0.03079600  0.93043600  1
  Cu  Cu49  1  0.98963600  0.48416300  0.30944400  1
  Cu  Cu50  1  0.03324300  0.94055600  0.76583700  1
  Cu  Cu51  1  0.30944400  0.21675700  0.98963600  1
  Cu  Cu52  1  0.68188800  0.93664600  0.69105900  1
  Cu  Cu53  1  0.48000200  0.30710600  0.98103800  1
