# generated using pymatgen
data_Cu(NiC10)3
_symmetry_space_group_name_H-M   'P 1'
_cell_length_a   8.80208048
_cell_length_b   8.80208048
_cell_length_c   8.80208045
_cell_angle_alpha   58.60262974
_cell_angle_beta   58.60262974
_cell_angle_gamma   58.60263151
_symmetry_Int_Tables_number   1
_chemical_formula_structural   Cu(NiC10)3
_chemical_formula_sum   'Cu1 Ni3 C30'
_cell_volume   466.80972524
_cell_formula_units_Z   1
loop_
 _symmetry_equiv_pos_site_id
 _symmetry_equiv_pos_as_xyz
  1  'x, y, z'
loop_
 _atom_site_type_symbol
 _atom_site_label
 _atom_site_symmetry_multiplicity
 _atom_site_fract_x
 _atom_site_fract_y
 _atom_site_fract_z
 _atom_site_occupancy
  Ni  Ni0  1  0.14210500  0.14210500  0.14210500  1
  Ni  Ni1  1  0.35895100  0.35895100  0.35895100  1
  Ni  Ni2  1  0.64238900  0.64238900  0.64238900  1
  C  C3  1  0.03587400  0.45931700  0.74905500  1
  C  C4  1  0.45931700  0.74905500  0.03587400  1
  C  C5  1  0.74905500  0.03587400  0.45931700  1
  C  C6  1  0.25762600  0.96725800  0.52769100  1
  C  C7  1  0.52769100  0.25762600  0.96725800  1
  C  C8  1  0.96725800  0.52769100  0.25762600  1
  Cu  Cu9  1  0.85878100  0.85878100  0.85878100  1
  C  C10  1  0.13919400  0.50904400  0.27690600  1
  C  C11  1  0.27690600  0.13919400  0.50904400  1
  C  C12  1  0.06169600  0.28568400  0.92475800  1
  C  C13  1  0.50904400  0.27690600  0.13919400  1
  C  C14  1  0.21557300  0.44112600  0.57565700  1
  C  C15  1  0.00117900  0.63836200  0.78069700  1
  C  C16  1  0.28568400  0.92475800  0.06169600  1
  C  C17  1  0.44112600  0.57565700  0.21557300  1
  C  C18  1  0.57565700  0.21557300  0.44112600  1
  C  C19  1  0.21913500  0.99389600  0.36397800  1
  C  C20  1  0.07700700  0.93683500  0.71280700  1
  C  C21  1  0.36397800  0.21913500  0.99389600  1
  C  C22  1  0.63836200  0.78069700  0.00117900  1
  C  C23  1  0.92475800  0.06169600  0.28568400  1
  C  C24  1  0.78069700  0.00117900  0.63836200  1
  C  C25  1  0.42328700  0.78414300  0.56338100  1
  C  C26  1  0.56338100  0.42328700  0.78414300  1
  C  C27  1  0.71280700  0.07700700  0.93683500  1
  C  C28  1  0.99389600  0.36397800  0.21913500  1
  C  C29  1  0.78414300  0.56338100  0.42328700  1
  C  C30  1  0.49338500  0.72092000  0.86230300  1
  C  C31  1  0.93683500  0.71280700  0.07700700  1
  C  C32  1  0.72092000  0.86230300  0.49338500  1
  C  C33  1  0.86230300  0.49338500  0.72092000  1
