# generated using pymatgen
data_CuNiC2
_symmetry_space_group_name_H-M   'P 1'
_cell_length_a   3.76412400
_cell_length_b   6.32443000
_cell_length_c   12.26173400
_cell_angle_alpha   90.00000000
_cell_angle_beta   90.00000000
_cell_angle_gamma   90.00000000
_symmetry_Int_Tables_number   1
_chemical_formula_structural   CuNiC2
_chemical_formula_sum   'Cu4 Ni4 C8'
_cell_volume   291.90208856
_cell_formula_units_Z   4
loop_
 _symmetry_equiv_pos_site_id
 _symmetry_equiv_pos_as_xyz
  1  'x, y, z'
loop_
 _atom_site_type_symbol
 _atom_site_label
 _atom_site_symmetry_multiplicity
 _atom_site_fract_x
 _atom_site_fract_y
 _atom_site_fract_z
 _atom_site_occupancy
  Ni  Ni0  1  0.25000000  0.59357500  0.64221400  1
  Ni  Ni1  1  0.25000000  0.09357500  0.85778600  1
  Ni  Ni2  1  0.75000000  0.40642500  0.35778600  1
  Ni  Ni3  1  0.75000000  0.90642500  0.14221400  1
  Cu  Cu4  1  0.25000000  0.90897900  0.39270900  1
  Cu  Cu5  1  0.25000000  0.40897900  0.10729100  1
  Cu  Cu6  1  0.75000000  0.59102100  0.89270900  1
  Cu  Cu7  1  0.75000000  0.09102100  0.60729100  1
  C  C8  1  0.25000000  0.21587800  0.51831800  1
  C  C9  1  0.25000000  0.71587800  0.98168200  1
  C  C10  1  0.25000000  0.65115500  0.25228500  1
  C  C11  1  0.25000000  0.15115500  0.24771500  1
  C  C12  1  0.75000000  0.84884500  0.75228500  1
  C  C13  1  0.75000000  0.34884500  0.74771500  1
  C  C14  1  0.75000000  0.78412200  0.48168200  1
  C  C15  1  0.75000000  0.28412200  0.01831800  1
