# generated using pymatgen
data_Cu2Ni4C11
_symmetry_space_group_name_H-M   'P 1'
_cell_length_a   3.85853800
_cell_length_b   3.85853800
_cell_length_c   16.35144600
_cell_angle_alpha   90.00000000
_cell_angle_beta   90.00000000
_cell_angle_gamma   90.00000000
_symmetry_Int_Tables_number   1
_chemical_formula_structural   Cu2Ni4C11
_chemical_formula_sum   'Cu2 Ni4 C11'
_cell_volume   243.44548689
_cell_formula_units_Z   1
loop_
 _symmetry_equiv_pos_site_id
 _symmetry_equiv_pos_as_xyz
  1  'x, y, z'
loop_
 _atom_site_type_symbol
 _atom_site_label
 _atom_site_symmetry_multiplicity
 _atom_site_fract_x
 _atom_site_fract_y
 _atom_site_fract_z
 _atom_site_occupancy
  Ni  Ni0  1  0.50000000  0.00000000  0.24941100  1
  Ni  Ni1  1  0.00000000  0.50000000  0.41665000  1
  Ni  Ni2  1  0.50000000  0.00000000  0.58335000  1
  Ni  Ni3  1  0.00000000  0.50000000  0.75058900  1
  Cu  Cu4  1  0.50000000  0.00000000  0.90680800  1
  Cu  Cu5  1  0.00000000  0.50000000  0.09319200  1
  C  C6  1  0.50000000  0.50000000  0.00000000  1
  C  C7  1  0.00000000  0.00000000  0.15390100  1
  C  C8  1  0.50000000  0.50000000  0.17449000  1
  C  C9  1  0.50000000  0.50000000  0.33691200  1
  C  C10  1  0.00000000  0.00000000  0.32908400  1
  C  C11  1  0.00000000  0.00000000  0.50000000  1
  C  C12  1  0.50000000  0.50000000  0.50000000  1
  C  C13  1  0.00000000  0.00000000  0.67091600  1
  C  C14  1  0.50000000  0.50000000  0.66308800  1
  C  C15  1  0.00000000  0.00000000  0.84609900  1
  C  C16  1  0.50000000  0.50000000  0.82551000  1
