# generated using pymatgen
data_CuNiC6
_symmetry_space_group_name_H-M   'P 1'
_cell_length_a   5.03397800
_cell_length_b   10.10768600
_cell_length_c   14.28422600
_cell_angle_alpha   90.00000000
_cell_angle_beta   90.00000000
_cell_angle_gamma   90.00000000
_symmetry_Int_Tables_number   1
_chemical_formula_structural   CuNiC6
_chemical_formula_sum   'Cu8 Ni8 C48'
_cell_volume   726.80811545
_cell_formula_units_Z   8
loop_
 _symmetry_equiv_pos_site_id
 _symmetry_equiv_pos_as_xyz
  1  'x, y, z'
loop_
 _atom_site_type_symbol
 _atom_site_label
 _atom_site_symmetry_multiplicity
 _atom_site_fract_x
 _atom_site_fract_y
 _atom_site_fract_z
 _atom_site_occupancy
  C  C0  1  0.05758700  0.99032500  0.56294300  1
  C  C1  1  0.54482000  0.98856800  0.93822300  1
  C  C2  1  0.96591700  0.20808300  0.20524200  1
  C  C3  1  0.47423200  0.20632800  0.30880300  1
  C  C4  1  0.96591700  0.29191700  0.70524200  1
  C  C5  1  0.47423200  0.29367200  0.80880300  1
  C  C6  1  0.54482000  0.51143200  0.43822300  1
  C  C7  1  0.05758700  0.50967500  0.06294300  1
  C  C8  1  0.45518000  0.48856800  0.93822300  1
  C  C9  1  0.94241300  0.49032500  0.56294300  1
  C  C10  1  0.52576800  0.70632800  0.30880300  1
  C  C11  1  0.03408300  0.70808300  0.20524200  1
  C  C12  1  0.52576800  0.79367200  0.80880300  1
  C  C13  1  0.03408300  0.79191700  0.70524200  1
  C  C14  1  0.45518000  0.01143200  0.43822300  1
  C  C15  1  0.94241300  0.00967500  0.06294300  1
  Ni  Ni16  1  0.05493300  0.02099000  0.81193700  1
  Ni  Ni17  1  0.99067800  0.22558100  0.43084100  1
  Ni  Ni18  1  0.99067800  0.27441900  0.93084100  1
  Ni  Ni19  1  0.05493300  0.47901000  0.31193700  1
  Ni  Ni20  1  0.94506700  0.52099000  0.81193700  1
  Ni  Ni21  1  0.00932200  0.72558100  0.43084100  1
  Ni  Ni22  1  0.00932200  0.77441900  0.93084100  1
  Ni  Ni23  1  0.94506700  0.97901000  0.31193700  1
  Cu  Cu24  1  0.54916100  0.02662900  0.69169300  1
  Cu  Cu25  1  0.49025500  0.22434500  0.06272400  1
  Cu  Cu26  1  0.49025500  0.27565500  0.56272400  1
  Cu  Cu27  1  0.54916100  0.47337100  0.19169300  1
  Cu  Cu28  1  0.45083900  0.52662900  0.69169300  1
  Cu  Cu29  1  0.50974500  0.72434500  0.06272400  1
  Cu  Cu30  1  0.50974500  0.77565500  0.56272400  1
  Cu  Cu31  1  0.45083900  0.97337100  0.19169300  1
  C  C32  1  0.28804700  0.02541500  0.30654100  1
  C  C33  1  0.81848600  0.01672900  0.19791200  1
  C  C34  1  0.79048300  0.09294200  0.38999900  1
  C  C35  1  0.30298200  0.06595000  0.08801200  1
  C  C36  1  0.12986500  0.19049100  0.83177200  1
  C  C37  1  0.61603000  0.21216500  0.68206300  1
  C  C38  1  0.24432100  0.15698800  0.50474500  1
  C  C39  1  0.77537500  0.15980900  0.98814800  1
  C  C40  1  0.24432100  0.34301200  0.00474500  1
  C  C41  1  0.77537500  0.34019100  0.48814800  1
  C  C42  1  0.12986500  0.30950900  0.33177200  1
  C  C43  1  0.61603000  0.28783500  0.18206300  1
  C  C44  1  0.30298200  0.43405000  0.58801200  1
  C  C45  1  0.79048300  0.40705800  0.88999900  1
  C  C46  1  0.28804700  0.47458500  0.80654100  1
  C  C47  1  0.81848600  0.48327100  0.69791200  1
  C  C48  1  0.18151400  0.51672900  0.19791200  1
  C  C49  1  0.71195300  0.52541500  0.30654100  1
  C  C50  1  0.20951700  0.59294200  0.38999900  1
  C  C51  1  0.69701800  0.56595000  0.08801200  1
  C  C52  1  0.38397000  0.71216500  0.68206300  1
  C  C53  1  0.87013500  0.69049100  0.83177200  1
  C  C54  1  0.22462500  0.65980900  0.98814800  1
  C  C55  1  0.75567900  0.65698800  0.50474500  1
  C  C56  1  0.22462500  0.84019100  0.48814800  1
  C  C57  1  0.75567900  0.84301200  0.00474500  1
  C  C58  1  0.38397000  0.78783500  0.18206300  1
  C  C59  1  0.87013500  0.80950900  0.33177200  1
  C  C60  1  0.69701800  0.93405000  0.58801200  1
  C  C61  1  0.20951700  0.90705800  0.88999900  1
  C  C62  1  0.18151400  0.98327100  0.69791200  1
  C  C63  1  0.71195300  0.97458500  0.80654100  1
