# generated using pymatgen
data_Cu5NiC16
_symmetry_space_group_name_H-M   'P 1'
_cell_length_a   4.92884667
_cell_length_b   4.92884667
_cell_length_c   9.91782300
_cell_angle_alpha   89.77769612
_cell_angle_beta   89.77769612
_cell_angle_gamma   119.82078582
_symmetry_Int_Tables_number   1
_chemical_formula_structural   Cu5NiC16
_chemical_formula_sum   'Cu5 Ni1 C16'
_cell_volume   209.02876275
_cell_formula_units_Z   1
loop_
 _symmetry_equiv_pos_site_id
 _symmetry_equiv_pos_as_xyz
  1  'x, y, z'
loop_
 _atom_site_type_symbol
 _atom_site_label
 _atom_site_symmetry_multiplicity
 _atom_site_fract_x
 _atom_site_fract_y
 _atom_site_fract_z
 _atom_site_occupancy
  C  C0  1  0.34528900  0.83472500  0.74807200  1
  C  C1  1  0.16527500  0.65471100  0.25192800  1
  C  C2  1  0.83472500  0.34528900  0.74807200  1
  C  C3  1  0.65471100  0.16527500  0.25192800  1
  Ni  Ni4  1  0.00000000  0.00000000  0.00000000  1
  Cu  Cu5  1  0.16396400  0.83603600  0.50000000  1
  Cu  Cu6  1  0.66578600  0.33421400  0.00000000  1
  Cu  Cu7  1  0.33421400  0.66578600  0.00000000  1
  Cu  Cu8  1  0.83603600  0.16396400  0.50000000  1
  Cu  Cu9  1  0.50000000  0.50000000  0.50000000  1
  C  C10  1  0.33782300  0.99432500  0.10584200  1
  C  C11  1  0.00567500  0.66217700  0.89415800  1
  C  C12  1  0.49714400  0.83376200  0.39970700  1
  C  C13  1  0.83376200  0.49714400  0.39970700  1
  C  C14  1  0.16623800  0.50285600  0.60029300  1
  C  C15  1  0.82613700  0.82613700  0.59815000  1
  C  C16  1  0.50285600  0.16623800  0.60029300  1
  C  C17  1  0.99432500  0.33782300  0.10584200  1
  C  C18  1  0.66597400  0.66597400  0.09944100  1
  C  C19  1  0.66217700  0.00567500  0.89415800  1
  C  C20  1  0.33402600  0.33402600  0.90055900  1
  C  C21  1  0.17386300  0.17386300  0.40185000  1
