# generated using pymatgen
data_CuNiC15
_symmetry_space_group_name_H-M   'P 1'
_cell_length_a   6.92653100
_cell_length_b   7.10093593
_cell_length_c   7.90109122
_cell_angle_alpha   75.47502792
_cell_angle_beta   86.06949383
_cell_angle_gamma   87.97901709
_symmetry_Int_Tables_number   1
_chemical_formula_structural   CuNiC15
_chemical_formula_sum   'Cu2 Ni2 C30'
_cell_volume   375.24272725
_cell_formula_units_Z   2
loop_
 _symmetry_equiv_pos_site_id
 _symmetry_equiv_pos_as_xyz
  1  'x, y, z'
loop_
 _atom_site_type_symbol
 _atom_site_label
 _atom_site_symmetry_multiplicity
 _atom_site_fract_x
 _atom_site_fract_y
 _atom_site_fract_z
 _atom_site_occupancy
  Ni  Ni0  1  0.20186800  0.36048500  0.22099700  1
  Ni  Ni1  1  0.79813200  0.63951500  0.77900300  1
  C  C2  1  0.14948700  0.60437700  0.96766800  1
  C  C3  1  0.85051300  0.39562300  0.03233200  1
  C  C4  1  0.35883600  0.63765300  0.05704000  1
  C  C5  1  0.64116400  0.36234700  0.94296000  1
  C  C6  1  0.21341300  0.72904000  0.58370300  1
  C  C7  1  0.78658700  0.27096000  0.41629700  1
  C  C8  1  0.31624200  0.84154800  0.38870000  1
  C  C9  1  0.68375800  0.15845200  0.61130000  1
  C  C10  1  0.46351200  0.70811200  0.54792500  1
  C  C11  1  0.53648800  0.29188800  0.45207500  1
  C  C12  1  0.30833200  0.59776300  0.44738000  1
  C  C13  1  0.69166800  0.40223700  0.55262000  1
  C  C14  1  0.87436200  0.78010800  0.37464800  1
  C  C15  1  0.12563800  0.21989200  0.62535200  1
  C  C16  1  0.74477800  0.87896500  0.99371300  1
  C  C17  1  0.25522200  0.12103500  0.00628700  1
  C  C18  1  0.95743000  0.99044900  0.24784000  1
  C  C19  1  0.04257000  0.00955100  0.75216000  1
  C  C20  1  0.02189200  0.77757000  0.19862200  1
  C  C21  1  0.97810800  0.22243000  0.80137800  1
  Cu  Cu22  1  0.37736700  0.14440400  0.12572700  1
  Cu  Cu23  1  0.62263300  0.85559600  0.87427300  1
  C  C24  1  0.22562700  0.57530300  0.07949100  1
  C  C25  1  0.77437300  0.42469700  0.92050900  1
  C  C26  1  0.32806300  0.72138900  0.49357000  1
  C  C27  1  0.67193700  0.27861100  0.50643000  1
  C  C28  1  0.98879100  0.84632800  0.29659300  1
  C  C29  1  0.01120900  0.15367200  0.70340700  1
  C  C30  1  0.30458400  0.36658500  0.38390400  1
  C  C31  1  0.69541600  0.63341500  0.61609600  1
  C  C32  1  0.99235900  0.30304300  0.23320100  1
  C  C33  1  0.00764100  0.69695700  0.76679900  1
