# generated using pymatgen
data_Cu5Ni2C3
_symmetry_space_group_name_H-M   'P 1'
_cell_length_a   6.06923900
_cell_length_b   8.15371400
_cell_length_c   13.41134200
_cell_angle_alpha   90.00000000
_cell_angle_beta   90.00000000
_cell_angle_gamma   90.00000000
_symmetry_Int_Tables_number   1
_chemical_formula_structural   Cu5Ni2C3
_chemical_formula_sum   'Cu20 Ni8 C12'
_cell_volume   663.68492238
_cell_formula_units_Z   4
loop_
 _symmetry_equiv_pos_site_id
 _symmetry_equiv_pos_as_xyz
  1  'x, y, z'
loop_
 _atom_site_type_symbol
 _atom_site_label
 _atom_site_symmetry_multiplicity
 _atom_site_fract_x
 _atom_site_fract_y
 _atom_site_fract_z
 _atom_site_occupancy
  C  C0  1  0.00000000  0.01980500  0.12851700  1
  C  C1  1  0.21966200  0.23790200  0.23767200  1
  C  C2  1  0.78033800  0.23790200  0.23767200  1
  C  C3  1  0.28033800  0.26209800  0.73767200  1
  C  C4  1  0.71966200  0.26209800  0.73767200  1
  C  C5  1  0.50000000  0.48019500  0.62851700  1
  C  C6  1  0.50000000  0.51980500  0.37148300  1
  C  C7  1  0.28033800  0.73790200  0.26232800  1
  C  C8  1  0.71966200  0.73790200  0.26232800  1
  C  C9  1  0.21966200  0.76209800  0.76232800  1
  C  C10  1  0.78033800  0.76209800  0.76232800  1
  C  C11  1  0.00000000  0.98019500  0.87148300  1
  Ni  Ni12  1  0.24386900  0.01111300  0.76906800  1
  Ni  Ni13  1  0.75613100  0.01111300  0.76906800  1
  Ni  Ni14  1  0.25613100  0.48888700  0.26906800  1
  Ni  Ni15  1  0.74386900  0.48888700  0.26906800  1
  Ni  Ni16  1  0.25613100  0.51111300  0.73093200  1
  Ni  Ni17  1  0.74386900  0.51111300  0.73093200  1
  Ni  Ni18  1  0.24386900  0.98888700  0.23093200  1
  Ni  Ni19  1  0.75613100  0.98888700  0.23093200  1
  Cu  Cu20  1  0.20776600  0.00000000  0.00000000  1
  Cu  Cu21  1  0.79223400  0.00000000  0.00000000  1
  Cu  Cu22  1  0.50000000  0.20390800  0.61271000  1
  Cu  Cu23  1  0.50000000  0.24132400  0.34932900  1
  Cu  Cu24  1  0.00000000  0.21186600  0.35684400  1
  Cu  Cu25  1  0.00000000  0.23056500  0.64333400  1
  Cu  Cu26  1  0.50000000  0.26943500  0.14333400  1
  Cu  Cu27  1  0.50000000  0.28813400  0.85684400  1
  Cu  Cu28  1  0.00000000  0.25867600  0.84932900  1
  Cu  Cu29  1  0.00000000  0.29609200  0.11271000  1
  Cu  Cu30  1  0.29223400  0.50000000  0.50000000  1
  Cu  Cu31  1  0.70776600  0.50000000  0.50000000  1
  Cu  Cu32  1  0.00000000  0.70390800  0.88729000  1
  Cu  Cu33  1  0.00000000  0.74132400  0.15067100  1
  Cu  Cu34  1  0.50000000  0.71186600  0.14315600  1
  Cu  Cu35  1  0.50000000  0.73056500  0.85666600  1
  Cu  Cu36  1  0.00000000  0.76943500  0.35666600  1
  Cu  Cu37  1  0.00000000  0.78813400  0.64315600  1
  Cu  Cu38  1  0.50000000  0.75867600  0.65067100  1
  Cu  Cu39  1  0.50000000  0.79609200  0.38729000  1
