# generated using pymatgen
data_CuNiC2
_symmetry_space_group_name_H-M   'P 1'
_cell_length_a   8.95657800
_cell_length_b   8.95657800
_cell_length_c   8.95657800
_cell_angle_alpha   90.00000000
_cell_angle_beta   90.00000000
_cell_angle_gamma   90.00000000
_symmetry_Int_Tables_number   1
_chemical_formula_structural   CuNiC2
_chemical_formula_sum   'Cu24 Ni24 C48'
_cell_volume   718.49927982
_cell_formula_units_Z   24
loop_
 _symmetry_equiv_pos_site_id
 _symmetry_equiv_pos_as_xyz
  1  'x, y, z'
loop_
 _atom_site_type_symbol
 _atom_site_label
 _atom_site_symmetry_multiplicity
 _atom_site_fract_x
 _atom_site_fract_y
 _atom_site_fract_z
 _atom_site_occupancy
  Ni  Ni0  1  0.19202500  0.58166400  0.28292200  1
  Ni  Ni1  1  0.41833600  0.71707800  0.19202500  1
  Ni  Ni2  1  0.28292200  0.80797500  0.41833600  1
  Ni  Ni3  1  0.80797500  0.41833600  0.28292200  1
  Ni  Ni4  1  0.58166400  0.28292200  0.19202500  1
  Ni  Ni5  1  0.71707800  0.19202500  0.41833600  1
  Ni  Ni6  1  0.19202500  0.41833600  0.71707800  1
  Ni  Ni7  1  0.41833600  0.28292200  0.80797500  1
  Ni  Ni8  1  0.28292200  0.19202500  0.58166400  1
  Ni  Ni9  1  0.80797500  0.58166400  0.71707800  1
  Ni  Ni10  1  0.58166400  0.71707800  0.80797500  1
  Ni  Ni11  1  0.71707800  0.80797500  0.58166400  1
  Ni  Ni12  1  0.69202500  0.78292200  0.08166400  1
  Ni  Ni13  1  0.91833600  0.69202500  0.21707800  1
  Ni  Ni14  1  0.78292200  0.91833600  0.30797500  1
  Ni  Ni15  1  0.30797500  0.78292200  0.91833600  1
  Ni  Ni16  1  0.08166400  0.69202500  0.78292200  1
  Ni  Ni17  1  0.21707800  0.91833600  0.69202500  1
  Ni  Ni18  1  0.69202500  0.21707800  0.91833600  1
  Ni  Ni19  1  0.91833600  0.30797500  0.78292200  1
  Ni  Ni20  1  0.78292200  0.08166400  0.69202500  1
  Ni  Ni21  1  0.30797500  0.21707800  0.08166400  1
  Ni  Ni22  1  0.08166400  0.30797500  0.21707800  1
  Ni  Ni23  1  0.21707800  0.08166400  0.30797500  1
  Cu  Cu24  1  0.16563700  0.61046700  0.56837800  1
  Cu  Cu25  1  0.38953300  0.43162200  0.16563700  1
  Cu  Cu26  1  0.56837800  0.83436300  0.38953300  1
  Cu  Cu27  1  0.83436300  0.38953300  0.56837800  1
  Cu  Cu28  1  0.61046700  0.56837800  0.16563700  1
  Cu  Cu29  1  0.43162200  0.16563700  0.38953300  1
  Cu  Cu30  1  0.16563700  0.38953300  0.43162200  1
  Cu  Cu31  1  0.38953300  0.56837800  0.83436300  1
  Cu  Cu32  1  0.56837800  0.16563700  0.61046700  1
  Cu  Cu33  1  0.83436300  0.61046700  0.43162200  1
  Cu  Cu34  1  0.61046700  0.43162200  0.83436300  1
  Cu  Cu35  1  0.43162200  0.83436300  0.61046700  1
  Cu  Cu36  1  0.66563700  0.06837800  0.11046700  1
  Cu  Cu37  1  0.88953300  0.66563700  0.93162200  1
  Cu  Cu38  1  0.06837800  0.88953300  0.33436300  1
  Cu  Cu39  1  0.33436300  0.06837800  0.88953300  1
  Cu  Cu40  1  0.11046700  0.66563700  0.06837800  1
  Cu  Cu41  1  0.93162200  0.88953300  0.66563700  1
  Cu  Cu42  1  0.66563700  0.93162200  0.88953300  1
  Cu  Cu43  1  0.88953300  0.33436300  0.06837800  1
  Cu  Cu44  1  0.06837800  0.11046700  0.66563700  1
  Cu  Cu45  1  0.33436300  0.93162200  0.11046700  1
  Cu  Cu46  1  0.11046700  0.33436300  0.93162200  1
  Cu  Cu47  1  0.93162200  0.11046700  0.33436300  1
  C  C48  1  0.19960500  0.66831500  0.41932300  1
  C  C49  1  0.33168500  0.58067700  0.19960500  1
  C  C50  1  0.41932300  0.80039500  0.33168500  1
  C  C51  1  0.80039500  0.33168500  0.41932300  1
  C  C52  1  0.66831500  0.41932300  0.19960500  1
  C  C53  1  0.58067700  0.19960500  0.33168500  1
  C  C54  1  0.19960500  0.33168500  0.58067700  1
  C  C55  1  0.33168500  0.41932300  0.80039500  1
  C  C56  1  0.41932300  0.19960500  0.66831500  1
  C  C57  1  0.80039500  0.66831500  0.58067700  1
  C  C58  1  0.66831500  0.58067700  0.80039500  1
  C  C59  1  0.58067700  0.80039500  0.66831500  1
  C  C60  1  0.69960500  0.91932300  0.16831500  1
  C  C61  1  0.83168500  0.69960500  0.08067700  1
  C  C62  1  0.91932300  0.83168500  0.30039500  1
  C  C63  1  0.30039500  0.91932300  0.83168500  1
  C  C64  1  0.16831500  0.69960500  0.91932300  1
  C  C65  1  0.08067700  0.83168500  0.69960500  1
  C  C66  1  0.69960500  0.08067700  0.83168500  1
  C  C67  1  0.83168500  0.30039500  0.91932300  1
  C  C68  1  0.91932300  0.16831500  0.69960500  1
  C  C69  1  0.30039500  0.08067700  0.16831500  1
  C  C70  1  0.16831500  0.30039500  0.08067700  1
  C  C71  1  0.08067700  0.16831500  0.30039500  1
  C  C72  1  0.07343200  0.64499600  0.17752100  1
  C  C73  1  0.35500400  0.82247900  0.07343200  1
  C  C74  1  0.17752100  0.92656800  0.35500400  1
  C  C75  1  0.92656800  0.35500400  0.17752100  1
  C  C76  1  0.64499600  0.17752100  0.07343200  1
  C  C77  1  0.82247900  0.07343200  0.35500400  1
  C  C78  1  0.07343200  0.35500400  0.82247900  1
  C  C79  1  0.35500400  0.17752100  0.92656800  1
  C  C80  1  0.17752100  0.07343200  0.64499600  1
  C  C81  1  0.92656800  0.64499600  0.82247900  1
  C  C82  1  0.64499600  0.82247900  0.92656800  1
  C  C83  1  0.82247900  0.92656800  0.64499600  1
  C  C84  1  0.57343200  0.67752100  0.14499600  1
  C  C85  1  0.85500400  0.57343200  0.32247900  1
  C  C86  1  0.67752100  0.85500400  0.42656800  1
  C  C87  1  0.42656800  0.67752100  0.85500400  1
  C  C88  1  0.14499600  0.57343200  0.67752100  1
  C  C89  1  0.32247900  0.85500400  0.57343200  1
  C  C90  1  0.57343200  0.32247900  0.85500400  1
  C  C91  1  0.85500400  0.42656800  0.67752100  1
  C  C92  1  0.67752100  0.14499600  0.57343200  1
  C  C93  1  0.42656800  0.32247900  0.14499600  1
  C  C94  1  0.14499600  0.42656800  0.32247900  1
  C  C95  1  0.32247900  0.14499600  0.42656800  1
