# generated using pymatgen
data_Cu19Ni5C32
_symmetry_space_group_name_H-M   'P 1'
_cell_length_a   19.14351953
_cell_length_b   19.14351953
_cell_length_c   19.14351956
_cell_angle_alpha   17.34359989
_cell_angle_beta   17.34359989
_cell_angle_gamma   17.34359748
_symmetry_Int_Tables_number   1
_chemical_formula_structural   Cu19Ni5C32
_chemical_formula_sum   'Cu19 Ni5 C32'
_cell_volume   544.03497334
_cell_formula_units_Z   1
loop_
 _symmetry_equiv_pos_site_id
 _symmetry_equiv_pos_as_xyz
  1  'x, y, z'
loop_
 _atom_site_type_symbol
 _atom_site_label
 _atom_site_symmetry_multiplicity
 _atom_site_fract_x
 _atom_site_fract_y
 _atom_site_fract_z
 _atom_site_occupancy
  Ni  Ni0  1  0.31240400  0.31240400  0.31240400  1
  Ni  Ni1  1  0.00008800  0.00008800  0.00008800  1
  Ni  Ni2  1  0.56261300  0.56261300  0.56261300  1
  Ni  Ni3  1  0.49991400  0.49991400  0.49991400  1
  Ni  Ni4  1  0.74998400  0.74998400  0.74998400  1
  Cu  Cu5  1  0.78088100  0.28191000  0.78088100  1
  Cu  Cu6  1  0.65626700  0.65626700  0.65626700  1
  Cu  Cu7  1  0.25002100  0.25002100  0.25002100  1
  Cu  Cu8  1  0.03125400  0.03125400  0.53122500  1
  Cu  Cu9  1  0.78088100  0.78088100  0.28191000  1
  Cu  Cu10  1  0.53122500  0.03125400  0.03125400  1
  Cu  Cu11  1  0.28191000  0.78088100  0.78088100  1
  Cu  Cu12  1  0.03125400  0.53122500  0.03125400  1
  Cu  Cu13  1  0.15636300  0.15636300  0.15636300  1
  Cu  Cu14  1  0.90610300  0.90610300  0.90610300  1
  Cu  Cu15  1  0.78041000  0.28162000  0.28162000  1
  Cu  Cu16  1  0.28162000  0.28162000  0.78041000  1
  Cu  Cu17  1  0.06252800  0.06252800  0.06252800  1
  Cu  Cu18  1  0.81246200  0.81246200  0.81246200  1
  Cu  Cu19  1  0.40634100  0.40634100  0.40634100  1
  Cu  Cu20  1  0.53164800  0.03057300  0.53164800  1
  Cu  Cu21  1  0.28162000  0.78041000  0.28162000  1
  Cu  Cu22  1  0.53164800  0.53164800  0.03057300  1
  Cu  Cu23  1  0.03057300  0.53164800  0.53164800  1
  C  C24  1  0.07681600  0.07681600  0.63085000  1
  C  C25  1  0.63085000  0.07681600  0.07681600  1
  C  C26  1  0.48645800  0.48645800  0.92991600  1
  C  C27  1  0.92991600  0.48645800  0.48645800  1
  C  C28  1  0.48645800  0.92991600  0.48645800  1
  C  C29  1  0.59733400  0.59733400  0.59733400  1
  C  C30  1  0.73629000  0.17987800  0.73629000  1
  C  C31  1  0.07681600  0.63085000  0.07681600  1
  C  C32  1  0.96518500  0.96518500  0.96518500  1
  C  C33  1  0.21547100  0.21547100  0.21547100  1
  C  C34  1  0.88268500  0.32615800  0.32615800  1
  C  C35  1  0.32615800  0.32615800  0.88268500  1
  C  C36  1  0.73629000  0.73629000  0.17987800  1
  C  C37  1  0.17987800  0.73629000  0.73629000  1
  C  C38  1  0.98571100  0.43143600  0.98571100  1
  C  C39  1  0.84702400  0.84702400  0.84702400  1
  C  C40  1  0.09714900  0.09714900  0.09714900  1
  C  C41  1  0.57600100  0.13276900  0.57600100  1
  C  C42  1  0.32615800  0.88268500  0.32615800  1
  C  C43  1  0.46517100  0.46517100  0.46517100  1
  C  C44  1  0.57600100  0.57600100  0.13276900  1
  C  C45  1  0.13276900  0.57600100  0.57600100  1
  C  C46  1  0.98571100  0.98571100  0.43143600  1
  C  C47  1  0.43143600  0.98571100  0.98571100  1
  C  C48  1  0.23565300  0.23565300  0.68170400  1
  C  C49  1  0.68170400  0.23565300  0.23565300  1
  C  C50  1  0.34731700  0.34731700  0.34731700  1
  C  C51  1  0.23565300  0.68170400  0.23565300  1
  C  C52  1  0.71520000  0.71520000  0.71520000  1
  C  C53  1  0.82608600  0.38255600  0.82608600  1
  C  C54  1  0.38255600  0.82608600  0.82608600  1
  C  C55  1  0.82608600  0.82608600  0.38255600  1
