# generated using pymatgen
data_CuNiC
_symmetry_space_group_name_H-M   'P 1'
_cell_length_a   3.08760500
_cell_length_b   9.55447000
_cell_length_c   14.26229533
_cell_angle_alpha   89.68224277
_cell_angle_beta   90.00000000
_cell_angle_gamma   90.00000000
_symmetry_Int_Tables_number   1
_chemical_formula_structural   CuNiC
_chemical_formula_sum   'Cu12 Ni12 C12'
_cell_volume   420.73736534
_cell_formula_units_Z   12
loop_
 _symmetry_equiv_pos_site_id
 _symmetry_equiv_pos_as_xyz
  1  'x, y, z'
loop_
 _atom_site_type_symbol
 _atom_site_label
 _atom_site_symmetry_multiplicity
 _atom_site_fract_x
 _atom_site_fract_y
 _atom_site_fract_z
 _atom_site_occupancy
  C  C0  1  0.00000000  0.99898100  0.98573300  1
  C  C1  1  0.00000000  0.50024900  0.99702800  1
  C  C2  1  0.50000000  0.21903000  0.82782900  1
  C  C3  1  0.50000000  0.74327200  0.84870500  1
  C  C4  1  0.00000000  0.00547300  0.65898700  1
  C  C5  1  0.00000000  0.49712000  0.65632700  1
  C  C6  1  0.50000000  0.74957500  0.52000200  1
  C  C7  1  0.50000000  0.25024000  0.51586800  1
  C  C8  1  0.00000000  0.99412900  0.32682400  1
  C  C9  1  0.00000000  0.49671600  0.32267500  1
  C  C10  1  0.50000000  0.27785200  0.15991300  1
  C  C11  1  0.50000000  0.75087500  0.18275300  1
  Ni  Ni12  1  0.50000000  0.89984400  0.93803200  1
  Ni  Ni13  1  0.00000000  0.15813000  0.90156300  1
  Ni  Ni14  1  0.00000000  0.64389700  0.90239000  1
  Ni  Ni15  1  0.50000000  0.09175000  0.72937500  1
  Ni  Ni16  1  0.50000000  0.40515400  0.60432800  1
  Ni  Ni17  1  0.50000000  0.90222300  0.60254800  1
  Ni  Ni18  1  0.00000000  0.15235000  0.55648000  1
  Ni  Ni19  1  0.00000000  0.65100700  0.56575100  1
  Ni  Ni20  1  0.50000000  0.40054800  0.26847500  1
  Ni  Ni21  1  0.50000000  0.91182600  0.26788600  1
  Ni  Ni22  1  0.00000000  0.65593000  0.23233300  1
  Ni  Ni23  1  0.00000000  0.35446400  0.09509300  1
  Cu  Cu24  1  0.50000000  0.40558300  0.93284000  1
  Cu  Cu25  1  0.00000000  0.35097400  0.77004900  1
  Cu  Cu26  1  0.00000000  0.83373200  0.77300900  1
  Cu  Cu27  1  0.50000000  0.59526200  0.73594500  1
  Cu  Cu28  1  0.00000000  0.35156800  0.43287900  1
  Cu  Cu29  1  0.00000000  0.85166000  0.43306500  1
  Cu  Cu30  1  0.50000000  0.10193100  0.39150700  1
  Cu  Cu31  1  0.50000000  0.59648600  0.39789300  1
  Cu  Cu32  1  0.00000000  0.15761800  0.22857900  1
  Cu  Cu33  1  0.00000000  0.84793500  0.10368800  1
  Cu  Cu34  1  0.50000000  0.09650600  0.06923100  1
  Cu  Cu35  1  0.50000000  0.60010500  0.06441600  1
