# generated using pymatgen
data_CuNiC11
_symmetry_space_group_name_H-M   'P 1'
_cell_length_a   6.70172200
_cell_length_b   8.63863815
_cell_length_c   10.00903714
_cell_angle_alpha   87.41027390
_cell_angle_beta   89.84086134
_cell_angle_gamma   89.12204796
_symmetry_Int_Tables_number   1
_chemical_formula_structural   CuNiC11
_chemical_formula_sum   'Cu4 Ni4 C44'
_cell_volume   578.79967833
_cell_formula_units_Z   4
loop_
 _symmetry_equiv_pos_site_id
 _symmetry_equiv_pos_as_xyz
  1  'x, y, z'
loop_
 _atom_site_type_symbol
 _atom_site_label
 _atom_site_symmetry_multiplicity
 _atom_site_fract_x
 _atom_site_fract_y
 _atom_site_fract_z
 _atom_site_occupancy
  C  C0  1  0.49853200  0.75236900  0.62405700  1
  C  C1  1  0.50146800  0.24763100  0.37594300  1
  C  C2  1  0.75852500  0.91477800  0.88066700  1
  C  C3  1  0.77861500  0.90871000  0.37547900  1
  C  C4  1  0.96626100  0.73163700  0.13326000  1
  C  C5  1  0.53352600  0.73316100  0.13484000  1
  C  C6  1  0.97237500  0.72684300  0.63619100  1
  C  C7  1  0.46647400  0.26683900  0.86516000  1
  C  C8  1  0.03373900  0.26836300  0.86674000  1
  C  C9  1  0.02762500  0.27315700  0.36380900  1
  C  C10  1  0.24147500  0.08522200  0.11933300  1
  C  C11  1  0.22138500  0.09129000  0.62452100  1
  C  C12  1  0.24305700  0.65066000  0.86803000  1
  C  C13  1  0.24866200  0.64637700  0.35670100  1
  C  C14  1  0.75694300  0.34934000  0.13197000  1
  C  C15  1  0.75133800  0.35362300  0.64329900  1
  Ni  Ni16  1  0.74768300  0.59342700  0.89769900  1
  Ni  Ni17  1  0.75922900  0.59036200  0.38982600  1
  Ni  Ni18  1  0.25231700  0.40657300  0.10230100  1
  Ni  Ni19  1  0.24077100  0.40963800  0.61017400  1
  Cu  Cu20  1  0.24926500  0.96386600  0.88658100  1
  Cu  Cu21  1  0.23695300  0.95831800  0.38792900  1
  Cu  Cu22  1  0.75073500  0.03613400  0.11341900  1
  Cu  Cu23  1  0.76304700  0.04168200  0.61207100  1
  C  C24  1  0.74528800  0.89085600  0.08339300  1
  C  C25  1  0.78141400  0.89956400  0.57533500  1
  C  C26  1  0.25167600  0.92393000  0.76338900  1
  C  C27  1  0.24606200  0.92488800  0.26363300  1
  C  C28  1  0.24016100  0.85908200  0.98390200  1
  C  C29  1  0.24618200  0.84721500  0.48076900  1
  C  C30  1  0.92497400  0.69166500  0.84213300  1
  C  C31  1  0.55844800  0.68612200  0.85301300  1
  C  C32  1  0.93154400  0.69436600  0.33393900  1
  C  C33  1  0.56630000  0.68025500  0.34421300  1
  C  C34  1  0.75773400  0.58242400  0.05434100  1
  C  C35  1  0.24887900  0.57617200  0.14971100  1
  C  C36  1  0.77057100  0.57764500  0.54592800  1
  C  C37  1  0.23027000  0.57624000  0.66140600  1
  C  C38  1  0.75112100  0.42382800  0.85028900  1
  C  C39  1  0.24226600  0.41757600  0.94565900  1
  C  C40  1  0.76973000  0.42376000  0.33859400  1
  C  C41  1  0.22942900  0.42235500  0.45407200  1
  C  C42  1  0.44155200  0.31387800  0.14698700  1
  C  C43  1  0.07502600  0.30833500  0.15786700  1
  C  C44  1  0.43370000  0.31974500  0.65578700  1
  C  C45  1  0.06845600  0.30563400  0.66606100  1
  C  C46  1  0.75983900  0.14091800  0.01609800  1
  C  C47  1  0.75381800  0.15278500  0.51923100  1
  C  C48  1  0.74832400  0.07607000  0.23661100  1
  C  C49  1  0.75393800  0.07511200  0.73636700  1
  C  C50  1  0.25471200  0.10914400  0.91660700  1
  C  C51  1  0.21858600  0.10043600  0.42466500  1
