# generated using pymatgen
data_Cu3Ni3C10
_symmetry_space_group_name_H-M   'P 1'
_cell_length_a   9.31284400
_cell_length_b   11.76462100
_cell_length_c   14.27438200
_cell_angle_alpha   90.00000000
_cell_angle_beta   90.00000000
_cell_angle_gamma   90.00000000
_symmetry_Int_Tables_number   1
_chemical_formula_structural   Cu3Ni3C10
_chemical_formula_sum   'Cu24 Ni24 C80'
_cell_volume   1563.93098395
_cell_formula_units_Z   8
loop_
 _symmetry_equiv_pos_site_id
 _symmetry_equiv_pos_as_xyz
  1  'x, y, z'
loop_
 _atom_site_type_symbol
 _atom_site_label
 _atom_site_symmetry_multiplicity
 _atom_site_fract_x
 _atom_site_fract_y
 _atom_site_fract_z
 _atom_site_occupancy
  C  C0  1  0.34369800  0.23551000  0.32485000  1
  C  C1  1  0.65630200  0.23551000  0.82485000  1
  C  C2  1  0.15630200  0.26449000  0.82485000  1
  C  C3  1  0.84369800  0.26449000  0.32485000  1
  C  C4  1  0.15630200  0.73551000  0.67515000  1
  C  C5  1  0.84369800  0.73551000  0.17515000  1
  C  C6  1  0.34369800  0.76449000  0.17515000  1
  C  C7  1  0.65630200  0.76449000  0.67515000  1
  Ni  Ni8  1  0.96638500  0.14789200  0.58070300  1
  Ni  Ni9  1  0.03361500  0.14789200  0.08070300  1
  Ni  Ni10  1  0.53257500  0.14457200  0.07430600  1
  Ni  Ni11  1  0.46742500  0.14457200  0.57430600  1
  Ni  Ni12  1  0.90937800  0.24563700  0.95023000  1
  Ni  Ni13  1  0.09062200  0.24563700  0.45023000  1
  Ni  Ni14  1  0.40937800  0.25436300  0.95023000  1
  Ni  Ni15  1  0.59062200  0.25436300  0.45023000  1
  Ni  Ni16  1  0.03257500  0.35542800  0.07430600  1
  Ni  Ni17  1  0.96742500  0.35542800  0.57430600  1
  Ni  Ni18  1  0.53361500  0.35210800  0.08070300  1
  Ni  Ni19  1  0.46638500  0.35210800  0.58070300  1
  Ni  Ni20  1  0.46638500  0.64789200  0.91929700  1
  Ni  Ni21  1  0.53361500  0.64789200  0.41929700  1
  Ni  Ni22  1  0.03257500  0.64457200  0.42569400  1
  Ni  Ni23  1  0.96742500  0.64457200  0.92569400  1
  Ni  Ni24  1  0.40937800  0.74563700  0.54977000  1
  Ni  Ni25  1  0.59062200  0.74563700  0.04977000  1
  Ni  Ni26  1  0.09062200  0.75436300  0.04977000  1
  Ni  Ni27  1  0.90937800  0.75436300  0.54977000  1
  Ni  Ni28  1  0.46742500  0.85542800  0.92569400  1
  Ni  Ni29  1  0.53257500  0.85542800  0.42569400  1
  Ni  Ni30  1  0.03361500  0.85210800  0.41929700  1
  Ni  Ni31  1  0.96638500  0.85210800  0.91929700  1
  Cu  Cu32  1  0.06422900  0.98324600  0.08686000  1
  Cu  Cu33  1  0.93577100  0.98324600  0.58686000  1
  Cu  Cu34  1  0.56266900  0.02259200  0.42253500  1
  Cu  Cu35  1  0.43733100  0.02259200  0.92253500  1
  Cu  Cu36  1  0.29654500  0.20387400  0.69454200  1
  Cu  Cu37  1  0.70345500  0.20387400  0.19454200  1
  Cu  Cu38  1  0.20345500  0.29612600  0.19454200  1
  Cu  Cu39  1  0.79654500  0.29612600  0.69454200  1
  Cu  Cu40  1  0.06266900  0.47740800  0.42253500  1
  Cu  Cu41  1  0.93733100  0.47740800  0.92253500  1
  Cu  Cu42  1  0.56422900  0.51675400  0.08686000  1
  Cu  Cu43  1  0.43577100  0.51675400  0.58686000  1
  Cu  Cu44  1  0.43577100  0.48324600  0.91314000  1
  Cu  Cu45  1  0.56422900  0.48324600  0.41314000  1
  Cu  Cu46  1  0.06266900  0.52259200  0.07746500  1
  Cu  Cu47  1  0.93733100  0.52259200  0.57746500  1
  Cu  Cu48  1  0.79654500  0.70387400  0.80545800  1
  Cu  Cu49  1  0.20345500  0.70387400  0.30545800  1
  Cu  Cu50  1  0.29654500  0.79612600  0.80545800  1
  Cu  Cu51  1  0.70345500  0.79612600  0.30545800  1
  Cu  Cu52  1  0.43733100  0.97740800  0.57746500  1
  Cu  Cu53  1  0.56266900  0.97740800  0.07746500  1
  Cu  Cu54  1  0.06422900  0.01675400  0.41314000  1
  Cu  Cu55  1  0.93577100  0.01675400  0.91314000  1
  C  C56  1  0.41770900  0.04772400  0.61297200  1
  C  C57  1  0.58229100  0.04772400  0.11297200  1
  C  C58  1  0.08631200  0.05313000  0.12160700  1
  C  C59  1  0.91368800  0.05313000  0.62160700  1
  C  C60  1  0.32848200  0.10890900  0.28940400  1
  C  C61  1  0.67151800  0.10890900  0.78940400  1
  C  C62  1  0.94537700  0.14533100  0.00256100  1
  C  C63  1  0.05462300  0.14533100  0.50256100  1
  C  C64  1  0.55013100  0.14833200  0.49394100  1
  C  C65  1  0.44986900  0.14833200  0.99394100  1
  C  C66  1  0.78131700  0.17540100  0.23862300  1
  C  C67  1  0.21868300  0.17540100  0.73862300  1
  C  C68  1  0.01628500  0.23509900  0.35354800  1
  C  C69  1  0.98371500  0.23509900  0.85354800  1
  C  C70  1  0.24617900  0.25058100  0.42540900  1
  C  C71  1  0.75382100  0.25058100  0.92540900  1
  C  C72  1  0.42766200  0.24603800  0.61945900  1
  C  C73  1  0.57233800  0.24603800  0.11945900  1
  C  C74  1  0.07233800  0.25396200  0.11945900  1
  C  C75  1  0.92766200  0.25396200  0.61945900  1
  C  C76  1  0.74617900  0.24941900  0.42540900  1
  C  C77  1  0.25382100  0.24941900  0.92540900  1
  C  C78  1  0.48371500  0.26490100  0.85354800  1
  C  C79  1  0.51628500  0.26490100  0.35354800  1
  C  C80  1  0.28131700  0.32459900  0.23862300  1
  C  C81  1  0.71868300  0.32459900  0.73862300  1
  C  C82  1  0.05013100  0.35166800  0.49394100  1
  C  C83  1  0.94986900  0.35166800  0.99394100  1
  C  C84  1  0.55462300  0.35466900  0.50256100  1
  C  C85  1  0.44537700  0.35466900  0.00256100  1
  C  C86  1  0.82848200  0.39109100  0.28940400  1
  C  C87  1  0.17151800  0.39109100  0.78940400  1
  C  C88  1  0.58631200  0.44687000  0.12160700  1
  C  C89  1  0.41368800  0.44687000  0.62160700  1
  C  C90  1  0.08229100  0.45227600  0.11297200  1
  C  C91  1  0.91770900  0.45227600  0.61297200  1
  C  C92  1  0.08229100  0.54772400  0.38702800  1
  C  C93  1  0.91770900  0.54772400  0.88702800  1
  C  C94  1  0.58631200  0.55313000  0.37839300  1
  C  C95  1  0.41368800  0.55313000  0.87839300  1
  C  C96  1  0.82848200  0.60890900  0.21059600  1
  C  C97  1  0.17151800  0.60890900  0.71059600  1
  C  C98  1  0.44537700  0.64533100  0.49743900  1
  C  C99  1  0.55462300  0.64533100  0.99743900  1
  C  C100  1  0.05013100  0.64833200  0.00605900  1
  C  C101  1  0.94986900  0.64833200  0.50605900  1
  C  C102  1  0.28131700  0.67540100  0.26137700  1
  C  C103  1  0.71868300  0.67540100  0.76137700  1
  C  C104  1  0.48371500  0.73509900  0.64645200  1
  C  C105  1  0.51628500  0.73509900  0.14645200  1
  C  C106  1  0.25382100  0.75058100  0.57459100  1
  C  C107  1  0.74617900  0.75058100  0.07459100  1
  C  C108  1  0.92766200  0.74603800  0.88054100  1
  C  C109  1  0.07233800  0.74603800  0.38054100  1
  C  C110  1  0.42766200  0.75396200  0.88054100  1
  C  C111  1  0.57233800  0.75396200  0.38054100  1
  C  C112  1  0.24617900  0.74941900  0.07459100  1
  C  C113  1  0.75382100  0.74941900  0.57459100  1
  C  C114  1  0.01628500  0.76490100  0.14645200  1
  C  C115  1  0.98371500  0.76490100  0.64645200  1
  C  C116  1  0.21868300  0.82459900  0.76137700  1
  C  C117  1  0.78131700  0.82459900  0.26137700  1
  C  C118  1  0.44986900  0.85166800  0.50605900  1
  C  C119  1  0.55013100  0.85166800  0.00605900  1
  C  C120  1  0.05462300  0.85466900  0.99743900  1
  C  C121  1  0.94537700  0.85466900  0.49743900  1
  C  C122  1  0.32848200  0.89109100  0.21059600  1
  C  C123  1  0.67151800  0.89109100  0.71059600  1
  C  C124  1  0.08631200  0.94687000  0.37839300  1
  C  C125  1  0.91368800  0.94687000  0.87839300  1
  C  C126  1  0.41770900  0.95227600  0.88702800  1
  C  C127  1  0.58229100  0.95227600  0.38702800  1
