# generated using pymatgen
data_Cu2NiC2
_symmetry_space_group_name_H-M   'P 1'
_cell_length_a   5.27548700
_cell_length_b   8.82417800
_cell_length_c   12.62204972
_cell_angle_alpha   49.14381485
_cell_angle_beta   90.00000000
_cell_angle_gamma   90.00000000
_symmetry_Int_Tables_number   1
_chemical_formula_structural   Cu2NiC2
_chemical_formula_sum   'Cu16 Ni8 C16'
_cell_volume   444.41813826
_cell_formula_units_Z   8
loop_
 _symmetry_equiv_pos_site_id
 _symmetry_equiv_pos_as_xyz
  1  'x, y, z'
loop_
 _atom_site_type_symbol
 _atom_site_label
 _atom_site_symmetry_multiplicity
 _atom_site_fract_x
 _atom_site_fract_y
 _atom_site_fract_z
 _atom_site_occupancy
  C  C0  1  0.07224500  0.83026800  0.00119900  1
  C  C1  1  0.09290900  0.95281700  0.21445100  1
  C  C2  1  0.90709100  0.95281700  0.71445100  1
  C  C3  1  0.92775500  0.83026800  0.50119900  1
  C  C4  1  0.57305300  0.63462300  0.00596000  1
  C  C5  1  0.58782900  0.15393800  0.19648000  1
  C  C6  1  0.41217100  0.15393800  0.69648000  1
  C  C7  1  0.42694700  0.63462300  0.50596000  1
  C  C8  1  0.07748800  0.32196300  0.19095700  1
  C  C9  1  0.04142900  0.43741100  0.42027000  1
  C  C10  1  0.95857100  0.43741100  0.92027000  1
  C  C11  1  0.92251200  0.32196300  0.69095700  1
  C  C12  1  0.60433200  0.79023000  0.19568900  1
  C  C13  1  0.61034400  0.23863100  0.43440800  1
  C  C14  1  0.38965600  0.23863100  0.93440800  1
  C  C15  1  0.39566800  0.79023000  0.69568900  1
  Ni  Ni16  1  0.20430700  0.41676600  0.56297900  1
  Ni  Ni17  1  0.23786100  0.25947300  0.06805600  1
  Ni  Ni18  1  0.07584900  0.33655300  0.82687900  1
  Ni  Ni19  1  0.09380000  0.69933600  0.79591600  1
  Ni  Ni20  1  0.90620000  0.69933600  0.29591600  1
  Ni  Ni21  1  0.92415100  0.33655300  0.32687900  1
  Ni  Ni22  1  0.76213900  0.25947300  0.56805600  1
  Ni  Ni23  1  0.79569300  0.41676600  0.06297900  1
  Cu  Cu24  1  0.24041400  0.59322600  0.07400300  1
  Cu  Cu25  1  0.08010800  0.03884400  0.80403400  1
  Cu  Cu26  1  0.91989200  0.03884400  0.30403400  1
  Cu  Cu27  1  0.75958600  0.59322600  0.57400300  1
  Cu  Cu28  1  0.72494700  0.77334800  0.05719200  1
  Cu  Cu29  1  0.72249500  0.93941600  0.56686100  1
  Cu  Cu30  1  0.71130600  0.09738600  0.06363700  1
  Cu  Cu31  1  0.57932800  0.51360400  0.82201300  1
  Cu  Cu32  1  0.57127400  0.85283300  0.80296700  1
  Cu  Cu33  1  0.57906400  0.20811400  0.80727100  1
  Cu  Cu34  1  0.42093600  0.20811400  0.30727100  1
  Cu  Cu35  1  0.42872600  0.85283300  0.30296700  1
  Cu  Cu36  1  0.42067200  0.51360400  0.32201300  1
  Cu  Cu37  1  0.28869400  0.09738600  0.56363700  1
  Cu  Cu38  1  0.27750500  0.93941600  0.06686100  1
  Cu  Cu39  1  0.27505300  0.77334800  0.55719200  1
