# generated using pymatgen
data_CuNiC
_symmetry_space_group_name_H-M   'P 1'
_cell_length_a   6.24837300
_cell_length_b   4.67320600
_cell_length_c   9.38938720
_cell_angle_alpha   89.70411593
_cell_angle_beta   90.00000000
_cell_angle_gamma   90.00000000
_symmetry_Int_Tables_number   1
_chemical_formula_structural   CuNiC
_chemical_formula_sum   'Cu8 Ni8 C8'
_cell_volume   274.16583253
_cell_formula_units_Z   8
loop_
 _symmetry_equiv_pos_site_id
 _symmetry_equiv_pos_as_xyz
  1  'x, y, z'
loop_
 _atom_site_type_symbol
 _atom_site_label
 _atom_site_symmetry_multiplicity
 _atom_site_fract_x
 _atom_site_fract_y
 _atom_site_fract_z
 _atom_site_occupancy
  C  C0  1  0.00000000  0.00000000  0.00000000  1
  C  C1  1  0.50000000  0.00000000  0.00000000  1
  C  C2  1  0.00000000  0.00000000  0.50000000  1
  C  C3  1  0.50000000  0.00000000  0.50000000  1
  C  C4  1  0.75028100  0.47197400  0.76353600  1
  C  C5  1  0.25028100  0.52802600  0.73646400  1
  C  C6  1  0.74971900  0.47197400  0.26353600  1
  C  C7  1  0.24971900  0.52802600  0.23646400  1
  Ni  Ni8  1  0.24807100  0.82367000  0.58719500  1
  Ni  Ni9  1  0.25192900  0.82367000  0.08719500  1
  Ni  Ni10  1  0.00020300  0.68350400  0.84044400  1
  Ni  Ni11  1  0.49979700  0.68350400  0.34044400  1
  Ni  Ni12  1  0.50020300  0.31649600  0.65955600  1
  Ni  Ni13  1  0.99979700  0.31649600  0.15955600  1
  Ni  Ni14  1  0.74807100  0.17633000  0.91280500  1
  Ni  Ni15  1  0.75192900  0.17633000  0.41280500  1
  Cu  Cu16  1  0.75171200  0.77733300  0.61069500  1
  Cu  Cu17  1  0.74828800  0.77733300  0.11069500  1
  Cu  Cu18  1  0.50041000  0.70983700  0.85561000  1
  Cu  Cu19  1  0.99959000  0.70983700  0.35561000  1
  Cu  Cu20  1  0.00041000  0.29016300  0.64439000  1
  Cu  Cu21  1  0.49959000  0.29016300  0.14439000  1
  Cu  Cu22  1  0.25171200  0.22266700  0.88930500  1
  Cu  Cu23  1  0.24828800  0.22266700  0.38930500  1
