# generated using pymatgen
data_Cu2NiC9
_symmetry_space_group_name_H-M   'P 1'
_cell_length_a   6.61529570
_cell_length_b   6.61529570
_cell_length_c   5.76674771
_cell_angle_alpha   77.17765694
_cell_angle_beta   77.17765694
_cell_angle_gamma   24.83530131
_symmetry_Int_Tables_number   1
_chemical_formula_structural   Cu2NiC9
_chemical_formula_sum   'Cu2 Ni1 C9'
_cell_volume   103.22312773
_cell_formula_units_Z   1
loop_
 _symmetry_equiv_pos_site_id
 _symmetry_equiv_pos_as_xyz
  1  'x, y, z'
loop_
 _atom_site_type_symbol
 _atom_site_label
 _atom_site_symmetry_multiplicity
 _atom_site_fract_x
 _atom_site_fract_y
 _atom_site_fract_z
 _atom_site_occupancy
  C  C0  1  0.00000000  0.00000000  0.00000000  1
  C  C1  1  0.33618300  0.33618300  0.32644700  1
  C  C2  1  0.66381700  0.66381700  0.67355300  1
  Ni  Ni3  1  0.00000000  0.00000000  0.50000000  1
  Cu  Cu4  1  0.33594700  0.33594700  0.83361800  1
  Cu  Cu5  1  0.66405300  0.66405300  0.16638200  1
  C  C6  1  0.84631100  0.84631100  0.59660700  1
  C  C7  1  0.15368900  0.15368900  0.40339300  1
  C  C8  1  0.50108400  0.50108400  0.72431700  1
  C  C9  1  0.16864900  0.16864900  0.93451700  1
  C  C10  1  0.49891600  0.49891600  0.27568300  1
  C  C11  1  0.83135100  0.83135100  0.06548300  1
