# generated using pymatgen
data_Cu3NiC32
_symmetry_space_group_name_H-M   'P 1'
_cell_length_a   8.43970765
_cell_length_b   8.59655140
_cell_length_c   8.59655150
_cell_angle_alpha   60.00000044
_cell_angle_beta   59.38331501
_cell_angle_gamma   59.38331689
_symmetry_Int_Tables_number   1
_chemical_formula_structural   Cu3NiC32
_chemical_formula_sum   'Cu3 Ni1 C32'
_cell_volume   436.86704027
_cell_formula_units_Z   1
loop_
 _symmetry_equiv_pos_site_id
 _symmetry_equiv_pos_as_xyz
  1  'x, y, z'
loop_
 _atom_site_type_symbol
 _atom_site_label
 _atom_site_symmetry_multiplicity
 _atom_site_fract_x
 _atom_site_fract_y
 _atom_site_fract_z
 _atom_site_occupancy
  Ni  Ni0  1  0.56754700  0.14415100  0.14415100  1
  Cu  Cu1  1  0.06781300  0.64406200  0.64406200  1
  Cu  Cu2  1  0.43552000  0.85482700  0.85482700  1
  Cu  Cu3  1  0.92964000  0.35678600  0.35678600  1
  C  C4  1  0.00504600  0.99831800  0.99831800  1
  C  C5  1  0.50420100  0.49860000  0.49860000  1
  C  C6  1  0.24730900  0.25191400  0.54674900  1
  C  C7  1  0.24730900  0.95402800  0.25191400  1
  C  C8  1  0.24730900  0.54674900  0.95402800  1
  C  C9  1  0.74804000  0.45328000  0.04694000  1
  C  C10  1  0.74804000  0.04694000  0.75174000  1
  C  C11  1  0.74804000  0.75174000  0.45328000  1
  C  C12  1  0.06688100  0.10908800  0.32340700  1
  C  C13  1  0.06688100  0.50062400  0.10908800  1
  C  C14  1  0.06688100  0.32340700  0.50062400  1
  C  C15  1  0.22673300  0.09054500  0.74098100  1
  C  C16  1  0.43118300  0.17833300  0.37748600  1
  C  C17  1  0.28696500  0.40742100  0.54803000  1
  C  C18  1  0.22673300  0.94174100  0.09054500  1
  C  C19  1  0.28696500  0.75758500  0.40742100  1
  C  C20  1  0.56398600  0.60707700  0.00431000  1
  C  C21  1  0.28696500  0.54803000  0.75758500  1
  C  C22  1  0.76683300  0.25147200  0.06514300  1
  C  C23  1  0.56398600  0.00431000  0.82462500  1
  C  C24  1  0.43118300  0.01300000  0.17833300  1
  C  C25  1  0.22673300  0.74098100  0.94174100  1
  C  C26  1  0.72372300  0.43497700  0.24579400  1
  C  C27  1  0.43118300  0.37748600  0.01300000  1
  C  C28  1  0.72372300  0.24579400  0.59550500  1
  C  C29  1  0.76683300  0.06514300  0.91655200  1
  C  C30  1  0.72372300  0.59550500  0.43497700  1
  C  C31  1  0.56398600  0.82462500  0.60707700  1
  C  C32  1  0.76683300  0.91655200  0.25147200  1
  C  C33  1  0.93509300  0.69056900  0.48700500  1
  C  C34  1  0.93509300  0.48700500  0.88733400  1
  C  C35  1  0.93509300  0.88733400  0.69056900  1
