# generated using pymatgen
data_Cu2Ni4C7
_symmetry_space_group_name_H-M   'P 1'
_cell_length_a   19.19785121
_cell_length_b   11.37933552
_cell_length_c   7.86691282
_cell_angle_alpha   90.00000000
_cell_angle_beta   91.26491590
_cell_angle_gamma   90.00000000
_symmetry_Int_Tables_number   1
_chemical_formula_structural   Cu2Ni4C7
_chemical_formula_sum   'Cu12 Ni24 C42'
_cell_volume   1718.17746079
_cell_formula_units_Z   6
loop_
 _symmetry_equiv_pos_site_id
 _symmetry_equiv_pos_as_xyz
  1  'x, y, z'
loop_
 _atom_site_type_symbol
 _atom_site_label
 _atom_site_symmetry_multiplicity
 _atom_site_fract_x
 _atom_site_fract_y
 _atom_site_fract_z
 _atom_site_occupancy
  Ni  Ni0  1  0.08576084  0.40086655  0.83669486  1
  Ni  Ni1  1  0.08911882  0.75216598  0.97439646  1
  Ni  Ni2  1  0.08576084  0.09913345  0.33669486  1
  Ni  Ni3  1  0.08911882  0.74783402  0.47439646  1
  Ni  Ni4  1  0.24885069  0.94423636  0.69866381  1
  Ni  Ni5  1  0.25414533  0.27190662  0.53129591  1
  Ni  Ni6  1  0.24885069  0.55576364  0.19866381  1
  Ni  Ni7  1  0.25414533  0.22809338  0.03129591  1
  Ni  Ni8  1  0.41968171  0.77922990  0.01606838  1
  Ni  Ni9  1  0.41015059  0.44515911  0.83277318  1
  Ni  Ni10  1  0.41968171  0.72077010  0.51606838  1
  Ni  Ni11  1  0.41015059  0.05484089  0.33277318  1
  Ni  Ni12  1  0.58984941  0.94515911  0.66722682  1
  Ni  Ni13  1  0.58031829  0.27922990  0.48393162  1
  Ni  Ni14  1  0.58984941  0.55484089  0.16722682  1
  Ni  Ni15  1  0.58031829  0.22077010  0.98393162  1
  Ni  Ni16  1  0.74585467  0.77190662  0.96870409  1
  Ni  Ni17  1  0.75114931  0.44423636  0.80133619  1
  Ni  Ni18  1  0.74585467  0.72809338  0.46870409  1
  Ni  Ni19  1  0.75114931  0.05576364  0.30133619  1
  Ni  Ni20  1  0.91088118  0.25216598  0.52560354  1
  Ni  Ni21  1  0.91423916  0.90086655  0.66330514  1
  Ni  Ni22  1  0.91088118  0.24783402  0.02560354  1
  Ni  Ni23  1  0.91423916  0.59913345  0.16330514  1
  Cu  Cu24  1  0.08128616  0.07525197  0.82615641  1
  Cu  Cu25  1  0.08128616  0.42474803  0.32615641  1
  Cu  Cu26  1  0.24084339  0.57755177  0.68928709  1
  Cu  Cu27  1  0.24084339  0.92244823  0.18928709  1
  Cu  Cu28  1  0.41705597  0.07976239  0.82249671  1
  Cu  Cu29  1  0.41705597  0.42023761  0.32249671  1
  Cu  Cu30  1  0.58294403  0.57976239  0.67750329  1
  Cu  Cu31  1  0.58294403  0.92023761  0.17750329  1
  Cu  Cu32  1  0.75915661  0.07755177  0.81071291  1
  Cu  Cu33  1  0.75915661  0.42244823  0.31071291  1
  Cu  Cu34  1  0.91871384  0.57525197  0.67384359  1
  Cu  Cu35  1  0.91871384  0.92474803  0.17384359  1
  C  C36  1  0.00239324  0.20845820  0.78659075  1
  C  C37  1  0.00239324  0.29154180  0.28659075  1
  C  C38  1  0.07808500  0.95908119  0.61193822  1
  C  C39  1  0.07808500  0.54091881  0.11193822  1
  C  C40  1  0.16257401  0.19430723  0.76471513  1
  C  C41  1  0.14792753  0.50490412  0.55179051  1
  C  C42  1  0.16257401  0.30569277  0.26471513  1
  C  C43  1  0.14792753  0.99509588  0.05179051  1
  C  C44  1  0.19567324  0.74428992  0.75483085  1
  C  C45  1  0.23759131  0.45636925  0.89978581  1
  C  C46  1  0.19567324  0.75571008  0.25483085  1
  C  C47  1  0.23759131  0.04363075  0.39978581  1
  C  C48  1  0.33149029  0.50094556  0.52950246  1
  C  C49  1  0.34990644  0.23245579  0.78373430  1
  C  C50  1  0.33149029  0.99905444  0.02950246  1
  C  C51  1  0.34990644  0.26754421  0.28373430  1
  C  C52  1  0.38993209  0.93722237  0.64470405  1
  C  C53  1  0.38993209  0.56277763  0.14470405  1
  C  C54  1  0.48947379  0.65357453  0.81032775  1
  C  C55  1  0.51052621  0.15357453  0.68967225  1
  C  C56  1  0.50000000  0.50000000  0.50000000  1
  C  C57  1  0.48947379  0.84642547  0.31032775  1
  C  C58  1  0.51052621  0.34642547  0.18967225  1
  C  C59  1  0.50000000  0.00000000  0.00000000  1
  C  C60  1  0.61006791  0.43722237  0.85529595  1
  C  C61  1  0.61006791  0.06277763  0.35529595  1
  C  C62  1  0.65009356  0.73245579  0.71626570  1
  C  C63  1  0.66850971  0.00094556  0.97049754  1
  C  C64  1  0.65009356  0.76754421  0.21626570  1
  C  C65  1  0.66850971  0.49905444  0.47049754  1
  C  C66  1  0.76240869  0.95636925  0.60021419  1
  C  C67  1  0.80432676  0.24428992  0.74516915  1
  C  C68  1  0.76240869  0.54363075  0.10021419  1
  C  C69  1  0.80432676  0.25571008  0.24516915  1
  C  C70  1  0.85207247  0.00490412  0.94820949  1
  C  C71  1  0.83742599  0.69430723  0.73528487  1
  C  C72  1  0.85207247  0.49509588  0.44820949  1
  C  C73  1  0.83742599  0.80569277  0.23528487  1
  C  C74  1  0.92191500  0.45908119  0.88806178  1
  C  C75  1  0.92191500  0.04091881  0.38806178  1
  C  C76  1  0.99760676  0.70845820  0.71340925  1
  C  C77  1  0.99760676  0.79154180  0.21340925  1
