# generated using pymatgen
data_CuNi3C2
_symmetry_space_group_name_H-M   'P 1'
_cell_length_a   5.55627821
_cell_length_b   5.55627821
_cell_length_c   8.96415093
_cell_angle_alpha   87.76605487
_cell_angle_beta   87.76605487
_cell_angle_gamma   72.08204609
_symmetry_Int_Tables_number   1
_chemical_formula_structural   CuNi3C2
_chemical_formula_sum   'Cu4 Ni12 C8'
_cell_volume   263.01457272
_cell_formula_units_Z   4
loop_
 _symmetry_equiv_pos_site_id
 _symmetry_equiv_pos_as_xyz
  1  'x, y, z'
loop_
 _atom_site_type_symbol
 _atom_site_label
 _atom_site_symmetry_multiplicity
 _atom_site_fract_x
 _atom_site_fract_y
 _atom_site_fract_z
 _atom_site_occupancy
  C  C0  1  0.85822100  0.85822100  0.64596000  1
  C  C1  1  0.14177900  0.14177900  0.35404000  1
  C  C2  1  0.50000000  0.50000000  0.50000000  1
  C  C3  1  0.75847200  0.75847200  0.26263300  1
  C  C4  1  0.00000000  0.00000000  0.00000000  1
  C  C5  1  0.39715500  0.39715500  0.13564400  1
  C  C6  1  0.60284500  0.60284500  0.86435600  1
  C  C7  1  0.24152800  0.24152800  0.73736700  1
  Ni  Ni8  1  0.06190600  0.44942600  0.24122200  1
  Ni  Ni9  1  0.47112000  0.47112000  0.71996800  1
  Ni  Ni10  1  0.98071900  0.98071900  0.22879200  1
  Ni  Ni11  1  0.72778300  0.72778300  0.48544500  1
  Ni  Ni12  1  0.27221700  0.27221700  0.51455500  1
  Ni  Ni13  1  0.01928100  0.01928100  0.77120800  1
  Ni  Ni14  1  0.52888000  0.52888000  0.28003200  1
  Ni  Ni15  1  0.44942600  0.06190600  0.24122200  1
  Ni  Ni16  1  0.93809400  0.55057400  0.75877800  1
  Ni  Ni17  1  0.69337200  0.30662800  0.00000000  1
  Ni  Ni18  1  0.55057400  0.93809400  0.75877800  1
  Ni  Ni19  1  0.30662800  0.69337200  0.00000000  1
  Cu  Cu20  1  0.19049200  0.80950800  0.50000000  1
  Cu  Cu21  1  0.80950800  0.19049200  0.50000000  1
  Cu  Cu22  1  0.22927800  0.22927800  0.97213600  1
  Cu  Cu23  1  0.77072200  0.77072200  0.02786400  1
