# generated using pymatgen
data_Cu3Ni3C22
_symmetry_space_group_name_H-M   'P 1'
_cell_length_a   5.90953500
_cell_length_b   5.94335048
_cell_length_c   9.63465899
_cell_angle_alpha   90.02400979
_cell_angle_beta   90.29833649
_cell_angle_gamma   119.69191505
_symmetry_Int_Tables_number   1
_chemical_formula_structural   Cu3Ni3C22
_chemical_formula_sum   'Cu3 Ni3 C22'
_cell_volume   293.95649180
_cell_formula_units_Z   1
loop_
 _symmetry_equiv_pos_site_id
 _symmetry_equiv_pos_as_xyz
  1  'x, y, z'
loop_
 _atom_site_type_symbol
 _atom_site_label
 _atom_site_symmetry_multiplicity
 _atom_site_fract_x
 _atom_site_fract_y
 _atom_site_fract_z
 _atom_site_occupancy
  C  C0  1  0.66806500  0.33705100  0.89434500  1
  C  C1  1  0.99722800  0.99647900  0.99448800  1
  C  C2  1  0.00199200  0.00450300  0.49704700  1
  C  C3  1  0.33285700  0.66524500  0.39380800  1
  Ni  Ni4  1  0.34085400  0.17324700  0.21645900  1
  Ni  Ni5  1  0.83284900  0.17381400  0.21651100  1
  Ni  Ni6  1  0.17011600  0.34193000  0.72161700  1
  Cu  Cu7  1  0.82993300  0.66026200  0.21051900  1
  Cu  Cu8  1  0.65897100  0.83267500  0.70933600  1
  Cu  Cu9  1  0.18135100  0.83681800  0.71057200  1
  C  C10  1  0.67089000  0.33741000  0.49315100  1
  C  C11  1  0.33417000  0.66998700  0.99306200  1
  C  C12  1  0.33175100  0.16353600  0.60255300  1
  C  C13  1  0.52010000  0.03793300  0.33492100  1
  C  C14  1  0.65461500  0.31120100  0.10165300  1
  C  C15  1  0.00604200  0.01012200  0.31063800  1
  C  C16  1  0.01052900  0.00693500  0.80870100  1
  C  C17  1  0.83514400  0.16475200  0.60243400  1
  C  C18  1  0.51363200  0.47328700  0.33855700  1
  C  C19  1  0.96093200  0.47276400  0.33814100  1
  C  C20  1  0.16280000  0.32749800  0.10196100  1
  C  C21  1  0.84799000  0.67905100  0.60366600  1
  C  C22  1  0.03788200  0.51740800  0.83686900  1
  C  C23  1  0.47926600  0.51934000  0.83810700  1
  C  C24  1  0.31404200  0.64812700  0.59938700  1
  C  C25  1  0.16473200  0.83789100  0.10227100  1
  C  C26  1  0.46855400  0.96208700  0.83559800  1
  C  C27  1  0.67241100  0.83864400  0.10147000  1
