# generated using pymatgen
data_Cu3Ni2C5
_symmetry_space_group_name_H-M   'P 1'
_cell_length_a   8.84865700
_cell_length_b   5.57387300
_cell_length_c   11.01944666
_cell_angle_alpha   68.71639838
_cell_angle_beta   90.00000000
_cell_angle_gamma   90.00000000
_symmetry_Int_Tables_number   1
_chemical_formula_structural   Cu3Ni2C5
_chemical_formula_sum   'Cu12 Ni8 C20'
_cell_volume   506.42444946
_cell_formula_units_Z   4
loop_
 _symmetry_equiv_pos_site_id
 _symmetry_equiv_pos_as_xyz
  1  'x, y, z'
loop_
 _atom_site_type_symbol
 _atom_site_label
 _atom_site_symmetry_multiplicity
 _atom_site_fract_x
 _atom_site_fract_y
 _atom_site_fract_z
 _atom_site_occupancy
  Ni  Ni0  1  0.50767300  0.70664600  0.63848500  1
  Ni  Ni1  1  0.22751900  0.28248800  0.10771500  1
  Ni  Ni2  1  0.00767300  0.29335400  0.86151500  1
  Ni  Ni3  1  0.72751900  0.71751200  0.39228500  1
  Ni  Ni4  1  0.27248100  0.28248800  0.60771500  1
  Ni  Ni5  1  0.99232700  0.70664600  0.13848500  1
  Ni  Ni6  1  0.77248100  0.71751200  0.89228500  1
  Ni  Ni7  1  0.49232700  0.29335400  0.36151500  1
  Cu  Cu8  1  0.26450000  0.62522500  0.80139500  1
  Cu  Cu9  1  0.49678800  0.36829000  0.93212200  1
  Cu  Cu10  1  0.99678800  0.63171000  0.56787800  1
  Cu  Cu11  1  0.96613700  0.09399600  0.29773100  1
  Cu  Cu12  1  0.76450000  0.37477500  0.69860500  1
  Cu  Cu13  1  0.46613700  0.90600400  0.20226900  1
  Cu  Cu14  1  0.53386300  0.09399600  0.79773100  1
  Cu  Cu15  1  0.23550000  0.62522500  0.30139500  1
  Cu  Cu16  1  0.03386300  0.90600400  0.70226900  1
  Cu  Cu17  1  0.00321200  0.36829000  0.43212200  1
  Cu  Cu18  1  0.50321200  0.63171000  0.06787800  1
  Cu  Cu19  1  0.73550000  0.37477500  0.19860500  1
  C  C20  1  0.21338500  0.90566500  0.43614100  1
  C  C21  1  0.71338500  0.09433500  0.06385900  1
  C  C22  1  0.28661500  0.90566500  0.93614100  1
  C  C23  1  0.78661500  0.09433500  0.56385900  1
  C  C24  1  0.19162700  0.76379900  0.62010700  1
  C  C25  1  0.82736500  0.74896500  0.64411600  1
  C  C26  1  0.55012800  0.25633100  0.12341200  1
  C  C27  1  0.89043100  0.22250700  0.11168100  1
  C  C28  1  0.32736500  0.25103500  0.85588400  1
  C  C29  1  0.69162700  0.23620100  0.87989300  1
  C  C30  1  0.39043100  0.77749300  0.38831900  1
  C  C31  1  0.05012800  0.74366900  0.37658800  1
  C  C32  1  0.94987200  0.25633100  0.62341200  1
  C  C33  1  0.60956900  0.22250700  0.61168100  1
  C  C34  1  0.30837300  0.76379900  0.12010700  1
  C  C35  1  0.67263500  0.74896500  0.14411600  1
  C  C36  1  0.10956900  0.77749300  0.88831900  1
  C  C37  1  0.44987200  0.74366900  0.87658800  1
  C  C38  1  0.17263500  0.25103500  0.35588400  1
  C  C39  1  0.80837300  0.23620100  0.37989300  1
