# generated using pymatgen
data_CuNiC3
_symmetry_space_group_name_H-M   'P 1'
_cell_length_a   5.25126000
_cell_length_b   5.36046800
_cell_length_c   7.61239100
_cell_angle_alpha   90.00000000
_cell_angle_beta   90.00000000
_cell_angle_gamma   90.00000000
_symmetry_Int_Tables_number   1
_chemical_formula_structural   CuNiC3
_chemical_formula_sum   'Cu4 Ni4 C12'
_cell_volume   214.28280192
_cell_formula_units_Z   4
loop_
 _symmetry_equiv_pos_site_id
 _symmetry_equiv_pos_as_xyz
  1  'x, y, z'
loop_
 _atom_site_type_symbol
 _atom_site_label
 _atom_site_symmetry_multiplicity
 _atom_site_fract_x
 _atom_site_fract_y
 _atom_site_fract_z
 _atom_site_occupancy
  Ni  Ni0  1  0.00000000  0.50000000  0.00000000  1
  Ni  Ni1  1  0.00000000  0.50000000  0.50000000  1
  Ni  Ni2  1  0.50000000  0.00000000  0.00000000  1
  Ni  Ni3  1  0.50000000  0.00000000  0.50000000  1
  Cu  Cu4  1  0.01307800  0.96002600  0.75000000  1
  Cu  Cu5  1  0.48692200  0.46002600  0.75000000  1
  Cu  Cu6  1  0.51307800  0.53997400  0.25000000  1
  Cu  Cu7  1  0.98692200  0.03997400  0.25000000  1
  C  C8  1  0.09681800  0.46655000  0.25000000  1
  C  C9  1  0.20658600  0.20906900  0.55134900  1
  C  C10  1  0.20658600  0.20906900  0.94865100  1
  C  C11  1  0.29341400  0.70906900  0.94865100  1
  C  C12  1  0.29341400  0.70906900  0.55134900  1
  C  C13  1  0.40318200  0.96655000  0.25000000  1
  C  C14  1  0.59681800  0.03345000  0.75000000  1
  C  C15  1  0.70658600  0.29093100  0.05134900  1
  C  C16  1  0.70658600  0.29093100  0.44865100  1
  C  C17  1  0.79341400  0.79093100  0.05134900  1
  C  C18  1  0.79341400  0.79093100  0.44865100  1
  C  C19  1  0.90318200  0.53345000  0.75000000  1
