# generated using pymatgen
data_Cu19Ni5C32
_symmetry_space_group_name_H-M   'P 1'
_cell_length_a   8.54368205
_cell_length_b   8.54368205
_cell_length_c   10.46046672
_cell_angle_alpha   65.79955094
_cell_angle_beta   65.79955094
_cell_angle_gamma   89.65731332
_symmetry_Int_Tables_number   1
_chemical_formula_structural   Cu19Ni5C32
_chemical_formula_sum   'Cu19 Ni5 C32'
_cell_volume   623.07752414
_cell_formula_units_Z   1
loop_
 _symmetry_equiv_pos_site_id
 _symmetry_equiv_pos_as_xyz
  1  'x, y, z'
loop_
 _atom_site_type_symbol
 _atom_site_label
 _atom_site_symmetry_multiplicity
 _atom_site_fract_x
 _atom_site_fract_y
 _atom_site_fract_z
 _atom_site_occupancy
  Ni  Ni0  1  0.25003100  0.25003100  0.50056400  1
  Ni  Ni1  1  0.50000000  0.50000000  0.50000000  1
  Ni  Ni2  1  0.74996900  0.74996900  0.49943600  1
  Ni  Ni3  1  0.00000000  0.50000000  0.00000000  1
  Ni  Ni4  1  0.50000000  0.00000000  0.00000000  1
  Cu  Cu5  1  0.37798500  0.12570300  0.74841800  1
  Cu  Cu6  1  0.12570300  0.37798500  0.74841800  1
  Cu  Cu7  1  0.87268000  0.62718500  0.74919200  1
  Cu  Cu8  1  0.62718500  0.87268100  0.74919200  1
  Cu  Cu9  1  0.31297600  0.81033700  0.62138600  1
  Cu  Cu10  1  0.81033700  0.31297600  0.62138600  1
  Cu  Cu11  1  0.00000000  0.00000000  0.50000000  1
  Cu  Cu12  1  0.18966300  0.68702400  0.37861400  1
  Cu  Cu13  1  0.68702400  0.18966300  0.37861400  1
  Cu  Cu14  1  0.62201500  0.87429700  0.25158200  1
  Cu  Cu15  1  0.12731900  0.37281500  0.25080800  1
  Cu  Cu16  1  0.87429700  0.62201500  0.25158200  1
  Cu  Cu17  1  0.37281500  0.12731900  0.25080800  1
  Cu  Cu18  1  0.05972000  0.05972000  0.12275900  1
  Cu  Cu19  1  0.56201300  0.56201300  0.12403500  1
  Cu  Cu20  1  0.25136200  0.74863800  0.00000000  1
  Cu  Cu21  1  0.74863800  0.25136200  0.00000000  1
  Cu  Cu22  1  0.94028000  0.94028000  0.87724100  1
  Cu  Cu23  1  0.43798700  0.43798700  0.87596500  1
  C  C24  1  0.87896500  0.87896500  0.74272800  1
  C  C25  1  0.36721100  0.36721100  0.74742200  1
  C  C26  1  0.62933300  0.62933300  0.74334000  1
  C  C27  1  0.13607800  0.13607800  0.74757700  1
  C  C28  1  0.99282000  0.75789900  0.50515100  1
  C  C29  1  0.75789900  0.99282000  0.50515100  1
  C  C30  1  0.24829400  0.48872600  0.51148400  1
  C  C31  1  0.48872600  0.24829400  0.51148400  1
  C  C32  1  0.00718000  0.24210100  0.49484900  1
  C  C33  1  0.51127400  0.75170600  0.48851600  1
  C  C34  1  0.75170600  0.51127400  0.48851600  1
  C  C35  1  0.24210100  0.00718000  0.49484900  1
  C  C36  1  0.37066700  0.37066700  0.25666000  1
  C  C37  1  0.86392200  0.86392200  0.25242300  1
  C  C38  1  0.12103500  0.12103500  0.25727200  1
  C  C39  1  0.63278900  0.63278900  0.25257800  1
  C  C40  1  0.12086700  0.63003500  0.24195100  1
  C  C41  1  0.87849900  0.38796300  0.24574700  1
  C  C42  1  0.63003500  0.12086700  0.24195100  1
  C  C43  1  0.38796300  0.87849900  0.24574700  1
  C  C44  1  0.00529600  0.74072000  0.00862400  1
  C  C45  1  0.50632900  0.24197300  0.00685100  1
  C  C46  1  0.74072000  0.00529600  0.00862400  1
  C  C47  1  0.24197300  0.50632900  0.00685100  1
  C  C48  1  0.75802700  0.49367100  0.99314900  1
  C  C49  1  0.49367100  0.75802700  0.99314900  1
  C  C50  1  0.99470400  0.25928000  0.99137600  1
  C  C51  1  0.25928000  0.99470400  0.99137600  1
  C  C52  1  0.61203700  0.12150100  0.75425300  1
  C  C53  1  0.12150100  0.61203700  0.75425300  1
  C  C54  1  0.87913300  0.36996500  0.75804900  1
  C  C55  1  0.36996500  0.87913300  0.75804900  1
