# generated using pymatgen
data_Cu2NiC8
_symmetry_space_group_name_H-M   'P 1'
_cell_length_a   13.80691100
_cell_length_b   4.97162800
_cell_length_c   10.00591946
_cell_angle_alpha   62.43093200
_cell_angle_beta   90.00000000
_cell_angle_gamma   90.00000000
_symmetry_Int_Tables_number   1
_chemical_formula_structural   Cu2NiC8
_chemical_formula_sum   'Cu8 Ni4 C32'
_cell_volume   608.84696511
_cell_formula_units_Z   4
loop_
 _symmetry_equiv_pos_site_id
 _symmetry_equiv_pos_as_xyz
  1  'x, y, z'
loop_
 _atom_site_type_symbol
 _atom_site_label
 _atom_site_symmetry_multiplicity
 _atom_site_fract_x
 _atom_site_fract_y
 _atom_site_fract_z
 _atom_site_occupancy
  C  C0  1  0.61968100  0.08398900  0.63631700  1
  C  C1  1  0.11968100  0.91601100  0.86368300  1
  C  C2  1  0.88031900  0.08398900  0.13631700  1
  C  C3  1  0.38031900  0.91601100  0.36368300  1
  Ni  Ni4  1  0.84064900  0.06117200  0.73757500  1
  Ni  Ni5  1  0.34064900  0.93882800  0.76242500  1
  Ni  Ni6  1  0.65935100  0.06117200  0.23757500  1
  Ni  Ni7  1  0.15935100  0.93882800  0.26242500  1
  Cu  Cu8  1  0.82110200  0.72823500  0.54369000  1
  Cu  Cu9  1  0.46269800  0.47768300  0.73301000  1
  Cu  Cu10  1  0.96269800  0.52231700  0.76699000  1
  Cu  Cu11  1  0.32110200  0.27176500  0.95631000  1
  Cu  Cu12  1  0.67889800  0.72823500  0.04369000  1
  Cu  Cu13  1  0.03730200  0.47768300  0.23301000  1
  Cu  Cu14  1  0.53730200  0.52231700  0.26699000  1
  Cu  Cu15  1  0.17889800  0.27176500  0.45631000  1
  C  C16  1  0.93603200  0.67385800  0.58687900  1
  C  C17  1  0.77510000  0.40844600  0.59487500  1
  C  C18  1  0.77891800  0.85127400  0.64922800  1
  C  C19  1  0.19072500  0.07297100  0.62152100  1
  C  C20  1  0.38688800  0.74048400  0.65477100  1
  C  C21  1  0.44126400  0.23112800  0.68009200  1
  C  C22  1  0.56631000  0.56846300  0.70785200  1
  C  C23  1  0.06631000  0.43153700  0.79214800  1
  C  C24  1  0.94126400  0.76887200  0.81990800  1
  C  C25  1  0.88688800  0.25951600  0.84522900  1
  C  C26  1  0.27891800  0.14872600  0.85077200  1
  C  C27  1  0.69072500  0.92702900  0.87847900  1
  C  C28  1  0.27510000  0.59155400  0.90512500  1
  C  C29  1  0.43603200  0.32614200  0.91312100  1
  C  C30  1  0.56396800  0.67385800  0.08687900  1
  C  C31  1  0.72490000  0.40844600  0.09487500  1
  C  C32  1  0.30927500  0.07297100  0.12152100  1
  C  C33  1  0.72108200  0.85127400  0.14922800  1
  C  C34  1  0.11311200  0.74048400  0.15477100  1
  C  C35  1  0.05873600  0.23112800  0.18009200  1
  C  C36  1  0.93369000  0.56846300  0.20785200  1
  C  C37  1  0.43369000  0.43153700  0.29214800  1
  C  C38  1  0.55873600  0.76887200  0.31990800  1
  C  C39  1  0.61311200  0.25951600  0.34522900  1
  C  C40  1  0.80927500  0.92702900  0.37847900  1
  C  C41  1  0.22108200  0.14872600  0.35077200  1
  C  C42  1  0.22490000  0.59155400  0.40512500  1
  C  C43  1  0.06396800  0.32614200  0.41312100  1
