# generated using pymatgen
data_CuNi3C29
_symmetry_space_group_name_H-M   'P 1'
_cell_length_a   9.26628173
_cell_length_b   9.26628173
_cell_length_c   11.99199568
_cell_angle_alpha   89.93722500
_cell_angle_beta   89.93722500
_cell_angle_gamma   119.86982521
_symmetry_Int_Tables_number   1
_chemical_formula_structural   CuNi3C29
_chemical_formula_sum   'Cu2 Ni6 C58'
_cell_volume   892.89468864
_cell_formula_units_Z   2
loop_
 _symmetry_equiv_pos_site_id
 _symmetry_equiv_pos_as_xyz
  1  'x, y, z'
loop_
 _atom_site_type_symbol
 _atom_site_label
 _atom_site_symmetry_multiplicity
 _atom_site_fract_x
 _atom_site_fract_y
 _atom_site_fract_z
 _atom_site_occupancy
  Ni  Ni0  1  0.40380900  0.40380900  0.24525800  1
  Ni  Ni1  1  0.58962600  0.58962600  0.75202500  1
  Ni  Ni2  1  0.00134900  0.59537800  0.24539400  1
  Ni  Ni3  1  0.00295700  0.40324100  0.75046800  1
  Ni  Ni4  1  0.40324100  0.00295700  0.75046800  1
  Ni  Ni5  1  0.59537800  0.00134900  0.24539400  1
  Cu  Cu6  1  0.99907100  0.99907100  0.22825600  1
  Cu  Cu7  1  0.00526600  0.00526600  0.73643100  1
  C  C8  1  0.25302400  0.25302400  0.91523800  1
  C  C9  1  0.25584500  0.25584500  0.60099000  1
  C  C10  1  0.74209300  0.74209300  0.09748400  1
  C  C11  1  0.99923900  0.74209600  0.59792000  1
  C  C12  1  0.25985500  0.00721000  0.09181600  1
  C  C13  1  0.00721000  0.25985500  0.09181600  1
  C  C14  1  0.74209600  0.99923900  0.59792000  1
  C  C15  1  0.75325500  0.75325500  0.41555800  1
  C  C16  1  0.66650300  0.33342800  0.99953700  1
  C  C17  1  0.66645600  0.33315900  0.49962700  1
  C  C18  1  0.00175200  0.75585300  0.91587000  1
  C  C19  1  0.24550900  0.00063800  0.41361900  1
  C  C20  1  0.00063800  0.24550900  0.41361900  1
  C  C21  1  0.33342800  0.66650300  0.99953700  1
  C  C22  1  0.33315900  0.66645600  0.49962700  1
  C  C23  1  0.75585300  0.00175200  0.91587000  1
  C  C24  1  0.20488200  0.20488200  0.07249500  1
  C  C25  1  0.20445400  0.20445400  0.42609900  1
  C  C26  1  0.20862400  0.20862400  0.75168300  1
  C  C27  1  0.48238500  0.31259100  0.60213300  1
  C  C28  1  0.47838900  0.31078700  0.89934300  1
  C  C29  1  0.79652400  0.79652400  0.24977400  1
  C  C30  1  0.48675400  0.17090000  0.10488800  1
  C  C31  1  0.48801200  0.17134600  0.39383600  1
  C  C32  1  0.79836600  0.79836600  0.58040800  1
  C  C33  1  0.79409100  0.79409100  0.92740200  1
  C  C34  1  0.68601500  0.51659500  0.10198400  1
  C  C35  1  0.68225000  0.51149900  0.39358100  1
  C  C36  1  0.82696500  0.51264500  0.89273800  1
  C  C37  1  0.83039500  0.51710000  0.60129300  1
  C  C38  1  0.99734700  0.79884400  0.08054900  1
  C  C39  1  0.99990600  0.79526900  0.42719600  1
  C  C40  1  0.68686200  0.16922600  0.60130100  1
  C  C41  1  0.67961500  0.16964700  0.89261100  1
  C  C42  1  0.00157200  0.79909000  0.74928200  1
  C  C43  1  0.82950800  0.31753200  0.39338200  1
  C  C44  1  0.83490600  0.31471800  0.09729000  1
  C  C45  1  0.19865700  0.00039200  0.57934100  1
  C  C46  1  0.20220000  0.99629400  0.92821400  1
  C  C47  1  0.20188900  0.99904600  0.24740200  1
  C  C48  1  0.16922600  0.68686200  0.60130100  1
  C  C49  1  0.16964700  0.67961500  0.89261100  1
  C  C50  1  0.99904600  0.20188900  0.24740200  1
  C  C51  1  0.31471800  0.83490600  0.09729000  1
  C  C52  1  0.31753200  0.82950800  0.39338200  1
  C  C53  1  0.00039200  0.19865700  0.57934100  1
  C  C54  1  0.99629400  0.20220000  0.92821400  1
  C  C55  1  0.17090000  0.48675400  0.10488800  1
  C  C56  1  0.17134600  0.48801200  0.39383600  1
  C  C57  1  0.31259100  0.48238500  0.60213300  1
  C  C58  1  0.31078700  0.47838900  0.89934300  1
  C  C59  1  0.51710000  0.83039500  0.60129300  1
  C  C60  1  0.51264500  0.82696500  0.89273800  1
  C  C61  1  0.51149900  0.68225000  0.39358100  1
  C  C62  1  0.51659500  0.68601500  0.10198400  1
  C  C63  1  0.79909000  0.00157200  0.74928200  1
  C  C64  1  0.79526900  0.99990600  0.42719600  1
  C  C65  1  0.79884400  0.99734700  0.08054900  1
