# generated using pymatgen
data_Cu2(NiC)29
_symmetry_space_group_name_H-M   'P 1'
_cell_length_a   8.87333800
_cell_length_b   8.89224940
_cell_length_c   9.13963156
_cell_angle_alpha   117.89148651
_cell_angle_beta   100.10264725
_cell_angle_gamma   94.21835300
_symmetry_Int_Tables_number   1
_chemical_formula_structural   Cu2(NiC)29
_chemical_formula_sum   'Cu2 Ni29 C29'
_cell_volume   617.38120649
_cell_formula_units_Z   1
loop_
 _symmetry_equiv_pos_site_id
 _symmetry_equiv_pos_as_xyz
  1  'x, y, z'
loop_
 _atom_site_type_symbol
 _atom_site_label
 _atom_site_symmetry_multiplicity
 _atom_site_fract_x
 _atom_site_fract_y
 _atom_site_fract_z
 _atom_site_occupancy
  C  C0  1  0.87357300  0.38123800  0.11321500  1
  C  C1  1  0.12642700  0.61876200  0.88678500  1
  C  C2  1  0.00000000  0.00000000  0.00000000  1
  C  C3  1  0.64106600  0.64982500  0.35457300  1
  C  C4  1  0.35893400  0.35017500  0.64542700  1
  Ni  Ni5  1  0.55289300  0.21805600  0.74349700  1
  Ni  Ni6  1  0.44710700  0.78194400  0.25650300  1
  Ni  Ni7  1  0.00000000  0.50000000  0.00000000  1
  Ni  Ni8  1  0.18667500  0.53750000  0.14621500  1
  Ni  Ni9  1  0.81332500  0.46250000  0.85378500  1
  Ni  Ni10  1  0.78649100  0.07526400  0.74701600  1
  Ni  Ni11  1  0.21350900  0.92473600  0.25298400  1
  Ni  Ni12  1  0.94498100  0.20262200  0.82022500  1
  Ni  Ni13  1  0.05501900  0.79737800  0.17977500  1
  Ni  Ni14  1  0.90253600  0.85124700  0.37388200  1
  Ni  Ni15  1  0.09746400  0.14875300  0.62611800  1
  Ni  Ni16  1  0.84558700  0.70838500  0.18024200  1
  Ni  Ni17  1  0.15441300  0.29161500  0.81975800  1
  Ni  Ni18  1  0.88798400  0.18086400  0.30584900  1
  Ni  Ni19  1  0.11201600  0.81913600  0.69415100  1
  Ni  Ni20  1  0.99346700  0.35926700  0.39459900  1
  Ni  Ni21  1  0.00653300  0.64073300  0.60540100  1
  Ni  Ni22  1  0.33273800  0.54654000  0.44613100  1
  Ni  Ni23  1  0.66726200  0.45346000  0.55386900  1
  Ni  Ni24  1  0.22160900  0.36831500  0.34697600  1
  Ni  Ni25  1  0.77839100  0.63168500  0.65302400  1
  Ni  Ni26  1  0.44528900  0.70915200  0.98390300  1
  Ni  Ni27  1  0.55471100  0.29084800  0.01609700  1
  Ni  Ni28  1  0.40427300  0.71497700  0.81264400  1
  Ni  Ni29  1  0.59572700  0.28502300  0.18735600  1
  Ni  Ni30  1  0.66067200  0.87404100  0.88492900  1
  Ni  Ni31  1  0.33932800  0.12595900  0.11507100  1
  Ni  Ni32  1  0.69723900  0.91078200  0.07258400  1
  Ni  Ni33  1  0.30276100  0.08921800  0.92741600  1
  Cu  Cu34  1  0.40607800  0.91877100  0.59039100  1
  Cu  Cu35  1  0.59392200  0.08122900  0.40960900  1
  C  C36  1  0.37468900  0.70864500  0.39064200  1
  C  C37  1  0.62531100  0.29135500  0.60935800  1
  C  C38  1  0.20630500  0.92824500  0.61446000  1
  C  C39  1  0.79369500  0.07175500  0.38554000  1
  C  C40  1  0.47074000  0.16993000  0.78056500  1
  C  C41  1  0.52926000  0.83007000  0.21943500  1
  C  C42  1  0.51694900  0.15688300  0.26281900  1
  C  C43  1  0.48305100  0.84311700  0.73718100  1
  C  C44  1  0.62694700  0.96463700  0.55766000  1
  C  C45  1  0.37305300  0.03536300  0.44234000  1
  C  C46  1  0.88052800  0.54674300  0.96402700  1
  C  C47  1  0.11947200  0.45325700  0.03597300  1
  C  C48  1  0.87384200  0.13666000  0.84875100  1
  C  C49  1  0.12615800  0.86334000  0.15124900  1
  C  C50  1  0.88505800  0.72659600  0.29653600  1
  C  C51  1  0.11494200  0.27340400  0.70346400  1
  C  C52  1  0.95846400  0.25671400  0.28317400  1
  C  C53  1  0.04153600  0.74328600  0.71682600  1
  C  C54  1  0.28039600  0.45279000  0.46074700  1
  C  C55  1  0.71960400  0.54721000  0.53925300  1
  C  C56  1  0.38352100  0.64192200  0.86533600  1
  C  C57  1  0.61647900  0.35807800  0.13466400  1
  C  C58  1  0.74632000  0.89127700  0.97891300  1
  C  C59  1  0.25368000  0.10872300  0.02108700  1
