# generated using pymatgen
data_Cu(NiC6)4
_symmetry_space_group_name_H-M   'P 1'
_cell_length_a   9.82551907
_cell_length_b   9.60579715
_cell_length_c   9.59295685
_cell_angle_alpha   61.56475833
_cell_angle_beta   59.28194807
_cell_angle_gamma   59.15329360
_symmetry_Int_Tables_number   1
_chemical_formula_structural   Cu(NiC6)4
_chemical_formula_sum   'Cu2 Ni8 C48'
_cell_volume   639.48646374
_cell_formula_units_Z   2
loop_
 _symmetry_equiv_pos_site_id
 _symmetry_equiv_pos_as_xyz
  1  'x, y, z'
loop_
 _atom_site_type_symbol
 _atom_site_label
 _atom_site_symmetry_multiplicity
 _atom_site_fract_x
 _atom_site_fract_y
 _atom_site_fract_z
 _atom_site_occupancy
  C  C0  1  0.47207200  0.47207200  0.02792800  1
  C  C1  1  0.22207200  0.22207200  0.77792800  1
  C  C2  1  0.02792800  0.02792800  0.47207200  1
  C  C3  1  0.77792800  0.77792800  0.22207200  1
  C  C4  1  0.94310200  0.29173600  0.15263900  1
  C  C5  1  0.63747700  0.09736100  0.95826400  1
  C  C6  1  0.15263900  0.61252300  0.94310200  1
  C  C7  1  0.95826400  0.30689800  0.63747700  1
  C  C8  1  0.29173600  0.94310200  0.61252300  1
  C  C9  1  0.09736100  0.63747700  0.30689800  1
  C  C10  1  0.61252300  0.15263900  0.29173600  1
  C  C11  1  0.30689800  0.95826400  0.09736100  1
  C  C12  1  0.62500000  0.62500000  0.12500000  1
  C  C13  1  0.12500000  0.62500000  0.62500000  1
  C  C14  1  0.62500000  0.62500000  0.62500000  1
  C  C15  1  0.62500000  0.12500000  0.62500000  1
  Ni  Ni16  1  0.85129700  0.46159600  0.83928800  1
  Ni  Ni17  1  0.40218100  0.41071200  0.78840400  1
  Ni  Ni18  1  0.46159600  0.85129700  0.84781900  1
  Ni  Ni19  1  0.83928800  0.84781900  0.85129700  1
  Ni  Ni20  1  0.41071200  0.40218100  0.39870300  1
  Ni  Ni21  1  0.78840400  0.39870300  0.40218100  1
  Ni  Ni22  1  0.84781900  0.83928800  0.46159600  1
  Ni  Ni23  1  0.39870300  0.78840400  0.41071200  1
  Cu  Cu24  1  0.00000000  0.00000000  0.00000000  1
  Cu  Cu25  1  0.25000000  0.25000000  0.25000000  1
  C  C26  1  0.06395900  0.81002300  0.06064200  1
  C  C27  1  0.71783600  0.83788700  0.99748500  1
  C  C28  1  0.81002300  0.06395900  0.06537600  1
  C  C29  1  0.06064200  0.06537600  0.06395900  1
  C  C30  1  0.44679200  0.99748500  0.83788700  1
  C  C31  1  0.06537600  0.06064200  0.81002300  1
  C  C32  1  0.83172700  0.46468200  0.98222300  1
  C  C33  1  0.52863200  0.26777700  0.78531800  1
  C  C34  1  0.72966200  0.46544000  0.81812400  1
  C  C35  1  0.26322600  0.43187600  0.78456000  1
  C  C36  1  0.46544000  0.72966200  0.98677400  1
  C  C37  1  0.99748500  0.44679200  0.71783600  1
  C  C38  1  0.43187600  0.26322600  0.52033800  1
  C  C39  1  0.41211300  0.53216400  0.80320800  1
  C  C40  1  0.98222300  0.72136800  0.83172700  1
  C  C41  1  0.78531800  0.41827300  0.52863200  1
  C  C42  1  0.46468200  0.83172700  0.72136800  1
  C  C43  1  0.26777700  0.52863200  0.41827300  1
  C  C44  1  0.83788700  0.71783600  0.44679200  1
  C  C45  1  0.81812400  0.98677400  0.72966200  1
  C  C46  1  0.25251500  0.80320800  0.53216400  1
  C  C47  1  0.78456000  0.52033800  0.26322600  1
  C  C48  1  0.98677400  0.81812400  0.46544000  1
  C  C49  1  0.52033800  0.78456000  0.43187600  1
  C  C50  1  0.72136800  0.98222300  0.46468200  1
  C  C51  1  0.41827300  0.78531800  0.26777700  1
  C  C52  1  0.18462400  0.18935800  0.43997700  1
  C  C53  1  0.80320800  0.25251500  0.41211300  1
  C  C54  1  0.18935800  0.18462400  0.18604100  1
  C  C55  1  0.43997700  0.18604100  0.18462400  1
  C  C56  1  0.53216400  0.41211300  0.25251500  1
  C  C57  1  0.18604100  0.43997700  0.18935800  1
