# generated using pymatgen
data_Cu(NiC)2
_symmetry_space_group_name_H-M   'P 1'
_cell_length_a   6.75447000
_cell_length_b   6.95667800
_cell_length_c   9.18646000
_cell_angle_alpha   90.00000000
_cell_angle_beta   90.00000000
_cell_angle_gamma   90.00000000
_symmetry_Int_Tables_number   1
_chemical_formula_structural   Cu(NiC)2
_chemical_formula_sum   'Cu8 Ni16 C16'
_cell_volume   431.65956360
_cell_formula_units_Z   8
loop_
 _symmetry_equiv_pos_site_id
 _symmetry_equiv_pos_as_xyz
  1  'x, y, z'
loop_
 _atom_site_type_symbol
 _atom_site_label
 _atom_site_symmetry_multiplicity
 _atom_site_fract_x
 _atom_site_fract_y
 _atom_site_fract_z
 _atom_site_occupancy
  Ni  Ni0  1  0.90076000  0.29307700  0.48345800  1
  Ni  Ni1  1  0.59924000  0.79307700  0.51654200  1
  Ni  Ni2  1  0.40076000  0.70692300  0.01654200  1
  Ni  Ni3  1  0.09924000  0.20692300  0.98345800  1
  Ni  Ni4  1  0.09924000  0.70692300  0.51654200  1
  Ni  Ni5  1  0.40076000  0.20692300  0.48345800  1
  Ni  Ni6  1  0.59924000  0.29307700  0.98345800  1
  Ni  Ni7  1  0.90076000  0.79307700  0.01654200  1
  Ni  Ni8  1  0.71865100  0.45212700  0.41195100  1
  Ni  Ni9  1  0.78134900  0.95212700  0.58804900  1
  Ni  Ni10  1  0.21865100  0.54787300  0.08804900  1
  Ni  Ni11  1  0.28134900  0.04787300  0.91195100  1
  Ni  Ni12  1  0.28134900  0.54787300  0.58804900  1
  Ni  Ni13  1  0.21865100  0.04787300  0.41195100  1
  Ni  Ni14  1  0.78134900  0.45212700  0.91195100  1
  Ni  Ni15  1  0.71865100  0.95212700  0.08804900  1
  Cu  Cu16  1  0.91863200  0.35692400  0.26867600  1
  Cu  Cu17  1  0.58136800  0.85692400  0.73132400  1
  Cu  Cu18  1  0.41863200  0.64307600  0.23132400  1
  Cu  Cu19  1  0.08136800  0.14307600  0.76867600  1
  Cu  Cu20  1  0.08136800  0.64307600  0.73132400  1
  Cu  Cu21  1  0.41863200  0.14307600  0.26867600  1
  Cu  Cu22  1  0.58136800  0.35692400  0.76867600  1
  Cu  Cu23  1  0.91863200  0.85692400  0.23132400  1
  C  C24  1  0.82989300  0.35380200  0.39536200  1
  C  C25  1  0.67010700  0.85380200  0.60463800  1
  C  C26  1  0.32989300  0.64619800  0.10463800  1
  C  C27  1  0.17010700  0.14619800  0.89536200  1
  C  C28  1  0.17010700  0.64619800  0.60463800  1
  C  C29  1  0.32989300  0.14619800  0.39536200  1
  C  C30  1  0.67010700  0.35380200  0.89536200  1
  C  C31  1  0.82989300  0.85380200  0.10463800  1
  C  C32  1  0.99068900  0.35886600  0.15169600  1
  C  C33  1  0.50931100  0.85886600  0.84830400  1
  C  C34  1  0.49068900  0.64113400  0.34830400  1
  C  C35  1  0.00931100  0.14113400  0.65169600  1
  C  C36  1  0.00931100  0.64113400  0.84830400  1
  C  C37  1  0.49068900  0.14113400  0.15169600  1
  C  C38  1  0.50931100  0.35886600  0.65169600  1
  C  C39  1  0.99068900  0.85886600  0.34830400  1
