# generated using pymatgen
data_Cu3NiC3
_symmetry_space_group_name_H-M   'P 1'
_cell_length_a   8.24298662
_cell_length_b   8.24298662
_cell_length_c   6.36602900
_cell_angle_alpha   90.00000000
_cell_angle_beta   90.00000000
_cell_angle_gamma   120.00000501
_symmetry_Int_Tables_number   1
_chemical_formula_structural   Cu3NiC3
_chemical_formula_sum   'Cu12 Ni4 C12'
_cell_volume   374.60055175
_cell_formula_units_Z   4
loop_
 _symmetry_equiv_pos_site_id
 _symmetry_equiv_pos_as_xyz
  1  'x, y, z'
loop_
 _atom_site_type_symbol
 _atom_site_label
 _atom_site_symmetry_multiplicity
 _atom_site_fract_x
 _atom_site_fract_y
 _atom_site_fract_z
 _atom_site_occupancy
  C  C0  1  0.50460700  0.43404600  0.50000000  1
  C  C1  1  0.51033200  0.43140200  0.00000000  1
  C  C2  1  0.56595400  0.07056000  0.50000000  1
  C  C3  1  0.56859800  0.07893000  0.00000000  1
  C  C4  1  0.92107000  0.48966800  0.00000000  1
  C  C5  1  0.92944000  0.49539300  0.50000000  1
  C  C6  1  0.73724200  0.83231700  0.25703700  1
  C  C7  1  0.73724200  0.83231700  0.74296300  1
  C  C8  1  0.09507500  0.26275800  0.25703700  1
  C  C9  1  0.09507500  0.26275800  0.74296300  1
  C  C10  1  0.16768300  0.90492500  0.74296300  1
  C  C11  1  0.16768300  0.90492500  0.25703700  1
  Ni  Ni12  1  0.66666700  0.33333300  0.00000000  1
  Ni  Ni13  1  0.66888900  0.69202600  0.50000000  1
  Ni  Ni14  1  0.02313700  0.33111100  0.50000000  1
  Ni  Ni15  1  0.30797400  0.97686300  0.50000000  1
  Cu  Cu16  1  0.35987600  0.36222300  0.24639400  1
  Cu  Cu17  1  0.35987600  0.36222300  0.75360600  1
  Cu  Cu18  1  0.66666700  0.33333300  0.50000000  1
  Cu  Cu19  1  0.63777700  0.99765300  0.24639400  1
  Cu  Cu20  1  0.63777700  0.99765300  0.75360600  1
  Cu  Cu21  1  0.00234700  0.64012400  0.75360600  1
  Cu  Cu22  1  0.00234700  0.64012400  0.24639400  1
  Cu  Cu23  1  0.65684600  0.69993400  0.00000000  1
  Cu  Cu24  1  0.04308800  0.34315400  0.00000000  1
  Cu  Cu25  1  0.00000000  0.00000000  0.76826400  1
  Cu  Cu26  1  0.00000000  0.00000000  0.23173600  1
  Cu  Cu27  1  0.30006600  0.95691200  0.00000000  1
