# generated using pymatgen
data_Cu2Ni2C7
_symmetry_space_group_name_H-M   'P 1'
_cell_length_a   3.95086400
_cell_length_b   3.95086400
_cell_length_c   11.19501700
_cell_angle_alpha   90.00000000
_cell_angle_beta   90.00000000
_cell_angle_gamma   90.00000000
_symmetry_Int_Tables_number   1
_chemical_formula_structural   Cu2Ni2C7
_chemical_formula_sum   'Cu2 Ni2 C7'
_cell_volume   174.74667381
_cell_formula_units_Z   1
loop_
 _symmetry_equiv_pos_site_id
 _symmetry_equiv_pos_as_xyz
  1  'x, y, z'
loop_
 _atom_site_type_symbol
 _atom_site_label
 _atom_site_symmetry_multiplicity
 _atom_site_fract_x
 _atom_site_fract_y
 _atom_site_fract_z
 _atom_site_occupancy
  Ni  Ni0  1  0.50000000  0.00000000  0.86747200  1
  Ni  Ni1  1  0.00000000  0.50000000  0.13252800  1
  Cu  Cu2  1  0.50000000  0.00000000  0.37381600  1
  Cu  Cu3  1  0.00000000  0.50000000  0.62618400  1
  C  C4  1  0.50000000  0.50000000  0.00000000  1
  C  C5  1  0.00000000  0.00000000  0.23946900  1
  C  C6  1  0.50000000  0.50000000  0.25553100  1
  C  C7  1  0.50000000  0.50000000  0.50000000  1
  C  C8  1  0.00000000  0.00000000  0.50000000  1
  C  C9  1  0.50000000  0.50000000  0.74446900  1
  C  C10  1  0.00000000  0.00000000  0.76053100  1
