# generated using pymatgen
data_Cu(NiC3)2
_symmetry_space_group_name_H-M   'P 1'
_cell_length_a   8.19022100
_cell_length_b   8.57735200
_cell_length_c   24.98657895
_cell_angle_alpha   88.71395879
_cell_angle_beta   90.00000000
_cell_angle_gamma   90.00000000
_symmetry_Int_Tables_number   1
_chemical_formula_structural   Cu(NiC3)2
_chemical_formula_sum   'Cu4 Ni8 C24'
_cell_volume   1754.87522507
_cell_formula_units_Z   4
loop_
 _symmetry_equiv_pos_site_id
 _symmetry_equiv_pos_as_xyz
  1  'x, y, z'
loop_
 _atom_site_type_symbol
 _atom_site_label
 _atom_site_symmetry_multiplicity
 _atom_site_fract_x
 _atom_site_fract_y
 _atom_site_fract_z
 _atom_site_occupancy
  Ni  Ni0  1  0.43889700  0.77219800  0.73798200  1
  Ni  Ni1  1  0.01620900  0.67061000  0.90869700  1
  Ni  Ni2  1  0.06110300  0.77219800  0.23798200  1
  Ni  Ni3  1  0.48379100  0.67061000  0.40869700  1
  Ni  Ni4  1  0.51620900  0.32939000  0.59130300  1
  Ni  Ni5  1  0.93889700  0.22780200  0.76201800  1
  Ni  Ni6  1  0.98379100  0.32939000  0.09130300  1
  Ni  Ni7  1  0.56110300  0.22780200  0.26201800  1
  Cu  Cu8  1  0.96973400  0.85283300  0.58569100  1
  Cu  Cu9  1  0.53026600  0.85283300  0.08569100  1
  Cu  Cu10  1  0.46973400  0.14716700  0.91430900  1
  Cu  Cu11  1  0.03026600  0.14716700  0.41430900  1
  C  C12  1  0.21283600  0.98306900  0.83195500  1
  C  C13  1  0.70855800  0.92459000  0.84180700  1
  C  C14  1  0.30447200  0.86983300  0.98536800  1
  C  C15  1  0.28716400  0.98306900  0.33195500  1
  C  C16  1  0.79144200  0.92459000  0.34180700  1
  C  C17  1  0.19552800  0.86983300  0.48536800  1
  C  C18  1  0.71796800  0.64126800  0.52498400  1
  C  C19  1  0.22105800  0.59648600  0.63600800  1
  C  C20  1  0.74388200  0.52810400  0.68898800  1
  C  C21  1  0.24388200  0.47189600  0.81101200  1
  C  C22  1  0.78203200  0.64126800  0.02498400  1
  C  C23  1  0.72105800  0.40351400  0.86399200  1
  C  C24  1  0.27894200  0.59648600  0.13600800  1
  C  C25  1  0.21796800  0.35873200  0.97501600  1
  C  C26  1  0.75611800  0.52810400  0.18898800  1
  C  C27  1  0.25611800  0.47189600  0.31101200  1
  C  C28  1  0.77894200  0.40351400  0.36399200  1
  C  C29  1  0.28203200  0.35873200  0.47501600  1
  C  C30  1  0.80447200  0.13016700  0.51463200  1
  C  C31  1  0.20855800  0.07541000  0.65819300  1
  C  C32  1  0.71283600  0.01693100  0.66804500  1
  C  C33  1  0.69552800  0.13016700  0.01463200  1
  C  C34  1  0.29144200  0.07541000  0.15819300  1
  C  C35  1  0.78716400  0.01693100  0.16804500  1
