# generated using pymatgen
data_Cu4NiC
_symmetry_space_group_name_H-M   'P 1'
_cell_length_a   4.77704200
_cell_length_b   7.29890400
_cell_length_c   11.86230000
_cell_angle_alpha   90.00000000
_cell_angle_beta   90.00000000
_cell_angle_gamma   90.00000000
_symmetry_Int_Tables_number   1
_chemical_formula_structural   Cu4NiC
_chemical_formula_sum   'Cu16 Ni4 C4'
_cell_volume   413.60484210
_cell_formula_units_Z   4
loop_
 _symmetry_equiv_pos_site_id
 _symmetry_equiv_pos_as_xyz
  1  'x, y, z'
loop_
 _atom_site_type_symbol
 _atom_site_label
 _atom_site_symmetry_multiplicity
 _atom_site_fract_x
 _atom_site_fract_y
 _atom_site_fract_z
 _atom_site_occupancy
  C  C0  1  0.07602100  0.00000000  0.75000000  1
  C  C1  1  0.92397900  0.50000000  0.25000000  1
  C  C2  1  0.92397900  0.00000000  0.25000000  1
  C  C3  1  0.07602100  0.50000000  0.75000000  1
  Ni  Ni4  1  0.49964900  0.25000000  0.94908100  1
  Ni  Ni5  1  0.50035100  0.75000000  0.05091900  1
  Ni  Ni6  1  0.49964900  0.75000000  0.55091900  1
  Ni  Ni7  1  0.50035100  0.25000000  0.44908100  1
  Cu  Cu8  1  0.08324800  0.25000000  0.67173500  1
  Cu  Cu9  1  0.91675200  0.75000000  0.32826500  1
  Cu  Cu10  1  0.08324800  0.75000000  0.82826500  1
  Cu  Cu11  1  0.91675200  0.25000000  0.17173500  1
  Cu  Cu12  1  0.14613200  0.25000000  0.94645400  1
  Cu  Cu13  1  0.85386800  0.75000000  0.05354600  1
  Cu  Cu14  1  0.14613200  0.75000000  0.55354600  1
  Cu  Cu15  1  0.85386800  0.25000000  0.44645400  1
  Cu  Cu16  1  0.42048200  0.06407500  0.36995600  1
  Cu  Cu17  1  0.57951800  0.56407500  0.63004400  1
  Cu  Cu18  1  0.42048200  0.93592500  0.13004400  1
  Cu  Cu19  1  0.57951800  0.43592500  0.86995600  1
  Cu  Cu20  1  0.57951800  0.93592500  0.63004400  1
  Cu  Cu21  1  0.42048200  0.43592500  0.36995600  1
  Cu  Cu22  1  0.57951800  0.06407500  0.86995600  1
  Cu  Cu23  1  0.42048200  0.56407500  0.13004400  1
