# generated using pymatgen
data_Cu11NiC6
_symmetry_space_group_name_H-M   'P 1'
_cell_length_a   5.28401579
_cell_length_b   5.28401579
_cell_length_c   15.57780259
_cell_angle_alpha   87.89075224
_cell_angle_beta   87.89075224
_cell_angle_gamma   88.53846205
_symmetry_Int_Tables_number   1
_chemical_formula_structural   Cu11NiC6
_chemical_formula_sum   'Cu22 Ni2 C12'
_cell_volume   434.22884811
_cell_formula_units_Z   2
loop_
 _symmetry_equiv_pos_site_id
 _symmetry_equiv_pos_as_xyz
  1  'x, y, z'
loop_
 _atom_site_type_symbol
 _atom_site_label
 _atom_site_symmetry_multiplicity
 _atom_site_fract_x
 _atom_site_fract_y
 _atom_site_fract_z
 _atom_site_occupancy
  C  C0  1  0.69348800  0.69348800  0.00030000  1
  C  C1  1  0.26755800  0.76428700  0.16319000  1
  C  C2  1  0.75035000  0.75035000  0.33047800  1
  C  C3  1  0.24892000  0.75108000  0.50000000  1
  C  C4  1  0.74187200  0.74187200  0.66718500  1
  C  C5  1  0.23571300  0.73244200  0.83681000  1
  C  C6  1  0.76428700  0.26755800  0.16319000  1
  C  C7  1  0.30651200  0.30651200  0.99970000  1
  C  C8  1  0.24965000  0.24965000  0.66952200  1
  C  C9  1  0.75108000  0.24892000  0.50000000  1
  C  C10  1  0.25812800  0.25812800  0.33281500  1
  C  C11  1  0.73244200  0.23571300  0.83681000  1
  Ni  Ni12  1  0.50654600  0.50654600  0.91900300  1
  Ni  Ni13  1  0.49345400  0.49345400  0.08099700  1
  Cu  Cu14  1  0.52305600  0.52305600  0.25014300  1
  Cu  Cu15  1  0.98271500  0.60435200  0.08125100  1
  Cu  Cu16  1  0.51708300  0.51708300  0.58211700  1
  Cu  Cu17  1  0.98341600  0.51956500  0.41692700  1
  Cu  Cu18  1  0.97626600  0.52493800  0.75507400  1
  Cu  Cu19  1  0.02373400  0.47506200  0.24492600  1
  Cu  Cu20  1  0.01658400  0.48043500  0.58307300  1
  Cu  Cu21  1  0.01728500  0.39564800  0.91874900  1
  Cu  Cu22  1  0.47694400  0.47694400  0.74985700  1
  Cu  Cu23  1  0.48291700  0.48291700  0.41788300  1
  Cu  Cu24  1  0.39564800  0.01728500  0.91874900  1
  Cu  Cu25  1  0.48043500  0.01658400  0.58307300  1
  Cu  Cu26  1  0.47506200  0.02373400  0.24492600  1
  Cu  Cu27  1  0.11080000  0.11080000  0.08407900  1
  Cu  Cu28  1  0.01848000  0.01848000  0.41455900  1
  Cu  Cu29  1  0.02508300  0.02508300  0.75778800  1
  Cu  Cu30  1  0.51956500  0.98341600  0.41692700  1
  Cu  Cu31  1  0.60435200  0.98271500  0.08125100  1
  Cu  Cu32  1  0.52493800  0.97626600  0.75507400  1
  Cu  Cu33  1  0.98152000  0.98152000  0.58544100  1
  Cu  Cu34  1  0.88920000  0.88920000  0.91592100  1
  Cu  Cu35  1  0.97491700  0.97491700  0.24221200  1
