# generated using pymatgen
data_Cu20Ni20C9
_symmetry_space_group_name_H-M   'P 1'
_cell_length_a   19.67540800
_cell_length_b   9.94408600
_cell_length_c   21.70882780
_cell_angle_alpha   78.96855584
_cell_angle_beta   90.00000000
_cell_angle_gamma   90.00000000
_symmetry_Int_Tables_number   1
_chemical_formula_structural   Cu20Ni20C9
_chemical_formula_sum   'Cu80 Ni80 C36'
_cell_volume   4168.93545851
_cell_formula_units_Z   4
loop_
 _symmetry_equiv_pos_site_id
 _symmetry_equiv_pos_as_xyz
  1  'x, y, z'
loop_
 _atom_site_type_symbol
 _atom_site_label
 _atom_site_symmetry_multiplicity
 _atom_site_fract_x
 _atom_site_fract_y
 _atom_site_fract_z
 _atom_site_occupancy
  C  C0  1  0.60911000  0.20809800  0.71659400  1
  C  C1  1  0.10911000  0.79190200  0.78340600  1
  C  C2  1  0.39089000  0.79190200  0.28340600  1
  C  C3  1  0.89089000  0.20809800  0.21659400  1
  C  C4  1  0.48556800  0.15249900  0.83251500  1
  C  C5  1  0.98556800  0.84750100  0.66748500  1
  C  C6  1  0.51443200  0.84750100  0.16748500  1
  C  C7  1  0.01443200  0.15249900  0.33251500  1
  C  C8  1  0.43305800  0.83993000  0.83196700  1
  C  C9  1  0.93305800  0.16007000  0.66803300  1
  C  C10  1  0.56694200  0.16007000  0.16803300  1
  C  C11  1  0.06694200  0.83993000  0.33196700  1
  C  C12  1  0.43321100  0.81924500  0.69000000  1
  C  C13  1  0.93321100  0.18075500  0.81000000  1
  C  C14  1  0.56678900  0.18075500  0.31000000  1
  C  C15  1  0.06678900  0.81924500  0.19000000  1
  C  C16  1  0.58291000  0.94045200  0.63966600  1
  C  C17  1  0.08291000  0.05954800  0.86033400  1
  C  C18  1  0.41709000  0.05954800  0.36033400  1
  C  C19  1  0.91709000  0.94045200  0.13966600  1
  C  C20  1  0.52640200  0.16439700  0.75540000  1
  C  C21  1  0.02640200  0.83560300  0.74460000  1
  C  C22  1  0.47359800  0.83560300  0.24460000  1
  C  C23  1  0.97359800  0.16439700  0.25540000  1
  C  C24  1  0.46364000  0.00911100  0.79226000  1
  C  C25  1  0.96364000  0.99088900  0.70774000  1
  C  C26  1  0.53636000  0.99088900  0.20774000  1
  C  C27  1  0.03636000  0.00911100  0.29226000  1
  C  C28  1  0.52026100  0.87691800  0.70218900  1
  C  C29  1  0.02026100  0.12308200  0.79781100  1
  C  C30  1  0.47973900  0.12308200  0.29781100  1
  C  C31  1  0.97973900  0.87691800  0.20218900  1
  C  C32  1  0.57173400  0.04866000  0.69964400  1
  C  C33  1  0.07173400  0.95134000  0.80035600  1
  C  C34  1  0.42826600  0.95134000  0.30035600  1
  C  C35  1  0.92826600  0.04866000  0.19964400  1
  Ni  Ni36  1  0.66932700  0.08673200  0.77756900  1
  Ni  Ni37  1  0.16932700  0.91326800  0.72243100  1
  Ni  Ni38  1  0.33067300  0.91326800  0.22243100  1
  Ni  Ni39  1  0.83067300  0.08673200  0.27756900  1
  Ni  Ni40  1  0.63309800  0.36579300  0.75352800  1
  Ni  Ni41  1  0.13309800  0.63420700  0.74647200  1
  Ni  Ni42  1  0.36690200  0.63420700  0.24647200  1
  Ni  Ni43  1  0.86690200  0.36579300  0.25352800  1
  Ni  Ni44  1  0.68401100  0.25912700  0.65849100  1
  Ni  Ni45  1  0.18401100  0.74087300  0.84150900  1
  Ni  Ni46  1  0.31598900  0.74087300  0.34150900  1
  Ni  Ni47  1  0.81598900  0.25912700  0.15849100  1
  Ni  Ni48  1  0.54676500  0.31946800  0.65394100  1
  Ni  Ni49  1  0.04676500  0.68053200  0.84605900  1
  Ni  Ni50  1  0.45323500  0.68053200  0.34605900  1
  Ni  Ni51  1  0.95323500  0.31946800  0.15394100  1
  Ni  Ni52  1  0.55514500  0.04278200  0.88885500  1
  Ni  Ni53  1  0.05514500  0.95721800  0.61114500  1
  Ni  Ni54  1  0.44485500  0.95721800  0.11114500  1
  Ni  Ni55  1  0.94485500  0.04278200  0.38885500  1
  Ni  Ni56  1  0.41866100  0.13333600  0.89957300  1
  Ni  Ni57  1  0.91866100  0.86666400  0.60042700  1
  Ni  Ni58  1  0.58133900  0.86666400  0.10042700  1
  Ni  Ni59  1  0.08133900  0.13333600  0.39957300  1
  Ni  Ni60  1  0.51750500  0.31871200  0.85821300  1
  Ni  Ni61  1  0.01750500  0.68128800  0.64178700  1
  Ni  Ni62  1  0.48249500  0.68128800  0.14178700  1
  Ni  Ni63  1  0.98249500  0.31871200  0.35821300  1
  Ni  Ni64  1  0.41640000  0.26294800  0.77623900  1
  Ni  Ni65  1  0.91640000  0.73705200  0.72376100  1
  Ni  Ni66  1  0.58360000  0.73705200  0.22376100  1
  Ni  Ni67  1  0.08360000  0.26294800  0.27623900  1
  Ni  Ni68  1  0.52904600  0.77482500  0.82824400  1
  Ni  Ni69  1  0.02904600  0.22517500  0.67175600  1
  Ni  Ni70  1  0.47095400  0.22517500  0.17175600  1
  Ni  Ni71  1  0.97095400  0.77482500  0.32824400  1
  Ni  Ni72  1  0.39837200  0.65252000  0.84175200  1
  Ni  Ni73  1  0.89837200  0.34748000  0.65824800  1
  Ni  Ni74  1  0.60162800  0.34748000  0.15824800  1
  Ni  Ni75  1  0.10162800  0.65252000  0.34175200  1
  Ni  Ni76  1  0.43680600  0.81916700  0.92156600  1
  Ni  Ni77  1  0.93680600  0.18083300  0.57843400  1
  Ni  Ni78  1  0.56319400  0.18083300  0.07843400  1
  Ni  Ni79  1  0.06319400  0.81916700  0.42156600  1
  Ni  Ni80  1  0.34122100  0.92452400  0.82041500  1
  Ni  Ni81  1  0.84122100  0.07547600  0.67958500  1
  Ni  Ni82  1  0.65877900  0.07547600  0.17958500  1
  Ni  Ni83  1  0.15877900  0.92452400  0.32041500  1
  Ni  Ni84  1  0.47683700  0.63773700  0.71404100  1
  Ni  Ni85  1  0.97683700  0.36226300  0.78595900  1
  Ni  Ni86  1  0.52316300  0.36226300  0.28595900  1
  Ni  Ni87  1  0.02316300  0.63773700  0.21404100  1
  Ni  Ni88  1  0.41839000  0.80918300  0.60372500  1
  Ni  Ni89  1  0.91839000  0.19081700  0.89627500  1
  Ni  Ni90  1  0.58161000  0.19081700  0.39627500  1
  Ni  Ni91  1  0.08161000  0.80918300  0.10372500  1
  Ni  Ni92  1  0.34314100  0.74222100  0.70981100  1
  Ni  Ni93  1  0.84314100  0.25777900  0.79018900  1
  Ni  Ni94  1  0.65685900  0.25777900  0.29018900  1
  Ni  Ni95  1  0.15685900  0.74222100  0.20981100  1
  Ni  Ni96  1  0.39534600  0.00891400  0.67852500  1
  Ni  Ni97  1  0.89534600  0.99108600  0.82147500  1
  Ni  Ni98  1  0.60465400  0.99108600  0.32147500  1
  Ni  Ni99  1  0.10465400  0.00891400  0.17852500  1
  Ni  Ni100  1  0.65046500  0.83040600  0.69787300  1
  Ni  Ni101  1  0.15046500  0.16959400  0.80212700  1
  Ni  Ni102  1  0.34953500  0.16959400  0.30212700  1
  Ni  Ni103  1  0.84953500  0.83040600  0.19787300  1
  Ni  Ni104  1  0.65842100  0.01885600  0.58639400  1
  Ni  Ni105  1  0.15842100  0.98114400  0.91360600  1
  Ni  Ni106  1  0.34157900  0.98114400  0.41360600  1
  Ni  Ni107  1  0.84157900  0.01885600  0.08639400  1
  Ni  Ni108  1  0.57816000  0.78790600  0.59540700  1
  Ni  Ni109  1  0.07816000  0.21209400  0.90459300  1
  Ni  Ni110  1  0.42184000  0.21209400  0.40459300  1
  Ni  Ni111  1  0.92184000  0.78790600  0.09540700  1
  Ni  Ni112  1  0.51743300  0.05509300  0.58117100  1
  Ni  Ni113  1  0.01743300  0.94490700  0.91882900  1
  Ni  Ni114  1  0.48256700  0.94490700  0.41882900  1
  Ni  Ni115  1  0.98256700  0.05509300  0.08117100  1
  Cu  Cu116  1  0.70476100  0.01666400  0.81221800  1
  Cu  Cu117  1  0.20476100  0.98333600  0.68778200  1
  Cu  Cu118  1  0.29523900  0.98333600  0.18778200  1
  Cu  Cu119  1  0.79523900  0.01666400  0.31221800  1
  Cu  Cu120  1  0.64886700  0.46058600  0.77412800  1
  Cu  Cu121  1  0.14886700  0.53941400  0.72587200  1
  Cu  Cu122  1  0.35113300  0.53941400  0.22587200  1
  Cu  Cu123  1  0.85113300  0.46058600  0.27412800  1
  Cu  Cu124  1  0.72836000  0.29776000  0.62419400  1
  Cu  Cu125  1  0.22836000  0.70224000  0.87580600  1
  Cu  Cu126  1  0.27164000  0.70224000  0.37580600  1
  Cu  Cu127  1  0.77164000  0.29776000  0.12419400  1
  Cu  Cu128  1  0.51179100  0.38426400  0.61702800  1
  Cu  Cu129  1  0.01179100  0.61573600  0.88297200  1
  Cu  Cu130  1  0.48820900  0.61573600  0.38297200  1
  Cu  Cu131  1  0.98820900  0.38426400  0.11702800  1
  Cu  Cu132  1  0.59517400  0.98293900  0.92230000  1
  Cu  Cu133  1  0.09517400  0.01706100  0.57770000  1
  Cu  Cu134  1  0.40482600  0.01706100  0.07770000  1
  Cu  Cu135  1  0.90482600  0.98293900  0.42230000  1
  Cu  Cu136  1  0.37631300  0.12662500  0.93739100  1
  Cu  Cu137  1  0.87631300  0.87337500  0.56260900  1
  Cu  Cu138  1  0.62368700  0.87337500  0.06260900  1
  Cu  Cu139  1  0.12368700  0.12662500  0.43739100  1
  Cu  Cu140  1  0.53512100  0.41685500  0.87536200  1
  Cu  Cu141  1  0.03512100  0.58314500  0.62463800  1
  Cu  Cu142  1  0.46487900  0.58314500  0.12463800  1
  Cu  Cu143  1  0.96487900  0.41685500  0.37536200  1
  Cu  Cu144  1  0.37697800  0.33160400  0.74572000  1
  Cu  Cu145  1  0.87697800  0.66839600  0.75428000  1
  Cu  Cu146  1  0.62302200  0.66839600  0.25428000  1
  Cu  Cu147  1  0.12302200  0.33160400  0.24572000  1
  Cu  Cu148  1  0.58505000  0.74054500  0.82582600  1
  Cu  Cu149  1  0.08505000  0.25945500  0.67417400  1
  Cu  Cu150  1  0.41495000  0.25945500  0.17417400  1
  Cu  Cu151  1  0.91495000  0.74054500  0.32582600  1
  Cu  Cu152  1  0.37810700  0.54065100  0.84802100  1
  Cu  Cu153  1  0.87810700  0.45934900  0.65197900  1
  Cu  Cu154  1  0.62189300  0.45934900  0.15197900  1
  Cu  Cu155  1  0.12189300  0.54065100  0.34802100  1
  Cu  Cu156  1  0.43942200  0.80299800  0.97628500  1
  Cu  Cu157  1  0.93942200  0.19700200  0.52371500  1
  Cu  Cu158  1  0.56057800  0.19700200  0.02371500  1
  Cu  Cu159  1  0.06057800  0.80299800  0.47628500  1
  Cu  Cu160  1  0.28965700  0.98121300  0.81145800  1
  Cu  Cu161  1  0.78965700  0.01878700  0.68854200  1
  Cu  Cu162  1  0.71034300  0.01878700  0.18854200  1
  Cu  Cu163  1  0.21034300  0.98121300  0.31145800  1
  Cu  Cu164  1  0.50443500  0.53408100  0.72983400  1
  Cu  Cu165  1  0.00443500  0.46591900  0.77016600  1
  Cu  Cu166  1  0.49556500  0.46591900  0.27016600  1
  Cu  Cu167  1  0.99556500  0.53408100  0.22983400  1
  Cu  Cu168  1  0.40696900  0.80112000  0.55185000  1
  Cu  Cu169  1  0.90696900  0.19888000  0.94815000  1
  Cu  Cu170  1  0.59303100  0.19888000  0.44815000  1
  Cu  Cu171  1  0.09303100  0.80112000  0.05185000  1
  Cu  Cu172  1  0.28996300  0.69245400  0.72155000  1
  Cu  Cu173  1  0.78996300  0.30754600  0.77845000  1
  Cu  Cu174  1  0.71003700  0.30754600  0.27845000  1
  Cu  Cu175  1  0.21003700  0.69245400  0.22155000  1
  Cu  Cu176  1  0.37392100  0.11941400  0.67012100  1
  Cu  Cu177  1  0.87392100  0.88058600  0.82987900  1
  Cu  Cu178  1  0.62607900  0.88058600  0.32987900  1
  Cu  Cu179  1  0.12607900  0.11941400  0.17012100  1
  Cu  Cu180  1  0.69204800  0.76872000  0.72855800  1
  Cu  Cu181  1  0.19204800  0.23128000  0.77144200  1
  Cu  Cu182  1  0.30795200  0.23128000  0.27144200  1
  Cu  Cu183  1  0.80795200  0.76872000  0.22855800  1
  Cu  Cu184  1  0.70317300  0.06208800  0.55349400  1
  Cu  Cu185  1  0.20317300  0.93791200  0.94650600  1
  Cu  Cu186  1  0.29682700  0.93791200  0.44650600  1
  Cu  Cu187  1  0.79682700  0.06208800  0.05349400  1
  Cu  Cu188  1  0.57692500  0.69370000  0.57099100  1
  Cu  Cu189  1  0.07692500  0.30630000  0.92900900  1
  Cu  Cu190  1  0.42307500  0.30630000  0.42900900  1
  Cu  Cu191  1  0.92307500  0.69370000  0.07099100  1
  Cu  Cu192  1  0.48010500  0.12178900  0.54707900  1
  Cu  Cu193  1  0.98010500  0.87821100  0.95292100  1
  Cu  Cu194  1  0.51989500  0.87821100  0.45292100  1
  Cu  Cu195  1  0.01989500  0.12178900  0.04707900  1
