# generated using pymatgen
data_Cu3Ni2C13
_symmetry_space_group_name_H-M   'P 1'
_cell_length_a   7.24701649
_cell_length_b   7.23942642
_cell_length_c   7.53414192
_cell_angle_alpha   92.78716779
_cell_angle_beta   87.24791408
_cell_angle_gamma   91.61703029
_symmetry_Int_Tables_number   1
_chemical_formula_structural   Cu3Ni2C13
_chemical_formula_sum   'Cu6 Ni4 C26'
_cell_volume   394.21736441
_cell_formula_units_Z   2
loop_
 _symmetry_equiv_pos_site_id
 _symmetry_equiv_pos_as_xyz
  1  'x, y, z'
loop_
 _atom_site_type_symbol
 _atom_site_label
 _atom_site_symmetry_multiplicity
 _atom_site_fract_x
 _atom_site_fract_y
 _atom_site_fract_z
 _atom_site_occupancy
  C  C0  1  0.62844800  0.75869000  0.62003300  1
  C  C1  1  0.31463800  0.31793400  0.89399100  1
  C  C2  1  0.61348800  0.55876300  0.02239700  1
  C  C3  1  0.40729900  0.08248400  0.53210900  1
  C  C4  1  0.15587300  0.75109500  0.28697100  1
  C  C5  1  0.73603300  0.01407200  0.13729300  1
  Ni  Ni6  1  0.82207800  0.44687400  0.38229900  1
  Ni  Ni7  1  0.93443900  0.01423900  0.76232200  1
  Ni  Ni8  1  0.13538600  0.19547200  0.22953100  1
  Ni  Ni9  1  0.03421900  0.61545100  0.70466400  1
  Cu  Cu10  1  0.37434600  0.81124000  0.03879900  1
  Cu  Cu11  1  0.53930600  0.43578200  0.52028900  1
  Cu  Cu12  1  0.68437800  0.87573700  0.97137200  1
  Cu  Cu13  1  0.22564600  0.58998500  0.68009300  1
  Cu  Cu14  1  0.53855200  0.27271400  0.19960100  1
  Cu  Cu15  1  0.54570500  0.97415900  0.90459900  1
  C  C16  1  0.44925200  0.89079900  0.21081300  1
  C  C17  1  0.58080800  0.38697300  0.63961000  1
  C  C18  1  0.95761600  0.03526000  0.97310100  1
  C  C19  1  0.08124100  0.85098600  0.67472600  1
  C  C20  1  0.35571400  0.78819300  0.90378000  1
  C  C21  1  0.89060700  0.64638300  0.85049400  1
  C  C22  1  0.40157100  0.78201800  0.36275600  1
  C  C23  1  0.10668000  0.00829200  0.31596100  1
  C  C24  1  0.07348800  0.18976200  0.68612700  1
  C  C25  1  0.75156300  0.30801300  0.55320900  1
  C  C26  1  0.92252700  0.28004100  0.28241900  1
  C  C27  1  0.59233200  0.21677100  0.08931500  1
  C  C28  1  0.96471900  0.58249300  0.49875200  1
  C  C29  1  0.99939200  0.37187600  0.78107000  1
  C  C30  1  0.62520800  0.49759100  0.34853800  1
  C  C31  1  0.42140100  0.96860900  0.84610700  1
  C  C32  1  0.90002400  0.59391000  0.21471900  1
  C  C33  1  0.75436000  0.94579900  0.37023900  1
  C  C34  1  0.23920100  0.32532400  0.39050800  1
  C  C35  1  0.24245800  0.56401800  0.12139800  1
