# generated using pymatgen
data_Cu3NiC
_symmetry_space_group_name_H-M   'P 1'
_cell_length_a   6.45750133
_cell_length_b   6.45750133
_cell_length_c   14.95197600
_cell_angle_alpha   90.00000000
_cell_angle_beta   90.00000000
_cell_angle_gamma   119.99999311
_symmetry_Int_Tables_number   1
_chemical_formula_structural   Cu3NiC
_chemical_formula_sum   'Cu12 Ni4 C4'
_cell_volume   539.95586312
_cell_formula_units_Z   4
loop_
 _symmetry_equiv_pos_site_id
 _symmetry_equiv_pos_as_xyz
  1  'x, y, z'
loop_
 _atom_site_type_symbol
 _atom_site_label
 _atom_site_symmetry_multiplicity
 _atom_site_fract_x
 _atom_site_fract_y
 _atom_site_fract_z
 _atom_site_occupancy
  C  C0  1  0.00000000  0.00000000  0.25000000  1
  C  C1  1  0.00000000  0.00000000  0.75000000  1
  C  C2  1  0.33333300  0.66666700  0.75000000  1
  C  C3  1  0.66666700  0.33333300  0.25000000  1
  Ni  Ni4  1  0.66666700  0.33333300  0.67439200  1
  Ni  Ni5  1  0.66666700  0.33333300  0.82560800  1
  Ni  Ni6  1  0.33333300  0.66666700  0.32560800  1
  Ni  Ni7  1  0.33333300  0.66666700  0.17439200  1
  Cu  Cu8  1  0.68105100  0.98038100  0.13405600  1
  Cu  Cu9  1  0.68105100  0.70067000  0.36594400  1
  Cu  Cu10  1  0.29933000  0.31894900  0.13405600  1
  Cu  Cu11  1  0.29933000  0.98038100  0.36594400  1
  Cu  Cu12  1  0.70067000  0.68105100  0.86594400  1
  Cu  Cu13  1  0.31894900  0.01961900  0.86594400  1
  Cu  Cu14  1  0.98038100  0.29933000  0.86594400  1
  Cu  Cu15  1  0.31894900  0.29933000  0.63405600  1
  Cu  Cu16  1  0.98038100  0.68105100  0.63405600  1
  Cu  Cu17  1  0.70067000  0.01961900  0.63405600  1
  Cu  Cu18  1  0.01961900  0.31894900  0.36594400  1
  Cu  Cu19  1  0.01961900  0.70067000  0.13405600  1
