# generated using pymatgen
data_Cu(NiC)5
_symmetry_space_group_name_H-M   'P 1'
_cell_length_a   8.05557300
_cell_length_b   9.77299200
_cell_length_c   14.60279400
_cell_angle_alpha   90.00000000
_cell_angle_beta   90.00000000
_cell_angle_gamma   90.00000000
_symmetry_Int_Tables_number   1
_chemical_formula_structural   Cu(NiC)5
_chemical_formula_sum   'Cu4 Ni20 C20'
_cell_volume   1149.63490045
_cell_formula_units_Z   4
loop_
 _symmetry_equiv_pos_site_id
 _symmetry_equiv_pos_as_xyz
  1  'x, y, z'
loop_
 _atom_site_type_symbol
 _atom_site_label
 _atom_site_symmetry_multiplicity
 _atom_site_fract_x
 _atom_site_fract_y
 _atom_site_fract_z
 _atom_site_occupancy
  C  C0  1  0.80215400  0.00575800  0.83096200  1
  C  C1  1  0.69784600  0.49424200  0.33096200  1
  C  C2  1  0.19784600  0.50575800  0.16903800  1
  C  C3  1  0.30215400  0.99424200  0.66903800  1
  C  C4  1  0.19784600  0.99424200  0.16903800  1
  C  C5  1  0.30215400  0.50575800  0.66903800  1
  C  C6  1  0.80215400  0.49424200  0.83096200  1
  C  C7  1  0.69784600  0.00575800  0.33096200  1
  C  C8  1  0.33776400  0.04675700  0.44197600  1
  C  C9  1  0.16223600  0.45324300  0.94197600  1
  C  C10  1  0.66223600  0.54675700  0.55802400  1
  C  C11  1  0.83776400  0.95324300  0.05802400  1
  C  C12  1  0.66223600  0.95324300  0.55802400  1
  C  C13  1  0.83776400  0.54675700  0.05802400  1
  C  C14  1  0.33776400  0.45324300  0.44197600  1
  C  C15  1  0.16223600  0.04675700  0.94197600  1
  C  C16  1  0.70174600  0.25000000  0.10489200  1
  C  C17  1  0.79825400  0.25000000  0.60489200  1
  C  C18  1  0.29825400  0.75000000  0.89510800  1
  C  C19  1  0.20174600  0.75000000  0.39510800  1
  Ni  Ni20  1  0.89332300  0.25000000  0.23532800  1
  Ni  Ni21  1  0.60667700  0.25000000  0.73532800  1
  Ni  Ni22  1  0.10667700  0.75000000  0.76467200  1
  Ni  Ni23  1  0.39332300  0.75000000  0.26467200  1
  Ni  Ni24  1  0.46449500  0.25000000  0.20839400  1
  Ni  Ni25  1  0.03550500  0.25000000  0.70839400  1
  Ni  Ni26  1  0.53550500  0.75000000  0.79160600  1
  Ni  Ni27  1  0.96449500  0.75000000  0.29160600  1
  Ni  Ni28  1  0.94765400  0.25000000  0.00778400  1
  Ni  Ni29  1  0.55234600  0.25000000  0.50778400  1
  Ni  Ni30  1  0.05234600  0.75000000  0.99221600  1
  Ni  Ni31  1  0.44765400  0.75000000  0.49221600  1
  Ni  Ni32  1  0.69765200  0.91673600  0.09346700  1
  Ni  Ni33  1  0.80234800  0.58326400  0.59346700  1
  Ni  Ni34  1  0.30234800  0.41673600  0.90653300  1
  Ni  Ni35  1  0.19765200  0.08326400  0.40653300  1
  Ni  Ni36  1  0.30234800  0.08326400  0.90653300  1
  Ni  Ni37  1  0.19765200  0.41673600  0.40653300  1
  Ni  Ni38  1  0.69765200  0.58326400  0.09346700  1
  Ni  Ni39  1  0.80234800  0.91673600  0.59346700  1
  Cu  Cu40  1  0.57580800  0.25000000  0.00607500  1
  Cu  Cu41  1  0.92419200  0.25000000  0.50607500  1
  Cu  Cu42  1  0.42419200  0.75000000  0.99392500  1
  Cu  Cu43  1  0.07580800  0.75000000  0.49392500  1
