# generated using pymatgen
data_Cu2Ni3C35
_symmetry_space_group_name_H-M   'P 1'
_cell_length_a   8.30759429
_cell_length_b   8.86652185
_cell_length_c   8.78990935
_cell_angle_alpha   59.89646165
_cell_angle_beta   59.37104899
_cell_angle_gamma   61.85225427
_symmetry_Int_Tables_number   1
_chemical_formula_structural   Cu2Ni3C35
_chemical_formula_sum   'Cu2 Ni3 C35'
_cell_volume   461.20698277
_cell_formula_units_Z   1
loop_
 _symmetry_equiv_pos_site_id
 _symmetry_equiv_pos_as_xyz
  1  'x, y, z'
loop_
 _atom_site_type_symbol
 _atom_site_label
 _atom_site_symmetry_multiplicity
 _atom_site_fract_x
 _atom_site_fract_y
 _atom_site_fract_z
 _atom_site_occupancy
  C  C0  1  0.51721000  0.16719200  0.15580700  1
  C  C1  1  0.24481300  0.87020600  0.64699800  1
  C  C2  1  0.71686700  0.13736000  0.32963000  1
  C  C3  1  0.70332300  0.82252200  0.15222100  1
  C  C4  1  0.71676400  0.33021700  0.81325700  1
  Ni  Ni5  1  0.06985500  0.64224700  0.64479000  1
  Ni  Ni6  1  0.43611000  0.84860300  0.85981500  1
  Ni  Ni7  1  0.94739600  0.34603100  0.34746300  1
  Cu  Cu8  1  0.99961300  0.01523600  0.99737100  1
  Cu  Cu9  1  0.49638900  0.49682600  0.49776200  1
  C  C10  1  0.25698800  0.25162400  0.54114900  1
  C  C11  1  0.25039300  0.94512000  0.24335500  1
  C  C12  1  0.26224900  0.54678100  0.94441800  1
  C  C13  1  0.75863100  0.45333300  0.04369300  1
  C  C14  1  0.77608500  0.03765600  0.74388200  1
  C  C15  1  0.73686300  0.74980300  0.46667500  1
  C  C16  1  0.06814300  0.09637000  0.30017700  1
  C  C17  1  0.07444800  0.50835500  0.10851400  1
  C  C18  1  0.07279000  0.32841500  0.49012800  1
  C  C19  1  0.21040300  0.09025900  0.73387600  1
  C  C20  1  0.44278500  0.18652400  0.39204000  1
  C  C21  1  0.28159300  0.39758100  0.57119500  1
  C  C22  1  0.23249500  0.92897900  0.08136800  1
  C  C23  1  0.25967100  0.75196800  0.40787900  1
  C  C24  1  0.57557200  0.60366200  0.01772700  1
  C  C25  1  0.27454000  0.58507300  0.74166300  1
  C  C26  1  0.78252100  0.26730000  0.04441000  1
  C  C27  1  0.59808200  0.98668100  0.79527400  1
  C  C28  1  0.44219600  0.97411900  0.18514900  1
  C  C29  1  0.23634300  0.74409400  0.92616200  1
  C  C30  1  0.74017800  0.41235800  0.25090700  1
  C  C31  1  0.44717600  0.39955900  0.96667900  1
  C  C32  1  0.74584500  0.24000000  0.59512700  1
  C  C33  1  0.77955300  0.05260200  0.91278100  1
  C  C34  1  0.70625600  0.61359100  0.42529700  1
  C  C35  1  0.54015600  0.81816200  0.61337500  1
  C  C36  1  0.78678400  0.90792500  0.27491100  1
  C  C37  1  0.89905100  0.65963500  0.54554900  1
  C  C38  1  0.94452500  0.50689300  0.89514700  1
  C  C39  1  0.96934500  0.90213600  0.67337500  1
