# generated using pymatgen
data_Cu(Ni7C12)2
_symmetry_space_group_name_H-M   'P 1'
_cell_length_a   10.66882874
_cell_length_b   10.66882874
_cell_length_c   8.80437110
_cell_angle_alpha   65.61305492
_cell_angle_beta   65.61305492
_cell_angle_gamma   108.43114749
_symmetry_Int_Tables_number   1
_chemical_formula_structural   Cu(Ni7C12)2
_chemical_formula_sum   'Cu1 Ni14 C24'
_cell_volume   673.20927769
_cell_formula_units_Z   1
loop_
 _symmetry_equiv_pos_site_id
 _symmetry_equiv_pos_as_xyz
  1  'x, y, z'
loop_
 _atom_site_type_symbol
 _atom_site_label
 _atom_site_symmetry_multiplicity
 _atom_site_fract_x
 _atom_site_fract_y
 _atom_site_fract_z
 _atom_site_occupancy
  Ni  Ni0  1  0.21604300  0.21604300  0.22727500  1
  Ni  Ni1  1  0.46923000  0.12900400  0.81216000  1
  Ni  Ni2  1  0.72085000  0.05943400  0.40742100  1
  Ni  Ni3  1  0.44477900  0.44477900  0.34049700  1
  Ni  Ni4  1  0.65954100  0.34067500  0.99711200  1
  Ni  Ni5  1  0.56071000  0.56071000  0.65181800  1
  Ni  Ni6  1  0.94188600  0.27760100  0.59274700  1
  Ni  Ni7  1  0.86965700  0.53289600  0.19030700  1
  Ni  Ni8  1  0.78826000  0.78826000  0.77179000  1
  Ni  Ni9  1  0.12900400  0.46923000  0.81216000  1
  Ni  Ni10  1  0.05943400  0.72085000  0.40742100  1
  Ni  Ni11  1  0.34067500  0.65954100  0.99711200  1
  Ni  Ni12  1  0.27760100  0.94188600  0.59274700  1
  Ni  Ni13  1  0.53289600  0.86965700  0.19030700  1
  Cu  Cu14  1  0.97528400  0.97528400  0.00613000  1
  C  C15  1  0.49788800  0.00787000  0.32369700  1
  C  C16  1  0.39583000  0.23956800  0.30422300  1
  C  C17  1  0.45594000  0.29823700  0.94012700  1
  C  C18  1  0.67223000  0.17968400  0.83052700  1
  C  C19  1  0.61901800  0.38028700  0.49980900  1
  C  C20  1  0.87988900  0.11884100  0.50035100  1
  C  C21  1  0.97771900  0.11931000  0.99742500  1
  C  C22  1  0.82227200  0.33199700  0.17013200  1
  C  C23  1  0.70070200  0.54422300  0.06174800  1
  C  C24  1  0.76253500  0.60469400  0.69321700  1
  C  C25  1  0.00787000  0.49788800  0.32369700  1
  C  C26  1  0.99082600  0.50010500  0.67758200  1
  C  C27  1  0.23956800  0.39583000  0.30422300  1
  C  C28  1  0.80991800  0.80991800  0.20985700  1
  C  C29  1  0.29823700  0.45594000  0.94012700  1
  C  C30  1  0.17968400  0.67223000  0.83052700  1
  C  C31  1  0.99336900  0.99336900  0.81825700  1
  C  C32  1  0.11884100  0.87988900  0.50035100  1
  C  C33  1  0.38028700  0.61901800  0.49980900  1
  C  C34  1  0.11931000  0.97771900  0.99742500  1
  C  C35  1  0.33199700  0.82227200  0.17013200  1
  C  C36  1  0.54422300  0.70070200  0.06174800  1
  C  C37  1  0.60469400  0.76253500  0.69321700  1
  C  C38  1  0.50010500  0.99082600  0.67758200  1
