# generated using pymatgen
data_CuNiC6
_symmetry_space_group_name_H-M   'P 1'
_cell_length_a   5.95326546
_cell_length_b   5.95326546
_cell_length_c   5.95326546
_cell_angle_alpha   120.30428340
_cell_angle_beta   120.04270837
_cell_angle_gamma   89.69990813
_symmetry_Int_Tables_number   1
_chemical_formula_structural   CuNiC6
_chemical_formula_sum   'Cu2 Ni2 C12'
_cell_volume   148.79935935
_cell_formula_units_Z   2
loop_
 _symmetry_equiv_pos_site_id
 _symmetry_equiv_pos_as_xyz
  1  'x, y, z'
loop_
 _atom_site_type_symbol
 _atom_site_label
 _atom_site_symmetry_multiplicity
 _atom_site_fract_x
 _atom_site_fract_y
 _atom_site_fract_z
 _atom_site_occupancy
  C  C0  1  0.00000000  0.00000000  0.50000000  1
  C  C1  1  0.00000000  0.50000000  0.00000000  1
  C  C2  1  0.00000000  0.50000000  0.50000000  1
  C  C3  1  0.50000000  0.50000000  0.00000000  1
  Ni  Ni4  1  0.50000000  0.00000000  0.50000000  1
  Ni  Ni5  1  0.00000000  0.00000000  0.00000000  1
  Cu  Cu6  1  0.50000000  0.00000000  0.00000000  1
  Cu  Cu7  1  0.50000000  0.50000000  0.50000000  1
  C  C8  1  0.25709800  0.24226200  0.48516400  1
  C  C9  1  0.25709800  0.77193400  0.01483600  1
  C  C10  1  0.74547700  0.75841900  0.98705700  1
  C  C11  1  0.27136200  0.75841900  0.51294300  1
  C  C12  1  0.72863800  0.24158100  0.48705700  1
  C  C13  1  0.25452300  0.24158100  0.01294300  1
  C  C14  1  0.74290200  0.22806600  0.98516400  1
  C  C15  1  0.74290200  0.75773800  0.51483600  1
