# generated using pymatgen
data_CuNi2C15
_symmetry_space_group_name_H-M   'P 1'
_cell_length_a   8.80649743
_cell_length_b   8.80649746
_cell_length_c   8.80649772
_cell_angle_alpha   59.07005237
_cell_angle_beta   59.07005205
_cell_angle_gamma   59.07004893
_symmetry_Int_Tables_number   1
_chemical_formula_structural   CuNi2C15
_chemical_formula_sum   'Cu2 Ni4 C30'
_cell_volume   472.70141048
_cell_formula_units_Z   2
loop_
 _symmetry_equiv_pos_site_id
 _symmetry_equiv_pos_as_xyz
  1  'x, y, z'
loop_
 _atom_site_type_symbol
 _atom_site_label
 _atom_site_symmetry_multiplicity
 _atom_site_fract_x
 _atom_site_fract_y
 _atom_site_fract_z
 _atom_site_occupancy
  Ni  Ni0  1  0.14806400  0.14806400  0.14806400  1
  Ni  Ni1  1  0.35193600  0.35193600  0.35193600  1
  Ni  Ni2  1  0.64806400  0.64806400  0.64806400  1
  Ni  Ni3  1  0.85193600  0.85193600  0.85193600  1
  Cu  Cu4  1  0.00000000  0.00000000  0.00000000  1
  Cu  Cu5  1  0.50000000  0.50000000  0.50000000  1
  C  C6  1  0.04064700  0.75000000  0.45935300  1
  C  C7  1  0.45935300  0.04064700  0.75000000  1
  C  C8  1  0.75000000  0.45935300  0.04064700  1
  C  C9  1  0.25000000  0.54064700  0.95935300  1
  C  C10  1  0.54064700  0.95935300  0.25000000  1
  C  C11  1  0.95935300  0.25000000  0.54064700  1
  C  C12  1  0.11480600  0.30532000  0.50703100  1
  C  C13  1  0.30532000  0.50703100  0.11480600  1
  C  C14  1  0.06025400  0.91660200  0.26547700  1
  C  C15  1  0.50703100  0.11480600  0.30532000  1
  C  C16  1  0.00703100  0.80532000  0.61480600  1
  C  C17  1  0.23452300  0.58339800  0.43974600  1
  C  C18  1  0.26547700  0.06025400  0.91660200  1
  C  C19  1  0.43974600  0.23452300  0.58339800  1
  C  C20  1  0.19468000  0.38519400  0.99296900  1
  C  C21  1  0.58339800  0.43974600  0.23452300  1
  C  C22  1  0.08339800  0.73452300  0.93974600  1
  C  C23  1  0.38519400  0.99296900  0.19468000  1
  C  C24  1  0.61480600  0.00703100  0.80532000  1
  C  C25  1  0.91660200  0.26547700  0.06025400  1
  C  C26  1  0.41660200  0.56025400  0.76547700  1
  C  C27  1  0.80532000  0.61480600  0.00703100  1
  C  C28  1  0.56025400  0.76547700  0.41660200  1
  C  C29  1  0.73452300  0.93974600  0.08339800  1
  C  C30  1  0.76547700  0.41660200  0.56025400  1
  C  C31  1  0.99296900  0.19468000  0.38519400  1
  C  C32  1  0.49296900  0.88519400  0.69468000  1
  C  C33  1  0.93974600  0.08339800  0.73452300  1
  C  C34  1  0.69468000  0.49296900  0.88519400  1
  C  C35  1  0.88519400  0.69468000  0.49296900  1
