# generated using pymatgen
data_Cu24Ni6C17
_symmetry_space_group_name_H-M   'P 1'
_cell_length_a   10.03128300
_cell_length_b   10.39700200
_cell_length_c   10.71706770
_cell_angle_alpha   84.74469589
_cell_angle_beta   90.00000000
_cell_angle_gamma   90.00000000
_symmetry_Int_Tables_number   1
_chemical_formula_structural   Cu24Ni6C17
_chemical_formula_sum   'Cu48 Ni12 C34'
_cell_volume   1113.04099250
_cell_formula_units_Z   2
loop_
 _symmetry_equiv_pos_site_id
 _symmetry_equiv_pos_as_xyz
  1  'x, y, z'
loop_
 _atom_site_type_symbol
 _atom_site_label
 _atom_site_symmetry_multiplicity
 _atom_site_fract_x
 _atom_site_fract_y
 _atom_site_fract_z
 _atom_site_occupancy
  C  C0  1  0.75000000  0.49679100  0.90059300  1
  C  C1  1  0.42922100  0.44594900  0.87867500  1
  C  C2  1  0.07077900  0.44594900  0.87867500  1
  C  C3  1  0.92900000  0.71946900  0.78917400  1
  C  C4  1  0.42290800  0.95609400  0.87661100  1
  C  C5  1  0.25000000  0.66943300  0.76897800  1
  C  C6  1  0.57100000  0.71946900  0.78917400  1
  C  C7  1  0.75000000  0.00185300  0.89438600  1
  C  C8  1  0.07709200  0.95609400  0.87661100  1
  C  C9  1  0.92822000  0.38297000  0.45240700  1
  C  C10  1  0.94179300  0.21886600  0.78718100  1
  C  C11  1  0.55820700  0.21886600  0.78718100  1
  C  C12  1  0.42822000  0.61703000  0.54759300  1
  C  C13  1  0.25000000  0.33499500  0.43334400  1
  C  C14  1  0.07178000  0.61703000  0.54759300  1
  C  C15  1  0.75000000  0.66500500  0.56665600  1
  C  C16  1  0.57178000  0.38297000  0.45240700  1
  C  C17  1  0.92331000  0.88496900  0.44868000  1
  C  C18  1  0.42900000  0.28053100  0.21082600  1
  C  C19  1  0.25000000  0.83838700  0.43149300  1
  C  C20  1  0.57669000  0.88496900  0.44868000  1
  C  C21  1  0.42331000  0.11503100  0.55132000  1
  C  C22  1  0.07100000  0.28053100  0.21082600  1
  C  C23  1  0.75000000  0.33056700  0.23102200  1
  C  C24  1  0.07669000  0.11503100  0.55132000  1
  C  C25  1  0.75000000  0.16161300  0.56850700  1
  C  C26  1  0.57077900  0.55405100  0.12132500  1
  C  C27  1  0.25000000  0.50320900  0.09940700  1
  C  C28  1  0.92922100  0.55405100  0.12132500  1
  C  C29  1  0.44179300  0.78113400  0.21281900  1
  C  C30  1  0.05820700  0.78113400  0.21281900  1
  C  C31  1  0.25000000  0.99814700  0.10561400  1
  C  C32  1  0.92290800  0.04390600  0.12338900  1
  C  C33  1  0.57709200  0.04390600  0.12338900  1
  Ni  Ni34  1  0.25000000  0.52922100  0.91113600  1
  Ni  Ni35  1  0.75000000  0.64368100  0.75650100  1
  Ni  Ni36  1  0.25000000  0.00948000  0.92100800  1
  Ni  Ni37  1  0.75000000  0.14240500  0.75594200  1
  Ni  Ni38  1  0.75000000  0.30759000  0.42479400  1
  Ni  Ni39  1  0.25000000  0.69241000  0.57520600  1
  Ni  Ni40  1  0.25000000  0.18999800  0.56058700  1
  Ni  Ni41  1  0.75000000  0.81000200  0.43941300  1
  Ni  Ni42  1  0.25000000  0.35631900  0.24349900  1
  Ni  Ni43  1  0.75000000  0.47077900  0.08886400  1
  Ni  Ni44  1  0.25000000  0.85759500  0.24405800  1
  Ni  Ni45  1  0.75000000  0.99052000  0.07899200  1
  Cu  Cu46  1  0.39033900  0.29672400  0.81866400  1
  Cu  Cu47  1  0.87843800  0.37471700  0.85001100  1
  Cu  Cu48  1  0.56583600  0.59573600  0.93761600  1
  Cu  Cu49  1  0.93416400  0.59573600  0.93761600  1
  Cu  Cu50  1  0.10966100  0.29672400  0.81866400  1
  Cu  Cu51  1  0.62156200  0.37471700  0.85001100  1
  Cu  Cu52  1  0.56348700  0.25936200  0.60412000  1
  Cu  Cu53  1  0.93651300  0.25936200  0.60412000  1
  Cu  Cu54  1  0.43530200  0.57303500  0.72928800  1
  Cu  Cu55  1  0.06469800  0.57303500  0.72928800  1
  Cu  Cu56  1  0.56137400  0.09193500  0.93501200  1
  Cu  Cu57  1  0.11838900  0.79364700  0.81602400  1
  Cu  Cu58  1  0.38161100  0.79364700  0.81602400  1
  Cu  Cu59  1  0.93862600  0.09193500  0.93501200  1
  Cu  Cu60  1  0.87991400  0.87198700  0.85052500  1
  Cu  Cu61  1  0.62008600  0.87198700  0.85052500  1
  Cu  Cu62  1  0.88140200  0.53950700  0.51513200  1
  Cu  Cu63  1  0.93752000  0.75748000  0.60448600  1
  Cu  Cu64  1  0.61859800  0.53950700  0.51513200  1
  Cu  Cu65  1  0.05108800  0.06401300  0.72512200  1
  Cu  Cu66  1  0.44891200  0.06401300  0.72512200  1
  Cu  Cu67  1  0.11859800  0.46049300  0.48486800  1
  Cu  Cu68  1  0.56248000  0.75748000  0.60448600  1
  Cu  Cu69  1  0.38140200  0.46049300  0.48486800  1
  Cu  Cu70  1  0.93530200  0.42696500  0.27071200  1
  Cu  Cu71  1  0.11992300  0.95896600  0.48613200  1
  Cu  Cu72  1  0.06348700  0.74063800  0.39588000  1
  Cu  Cu73  1  0.61992300  0.04103400  0.51386800  1
  Cu  Cu74  1  0.88007700  0.04103400  0.51386800  1
  Cu  Cu75  1  0.43651300  0.74063800  0.39588000  1
  Cu  Cu76  1  0.56469800  0.42696500  0.27071200  1
  Cu  Cu77  1  0.38007700  0.95896600  0.48613200  1
  Cu  Cu78  1  0.43416400  0.40426400  0.06238400  1
  Cu  Cu79  1  0.37843800  0.62528300  0.14998900  1
  Cu  Cu80  1  0.60966100  0.70327600  0.18133600  1
  Cu  Cu81  1  0.94891200  0.93598700  0.27487800  1
  Cu  Cu82  1  0.12156200  0.62528300  0.14998900  1
  Cu  Cu83  1  0.06583600  0.40426400  0.06238400  1
  Cu  Cu84  1  0.89033900  0.70327600  0.18133600  1
  Cu  Cu85  1  0.55108800  0.93598700  0.27487800  1
  Cu  Cu86  1  0.06248000  0.24252000  0.39551400  1
  Cu  Cu87  1  0.43752000  0.24252000  0.39551400  1
  Cu  Cu88  1  0.12008600  0.12801300  0.14947500  1
  Cu  Cu89  1  0.88161100  0.20635300  0.18397600  1
  Cu  Cu90  1  0.43862600  0.90806500  0.06498800  1
  Cu  Cu91  1  0.06137400  0.90806500  0.06498800  1
  Cu  Cu92  1  0.37991400  0.12801300  0.14947500  1
  Cu  Cu93  1  0.61838900  0.20635300  0.18397600  1
