# generated using pymatgen
data_Cu2NiC15
_symmetry_space_group_name_H-M   'P 1'
_cell_length_a   6.28781600
_cell_length_b   8.26199900
_cell_length_c   8.26740769
_cell_angle_alpha   60.03060340
_cell_angle_beta   90.00000000
_cell_angle_gamma   90.00000000
_symmetry_Int_Tables_number   1
_chemical_formula_structural   Cu2NiC15
_chemical_formula_sum   'Cu4 Ni2 C30'
_cell_volume   372.06497951
_cell_formula_units_Z   2
loop_
 _symmetry_equiv_pos_site_id
 _symmetry_equiv_pos_as_xyz
  1  'x, y, z'
loop_
 _atom_site_type_symbol
 _atom_site_label
 _atom_site_symmetry_multiplicity
 _atom_site_fract_x
 _atom_site_fract_y
 _atom_site_fract_z
 _atom_site_occupancy
  C  C0  1  0.74964100  0.71556400  0.30163100  1
  C  C1  1  0.25035900  0.71556400  0.30163100  1
  C  C2  1  0.74902700  0.98317600  0.71511100  1
  C  C3  1  0.25097300  0.98317600  0.71511100  1
  C  C4  1  0.24876500  0.30143600  0.98420000  1
  C  C5  1  0.75123500  0.30143600  0.98420000  1
  Ni  Ni6  1  0.50000000  0.62663600  0.01227000  1
  Ni  Ni7  1  0.00000000  0.36038600  0.62711200  1
  Cu  Cu8  1  0.00000000  0.63416900  0.00673300  1
  Cu  Cu9  1  0.50000000  0.35885200  0.63420900  1
  Cu  Cu10  1  0.00000000  0.00795900  0.36007900  1
  Cu  Cu11  1  0.50000000  0.00813000  0.35933300  1
  C  C12  1  0.00000000  0.99945100  0.00348400  1
  C  C13  1  0.50000000  0.00167700  0.99838300  1
  C  C14  1  0.74996900  0.66776100  0.66507200  1
  C  C15  1  0.25003100  0.66776100  0.66507200  1
  C  C16  1  0.74996700  0.33189000  0.33387800  1
  C  C17  1  0.25003300  0.33189000  0.33387800  1
  C  C18  1  0.50000000  0.89246900  0.19211300  1
  C  C19  1  0.00000000  0.88839800  0.19696900  1
  C  C20  1  0.74975400  0.86192200  0.55745000  1
  C  C21  1  0.25024600  0.86192200  0.55745000  1
  C  C22  1  0.00000000  0.91492800  0.89253800  1
  C  C23  1  0.50000000  0.91936100  0.88761100  1
  C  C24  1  0.74585900  0.56005700  0.57924300  1
  C  C25  1  0.25414100  0.56005700  0.57924300  1
  C  C26  1  0.75428600  0.58163300  0.85871400  1
  C  C27  1  0.24571400  0.58163300  0.85871400  1
  C  C28  1  0.75282600  0.52578000  0.22063000  1
  C  C29  1  0.24717400  0.52578000  0.22063000  1
  C  C30  1  0.00000000  0.19249000  0.92019700  1
  C  C31  1  0.50000000  0.19664400  0.91508600  1
  C  C32  1  0.75029500  0.21808200  0.25384200  1
  C  C33  1  0.24970500  0.21808200  0.25384200  1
  C  C34  1  0.25321700  0.25192500  0.52717100  1
  C  C35  1  0.74678300  0.25192500  0.52717100  1
