# generated using pymatgen
data_CuNi2C3
_symmetry_space_group_name_H-M   'P 1'
_cell_length_a   6.53852330
_cell_length_b   6.53852330
_cell_length_c   6.18653700
_cell_angle_alpha   90.00000000
_cell_angle_beta   90.00000000
_cell_angle_gamma   114.84364640
_symmetry_Int_Tables_number   1
_chemical_formula_structural   CuNi2C3
_chemical_formula_sum   'Cu2 Ni4 C6'
_cell_volume   240.01221777
_cell_formula_units_Z   2
loop_
 _symmetry_equiv_pos_site_id
 _symmetry_equiv_pos_as_xyz
  1  'x, y, z'
loop_
 _atom_site_type_symbol
 _atom_site_label
 _atom_site_symmetry_multiplicity
 _atom_site_fract_x
 _atom_site_fract_y
 _atom_site_fract_z
 _atom_site_occupancy
  Ni  Ni0  1  0.52537300  0.18841200  0.76741100  1
  Ni  Ni1  1  0.81158800  0.47462700  0.26741100  1
  Ni  Ni2  1  0.18841200  0.52537300  0.76741100  1
  Ni  Ni3  1  0.47462700  0.81158800  0.26741100  1
  Cu  Cu4  1  0.89335300  0.89335300  0.73179300  1
  Cu  Cu5  1  0.10664700  0.10664700  0.23179300  1
  C  C6  1  0.89393200  0.15666800  0.49965300  1
  C  C7  1  0.84333200  0.10606800  0.99965300  1
  C  C8  1  0.39842200  0.39842200  0.13407800  1
  C  C9  1  0.60157800  0.60157800  0.63407800  1
  C  C10  1  0.10606800  0.84333200  0.99965300  1
  C  C11  1  0.15666800  0.89393200  0.49965300  1
