# generated using pymatgen
data_CuNiC3
_symmetry_space_group_name_H-M   'P 1'
_cell_length_a   4.86811200
_cell_length_b   5.12117900
_cell_length_c   7.33976900
_cell_angle_alpha   89.99993521
_cell_angle_beta   89.99996085
_cell_angle_gamma   89.99852011
_symmetry_Int_Tables_number   1
_chemical_formula_structural   CuNiC3
_chemical_formula_sum   'Cu4 Ni4 C12'
_cell_volume   182.98391244
_cell_formula_units_Z   4
loop_
 _symmetry_equiv_pos_site_id
 _symmetry_equiv_pos_as_xyz
  1  'x, y, z'
loop_
 _atom_site_type_symbol
 _atom_site_label
 _atom_site_symmetry_multiplicity
 _atom_site_fract_x
 _atom_site_fract_y
 _atom_site_fract_z
 _atom_site_occupancy
  Ni  Ni0  1  0.00000000  0.50000100  0.00000000  1
  Ni  Ni1  1  0.00000000  0.50000100  0.50000000  1
  Ni  Ni2  1  0.50000100  0.00000000  0.00000000  1
  Ni  Ni3  1  0.50000100  0.00000000  0.50000000  1
  Cu  Cu4  1  0.47628500  0.43692600  0.75000200  1
  Cu  Cu5  1  0.52371500  0.56307100  0.24999900  1
  Cu  Cu6  1  0.02374100  0.93691800  0.75000300  1
  Cu  Cu7  1  0.97626000  0.06307600  0.25000000  1
  C  C8  1  0.13832900  0.43651100  0.25000000  1
  C  C9  1  0.36167200  0.93650000  0.25000000  1
  C  C10  1  0.63832800  0.06350200  0.75000000  1
  C  C11  1  0.86167100  0.56348900  0.74999900  1
  C  C12  1  0.19002900  0.19364900  0.57166500  1
  C  C13  1  0.19002900  0.19364800  0.92833600  1
  C  C14  1  0.30997700  0.69364700  0.92833200  1
  C  C15  1  0.30997600  0.69364800  0.57166700  1
  C  C16  1  0.69002300  0.30635300  0.07166800  1
  C  C17  1  0.69002300  0.30635400  0.42833300  1
  C  C18  1  0.80997000  0.80635300  0.07166300  1
  C  C19  1  0.80997100  0.80635300  0.42833500  1
