# generated using pymatgen
data_Cu4Ni2C23
_symmetry_space_group_name_H-M   'P 1'
_cell_length_a   10.28802324
_cell_length_b   10.28802324
_cell_length_c   10.28802324
_cell_angle_alpha   60.00000000
_cell_angle_beta   60.00000000
_cell_angle_gamma   60.00000000
_symmetry_Int_Tables_number   1
_chemical_formula_structural   Cu4Ni2C23
_chemical_formula_sum   'Cu8 Ni4 C46'
_cell_volume   769.98242495
_cell_formula_units_Z   2
loop_
 _symmetry_equiv_pos_site_id
 _symmetry_equiv_pos_as_xyz
  1  'x, y, z'
loop_
 _atom_site_type_symbol
 _atom_site_label
 _atom_site_symmetry_multiplicity
 _atom_site_fract_x
 _atom_site_fract_y
 _atom_site_fract_z
 _atom_site_occupancy
  C  C0  1  0.20464300  0.20464300  0.79535700  1
  C  C1  1  0.79535700  0.20464300  0.20464300  1
  C  C2  1  0.79535700  0.20464300  0.79535700  1
  C  C3  1  0.20464300  0.79535700  0.20464300  1
  C  C4  1  0.45464300  0.45464300  0.04535700  1
  C  C5  1  0.04535700  0.45464300  0.45464300  1
  C  C6  1  0.20464300  0.79535700  0.79535700  1
  C  C7  1  0.79535700  0.79535700  0.20464300  1
  C  C8  1  0.45464300  0.04535700  0.45464300  1
  C  C9  1  0.04535700  0.45464300  0.04535700  1
  C  C10  1  0.04535700  0.04535700  0.45464300  1
  C  C11  1  0.45464300  0.04535700  0.04535700  1
  Ni  Ni12  1  0.62500000  0.12500000  0.62500000  1
  Ni  Ni13  1  0.12500000  0.62500000  0.62500000  1
  Ni  Ni14  1  0.62500000  0.62500000  0.12500000  1
  Ni  Ni15  1  0.62500000  0.62500000  0.62500000  1
  Cu  Cu16  1  0.40603900  0.40603900  0.40603900  1
  Cu  Cu17  1  0.40603900  0.40603900  0.78188300  1
  Cu  Cu18  1  0.78188300  0.40603900  0.40603900  1
  Cu  Cu19  1  0.40603900  0.78188300  0.40603900  1
  Cu  Cu20  1  0.84396100  0.46811700  0.84396100  1
  Cu  Cu21  1  0.46811700  0.84396100  0.84396100  1
  Cu  Cu22  1  0.84396100  0.84396100  0.46811700  1
  Cu  Cu23  1  0.84396100  0.84396100  0.84396100  1
  C  C24  1  0.25000000  0.25000000  0.25000000  1
  C  C25  1  0.00000000  0.00000000  0.00000000  1
  C  C26  1  0.18151100  0.18151100  0.18151100  1
  C  C27  1  0.45546800  0.18151100  0.18151100  1
  C  C28  1  0.18151100  0.18151100  0.45546800  1
  C  C29  1  0.18151100  0.45546800  0.18151100  1
  C  C30  1  0.41921300  0.26344500  0.53252000  1
  C  C31  1  0.53252000  0.41921300  0.26344500  1
  C  C32  1  0.78482200  0.26344500  0.41921300  1
  C  C33  1  0.26344500  0.53252000  0.41921300  1
  C  C34  1  0.53252000  0.26344500  0.78482200  1
  C  C35  1  0.26344500  0.41921300  0.78482200  1
  C  C36  1  0.78482200  0.53252000  0.26344500  1
  C  C37  1  0.78482200  0.41921300  0.53252000  1
  C  C38  1  0.41921300  0.78482200  0.26344500  1
  C  C39  1  0.41921300  0.53252000  0.78482200  1
  C  C40  1  0.26344500  0.78482200  0.53252000  1
  C  C41  1  0.71748000  0.46517800  0.83078700  1
  C  C42  1  0.53252000  0.78482200  0.41921300  1
  C  C43  1  0.98655500  0.46517800  0.71748000  1
  C  C44  1  0.83078700  0.71748000  0.46517800  1
  C  C45  1  0.83078700  0.46517800  0.98655500  1
  C  C46  1  0.46517800  0.83078700  0.71748000  1
  C  C47  1  0.46517800  0.71748000  0.98655500  1
  C  C48  1  0.98655500  0.83078700  0.46517800  1
  C  C49  1  0.71748000  0.98655500  0.46517800  1
  C  C50  1  0.98655500  0.71748000  0.83078700  1
  C  C51  1  0.46517800  0.98655500  0.83078700  1
  C  C52  1  0.71748000  0.83078700  0.98655500  1
  C  C53  1  0.83078700  0.98655500  0.71748000  1
  C  C54  1  0.06848900  0.79453200  0.06848900  1
  C  C55  1  0.06848900  0.06848900  0.79453200  1
  C  C56  1  0.79453200  0.06848900  0.06848900  1
  C  C57  1  0.06848900  0.06848900  0.06848900  1
