# generated using pymatgen
data_Cu2NiC33
_symmetry_space_group_name_H-M   'P 1'
_cell_length_a   8.50726384
_cell_length_b   8.50726384
_cell_length_c   8.50726429
_cell_angle_alpha   60.76600928
_cell_angle_beta   60.76600928
_cell_angle_gamma   60.76600885
_symmetry_Int_Tables_number   1
_chemical_formula_structural   Cu2NiC33
_chemical_formula_sum   'Cu2 Ni1 C33'
_cell_volume   442.88995168
_cell_formula_units_Z   1
loop_
 _symmetry_equiv_pos_site_id
 _symmetry_equiv_pos_as_xyz
  1  'x, y, z'
loop_
 _atom_site_type_symbol
 _atom_site_label
 _atom_site_symmetry_multiplicity
 _atom_site_fract_x
 _atom_site_fract_y
 _atom_site_fract_z
 _atom_site_occupancy
  C  C0  1  0.35727100  0.35727100  0.35727100  1
  C  C1  1  0.14220300  0.14220300  0.14220300  1
  C  C2  1  0.64264200  0.64264200  0.64264200  1
  Ni  Ni3  1  0.85862000  0.85862000  0.85862000  1
  Cu  Cu4  1  0.99959600  0.99959600  0.99959600  1
  Cu  Cu5  1  0.49942100  0.49942100  0.49942100  1
  C  C6  1  0.45842400  0.75025400  0.04249900  1
  C  C7  1  0.75025400  0.04249900  0.45842400  1
  C  C8  1  0.04249900  0.45842400  0.75025400  1
  C  C9  1  0.95698900  0.54365000  0.24975900  1
  C  C10  1  0.24975900  0.95698900  0.54365000  1
  C  C11  1  0.54365000  0.24975900  0.95698900  1
  C  C12  1  0.68824900  0.88065700  0.49571200  1
  C  C13  1  0.88065700  0.49571200  0.68824900  1
  C  C14  1  0.49571200  0.68824900  0.88065700  1
  C  C15  1  0.26033700  0.91236200  0.05871100  1
  C  C16  1  0.61595500  0.80954600  0.00900800  1
  C  C17  1  0.43794300  0.58571000  0.23899400  1
  C  C18  1  0.91236200  0.05871100  0.26033700  1
  C  C19  1  0.58571000  0.23899400  0.43794300  1
  C  C20  1  0.99545900  0.38210100  0.18847800  1
  C  C21  1  0.23899400  0.43794300  0.58571000  1
  C  C22  1  0.94366600  0.73897300  0.08893700  1
  C  C23  1  0.18847800  0.99545900  0.38210100  1
  C  C24  1  0.80954600  0.00900800  0.61595500  1
  C  C25  1  0.05871100  0.26033700  0.91236200  1
  C  C26  1  0.76093400  0.55854200  0.41421800  1
  C  C27  1  0.00900800  0.61595500  0.80954600  1
  C  C28  1  0.41421800  0.76093400  0.55854200  1
  C  C29  1  0.08893700  0.94366600  0.73897300  1
  C  C30  1  0.55854200  0.41421800  0.76093400  1
  C  C31  1  0.38210100  0.18847800  0.99545900  1
  C  C32  1  0.73897300  0.08893700  0.94366600  1
  C  C33  1  0.50147600  0.31554000  0.11718800  1
  C  C34  1  0.11718800  0.50147600  0.31554000  1
  C  C35  1  0.31554000  0.11718800  0.50147600  1
