# generated using pymatgen
data_CuNiC5
_symmetry_space_group_name_H-M   'P 1'
_cell_length_a   4.34671700
_cell_length_b   12.80488200
_cell_length_c   14.91181300
_cell_angle_alpha   90.00000000
_cell_angle_beta   90.00000000
_cell_angle_gamma   90.00000000
_symmetry_Int_Tables_number   1
_chemical_formula_structural   CuNiC5
_chemical_formula_sum   'Cu4 Ni4 C20'
_cell_volume   829.97955637
_cell_formula_units_Z   4
loop_
 _symmetry_equiv_pos_site_id
 _symmetry_equiv_pos_as_xyz
  1  'x, y, z'
loop_
 _atom_site_type_symbol
 _atom_site_label
 _atom_site_symmetry_multiplicity
 _atom_site_fract_x
 _atom_site_fract_y
 _atom_site_fract_z
 _atom_site_occupancy
  Ni  Ni0  1  0.98678300  0.25000000  0.00000000  1
  Ni  Ni1  1  0.98678300  0.25000000  0.50000000  1
  Ni  Ni2  1  0.01321700  0.75000000  0.50000000  1
  Ni  Ni3  1  0.01321700  0.75000000  0.00000000  1
  Cu  Cu4  1  0.48320400  0.02489900  0.25000000  1
  Cu  Cu5  1  0.48320400  0.47510100  0.75000000  1
  Cu  Cu6  1  0.51679600  0.52489900  0.25000000  1
  Cu  Cu7  1  0.51679600  0.97510100  0.75000000  1
  C  C8  1  0.98338700  0.16761600  0.25000000  1
  C  C9  1  0.98338700  0.33238400  0.75000000  1
  C  C10  1  0.98663000  0.92391300  0.13958600  1
  C  C11  1  0.98663000  0.57608700  0.63958600  1
  C  C12  1  0.98663000  0.57608700  0.86041400  1
  C  C13  1  0.98663000  0.92391300  0.36041400  1
  C  C14  1  0.51444200  0.86766100  0.92437000  1
  C  C15  1  0.51444200  0.86766100  0.57563000  1
  C  C16  1  0.51444200  0.63233900  0.07563000  1
  C  C17  1  0.51444200  0.63233900  0.42437000  1
  C  C18  1  0.48555800  0.13233900  0.07563000  1
  C  C19  1  0.48555800  0.13233900  0.42437000  1
  C  C20  1  0.48555800  0.36766100  0.57563000  1
  C  C21  1  0.48555800  0.36766100  0.92437000  1
  C  C22  1  0.01337000  0.42391300  0.36041400  1
  C  C23  1  0.01337000  0.42391300  0.13958600  1
  C  C24  1  0.01337000  0.07608700  0.63958600  1
  C  C25  1  0.01337000  0.07608700  0.86041400  1
  C  C26  1  0.01661300  0.66761600  0.25000000  1
  C  C27  1  0.01661300  0.83238400  0.75000000  1
