# generated using pymatgen
data_Cu5Ni7C6
_symmetry_space_group_name_H-M   'P 1'
_cell_length_a   5.59559131
_cell_length_b   5.59559131
_cell_length_c   7.35758973
_cell_angle_alpha   73.43166248
_cell_angle_beta   73.43166248
_cell_angle_gamma   71.86245554
_symmetry_Int_Tables_number   1
_chemical_formula_structural   Cu5Ni7C6
_chemical_formula_sum   'Cu5 Ni7 C6'
_cell_volume   204.89913708
_cell_formula_units_Z   1
loop_
 _symmetry_equiv_pos_site_id
 _symmetry_equiv_pos_as_xyz
  1  'x, y, z'
loop_
 _atom_site_type_symbol
 _atom_site_label
 _atom_site_symmetry_multiplicity
 _atom_site_fract_x
 _atom_site_fract_y
 _atom_site_fract_z
 _atom_site_occupancy
  C  C0  1  0.30698200  0.30698200  0.17194100  1
  C  C1  1  0.66260100  0.66260100  0.33195200  1
  C  C2  1  0.34700800  0.34700800  0.68419800  1
  C  C3  1  0.69571500  0.69571500  0.80852800  1
  C  C4  1  0.00788500  0.00788500  0.49331400  1
  C  C5  1  0.99643300  0.99643300  0.99572700  1
  Ni  Ni6  1  0.95633900  0.36081200  0.33802500  1
  Ni  Ni7  1  0.64638400  0.03666100  0.66433800  1
  Ni  Ni8  1  0.76463400  0.76463400  0.02795800  1
  Ni  Ni9  1  0.21898200  0.21898200  0.97087200  1
  Ni  Ni10  1  0.57083000  0.57083000  0.64695700  1
  Ni  Ni11  1  0.36081200  0.95633900  0.33802500  1
  Ni  Ni12  1  0.03666100  0.64638400  0.66433800  1
  Cu  Cu13  1  0.42691800  0.42691800  0.36947200  1
  Cu  Cu14  1  0.11079000  0.11079000  0.70024400  1
  Cu  Cu15  1  0.89870200  0.89870200  0.29160500  1
  Cu  Cu16  1  0.69073000  0.30159100  0.00125300  1
  Cu  Cu17  1  0.30159100  0.69073000  0.00125300  1
