# generated using pymatgen
data_Cu4NiC11
_symmetry_space_group_name_H-M   'P 1'
_cell_length_a   4.85494600
_cell_length_b   7.15893100
_cell_length_c   11.44561100
_cell_angle_alpha   90.00000000
_cell_angle_beta   90.00000000
_cell_angle_gamma   90.00000000
_symmetry_Int_Tables_number   1
_chemical_formula_structural   Cu4NiC11
_chemical_formula_sum   'Cu8 Ni2 C22'
_cell_volume   397.80621313
_cell_formula_units_Z   2
loop_
 _symmetry_equiv_pos_site_id
 _symmetry_equiv_pos_as_xyz
  1  'x, y, z'
loop_
 _atom_site_type_symbol
 _atom_site_label
 _atom_site_symmetry_multiplicity
 _atom_site_fract_x
 _atom_site_fract_y
 _atom_site_fract_z
 _atom_site_occupancy
  C  C0  1  0.50000000  0.50000000  0.27726000  1
  C  C1  1  0.50000000  0.00000000  0.77726000  1
  Ni  Ni2  1  0.00000000  0.50000000  0.38392700  1
  Ni  Ni3  1  0.00000000  0.00000000  0.88392700  1
  Cu  Cu4  1  0.03818200  0.21378900  0.16979600  1
  Cu  Cu5  1  0.03818200  0.28621100  0.66979600  1
  Cu  Cu6  1  0.45606900  0.71306600  0.01198200  1
  Cu  Cu7  1  0.45606900  0.78693400  0.51198200  1
  Cu  Cu8  1  0.54393100  0.21306600  0.51198200  1
  Cu  Cu9  1  0.54393100  0.28693400  0.01198200  1
  Cu  Cu10  1  0.96181800  0.71378900  0.66979600  1
  Cu  Cu11  1  0.96181800  0.78621100  0.16979600  1
  C  C12  1  0.00000000  0.00000000  0.21469600  1
  C  C13  1  0.00000000  0.50000000  0.71469600  1
  C  C14  1  0.23430500  0.20635600  0.05007600  1
  C  C15  1  0.23430500  0.29364400  0.55007600  1
  C  C16  1  0.17695400  0.15851700  0.77008200  1
  C  C17  1  0.17695400  0.34148300  0.27008200  1
  C  C18  1  0.31059700  0.65214500  0.41724900  1
  C  C19  1  0.31059700  0.84785500  0.91724900  1
  C  C20  1  0.26722000  0.70277100  0.13244200  1
  C  C21  1  0.26722000  0.79722900  0.63244200  1
  C  C22  1  0.50000000  0.50000000  0.96461700  1
  C  C23  1  0.50000000  0.00000000  0.46461700  1
  C  C24  1  0.73278000  0.20277100  0.63244200  1
  C  C25  1  0.73278000  0.29722900  0.13244200  1
  C  C26  1  0.68940300  0.34785500  0.41724900  1
  C  C27  1  0.68940300  0.15214500  0.91724900  1
  C  C28  1  0.82304600  0.84148300  0.77008200  1
  C  C29  1  0.82304600  0.65851700  0.27008200  1
  C  C30  1  0.76569500  0.70635600  0.55007600  1
  C  C31  1  0.76569500  0.79364400  0.05007600  1
