# generated using pymatgen
data_CuNi3C37
_symmetry_space_group_name_H-M   'P 1'
_cell_length_a   8.84933084
_cell_length_b   8.84933084
_cell_length_c   8.84933040
_cell_angle_alpha   60.10466089
_cell_angle_beta   60.10466089
_cell_angle_gamma   60.10465837
_symmetry_Int_Tables_number   1
_chemical_formula_structural   CuNi3C37
_chemical_formula_sum   'Cu1 Ni3 C37'
_cell_volume   491.18479547
_cell_formula_units_Z   1
loop_
 _symmetry_equiv_pos_site_id
 _symmetry_equiv_pos_as_xyz
  1  'x, y, z'
loop_
 _atom_site_type_symbol
 _atom_site_label
 _atom_site_symmetry_multiplicity
 _atom_site_fract_x
 _atom_site_fract_y
 _atom_site_fract_z
 _atom_site_occupancy
  C  C0  1  0.61838400  0.25986600  0.78652800  1
  C  C1  1  0.25986600  0.78652800  0.61838400  1
  C  C2  1  0.17571800  0.34642000  0.79002800  1
  C  C3  1  0.02207000  0.02207000  0.02207000  1
  C  C4  1  0.78652800  0.61838400  0.25986600  1
  C  C5  1  0.79002800  0.17571800  0.34642000  1
  C  C6  1  0.34642000  0.79002800  0.17571800  1
  Ni  Ni7  1  0.64635800  0.64635800  0.64635800  1
  Ni  Ni8  1  0.85618800  0.85618800  0.85618800  1
  Ni  Ni9  1  0.35556900  0.35556900  0.35556900  1
  Cu  Cu10  1  0.15103100  0.15103100  0.15103100  1
  C  C11  1  0.25395000  0.53979200  0.95574000  1
  C  C12  1  0.95574000  0.25395000  0.53979200  1
  C  C13  1  0.53979200  0.95574000  0.25395000  1
  C  C14  1  0.45482500  0.03969800  0.75414200  1
  C  C15  1  0.03969800  0.75414200  0.45482500  1
  C  C16  1  0.75414200  0.45482500  0.03969800  1
  C  C17  1  0.12276300  0.28912500  0.50754400  1
  C  C18  1  0.50754400  0.12276300  0.28912500  1
  C  C19  1  0.28912500  0.50754400  0.12276300  1
  C  C20  1  0.09173500  0.72486800  0.92166900  1
  C  C21  1  0.42164900  0.56520600  0.77287100  1
  C  C22  1  0.22224800  0.37655000  0.96861900  1
  C  C23  1  0.92166900  0.09173500  0.72486800  1
  C  C24  1  0.77287100  0.42164900  0.56520600  1
  C  C25  1  0.56520600  0.77287100  0.42164900  1
  C  C26  1  0.61923400  0.02397900  0.78870600  1
  C  C27  1  0.27696700  0.04645100  0.92873700  1
  C  C28  1  0.02397900  0.78870600  0.61923400  1
  C  C29  1  0.96861900  0.22224800  0.37655000  1
  C  C30  1  0.72486800  0.92166900  0.09173500  1
  C  C31  1  0.37655000  0.96861900  0.22224800  1
  C  C32  1  0.41251800  0.22911400  0.60108200  1
  C  C33  1  0.22911400  0.60108200  0.41251800  1
  C  C34  1  0.04645100  0.92873700  0.27696700  1
  C  C35  1  0.78870600  0.61923400  0.02397900  1
  C  C36  1  0.60108200  0.41251800  0.22911400  1
  C  C37  1  0.92873700  0.27696700  0.04645100  1
  C  C38  1  0.70603600  0.49745500  0.87643600  1
  C  C39  1  0.49745500  0.87643600  0.70603600  1
  C  C40  1  0.87643600  0.70603600  0.49745500  1
