# generated using pymatgen
data_Cu3NiC24
_symmetry_space_group_name_H-M   'P 1'
_cell_length_a   6.74203600
_cell_length_b   4.84535000
_cell_length_c   10.98249604
_cell_angle_alpha   88.89482291
_cell_angle_beta   90.00000000
_cell_angle_gamma   90.00000000
_symmetry_Int_Tables_number   1
_chemical_formula_structural   Cu3NiC24
_chemical_formula_sum   'Cu3 Ni1 C24'
_cell_volume   358.70421336
_cell_formula_units_Z   1
loop_
 _symmetry_equiv_pos_site_id
 _symmetry_equiv_pos_as_xyz
  1  'x, y, z'
loop_
 _atom_site_type_symbol
 _atom_site_label
 _atom_site_symmetry_multiplicity
 _atom_site_fract_x
 _atom_site_fract_y
 _atom_site_fract_z
 _atom_site_occupancy
  C  C0  1  0.26259100  0.98317200  0.00926700  1
  C  C1  1  0.73740900  0.98317200  0.00926700  1
  C  C2  1  0.75050000  0.49939800  0.49007300  1
  C  C3  1  0.24950000  0.49939800  0.49007300  1
  Ni  Ni4  1  0.00000000  0.02273200  0.27327900  1
  Cu  Cu5  1  0.00000000  0.47500600  0.78064200  1
  Cu  Cu6  1  0.50000000  0.53409600  0.21689300  1
  Cu  Cu7  1  0.50000000  0.95290400  0.70480200  1
  C  C8  1  0.50000000  0.08729700  0.41271600  1
  C  C9  1  0.50000000  0.38693300  0.92375900  1
  C  C10  1  0.00000000  0.61889400  0.10387700  1
  C  C11  1  0.00000000  0.91441000  0.56001800  1
  C  C12  1  0.50000000  0.23588300  0.54020100  1
  C  C13  1  0.31248600  0.20085900  0.34309900  1
  C  C14  1  0.68751400  0.20085900  0.34309900  1
  C  C15  1  0.00000000  0.23128100  0.56128800  1
  C  C16  1  0.00000000  0.30249300  0.11867700  1
  C  C17  1  0.31453000  0.27723800  0.85296700  1
  C  C18  1  0.68547000  0.27723800  0.85296700  1
  C  C19  1  0.50000000  0.23079400  0.05036400  1
  C  C20  1  0.00000000  0.72392700  0.96827600  1
  C  C21  1  0.81970000  0.76340000  0.16705300  1
  C  C22  1  0.18030000  0.76340000  0.16705300  1
  C  C23  1  0.50000000  0.70070300  0.94056600  1
  C  C24  1  0.50000000  0.77160700  0.43045000  1
  C  C25  1  0.81703700  0.78490500  0.62989100  1
  C  C26  1  0.18296300  0.78490500  0.62989100  1
  C  C27  1  0.00000000  0.79309200  0.42949500  1
