# generated using pymatgen
data_CuNiC5
_symmetry_space_group_name_H-M   'P 1'
_cell_length_a   4.88537200
_cell_length_b   5.36749200
_cell_length_c   12.48572900
_cell_angle_alpha   90.00000000
_cell_angle_beta   90.00000000
_cell_angle_gamma   90.00000000
_symmetry_Int_Tables_number   1
_chemical_formula_structural   CuNiC5
_chemical_formula_sum   'Cu4 Ni4 C20'
_cell_volume   327.40322214
_cell_formula_units_Z   4
loop_
 _symmetry_equiv_pos_site_id
 _symmetry_equiv_pos_as_xyz
  1  'x, y, z'
loop_
 _atom_site_type_symbol
 _atom_site_label
 _atom_site_symmetry_multiplicity
 _atom_site_fract_x
 _atom_site_fract_y
 _atom_site_fract_z
 _atom_site_occupancy
  C  C0  1  0.00000000  0.75000000  0.23619400  1
  C  C1  1  0.00000000  0.25000000  0.76380600  1
  C  C2  1  0.50000000  0.25000000  0.26380600  1
  C  C3  1  0.50000000  0.75000000  0.73619400  1
  Ni  Ni4  1  0.00000000  0.25000000  0.38429600  1
  Ni  Ni5  1  0.00000000  0.75000000  0.61570400  1
  Ni  Ni6  1  0.50000000  0.25000000  0.88429600  1
  Ni  Ni7  1  0.50000000  0.75000000  0.11570400  1
  Cu  Cu8  1  0.00000000  0.25000000  0.10006600  1
  Cu  Cu9  1  0.00000000  0.75000000  0.89993400  1
  Cu  Cu10  1  0.50000000  0.25000000  0.60006600  1
  Cu  Cu11  1  0.50000000  0.75000000  0.39993400  1
  C  C12  1  0.16290700  0.45483500  0.30850100  1
  C  C13  1  0.16290700  0.95483500  0.69149900  1
  C  C14  1  0.25518500  0.60526200  0.04588200  1
  C  C15  1  0.25518500  0.10526200  0.95411800  1
  C  C16  1  0.24481500  0.10526200  0.45411800  1
  C  C17  1  0.24481500  0.60526200  0.54588200  1
  C  C18  1  0.33709300  0.95483500  0.19149900  1
  C  C19  1  0.33709300  0.45483500  0.80850100  1
  C  C20  1  0.66290700  0.54516500  0.19149900  1
  C  C21  1  0.66290700  0.04516500  0.80850100  1
  C  C22  1  0.75518500  0.39473800  0.45411800  1
  C  C23  1  0.75518500  0.89473800  0.54588200  1
  C  C24  1  0.74481500  0.89473800  0.04588200  1
  C  C25  1  0.74481500  0.39473800  0.95411800  1
  C  C26  1  0.83709300  0.04516500  0.30850100  1
  C  C27  1  0.83709300  0.54516500  0.69149900  1
