# generated using pymatgen
data_CuNiC14
_symmetry_space_group_name_H-M   'P 1'
_cell_length_a   5.22521755
_cell_length_b   7.40123700
_cell_length_c   10.56198197
_cell_angle_alpha   75.64241690
_cell_angle_beta   97.57727628
_cell_angle_gamma   71.39550892
_symmetry_Int_Tables_number   1
_chemical_formula_structural   CuNiC14
_chemical_formula_sum   'Cu2 Ni2 C28'
_cell_volume   364.99327000
_cell_formula_units_Z   2
loop_
 _symmetry_equiv_pos_site_id
 _symmetry_equiv_pos_as_xyz
  1  'x, y, z'
loop_
 _atom_site_type_symbol
 _atom_site_label
 _atom_site_symmetry_multiplicity
 _atom_site_fract_x
 _atom_site_fract_y
 _atom_site_fract_z
 _atom_site_occupancy
  C  C0  1  0.46185800  0.62071700  0.19188600  1
  C  C1  1  0.96187400  0.12074200  0.69189500  1
  C  C2  1  0.53814300  0.37928500  0.80811300  1
  C  C3  1  0.03812700  0.87925900  0.30810400  1
  Ni  Ni4  1  0.49999500  0.50000300  0.49999900  1
  Ni  Ni5  1  0.00000600  0.00000100  0.99999900  1
  Cu  Cu6  1  0.99999100  0.49997900  0.00001300  1
  Cu  Cu7  1  0.49999800  0.00000200  0.49999800  1
  C  C8  1  0.99871600  0.44103200  0.32075200  1
  C  C9  1  0.49874900  0.94093700  0.82075900  1
  C  C10  1  0.00128400  0.55896900  0.67924800  1
  C  C11  1  0.50125200  0.05906300  0.17924000  1
  C  C12  1  0.74593600  0.53684800  0.37727800  1
  C  C13  1  0.24607500  0.03689500  0.87727600  1
  C  C14  1  0.25406400  0.46315300  0.62272100  1
  C  C15  1  0.75392500  0.96310700  0.12272300  1
  C  C16  1  0.64503100  0.71603300  0.89421100  1
  C  C17  1  0.14494500  0.21605200  0.39420900  1
  C  C18  1  0.35497000  0.28396800  0.10578900  1
  C  C19  1  0.85505600  0.78394900  0.60579000  1
  C  C20  1  0.86284000  0.48671500  0.17091900  1
  C  C21  1  0.36291700  0.98676100  0.67090000  1
  C  C22  1  0.13716100  0.51328600  0.82908100  1
  C  C23  1  0.63708300  0.01324000  0.32910000  1
  C  C24  1  0.79622300  0.44489000  0.66707900  1
  C  C25  1  0.29602600  0.94497000  0.16688600  1
  C  C26  1  0.20377800  0.55511100  0.33292100  1
  C  C27  1  0.70397500  0.05503200  0.83311300  1
  C  C28  1  0.83484700  0.30106500  0.96384700  1
  C  C29  1  0.33490500  0.80083400  0.46384400  1
  C  C30  1  0.16515300  0.69893600  0.03615300  1
  C  C31  1  0.66509500  0.19916700  0.53615500  1
