# generated using pymatgen
data_CuNiC
_symmetry_space_group_name_H-M   'P 1'
_cell_length_a   14.21484007
_cell_length_b   9.48672204
_cell_length_c   3.08998300
_cell_angle_alpha   90.00000000
_cell_angle_beta   90.00000000
_cell_angle_gamma   90.39399422
_symmetry_Int_Tables_number   1
_chemical_formula_structural   CuNiC
_chemical_formula_sum   'Cu12 Ni12 C12'
_cell_volume   416.68126677
_cell_formula_units_Z   12
loop_
 _symmetry_equiv_pos_site_id
 _symmetry_equiv_pos_as_xyz
  1  'x, y, z'
loop_
 _atom_site_type_symbol
 _atom_site_label
 _atom_site_symmetry_multiplicity
 _atom_site_fract_x
 _atom_site_fract_y
 _atom_site_fract_z
 _atom_site_occupancy
  C  C0  1  0.99961400  0.99913000  0.00000000  1
  C  C1  1  0.00812100  0.49581300  0.00000000  1
  C  C2  1  0.14921700  0.24319800  0.50000000  1
  C  C3  1  0.16461100  0.72147400  0.50000000  1
  C  C4  1  0.34230800  0.99025200  0.00000000  1
  C  C5  1  0.33373700  0.51229200  0.00000000  1
  C  C6  1  0.48951900  0.74483200  0.50000000  1
  C  C7  1  0.52089100  0.25045600  0.50000000  1
  C  C8  1  0.67281000  0.00867000  0.00000000  1
  C  C9  1  0.66995000  0.48823000  0.00000000  1
  C  C10  1  0.81537000  0.25325500  0.50000000  1
  C  C11  1  0.83363600  0.78184100  0.50000000  1
  Ni  Ni12  1  0.06399800  0.40177300  0.50000000  1
  Ni  Ni13  1  0.09823800  0.14300500  0.00000000  1
  Ni  Ni14  1  0.09647400  0.65638500  0.00000000  1
  Ni  Ni15  1  0.26855000  0.59279100  0.50000000  1
  Ni  Ni16  1  0.39772000  0.90350300  0.50000000  1
  Ni  Ni17  1  0.43756800  0.64591300  0.00000000  1
  Ni  Ni18  1  0.56434000  0.35675300  0.00000000  1
  Ni  Ni19  1  0.59979800  0.09356200  0.50000000  1
  Ni  Ni20  1  0.73441900  0.41148600  0.50000000  1
  Ni  Ni21  1  0.73041900  0.90250200  0.50000000  1
  Ni  Ni22  1  0.77071500  0.15540300  0.00000000  1
  Ni  Ni23  1  0.90517500  0.85639600  0.00000000  1
  Cu  Cu24  1  0.06917800  0.90347900  0.50000000  1
  Cu  Cu25  1  0.23161500  0.33690600  0.00000000  1
  Cu  Cu26  1  0.22932900  0.85064800  0.00000000  1
  Cu  Cu27  1  0.26889500  0.09657000  0.50000000  1
  Cu  Cu28  1  0.39427800  0.39455900  0.50000000  1
  Cu  Cu29  1  0.43156100  0.15667300  0.00000000  1
  Cu  Cu30  1  0.56207400  0.84139100  0.00000000  1
  Cu  Cu31  1  0.60664200  0.60645100  0.50000000  1
  Cu  Cu32  1  0.77076900  0.65720700  0.00000000  1
  Cu  Cu33  1  0.89984300  0.34947300  0.00000000  1
  Cu  Cu34  1  0.93729000  0.10321100  0.50000000  1
  Cu  Cu35  1  0.93132700  0.59452100  0.50000000  1
