# generated using pymatgen
data_Cu2NiC15
_symmetry_space_group_name_H-M   'P 1'
_cell_length_a   8.83059002
_cell_length_b   8.83059002
_cell_length_c   8.25457409
_cell_angle_alpha   62.26045831
_cell_angle_beta   62.26045831
_cell_angle_gamma   41.81544650
_symmetry_Int_Tables_number   1
_chemical_formula_structural   Cu2NiC15
_chemical_formula_sum   'Cu4 Ni2 C30'
_cell_volume   372.09962129
_cell_formula_units_Z   2
loop_
 _symmetry_equiv_pos_site_id
 _symmetry_equiv_pos_as_xyz
  1  'x, y, z'
loop_
 _atom_site_type_symbol
 _atom_site_label
 _atom_site_symmetry_multiplicity
 _atom_site_fract_x
 _atom_site_fract_y
 _atom_site_fract_z
 _atom_site_occupancy
  C  C0  1  0.26015900  0.75693800  0.69855800  1
  C  C1  1  0.75693800  0.26015900  0.69855800  1
  C  C2  1  0.10057300  0.59793200  0.28415500  1
  C  C3  1  0.59793200  0.10057300  0.28415500  1
  C  C4  1  0.39318000  0.89223000  0.01597500  1
  C  C5  1  0.89223000  0.39318000  0.01597500  1
  Ni  Ni6  1  0.82048300  0.82048300  0.98738400  1
  Ni  Ni7  1  0.99383000  0.99383000  0.37116100  1
  Cu  Cu8  1  0.31916300  0.31916300  0.99253900  1
  Cu  Cu9  1  0.49620200  0.49620200  0.36846500  1
  Cu  Cu10  1  0.18311100  0.18311100  0.64125900  1
  Cu  Cu11  1  0.68409300  0.68409300  0.63992700  1
  C  C12  1  0.91653300  0.41673800  0.33487700  1
  C  C13  1  0.41673800  0.91653300  0.33487700  1
  C  C14  1  0.08542300  0.58013800  0.66607000  1
  C  C15  1  0.58013800  0.08542300  0.66607000  1
  C  C16  1  0.00134300  0.00134300  0.99923900  1
  C  C17  1  0.50002400  0.50002400  0.99975300  1
  C  C18  1  0.54304300  0.54304300  0.80587600  1
  C  C19  1  0.04134100  0.04134100  0.80491000  1
  C  C20  1  0.45983700  0.95978300  0.44299500  1
  C  C21  1  0.95978300  0.45983700  0.44299500  1
  C  C22  1  0.90429800  0.90429800  0.11305600  1
  C  C23  1  0.40261500  0.40261500  0.10750900  1
  C  C24  1  0.81590100  0.32319100  0.42063400  1
  C  C25  1  0.32319100  0.81590100  0.42063400  1
  C  C26  1  0.46733300  0.97378600  0.14056400  1
  C  C27  1  0.97378600  0.46733300  0.14056400  1
  C  C28  1  0.12682800  0.61993900  0.77940300  1
  C  C29  1  0.61993900  0.12682800  0.77940300  1
  C  C30  1  0.55395900  0.55395900  0.08698500  1
  C  C31  1  0.05869500  0.05869500  0.07837300  1
  C  C32  1  0.98590500  0.48601900  0.74613100  1
  C  C33  1  0.48601900  0.98590500  0.74613100  1
  C  C34  1  0.14303200  0.63638300  0.47242100  1
  C  C35  1  0.63638300  0.14303200  0.47242100  1
