# generated using pymatgen
data_Cu4(NiC4)3
_symmetry_space_group_name_H-M   'P 1'
_cell_length_a   8.70894500
_cell_length_b   8.58795000
_cell_length_c   10.16718945
_cell_angle_alpha   89.13581849
_cell_angle_beta   90.00000000
_cell_angle_gamma   90.00000000
_symmetry_Int_Tables_number   1
_chemical_formula_structural   Cu4(NiC4)3
_chemical_formula_sum   'Cu16 Ni12 C48'
_cell_volume   760.33777964
_cell_formula_units_Z   4
loop_
 _symmetry_equiv_pos_site_id
 _symmetry_equiv_pos_as_xyz
  1  'x, y, z'
loop_
 _atom_site_type_symbol
 _atom_site_label
 _atom_site_symmetry_multiplicity
 _atom_site_fract_x
 _atom_site_fract_y
 _atom_site_fract_z
 _atom_site_occupancy
  C  C0  1  0.46786400  0.31895900  0.41431400  1
  C  C1  1  0.96786400  0.18104100  0.58568600  1
  C  C2  1  0.53213600  0.68104100  0.58568600  1
  C  C3  1  0.03213600  0.81895900  0.41431400  1
  C  C4  1  0.45582300  0.22844000  0.57571400  1
  C  C5  1  0.95582300  0.27156000  0.42428600  1
  C  C6  1  0.54417700  0.77156000  0.42428600  1
  C  C7  1  0.04417700  0.72844000  0.57571400  1
  C  C8  1  0.60985200  0.36180100  0.53633100  1
  C  C9  1  0.10985200  0.13819900  0.46366900  1
  C  C10  1  0.39014800  0.63819900  0.46366900  1
  C  C11  1  0.89014800  0.86180100  0.53633100  1
  C  C12  1  0.66736200  0.00509800  0.11812400  1
  C  C13  1  0.16736200  0.49490200  0.88187600  1
  C  C14  1  0.33263800  0.99490200  0.88187600  1
  C  C15  1  0.83263800  0.50509800  0.11812400  1
  C  C16  1  0.82575200  0.87460500  0.16174300  1
  C  C17  1  0.32575200  0.62539500  0.83825700  1
  C  C18  1  0.17424800  0.12539500  0.83825700  1
  C  C19  1  0.67424800  0.37460500  0.16174300  1
  C  C20  1  0.29313400  0.28003000  0.23545100  1
  C  C21  1  0.79313400  0.21997000  0.76454900  1
  C  C22  1  0.70686600  0.71997000  0.76454900  1
  C  C23  1  0.20686600  0.78003000  0.23545100  1
  C  C24  1  0.29373200  0.07052600  0.22002600  1
  C  C25  1  0.79373200  0.42947400  0.77997400  1
  C  C26  1  0.70626800  0.92947400  0.77997400  1
  C  C27  1  0.20626800  0.57052600  0.22002600  1
  C  C28  1  0.34014700  0.19577600  0.08048100  1
  C  C29  1  0.84014700  0.30422400  0.91951900  1
  C  C30  1  0.65985300  0.80422400  0.91951900  1
  C  C31  1  0.15985300  0.69577600  0.08048100  1
  Ni  Ni32  1  0.77360400  0.98960000  0.17450700  1
  Ni  Ni33  1  0.27360400  0.51040000  0.82549300  1
  Ni  Ni34  1  0.22639600  0.01040000  0.82549300  1
  Ni  Ni35  1  0.72639600  0.48960000  0.17450700  1
  Ni  Ni36  1  0.53231700  0.27246300  0.49839000  1
  Ni  Ni37  1  0.03231700  0.22753700  0.50161000  1
  Ni  Ni38  1  0.46768300  0.72753700  0.50161000  1
  Ni  Ni39  1  0.96768300  0.77246300  0.49839000  1
  Ni  Ni40  1  0.27129400  0.18193800  0.17030300  1
  Ni  Ni41  1  0.77129400  0.31806200  0.82969700  1
  Ni  Ni42  1  0.72870600  0.81806200  0.82969700  1
  Ni  Ni43  1  0.22870600  0.68193800  0.17030300  1
  Cu  Cu44  1  0.62834800  0.13981600  0.45810400  1
  Cu  Cu45  1  0.12834800  0.36018400  0.54189600  1
  Cu  Cu46  1  0.37165200  0.86018400  0.54189600  1
  Cu  Cu47  1  0.87165200  0.63981600  0.45810400  1
  Cu  Cu48  1  0.10800000  0.19402400  0.13161300  1
  Cu  Cu49  1  0.60800000  0.30597600  0.86838700  1
  Cu  Cu50  1  0.89200000  0.80597600  0.86838700  1
  Cu  Cu51  1  0.39200000  0.69402400  0.13161300  1
  Cu  Cu52  1  0.64400700  0.12332100  0.33355800  1
  Cu  Cu53  1  0.14400700  0.37667900  0.66644200  1
  Cu  Cu54  1  0.35599300  0.87667900  0.66644200  1
  Cu  Cu55  1  0.85599300  0.62332100  0.33355800  1
  Cu  Cu56  1  0.02282000  0.07936000  0.16970000  1
  Cu  Cu57  1  0.52282000  0.42064000  0.83030000  1
  Cu  Cu58  1  0.97718000  0.92064000  0.83030000  1
  Cu  Cu59  1  0.47718000  0.57936000  0.16970000  1
  C  C60  1  0.87234500  0.11122400  0.12874800  1
  C  C61  1  0.37234500  0.38877600  0.87125200  1
  C  C62  1  0.12765500  0.88877600  0.87125200  1
  C  C63  1  0.62765500  0.61122400  0.12874800  1
  C  C64  1  0.74424000  0.99870600  0.31267100  1
  C  C65  1  0.24424000  0.50129400  0.68732900  1
  C  C66  1  0.25576000  0.00129400  0.68732900  1
  C  C67  1  0.75576000  0.49870600  0.31267100  1
  C  C68  1  0.69005600  0.05710900  0.54794200  1
  C  C69  1  0.19005600  0.44289100  0.45205800  1
  C  C70  1  0.30994400  0.94289100  0.45205800  1
  C  C71  1  0.80994400  0.55710900  0.54794200  1
  C  C72  1  0.06462900  0.31399200  0.06823100  1
  C  C73  1  0.56462900  0.18600800  0.93176900  1
  C  C74  1  0.93537100  0.68600800  0.93176900  1
  C  C75  1  0.43537100  0.81399200  0.06823100  1
