# generated using pymatgen
data_Cu(NiC)2
_symmetry_space_group_name_H-M   'P 1'
_cell_length_a   8.20589300
_cell_length_b   8.22944747
_cell_length_c   8.23157654
_cell_angle_alpha   109.52269117
_cell_angle_beta   109.45229359
_cell_angle_gamma   109.34808331
_symmetry_Int_Tables_number   1
_chemical_formula_structural   Cu(NiC)2
_chemical_formula_sum   'Cu8 Ni16 C16'
_cell_volume   428.39215145
_cell_formula_units_Z   8
loop_
 _symmetry_equiv_pos_site_id
 _symmetry_equiv_pos_as_xyz
  1  'x, y, z'
loop_
 _atom_site_type_symbol
 _atom_site_label
 _atom_site_symmetry_multiplicity
 _atom_site_fract_x
 _atom_site_fract_y
 _atom_site_fract_z
 _atom_site_occupancy
  C  C0  1  0.30224200  0.05647400  0.26835000  1
  C  C1  1  0.49722800  0.50285200  0.50059800  1
  C  C2  1  0.25362800  0.21180100  0.96750300  1
  C  C3  1  0.76407700  0.29947200  0.55275400  1
  C  C4  1  0.53534100  0.23992200  0.78748300  1
  C  C5  1  0.03620800  0.24931500  0.29007300  1
  C  C6  1  0.50802200  0.00209100  0.98872600  1
  C  C7  1  0.98574700  0.98501100  0.49796600  1
  C  C8  1  0.01737300  0.51175700  0.01434300  1
  C  C9  1  0.79023400  0.54048400  0.24497900  1
  C  C10  1  0.20344700  0.46184900  0.75576900  1
  C  C11  1  0.45673400  0.74647900  0.20373700  1
  C  C12  1  0.96297000  0.75412100  0.71029200  1
  C  C13  1  0.24781900  0.71083600  0.45044900  1
  C  C14  1  0.73793900  0.79197400  0.03318900  1
  C  C15  1  0.70973700  0.94552400  0.74392500  1
  Ni  Ni16  1  0.49029500  0.26354500  0.53993800  1
  Ni  Ni17  1  0.73279600  0.72088500  0.77393000  1
  Ni  Ni18  1  0.94909300  0.22657400  0.49017100  1
  Ni  Ni19  1  0.00848500  0.54934800  0.77462700  1
  Ni  Ni20  1  0.53972400  0.27530800  0.05032900  1
  Ni  Ni21  1  0.22307800  0.77647700  0.23299300  1
  Ni  Ni22  1  0.45835500  0.72453200  0.94668700  1
  Ni  Ni23  1  0.95959900  0.01158500  0.73463800  1
  Ni  Ni24  1  0.77464200  0.04808800  0.04254900  1
  Ni  Ni25  1  0.99339400  0.45049200  0.22510500  1
  Ni  Ni26  1  0.04819300  0.77373200  0.51156200  1
  Ni  Ni27  1  0.23446300  0.45965700  0.00841500  1
  Ni  Ni28  1  0.45051600  0.96330300  0.72410900  1
  Ni  Ni29  1  0.26487500  0.27309200  0.22503800  1
  Ni  Ni30  1  0.50818300  0.73023500  0.45757700  1
  Ni  Ni31  1  0.72660200  0.76443300  0.27262100  1
  Cu  Cu32  1  0.27646200  0.23424100  0.72501400  1
  Cu  Cu33  1  0.54439600  0.04036300  0.27189000  1
  Cu  Cu34  1  0.76457800  0.53697700  0.99040600  1
  Cu  Cu35  1  0.22371300  0.94879400  0.95766700  1
  Cu  Cu36  1  0.04428700  0.99302000  0.26886800  1
  Cu  Cu37  1  0.77263900  0.22702900  0.76383200  1
  Cu  Cu38  1  0.27699400  0.50770100  0.55109000  1
  Cu  Cu39  1  0.72589500  0.49062400  0.45081300  1
