# generated using pymatgen
data_Cu3NiC32
_symmetry_space_group_name_H-M   'P 1'
_cell_length_a   8.35814548
_cell_length_b   8.35814548
_cell_length_c   8.35814558
_cell_angle_alpha   61.86949419
_cell_angle_beta   61.86949419
_cell_angle_gamma   61.86949302
_symmetry_Int_Tables_number   1
_chemical_formula_structural   Cu3NiC32
_chemical_formula_sum   'Cu3 Ni1 C32'
_cell_volume   430.15230028
_cell_formula_units_Z   1
loop_
 _symmetry_equiv_pos_site_id
 _symmetry_equiv_pos_as_xyz
  1  'x, y, z'
loop_
 _atom_site_type_symbol
 _atom_site_label
 _atom_site_symmetry_multiplicity
 _atom_site_fract_x
 _atom_site_fract_y
 _atom_site_fract_z
 _atom_site_occupancy
  Ni  Ni0  1  0.14250700  0.14250700  0.14250700  1
  C  C1  1  0.99834000  0.99834000  0.99834000  1
  C  C2  1  0.49962400  0.49962400  0.49962400  1
  Cu  Cu3  1  0.85686300  0.85686300  0.85686300  1
  Cu  Cu4  1  0.64185200  0.64185200  0.64185200  1
  Cu  Cu5  1  0.35809000  0.35809000  0.35809000  1
  C  C6  1  0.74963800  0.45350900  0.04926000  1
  C  C7  1  0.45350900  0.04926000  0.74963800  1
  C  C8  1  0.04926000  0.74963800  0.45350900  1
  C  C9  1  0.95391500  0.25123500  0.54379500  1
  C  C10  1  0.54379500  0.95391500  0.25123500  1
  C  C11  1  0.25123500  0.54379500  0.95391500  1
  C  C12  1  0.89589000  0.68107800  0.48450700  1
  C  C13  1  0.68107800  0.48450700  0.89589000  1
  C  C14  1  0.94643900  0.09251200  0.74498300  1
  C  C15  1  0.48450700  0.89589000  0.68107800  1
  C  C16  1  0.99781200  0.17879000  0.38346300  1
  C  C17  1  0.74807000  0.39808000  0.56094700  1
  C  C18  1  0.74498300  0.94643900  0.09251200  1
  C  C19  1  0.56094700  0.74807000  0.39808000  1
  C  C20  1  0.82192500  0.60700600  0.01255200  1
  C  C21  1  0.39808000  0.56094700  0.74807000  1
  C  C22  1  0.91187900  0.24656800  0.06172600  1
  C  C23  1  0.60700600  0.01255200  0.82192500  1
  C  C24  1  0.38346300  0.99781200  0.17879000  1
  C  C25  1  0.09251200  0.74498300  0.94643900  1
  C  C26  1  0.60197100  0.43166700  0.25491900  1
  C  C27  1  0.17879000  0.38346300  0.99781200  1
  C  C28  1  0.43166700  0.25491900  0.60197100  1
  C  C29  1  0.24656800  0.06172600  0.91187900  1
  C  C30  1  0.25491900  0.60197100  0.43166700  1
  C  C31  1  0.01255200  0.82192500  0.60700600  1
  C  C32  1  0.50603800  0.10308300  0.32946600  1
  C  C33  1  0.06172600  0.91187900  0.24656800  1
  C  C34  1  0.32946600  0.50603800  0.10308300  1
  C  C35  1  0.10308300  0.32946600  0.50603800  1
