# generated using pymatgen
data_Cu4NiC23
_symmetry_space_group_name_H-M   'P 1'
_cell_length_a   9.90450462
_cell_length_b   9.90450462
_cell_length_c   9.89790199
_cell_angle_alpha   61.19663672
_cell_angle_beta   61.19663672
_cell_angle_gamma   91.00413709
_symmetry_Int_Tables_number   1
_chemical_formula_structural   Cu4NiC23
_chemical_formula_sum   'Cu8 Ni2 C46'
_cell_volume   705.06818038
_cell_formula_units_Z   2
loop_
 _symmetry_equiv_pos_site_id
 _symmetry_equiv_pos_as_xyz
  1  'x, y, z'
loop_
 _atom_site_type_symbol
 _atom_site_label
 _atom_site_symmetry_multiplicity
 _atom_site_fract_x
 _atom_site_fract_y
 _atom_site_fract_z
 _atom_site_occupancy
  C  C0  1  0.34077200  0.08488000  0.83840500  1
  C  C1  1  0.91577600  0.08422400  0.25000000  1
  C  C2  1  0.34030600  0.08816800  0.24206200  1
  C  C3  1  0.08488000  0.34077200  0.33840500  1
  C  C4  1  0.91183200  0.65969400  0.25793800  1
  C  C5  1  0.08816800  0.34030600  0.74206200  1
  C  C6  1  0.91512000  0.65922800  0.66159500  1
  C  C7  1  0.65969400  0.91183200  0.75793800  1
  C  C8  1  0.08422400  0.91577600  0.75000000  1
  C  C9  1  0.65922800  0.91512000  0.16159500  1
  C  C10  1  0.00000000  0.50000000  0.00000000  1
  C  C11  1  0.50000000  0.50000000  0.50000000  1
  C  C12  1  0.50000000  0.50000000  0.00000000  1
  C  C13  1  0.50000000  0.00000000  0.50000000  1
  Ni  Ni14  1  0.87531500  0.12468500  0.75000000  1
  Ni  Ni15  1  0.12468500  0.87531500  0.25000000  1
  Cu  Cu16  1  0.71347500  0.28848800  0.43143700  1
  Cu  Cu17  1  0.27945300  0.35061100  0.94003400  1
  Cu  Cu18  1  0.64938900  0.72054700  0.55996600  1
  Cu  Cu19  1  0.28848800  0.71347500  0.93143700  1
  Cu  Cu20  1  0.71151200  0.28652500  0.06856300  1
  Cu  Cu21  1  0.35061100  0.27945300  0.44003400  1
  Cu  Cu22  1  0.72054700  0.64938900  0.05996600  1
  Cu  Cu23  1  0.28652500  0.71151200  0.56856300  1
  C  C24  1  0.69223500  0.14328600  0.46357000  1
  C  C25  1  0.30077600  0.34226400  0.80581200  1
  C  C26  1  0.59062100  0.31508500  0.53684100  1
  C  C27  1  0.13904200  0.34662200  0.05803600  1
  C  C28  1  0.85400400  0.39941700  0.30142300  1
  C  C29  1  0.93711500  0.05839400  0.62414000  1
  C  C30  1  0.68692800  0.05880900  0.87440100  1
  C  C31  1  0.39897500  0.35485400  0.96251900  1
  C  C32  1  0.14328600  0.69223500  0.96357000  1
  C  C33  1  0.64514600  0.60102500  0.53748100  1
  C  C34  1  0.94160600  0.06288500  0.87586000  1
  C  C35  1  0.94119100  0.31307200  0.62559900  1
  C  C36  1  0.34226400  0.30077600  0.30581200  1
  C  C37  1  0.60058300  0.14599600  0.19857700  1
  C  C38  1  0.31508500  0.59062100  0.03684100  1
  C  C39  1  0.65337800  0.86095800  0.44196400  1
  C  C40  1  0.34662200  0.13904200  0.55803600  1
  C  C41  1  0.68491500  0.40937900  0.96315900  1
  C  C42  1  0.65773600  0.69922400  0.69418800  1
  C  C43  1  0.39941700  0.85400400  0.80142300  1
  C  C44  1  0.05880900  0.68692800  0.37440100  1
  C  C45  1  0.05839400  0.93711500  0.12414000  1
  C  C46  1  0.35485400  0.39897500  0.46251900  1
  C  C47  1  0.85671400  0.30776500  0.03643000  1
  C  C48  1  0.60102500  0.64514600  0.03748100  1
  C  C49  1  0.31307200  0.94119100  0.12559900  1
  C  C50  1  0.06288500  0.94160600  0.37586000  1
  C  C51  1  0.14599600  0.60058300  0.69857700  1
  C  C52  1  0.86095800  0.65337800  0.94196400  1
  C  C53  1  0.40937900  0.68491500  0.46315900  1
  C  C54  1  0.69922400  0.65773600  0.19418800  1
  C  C55  1  0.30776500  0.85671400  0.53643000  1
