# generated using pymatgen
data_Cu4Ni2C7
_symmetry_space_group_name_H-M   'P 1'
_cell_length_a   11.31905400
_cell_length_b   3.93840300
_cell_length_c   11.09859337
_cell_angle_alpha   87.53336438
_cell_angle_beta   90.00000000
_cell_angle_gamma   90.00000000
_symmetry_Int_Tables_number   1
_chemical_formula_structural   Cu4Ni2C7
_chemical_formula_sum   'Cu16 Ni8 C28'
_cell_volume   494.30572970
_cell_formula_units_Z   4
loop_
 _symmetry_equiv_pos_site_id
 _symmetry_equiv_pos_as_xyz
  1  'x, y, z'
loop_
 _atom_site_type_symbol
 _atom_site_label
 _atom_site_symmetry_multiplicity
 _atom_site_fract_x
 _atom_site_fract_y
 _atom_site_fract_z
 _atom_site_occupancy
  C  C0  1  0.62129000  0.81430100  0.80114400  1
  C  C1  1  0.49872900  0.76601700  0.89246000  1
  C  C2  1  0.07073300  0.74222400  0.91070000  1
  C  C3  1  0.87871000  0.81430100  0.30114400  1
  C  C4  1  0.00127100  0.76601700  0.39246000  1
  C  C5  1  0.42926700  0.74222400  0.41070000  1
  C  C6  1  0.35379900  0.61184200  0.54258900  1
  C  C7  1  0.61407100  0.49128000  0.91130700  1
  C  C8  1  0.14620100  0.61184200  0.04258900  1
  C  C9  1  0.52504400  0.48730100  0.78703600  1
  C  C10  1  0.02504400  0.51269900  0.71296400  1
  C  C11  1  0.88592900  0.49128000  0.41130700  1
  C  C12  1  0.11407100  0.50872000  0.58869300  1
  C  C13  1  0.97495600  0.48730100  0.28703600  1
  C  C14  1  0.47495600  0.51269900  0.21296400  1
  C  C15  1  0.85379900  0.38815800  0.95741100  1
  C  C16  1  0.38592900  0.50872000  0.08869300  1
  C  C17  1  0.64620100  0.38815800  0.45741100  1
  C  C18  1  0.57073300  0.25777600  0.58930000  1
  C  C19  1  0.99872900  0.23398300  0.60754000  1
  C  C20  1  0.12129000  0.18569900  0.69885600  1
  C  C21  1  0.92926700  0.25777600  0.08930000  1
  C  C22  1  0.50127100  0.23398300  0.10754000  1
  C  C23  1  0.37871000  0.18569900  0.19885600  1
  Ni  Ni24  1  0.83763300  0.91105400  0.75568900  1
  Ni  Ni25  1  0.66236700  0.91105400  0.25568900  1
  Ni  Ni26  1  0.25068800  0.82490700  0.90886700  1
  Ni  Ni27  1  0.24931200  0.82490700  0.40886700  1
  Ni  Ni28  1  0.75068800  0.17509300  0.59113300  1
  Ni  Ni29  1  0.74931200  0.17509300  0.09113300  1
  Ni  Ni30  1  0.33763300  0.08894600  0.74431100  1
  Ni  Ni31  1  0.16236700  0.08894600  0.24431100  1
  Cu  Cu32  1  0.24281300  0.95921500  0.79212000  1
  Cu  Cu33  1  0.25718700  0.95921500  0.29212000  1
  Cu  Cu34  1  0.91988200  0.78300800  0.80659600  1
  Cu  Cu35  1  0.14858200  0.70531200  0.95591900  1
  Cu  Cu36  1  0.58011800  0.78300800  0.30659600  1
  Cu  Cu37  1  0.35141800  0.70531200  0.45591900  1
  Cu  Cu38  1  0.56617800  0.64198500  0.84834100  1
  Cu  Cu39  1  0.93382200  0.64198500  0.34834100  1
  Cu  Cu40  1  0.06617800  0.35801500  0.65165900  1
  Cu  Cu41  1  0.43382200  0.35801500  0.15165900  1
  Cu  Cu42  1  0.64858200  0.29468800  0.54408100  1
  Cu  Cu43  1  0.41988200  0.21699200  0.69340400  1
  Cu  Cu44  1  0.85141800  0.29468800  0.04408100  1
  Cu  Cu45  1  0.08011800  0.21699200  0.19340400  1
  Cu  Cu46  1  0.74281300  0.04078500  0.70788000  1
  Cu  Cu47  1  0.75718700  0.04078500  0.20788000  1
  C  C48  1  0.34698200  0.81001400  0.96836400  1
  C  C49  1  0.15301800  0.81001400  0.46836400  1
  C  C50  1  0.84698200  0.18998600  0.53163600  1
  C  C51  1  0.65301800  0.18998600  0.03163600  1
