# generated using pymatgen
data_CuNi3C5
_symmetry_space_group_name_H-M   'P 1'
_cell_length_a   10.30280041
_cell_length_b   10.30280041
_cell_length_c   6.59844600
_cell_angle_alpha   90.00000000
_cell_angle_beta   90.00000000
_cell_angle_gamma   120.00000261
_symmetry_Int_Tables_number   1
_chemical_formula_structural   CuNi3C5
_chemical_formula_sum   'Cu6 Ni18 C30'
_cell_volume   606.57269988
_cell_formula_units_Z   6
loop_
 _symmetry_equiv_pos_site_id
 _symmetry_equiv_pos_as_xyz
  1  'x, y, z'
loop_
 _atom_site_type_symbol
 _atom_site_label
 _atom_site_symmetry_multiplicity
 _atom_site_fract_x
 _atom_site_fract_y
 _atom_site_fract_z
 _atom_site_occupancy
  C  C0  1  0.00000000  0.59330000  0.50000000  1
  C  C1  1  0.00000000  0.59330000  0.00000000  1
  C  C2  1  0.40670000  0.40670000  0.00000000  1
  C  C3  1  0.40670000  0.40670000  0.50000000  1
  C  C4  1  0.59330000  0.00000000  0.00000000  1
  C  C5  1  0.59330000  0.00000000  0.50000000  1
  C  C6  1  0.17012200  0.81313200  0.75000000  1
  C  C7  1  0.30500500  0.78169400  0.75000000  1
  C  C8  1  0.21830600  0.52331100  0.75000000  1
  C  C9  1  0.18686800  0.35699100  0.75000000  1
  C  C10  1  0.47668900  0.69499500  0.75000000  1
  C  C11  1  0.64300900  0.82987800  0.75000000  1
  C  C12  1  0.35699100  0.18686800  0.25000000  1
  C  C13  1  0.52331100  0.21830600  0.25000000  1
  C  C14  1  0.69499500  0.47668900  0.25000000  1
  C  C15  1  0.82987800  0.64300900  0.25000000  1
  C  C16  1  0.78169400  0.30500500  0.25000000  1
  C  C17  1  0.81313200  0.17012200  0.25000000  1
  C  C18  1  0.06206500  0.91438700  0.25000000  1
  C  C19  1  0.26350400  0.87706700  0.25000000  1
  C  C20  1  0.12293300  0.38643700  0.25000000  1
  C  C21  1  0.08561300  0.14767800  0.25000000  1
  C  C22  1  0.14767800  0.08561300  0.75000000  1
  C  C23  1  0.61356300  0.73649600  0.25000000  1
  C  C24  1  0.38643700  0.12293300  0.75000000  1
  C  C25  1  0.85232200  0.93793500  0.25000000  1
  C  C26  1  0.73649600  0.61356300  0.75000000  1
  C  C27  1  0.93793500  0.85232200  0.75000000  1
  C  C28  1  0.87706700  0.26350400  0.75000000  1
  C  C29  1  0.91438700  0.06206500  0.75000000  1
  Ni  Ni30  1  0.08946100  0.93528700  0.75000000  1
  Ni  Ni31  1  0.11900200  0.81975800  0.25000000  1
  Ni  Ni32  1  0.08143600  0.47494700  0.25000000  1
  Ni  Ni33  1  0.39351100  0.91856400  0.25000000  1
  Ni  Ni34  1  0.06471300  0.15417300  0.75000000  1
  Ni  Ni35  1  0.18024200  0.29924400  0.25000000  1
  Ni  Ni36  1  0.15417300  0.06471300  0.25000000  1
  Ni  Ni37  1  0.29924400  0.18024200  0.75000000  1
  Ni  Ni38  1  0.52505300  0.60648900  0.25000000  1
  Ni  Ni39  1  0.70075600  0.88099800  0.25000000  1
  Ni  Ni40  1  0.60648900  0.52505300  0.75000000  1
  Ni  Ni41  1  0.84582700  0.91053900  0.75000000  1
  Ni  Ni42  1  0.47494700  0.08143600  0.75000000  1
  Ni  Ni43  1  0.91053900  0.84582700  0.25000000  1
  Ni  Ni44  1  0.88099800  0.70075600  0.75000000  1
  Ni  Ni45  1  0.91856400  0.39351100  0.75000000  1
  Ni  Ni46  1  0.81975800  0.11900200  0.75000000  1
  Ni  Ni47  1  0.93528700  0.08946100  0.25000000  1
  Cu  Cu48  1  0.19561200  0.73031200  0.75000000  1
  Cu  Cu49  1  0.26968800  0.46530000  0.75000000  1
  Cu  Cu50  1  0.53470000  0.80438800  0.75000000  1
  Cu  Cu51  1  0.46530000  0.26968800  0.25000000  1
  Cu  Cu52  1  0.80438800  0.53470000  0.25000000  1
  Cu  Cu53  1  0.73031200  0.19561200  0.25000000  1
