# generated using pymatgen
data_Cu10Ni22C3
_symmetry_space_group_name_H-M   'P 1'
_cell_length_a   14.87341029
_cell_length_b   12.86942994
_cell_length_c   10.87598021
_cell_angle_alpha   77.05900045
_cell_angle_beta   57.48892280
_cell_angle_gamma   45.45207675
_symmetry_Int_Tables_number   1
_chemical_formula_structural   Cu10Ni22C3
_chemical_formula_sum   'Cu40 Ni88 C12'
_cell_volume   1209.84900286
_cell_formula_units_Z   4
loop_
 _symmetry_equiv_pos_site_id
 _symmetry_equiv_pos_as_xyz
  1  'x, y, z'
loop_
 _atom_site_type_symbol
 _atom_site_label
 _atom_site_symmetry_multiplicity
 _atom_site_fract_x
 _atom_site_fract_y
 _atom_site_fract_z
 _atom_site_occupancy
  Ni  Ni0  1  0.99760700  0.89565700  0.50355300  1
  Ni  Ni1  1  0.60318300  0.50355300  0.89565700  1
  Ni  Ni2  1  0.74644700  0.64681700  0.25239300  1
  Ni  Ni3  1  0.35434300  0.25239300  0.64681700  1
  Ni  Ni4  1  0.04815700  0.03698700  0.34066900  1
  Ni  Ni5  1  0.57418700  0.34066900  0.03698700  1
  Ni  Ni6  1  0.90933100  0.67581300  0.20184300  1
  Ni  Ni7  1  0.21301300  0.20184300  0.67581300  1
  Ni  Ni8  1  0.90501300  0.19676700  0.49434500  1
  Ni  Ni9  1  0.40387500  0.49434500  0.19676700  1
  Ni  Ni10  1  0.75565500  0.84612500  0.34498700  1
  Ni  Ni11  1  0.05323300  0.34498700  0.84612500  1
  Ni  Ni12  1  0.15507900  0.04813500  0.44699700  1
  Ni  Ni13  1  0.34978900  0.44699700  0.04813500  1
  Ni  Ni14  1  0.80300300  0.90021100  0.09492100  1
  Ni  Ni15  1  0.20186500  0.09492100  0.90021100  1
  Ni  Ni16  1  0.19035000  0.88413400  0.46246300  1
  Ni  Ni17  1  0.46305400  0.46246300  0.88413400  1
  Ni  Ni18  1  0.78753700  0.78694600  0.05965000  1
  Ni  Ni19  1  0.36586600  0.05965000  0.78694600  1
  Ni  Ni20  1  0.89036100  0.02798700  0.87682200  1
  Ni  Ni21  1  0.20483000  0.87682200  0.02798700  1
  Ni  Ni22  1  0.37317800  0.04517000  0.35963900  1
  Ni  Ni23  1  0.22201300  0.35963900  0.04517000  1
  Ni  Ni24  1  0.03406100  0.87079400  0.71993100  1
  Ni  Ni25  1  0.37521300  0.71993100  0.87079400  1
  Ni  Ni26  1  0.53006900  0.87478700  0.21593900  1
  Ni  Ni27  1  0.37920600  0.21593900  0.87478700  1
  Ni  Ni28  1  0.78426100  0.01462400  0.77175200  1
  Ni  Ni29  1  0.42936200  0.77175200  0.01462400  1
  Ni  Ni30  1  0.47824800  0.82063800  0.46573900  1
  Ni  Ni31  1  0.23537600  0.46573900  0.82063800  1
  Ni  Ni32  1  0.74209000  0.18225000  0.76107300  1
  Ni  Ni33  1  0.31458700  0.76107300  0.18225000  1
  Ni  Ni34  1  0.48892700  0.93541300  0.50791000  1
  Ni  Ni35  1  0.06775000  0.50791000  0.93541300  1
  Ni  Ni36  1  0.68263800  0.01935500  0.67983000  1
  Ni  Ni37  1  0.61817700  0.67983000  0.01935500  1
  Ni  Ni38  1  0.57017000  0.63182300  0.56736200  1
  Ni  Ni39  1  0.23064500  0.56736200  0.63182300  1
  Ni  Ni40  1  0.84681900  0.87222200  0.51097700  1
  Ni  Ni41  1  0.76998200  0.51097700  0.87222200  1
  Ni  Ni42  1  0.73902300  0.48001800  0.40318100  1
  Ni  Ni43  1  0.37777800  0.40318100  0.48001800  1
  Ni  Ni44  1  0.67792400  0.03091700  0.51684700  1
  Ni  Ni45  1  0.77431200  0.51684700  0.03091700  1
  Ni  Ni46  1  0.73315300  0.47568800  0.57207600  1
  Ni  Ni47  1  0.21908300  0.57207600  0.47568800  1
  Ni  Ni48  1  0.70002300  0.30432100  0.51291700  1
  Ni  Ni49  1  0.48273900  0.51291700  0.30432100  1
  Ni  Ni50  1  0.73708300  0.76726100  0.54997800  1
  Ni  Ni51  1  0.94567900  0.54997800  0.76726100  1
  Ni  Ni52  1  0.58712700  0.28739800  0.67705000  1
  Ni  Ni53  1  0.44842500  0.67705000  0.28739800  1
  Ni  Ni54  1  0.57295000  0.80157500  0.66287300  1
  Ni  Ni55  1  0.96260200  0.66287300  0.80157500  1
  Ni  Ni56  1  0.59889900  0.27924700  0.50742500  1
  Ni  Ni57  1  0.61443000  0.50742500  0.27924700  1
  Ni  Ni58  1  0.74257500  0.63557000  0.65110100  1
  Ni  Ni59  1  0.97075300  0.65110100  0.63557000  1
  Ni  Ni60  1  0.96561400  0.93285500  0.29187300  1
  Ni  Ni61  1  0.80965900  0.29187300  0.93285500  1
  Ni  Ni62  1  0.95812700  0.44034100  0.28438600  1
  Ni  Ni63  1  0.31714500  0.28438600  0.44034100  1
  Ni  Ni64  1  0.23779800  0.84987400  0.66253400  1
  Ni  Ni65  1  0.24979400  0.66253400  0.84987400  1
  Ni  Ni66  1  0.58746600  0.00020600  0.01220200  1
  Ni  Ni67  1  0.40012600  0.01220200  0.00020600  1
  Ni  Ni68  1  0.19766500  0.01710800  0.65447600  1
  Ni  Ni69  1  0.13075100  0.65447600  0.01710800  1
  Ni  Ni70  1  0.59552400  0.11924900  0.05233500  1
  Ni  Ni71  1  0.23289200  0.05233500  0.11924900  1
  Ni  Ni72  1  0.09518200  0.99948800  0.82954500  1
  Ni  Ni73  1  0.07578600  0.82954500  0.99948800  1
  Ni  Ni74  1  0.42045500  0.17421400  0.15481800  1
  Ni  Ni75  1  0.25051200  0.15481800  0.17421400  1
  Ni  Ni76  1  0.95729900  0.24796600  0.67302300  1
  Ni  Ni77  1  0.12171200  0.67302300  0.24796600  1
  Ni  Ni78  1  0.57697700  0.12828800  0.29270100  1
  Ni  Ni79  1  0.00203400  0.29270100  0.12828800  1
  Ni  Ni80  1  0.08839600  0.33404600  0.54743100  1
  Ni  Ni81  1  0.03012600  0.54743100  0.33404600  1
  Ni  Ni82  1  0.70256900  0.21987400  0.16160400  1
  Ni  Ni83  1  0.91595400  0.16160400  0.21987400  1
  Ni  Ni84  1  0.98844000  0.38052000  0.49145700  1
  Ni  Ni85  1  0.13958300  0.49145700  0.38052000  1
  Ni  Ni86  1  0.75854300  0.11041700  0.26156000  1
  Ni  Ni87  1  0.86948000  0.26156000  0.11041700  1
  Cu  Cu88  1  0.90870000  0.02010300  0.54360400  1
  Cu  Cu89  1  0.52759300  0.54360400  0.02010300  1
  Cu  Cu90  1  0.70639600  0.72240700  0.34130000  1
  Cu  Cu91  1  0.22989700  0.34130000  0.72240700  1
  Cu  Cu92  1  0.98806200  0.07280700  0.46354700  1
  Cu  Cu93  1  0.47558300  0.46354700  0.07280700  1
  Cu  Cu94  1  0.78645300  0.77441700  0.26193800  1
  Cu  Cu95  1  0.17719300  0.26193800  0.77441700  1
  Cu  Cu96  1  0.10027900  0.00821400  0.50358600  1
  Cu  Cu97  1  0.38792100  0.50358600  0.00821400  1
  Cu  Cu98  1  0.74641400  0.86207900  0.14972100  1
  Cu  Cu99  1  0.24178600  0.14972100  0.86207900  1
  Cu  Cu100  1  0.02840100  0.04581500  0.67458700  1
  Cu  Cu101  1  0.25119800  0.67458700  0.04581500  1
  Cu  Cu102  1  0.57541300  0.99880200  0.22159900  1
  Cu  Cu103  1  0.20418500  0.22159900  0.99880200  1
  Cu  Cu104  1  0.94748100  0.99502600  0.75383500  1
  Cu  Cu105  1  0.30365800  0.75383500  0.99502600  1
  Cu  Cu106  1  0.49616500  0.94634200  0.30251900  1
  Cu  Cu107  1  0.25497400  0.30251900  0.94634200  1
  Cu  Cu108  1  0.83443200  0.05905000  0.71500800  1
  Cu  Cu109  1  0.39151100  0.71500800  0.05905000  1
  Cu  Cu110  1  0.53499200  0.85848900  0.41556800  1
  Cu  Cu111  1  0.19095000  0.41556800  0.85848900  1
  Cu  Cu112  1  0.79844400  0.07637500  0.50104600  1
  Cu  Cu113  1  0.62413600  0.50104600  0.07637500  1
  Cu  Cu114  1  0.74895400  0.62586400  0.45155600  1
  Cu  Cu115  1  0.17362500  0.45155600  0.62586400  1
  Cu  Cu116  1  0.74838200  0.99484300  0.55629400  1
  Cu  Cu117  1  0.70048000  0.55629400  0.99484300  1
  Cu  Cu118  1  0.69370600  0.54952000  0.50161800  1
  Cu  Cu119  1  0.25515700  0.50161800  0.54952000  1
  Cu  Cu120  1  0.66291200  0.24704300  0.55405800  1
  Cu  Cu121  1  0.53598800  0.55405800  0.24704300  1
  Cu  Cu122  1  0.69594200  0.71401200  0.58708800  1
  Cu  Cu123  1  0.00295700  0.58708800  0.71401200  1
  Cu  Cu124  1  0.14712900  0.97299600  0.70744100  1
  Cu  Cu125  1  0.17243400  0.70744100  0.97299600  1
  Cu  Cu126  1  0.54255900  0.07756600  0.10287100  1
  Cu  Cu127  1  0.27700400  0.10287100  0.07756600  1
  C  C128  1  0.87524700  0.04355000  0.33630700  1
  C  C129  1  0.74489600  0.33630700  0.04355000  1
  C  C130  1  0.91369300  0.50510400  0.37475300  1
  C  C131  1  0.20645000  0.37475300  0.50510400  1
  C  C132  1  0.91321900  0.20837100  0.73594000  1
  C  C133  1  0.14247000  0.73594000  0.20837100  1
  C  C134  1  0.51406000  0.10753000  0.33678100  1
  C  C135  1  0.04162900  0.33678100  0.10753000  1
  C  C136  1  0.03358700  0.31532400  0.54959100  1
  C  C137  1  0.10149800  0.54959100  0.31532400  1
  C  C138  1  0.70040900  0.14850200  0.21641300  1
  C  C139  1  0.93467600  0.21641300  0.14850200  1
