# generated using pymatgen
data_Cu12Ni3C2
_symmetry_space_group_name_H-M   'P 1'
_cell_length_a   9.26933300
_cell_length_b   9.36124200
_cell_length_c   12.89413300
_cell_angle_alpha   90.00000000
_cell_angle_beta   90.00000000
_cell_angle_gamma   90.00000000
_symmetry_Int_Tables_number   1
_chemical_formula_structural   Cu12Ni3C2
_chemical_formula_sum   'Cu48 Ni12 C8'
_cell_volume   1118.85576107
_cell_formula_units_Z   4
loop_
 _symmetry_equiv_pos_site_id
 _symmetry_equiv_pos_as_xyz
  1  'x, y, z'
loop_
 _atom_site_type_symbol
 _atom_site_label
 _atom_site_symmetry_multiplicity
 _atom_site_fract_x
 _atom_site_fract_y
 _atom_site_fract_z
 _atom_site_occupancy
  C  C0  1  0.24941000  0.96281100  0.11734300  1
  C  C1  1  0.75059000  0.46281100  0.11734300  1
  C  C2  1  0.25059000  0.46281100  0.38265700  1
  C  C3  1  0.74941000  0.96281100  0.38265700  1
  C  C4  1  0.25059000  0.03718900  0.61734300  1
  C  C5  1  0.74941000  0.53718900  0.61734300  1
  C  C6  1  0.24941000  0.53718900  0.88265700  1
  C  C7  1  0.75059000  0.03718900  0.88265700  1
  Ni  Ni8  1  0.03539000  0.25000000  0.00000000  1
  Ni  Ni9  1  0.96461000  0.75000000  0.00000000  1
  Ni  Ni10  1  0.39359800  0.61115500  0.14621100  1
  Ni  Ni11  1  0.60640200  0.11115500  0.14621100  1
  Ni  Ni12  1  0.10640200  0.11115500  0.35378900  1
  Ni  Ni13  1  0.89359800  0.61115500  0.35378900  1
  Ni  Ni14  1  0.46461000  0.75000000  0.50000000  1
  Ni  Ni15  1  0.53539000  0.25000000  0.50000000  1
  Ni  Ni16  1  0.10640200  0.38884500  0.64621100  1
  Ni  Ni17  1  0.89359800  0.88884500  0.64621100  1
  Ni  Ni18  1  0.39359800  0.88884500  0.85378900  1
  Ni  Ni19  1  0.60640200  0.38884500  0.85378900  1
  Cu  Cu20  1  0.66330000  0.07626000  0.04178600  1
  Cu  Cu21  1  0.33670000  0.57626000  0.04178600  1
  Cu  Cu22  1  0.87191500  0.65092600  0.05955100  1
  Cu  Cu23  1  0.12808500  0.15092600  0.05955100  1
  Cu  Cu24  1  0.05624600  0.83099400  0.07370900  1
  Cu  Cu25  1  0.94375400  0.33099400  0.07370900  1
  Cu  Cu26  1  0.44757800  0.09359500  0.14758800  1
  Cu  Cu27  1  0.55242200  0.59359500  0.14758800  1
  Cu  Cu28  1  0.35781700  0.76122700  0.17281600  1
  Cu  Cu29  1  0.64218300  0.26122700  0.17281600  1
  Cu  Cu30  1  0.32760700  0.51292100  0.22294600  1
  Cu  Cu31  1  0.67239300  0.01292100  0.22294600  1
  Cu  Cu32  1  0.17239300  0.01292100  0.27705400  1
  Cu  Cu33  1  0.82760700  0.51292100  0.27705400  1
  Cu  Cu34  1  0.85781700  0.76122700  0.32718400  1
  Cu  Cu35  1  0.14218300  0.26122700  0.32718400  1
  Cu  Cu36  1  0.05242200  0.59359500  0.35241200  1
  Cu  Cu37  1  0.94757800  0.09359500  0.35241200  1
  Cu  Cu38  1  0.44375400  0.33099400  0.42629100  1
  Cu  Cu39  1  0.55624600  0.83099400  0.42629100  1
  Cu  Cu40  1  0.37191500  0.65092600  0.44044900  1
  Cu  Cu41  1  0.62808500  0.15092600  0.44044900  1
  Cu  Cu42  1  0.16330000  0.07626000  0.45821400  1
  Cu  Cu43  1  0.83670000  0.57626000  0.45821400  1
  Cu  Cu44  1  0.16330000  0.42374000  0.54178600  1
  Cu  Cu45  1  0.83670000  0.92374000  0.54178600  1
  Cu  Cu46  1  0.62808500  0.34907400  0.55955100  1
  Cu  Cu47  1  0.37191500  0.84907400  0.55955100  1
  Cu  Cu48  1  0.44375400  0.16900600  0.57370900  1
  Cu  Cu49  1  0.55624600  0.66900600  0.57370900  1
  Cu  Cu50  1  0.05242200  0.90640500  0.64758800  1
  Cu  Cu51  1  0.94757800  0.40640500  0.64758800  1
  Cu  Cu52  1  0.14218300  0.23877300  0.67281600  1
  Cu  Cu53  1  0.85781700  0.73877300  0.67281600  1
  Cu  Cu54  1  0.17239300  0.48707900  0.72294600  1
  Cu  Cu55  1  0.82760700  0.98707900  0.72294600  1
  Cu  Cu56  1  0.32760700  0.98707900  0.77705400  1
  Cu  Cu57  1  0.67239300  0.48707900  0.77705400  1
  Cu  Cu58  1  0.35781700  0.73877300  0.82718400  1
  Cu  Cu59  1  0.64218300  0.23877300  0.82718400  1
  Cu  Cu60  1  0.44757800  0.40640500  0.85241200  1
  Cu  Cu61  1  0.55242200  0.90640500  0.85241200  1
  Cu  Cu62  1  0.05624600  0.66900600  0.92629100  1
  Cu  Cu63  1  0.94375400  0.16900600  0.92629100  1
  Cu  Cu64  1  0.12808500  0.34907400  0.94044900  1
  Cu  Cu65  1  0.87191500  0.84907400  0.94044900  1
  Cu  Cu66  1  0.33670000  0.92374000  0.95821400  1
  Cu  Cu67  1  0.66330000  0.42374000  0.95821400  1
