# generated using pymatgen
data_Cu6Ni2C
_symmetry_space_group_name_H-M   'P 1'
_cell_length_a   5.30392300
_cell_length_b   6.75060000
_cell_length_c   14.78055200
_cell_angle_alpha   90.00000000
_cell_angle_beta   90.00000000
_cell_angle_gamma   90.00000000
_symmetry_Int_Tables_number   1
_chemical_formula_structural   Cu6Ni2C
_chemical_formula_sum   'Cu24 Ni8 C4'
_cell_volume   529.21267746
_cell_formula_units_Z   4
loop_
 _symmetry_equiv_pos_site_id
 _symmetry_equiv_pos_as_xyz
  1  'x, y, z'
loop_
 _atom_site_type_symbol
 _atom_site_label
 _atom_site_symmetry_multiplicity
 _atom_site_fract_x
 _atom_site_fract_y
 _atom_site_fract_z
 _atom_site_occupancy
  C  C0  1  0.75000000  0.13923500  0.00000000  1
  C  C1  1  0.25000000  0.86076500  0.00000000  1
  C  C2  1  0.25000000  0.36076500  0.50000000  1
  C  C3  1  0.75000000  0.63923500  0.50000000  1
  Ni  Ni4  1  0.25175800  0.28557100  0.14977400  1
  Ni  Ni5  1  0.75175800  0.71442900  0.14977400  1
  Ni  Ni6  1  0.75175800  0.21442900  0.35022600  1
  Ni  Ni7  1  0.25175800  0.78557100  0.35022600  1
  Ni  Ni8  1  0.74824200  0.21442900  0.64977400  1
  Ni  Ni9  1  0.24824200  0.78557100  0.64977400  1
  Ni  Ni10  1  0.24824200  0.28557100  0.85022600  1
  Ni  Ni11  1  0.74824200  0.71442900  0.85022600  1
  Cu  Cu12  1  0.41983100  0.10271400  0.07689300  1
  Cu  Cu13  1  0.91983100  0.89728600  0.07689300  1
  Cu  Cu14  1  0.96640900  0.33377500  0.08108500  1
  Cu  Cu15  1  0.46640900  0.66622500  0.08108500  1
  Cu  Cu16  1  0.63041800  0.37665300  0.26293100  1
  Cu  Cu17  1  0.13041800  0.62334700  0.26293100  1
  Cu  Cu18  1  0.13041800  0.12334700  0.23706900  1
  Cu  Cu19  1  0.63041800  0.87665300  0.23706900  1
  Cu  Cu20  1  0.46640900  0.16622500  0.41891500  1
  Cu  Cu21  1  0.96640900  0.83377500  0.41891500  1
  Cu  Cu22  1  0.91983100  0.39728600  0.42310700  1
  Cu  Cu23  1  0.41983100  0.60271400  0.42310700  1
  Cu  Cu24  1  0.58016900  0.39728600  0.57689300  1
  Cu  Cu25  1  0.08016900  0.60271400  0.57689300  1
  Cu  Cu26  1  0.03359100  0.16622500  0.58108500  1
  Cu  Cu27  1  0.53359100  0.83377500  0.58108500  1
  Cu  Cu28  1  0.36958200  0.12334700  0.76293100  1
  Cu  Cu29  1  0.86958200  0.87665300  0.76293100  1
  Cu  Cu30  1  0.86958200  0.37665300  0.73706900  1
  Cu  Cu31  1  0.36958200  0.62334700  0.73706900  1
  Cu  Cu32  1  0.53359100  0.33377500  0.91891500  1
  Cu  Cu33  1  0.03359100  0.66622500  0.91891500  1
  Cu  Cu34  1  0.08016900  0.10271400  0.92310700  1
  Cu  Cu35  1  0.58016900  0.89728600  0.92310700  1
