# generated using pymatgen
data_Cu3NiC24
_symmetry_space_group_name_H-M   'P 1'
_cell_length_a   6.15041100
_cell_length_b   4.77927700
_cell_length_c   10.54177836
_cell_angle_alpha   89.98509691
_cell_angle_beta   90.00000000
_cell_angle_gamma   90.00000000
_symmetry_Int_Tables_number   1
_chemical_formula_structural   Cu3NiC24
_chemical_formula_sum   'Cu3 Ni1 C24'
_cell_volume   309.87048141
_cell_formula_units_Z   1
loop_
 _symmetry_equiv_pos_site_id
 _symmetry_equiv_pos_as_xyz
  1  'x, y, z'
loop_
 _atom_site_type_symbol
 _atom_site_label
 _atom_site_symmetry_multiplicity
 _atom_site_fract_x
 _atom_site_fract_y
 _atom_site_fract_z
 _atom_site_occupancy
  C  C0  1  0.25075500  0.00004000  0.99969500  1
  C  C1  1  0.74924500  0.00004000  0.99969500  1
  C  C2  1  0.75107300  0.50063400  0.49906700  1
  C  C3  1  0.24892700  0.50063400  0.49906700  1
  Ni  Ni4  1  0.50000000  0.02235800  0.72020500  1
  Cu  Cu5  1  0.50000000  0.48214300  0.22376100  1
  Cu  Cu6  1  0.00000000  0.51775200  0.77721400  1
  Cu  Cu7  1  0.00000000  0.98301000  0.27539400  1
  C  C8  1  0.00000000  0.08540200  0.59289100  1
  C  C9  1  0.00000000  0.41471500  0.09328800  1
  C  C10  1  0.50000000  0.58522300  0.90870200  1
  C  C11  1  0.50000000  0.91389800  0.40577800  1
  C  C12  1  0.00000000  0.20588500  0.45620400  1
  C  C13  1  0.20059100  0.22055500  0.66288000  1
  C  C14  1  0.79940900  0.22055500  0.66288000  1
  C  C15  1  0.50000000  0.23606400  0.40331500  1
  C  C16  1  0.50000000  0.26298800  0.90453300  1
  C  C17  1  0.20091600  0.27931400  0.16295900  1
  C  C18  1  0.79908400  0.27931400  0.16295900  1
  C  C19  1  0.00000000  0.29357100  0.95654700  1
  C  C20  1  0.50000000  0.70789400  0.04528000  1
  C  C21  1  0.70089100  0.71866600  0.83893300  1
  C  C22  1  0.29910900  0.71866600  0.83893300  1
  C  C23  1  0.00000000  0.73666900  0.09709100  1
  C  C24  1  0.00000000  0.76331900  0.59699000  1
  C  C25  1  0.70130900  0.77930900  0.33658500  1
  C  C26  1  0.29869100  0.77930900  0.33658500  1
  C  C27  1  0.50000000  0.79207600  0.54256700  1
