# generated using pymatgen
data_CuNi4C7
_symmetry_space_group_name_H-M   'P 1'
_cell_length_a   8.11719900
_cell_length_b   5.50053800
_cell_length_c   10.96166573
_cell_angle_alpha   78.15761694
_cell_angle_beta   90.00000000
_cell_angle_gamma   90.00000000
_symmetry_Int_Tables_number   1
_chemical_formula_structural   CuNi4C7
_chemical_formula_sum   'Cu4 Ni16 C28'
_cell_volume   479.00995457
_cell_formula_units_Z   4
loop_
 _symmetry_equiv_pos_site_id
 _symmetry_equiv_pos_as_xyz
  1  'x, y, z'
loop_
 _atom_site_type_symbol
 _atom_site_label
 _atom_site_symmetry_multiplicity
 _atom_site_fract_x
 _atom_site_fract_y
 _atom_site_fract_z
 _atom_site_occupancy
  C  C0  1  0.30645000  0.88353700  0.37106300  1
  C  C1  1  0.69355000  0.88353700  0.87106300  1
  C  C2  1  0.24358700  0.00153400  0.99968800  1
  C  C3  1  0.75641300  0.00153400  0.49968800  1
  Ni  Ni4  1  0.96511400  0.77319300  0.01951700  1
  Ni  Ni5  1  0.38504400  0.22491200  0.15583500  1
  Ni  Ni6  1  0.18579400  0.22120400  0.18168600  1
  Ni  Ni7  1  0.05584900  0.66643400  0.14409500  1
  Ni  Ni8  1  0.55665000  0.32257600  0.35588400  1
  Ni  Ni9  1  0.69028600  0.78656700  0.31375800  1
  Ni  Ni10  1  0.88818400  0.77502300  0.34413700  1
  Ni  Ni11  1  0.46730400  0.22815700  0.48401400  1
  Ni  Ni12  1  0.03488600  0.77319300  0.51951700  1
  Ni  Ni13  1  0.61495600  0.22491200  0.65583500  1
  Ni  Ni14  1  0.81420600  0.22120400  0.68168600  1
  Ni  Ni15  1  0.94415100  0.66643400  0.64409500  1
  Ni  Ni16  1  0.44335000  0.32257600  0.85588400  1
  Ni  Ni17  1  0.30971400  0.78656700  0.81375800  1
  Ni  Ni18  1  0.11181600  0.77502300  0.84413700  1
  Ni  Ni19  1  0.53269600  0.22815700  0.98401400  1
  Cu  Cu20  1  0.53447200  0.63440500  0.13233500  1
  Cu  Cu21  1  0.04676100  0.36510200  0.36387200  1
  Cu  Cu22  1  0.46552800  0.63440500  0.63233500  1
  Cu  Cu23  1  0.95323900  0.36510200  0.86387200  1
  C  C24  1  0.36814800  0.70438200  0.07084600  1
  C  C25  1  0.66381100  0.78873900  0.06395600  1
  C  C26  1  0.04213300  0.82179500  0.07963500  1
  C  C27  1  0.55680500  0.36658400  0.13129300  1
  C  C28  1  0.28234300  0.11737100  0.16545900  1
  C  C29  1  0.02528300  0.36586800  0.22866400  1
  C  C30  1  0.52230700  0.66491200  0.26523100  1
  C  C31  1  0.78579100  0.87329000  0.34428800  1
  C  C32  1  0.08114600  0.62617900  0.37736700  1
  C  C33  1  0.53811300  0.17229100  0.42134500  1
  C  C34  1  0.17354200  0.18920300  0.41883800  1
  C  C35  1  0.88116000  0.29839200  0.42930400  1
  C  C36  1  0.63185200  0.70438200  0.57084600  1
  C  C37  1  0.33618900  0.78873900  0.56395600  1
  C  C38  1  0.95786700  0.82179500  0.57963500  1
  C  C39  1  0.44319500  0.36658400  0.63129300  1
  C  C40  1  0.71765700  0.11737100  0.66545900  1
  C  C41  1  0.97471700  0.36586800  0.72866400  1
  C  C42  1  0.47769300  0.66491200  0.76523100  1
  C  C43  1  0.21420900  0.87329000  0.84428800  1
  C  C44  1  0.91885400  0.62617900  0.87736700  1
  C  C45  1  0.46188700  0.17229100  0.92134500  1
  C  C46  1  0.82645800  0.18920300  0.91883800  1
  C  C47  1  0.11884000  0.29839200  0.92930400  1
