# generated using pymatgen
data_Cu6Ni2C
_symmetry_space_group_name_H-M   'P 1'
_cell_length_a   7.46552200
_cell_length_b   7.53533800
_cell_length_c   15.32750300
_cell_angle_alpha   90.00000000
_cell_angle_beta   90.00000000
_cell_angle_gamma   90.00000000
_symmetry_Int_Tables_number   1
_chemical_formula_structural   Cu6Ni2C
_chemical_formula_sum   'Cu48 Ni16 C8'
_cell_volume   862.25223137
_cell_formula_units_Z   8
loop_
 _symmetry_equiv_pos_site_id
 _symmetry_equiv_pos_as_xyz
  1  'x, y, z'
loop_
 _atom_site_type_symbol
 _atom_site_label
 _atom_site_symmetry_multiplicity
 _atom_site_fract_x
 _atom_site_fract_y
 _atom_site_fract_z
 _atom_site_occupancy
  C  C0  1  0.78784400  0.01966700  0.37773700  1
  C  C1  1  0.75561300  0.02611400  0.87358600  1
  C  C2  1  0.25561300  0.47388600  0.87358600  1
  C  C3  1  0.28784400  0.48033300  0.37773700  1
  C  C4  1  0.78784400  0.51966700  0.62226300  1
  C  C5  1  0.75561300  0.52611400  0.12641400  1
  C  C6  1  0.25561300  0.97388600  0.12641400  1
  C  C7  1  0.28784400  0.98033300  0.62226300  1
  Ni  Ni8  1  0.09363100  0.13833800  0.78569000  1
  Ni  Ni9  1  0.12959600  0.15979300  0.29351800  1
  Ni  Ni10  1  0.93752500  0.17003900  0.55170400  1
  Ni  Ni11  1  0.92039700  0.17669700  0.04700400  1
  Ni  Ni12  1  0.42039700  0.32330300  0.04700400  1
  Ni  Ni13  1  0.43752500  0.32996100  0.55170400  1
  Ni  Ni14  1  0.62959600  0.34020700  0.29351800  1
  Ni  Ni15  1  0.59363100  0.36166200  0.78569000  1
  Ni  Ni16  1  0.09363100  0.63833800  0.21431000  1
  Ni  Ni17  1  0.12959600  0.65979300  0.70648200  1
  Ni  Ni18  1  0.93752500  0.67003900  0.44829600  1
  Ni  Ni19  1  0.92039700  0.67669700  0.95299600  1
  Ni  Ni20  1  0.42039700  0.82330300  0.95299600  1
  Ni  Ni21  1  0.43752500  0.82996100  0.44829600  1
  Ni  Ni22  1  0.62959600  0.84020700  0.70648200  1
  Ni  Ni23  1  0.59363100  0.86166200  0.21431000  1
  Cu  Cu24  1  0.95852000  0.04183800  0.77184300  1
  Cu  Cu25  1  0.03153000  0.05118000  0.05016300  1
  Cu  Cu26  1  0.04263600  0.03935800  0.55649500  1
  Cu  Cu27  1  0.10105600  0.04154500  0.23694700  1
  Cu  Cu28  1  0.22476200  0.14000600  0.73384900  1
  Cu  Cu29  1  0.04343300  0.15747600  0.36450700  1
  Cu  Cu30  1  0.81413400  0.17215900  0.49528800  1
  Cu  Cu31  1  0.80448400  0.17992700  0.98674300  1
  Cu  Cu32  1  0.09671300  0.23506400  0.85338200  1
  Cu  Cu33  1  0.45430100  0.20093500  0.60365900  1
  Cu  Cu34  1  0.42340800  0.20075400  0.10313300  1
  Cu  Cu35  1  0.74228800  0.21895200  0.28015300  1
  Cu  Cu36  1  0.24228800  0.28104800  0.28015300  1
  Cu  Cu37  1  0.92340800  0.29924600  0.10313300  1
  Cu  Cu38  1  0.95430100  0.29906500  0.60365900  1
  Cu  Cu39  1  0.59671300  0.26493600  0.85338200  1
  Cu  Cu40  1  0.30448400  0.32007300  0.98674300  1
  Cu  Cu41  1  0.31413400  0.32784100  0.49528800  1
  Cu  Cu42  1  0.54343300  0.34252400  0.36450700  1
  Cu  Cu43  1  0.72476200  0.35999400  0.73384900  1
  Cu  Cu44  1  0.60105600  0.45845500  0.23694700  1
  Cu  Cu45  1  0.54263600  0.46064200  0.55649500  1
  Cu  Cu46  1  0.53153000  0.44882000  0.05016300  1
  Cu  Cu47  1  0.45852000  0.45816200  0.77184300  1
  Cu  Cu48  1  0.95852000  0.54183800  0.22815700  1
  Cu  Cu49  1  0.03153000  0.55118000  0.94983700  1
  Cu  Cu50  1  0.04263600  0.53935800  0.44350500  1
  Cu  Cu51  1  0.10105600  0.54154500  0.76305300  1
  Cu  Cu52  1  0.22476200  0.64000600  0.26615100  1
  Cu  Cu53  1  0.04343300  0.65747600  0.63549300  1
  Cu  Cu54  1  0.81413400  0.67215900  0.50471200  1
  Cu  Cu55  1  0.80448400  0.67992700  0.01325700  1
  Cu  Cu56  1  0.09671300  0.73506400  0.14661800  1
  Cu  Cu57  1  0.45430100  0.70093500  0.39634100  1
  Cu  Cu58  1  0.42340800  0.70075400  0.89686700  1
  Cu  Cu59  1  0.74228800  0.71895200  0.71984700  1
  Cu  Cu60  1  0.24228800  0.78104800  0.71984700  1
  Cu  Cu61  1  0.92340800  0.79924600  0.89686700  1
  Cu  Cu62  1  0.95430100  0.79906500  0.39634100  1
  Cu  Cu63  1  0.59671300  0.76493600  0.14661800  1
  Cu  Cu64  1  0.30448400  0.82007300  0.01325700  1
  Cu  Cu65  1  0.31413400  0.82784100  0.50471200  1
  Cu  Cu66  1  0.54343300  0.84252400  0.63549300  1
  Cu  Cu67  1  0.72476200  0.85999400  0.26615100  1
  Cu  Cu68  1  0.60105600  0.95845500  0.76305300  1
  Cu  Cu69  1  0.54263600  0.96064200  0.44350500  1
  Cu  Cu70  1  0.53153000  0.94882000  0.94983700  1
  Cu  Cu71  1  0.45852000  0.95816200  0.22815700  1
