# generated using pymatgen
data_Cu10Ni8C41
_symmetry_space_group_name_H-M   'P 1'
_cell_length_a   8.09732700
_cell_length_b   11.04759202
_cell_length_c   11.65766130
_cell_angle_alpha   109.06140468
_cell_angle_beta   94.26798065
_cell_angle_gamma   108.21456762
_symmetry_Int_Tables_number   1
_chemical_formula_structural   Cu10Ni8C41
_chemical_formula_sum   'Cu10 Ni8 C41'
_cell_volume   918.00658784
_cell_formula_units_Z   1
loop_
 _symmetry_equiv_pos_site_id
 _symmetry_equiv_pos_as_xyz
  1  'x, y, z'
loop_
 _atom_site_type_symbol
 _atom_site_label
 _atom_site_symmetry_multiplicity
 _atom_site_fract_x
 _atom_site_fract_y
 _atom_site_fract_z
 _atom_site_occupancy
  C  C0  1  0.61486200  0.82614400  0.48570200  1
  C  C1  1  0.38513800  0.17385600  0.51429800  1
  C  C2  1  0.30549900  0.35421200  0.97378700  1
  C  C3  1  0.69450100  0.64578800  0.02621300  1
  C  C4  1  0.69031500  0.58475800  0.67432900  1
  C  C5  1  0.30968500  0.41524200  0.32567100  1
  C  C6  1  0.46626400  0.89892900  0.11776400  1
  C  C7  1  0.53373600  0.10107100  0.88223600  1
  C  C8  1  0.00000000  0.00000000  0.00000000  1
  Ni  Ni9  1  0.87546600  0.30321600  0.71874100  1
  Ni  Ni10  1  0.12453400  0.69678400  0.28125900  1
  Ni  Ni11  1  0.13601500  0.59495900  0.86384800  1
  Ni  Ni12  1  0.86398500  0.40504100  0.13615200  1
  Ni  Ni13  1  0.27254500  0.66360500  0.64431400  1
  Ni  Ni14  1  0.72745500  0.33639500  0.35568600  1
  Ni  Ni15  1  0.03964000  0.76759800  0.53087500  1
  Ni  Ni16  1  0.96036000  0.23240200  0.46912500  1
  Cu  Cu17  1  0.30476900  0.86975900  0.66687800  1
  Cu  Cu18  1  0.69523100  0.13024100  0.33312200  1
  Cu  Cu19  1  0.51902200  0.97398000  0.38389800  1
  Cu  Cu20  1  0.48097800  0.02602000  0.61610200  1
  Cu  Cu21  1  0.57616600  0.07408400  0.63742100  1
  Cu  Cu22  1  0.42383400  0.92591600  0.36257900  1
  Cu  Cu23  1  0.56737600  0.39783600  0.78024400  1
  Cu  Cu24  1  0.43262400  0.60216400  0.21975600  1
  Cu  Cu25  1  0.76383000  0.76093900  0.27980400  1
  Cu  Cu26  1  0.23617000  0.23906100  0.72019600  1
  C  C27  1  0.89955300  0.17622900  0.08050100  1
  C  C28  1  0.10044700  0.82377100  0.91949900  1
  C  C29  1  0.33900000  0.21908400  0.74572800  1
  C  C30  1  0.66100000  0.78091600  0.25427200  1
  C  C31  1  0.24621700  0.11051600  0.01005600  1
  C  C32  1  0.75378300  0.88948400  0.98994400  1
  C  C33  1  0.73125900  0.34085000  0.66920800  1
  C  C34  1  0.26874100  0.65915000  0.33079200  1
  C  C35  1  0.15968200  0.81191000  0.23657200  1
  C  C36  1  0.84031800  0.18809000  0.76342800  1
  C  C37  1  0.98126800  0.56001000  0.16541800  1
  C  C38  1  0.01873200  0.43999000  0.83458200  1
  C  C39  1  0.00602100  0.28685400  0.61797400  1
  C  C40  1  0.99397900  0.71314600  0.38202600  1
  C  C41  1  0.28861000  0.64756700  0.96587700  1
  C  C42  1  0.71139000  0.35243300  0.03412300  1
  C  C43  1  0.99295500  0.66864900  0.88010700  1
  C  C44  1  0.00704500  0.33135100  0.11989300  1
  C  C45  1  0.80693100  0.41008600  0.26565000  1
  C  C46  1  0.19306900  0.58991400  0.73435000  1
  C  C47  1  0.36485200  0.82030600  0.71845200  1
  C  C48  1  0.63514800  0.17969400  0.28154800  1
  C  C49  1  0.61835900  0.40724200  0.42605900  1
  C  C50  1  0.38164100  0.59275800  0.57394100  1
  C  C51  1  0.90352000  0.35280700  0.44226200  1
  C  C52  1  0.09648000  0.64719300  0.55773800  1
  C  C53  1  0.20804100  0.89381100  0.58290800  1
  C  C54  1  0.79195900  0.10618900  0.41709200  1
  C  C55  1  0.12716400  0.23120100  0.42461300  1
  C  C56  1  0.87283600  0.76879900  0.57538700  1
  C  C57  1  0.50679300  0.54881700  0.18972200  1
  C  C58  1  0.49320700  0.45118300  0.81027800  1
