# generated using pymatgen
data_Cu(NiC2)2
_symmetry_space_group_name_H-M   'P 1'
_cell_length_a   6.04634700
_cell_length_b   6.12014100
_cell_length_c   11.94470300
_cell_angle_alpha   90.00000000
_cell_angle_beta   90.00000000
_cell_angle_gamma   90.00000000
_symmetry_Int_Tables_number   1
_chemical_formula_structural   Cu(NiC2)2
_chemical_formula_sum   'Cu4 Ni8 C16'
_cell_volume   442.00771647
_cell_formula_units_Z   4
loop_
 _symmetry_equiv_pos_site_id
 _symmetry_equiv_pos_as_xyz
  1  'x, y, z'
loop_
 _atom_site_type_symbol
 _atom_site_label
 _atom_site_symmetry_multiplicity
 _atom_site_fract_x
 _atom_site_fract_y
 _atom_site_fract_z
 _atom_site_occupancy
  Ni  Ni0  1  0.02606000  0.05146700  0.34202400  1
  Ni  Ni1  1  0.02606000  0.44853300  0.84202400  1
  Ni  Ni2  1  0.47394000  0.55146700  0.34202400  1
  Ni  Ni3  1  0.47394000  0.94853300  0.84202400  1
  Ni  Ni4  1  0.52606000  0.05146700  0.15797600  1
  Ni  Ni5  1  0.52606000  0.44853300  0.65797600  1
  Ni  Ni6  1  0.97394000  0.55146700  0.15797600  1
  Ni  Ni7  1  0.97394000  0.94853300  0.65797600  1
  Cu  Cu8  1  0.00000000  0.00000000  0.00000000  1
  Cu  Cu9  1  0.00000000  0.50000000  0.50000000  1
  Cu  Cu10  1  0.50000000  0.50000000  0.00000000  1
  Cu  Cu11  1  0.50000000  0.00000000  0.50000000  1
  C  C12  1  0.11115400  0.43377500  0.32533300  1
  C  C13  1  0.11115400  0.06622500  0.82533300  1
  C  C14  1  0.17607200  0.32329000  0.03772300  1
  C  C15  1  0.17607200  0.17671000  0.53772300  1
  C  C16  1  0.32392800  0.82329000  0.03772300  1
  C  C17  1  0.32392800  0.67671000  0.53772300  1
  C  C18  1  0.38884600  0.56622500  0.82533300  1
  C  C19  1  0.38884600  0.93377500  0.32533300  1
  C  C20  1  0.61115400  0.43377500  0.17466700  1
  C  C21  1  0.61115400  0.06622500  0.67466700  1
  C  C22  1  0.67607200  0.32329000  0.46227700  1
  C  C23  1  0.67607200  0.17671000  0.96227700  1
  C  C24  1  0.82392800  0.82329000  0.46227700  1
  C  C25  1  0.82392800  0.67671000  0.96227700  1
  C  C26  1  0.88884600  0.93377500  0.17466700  1
  C  C27  1  0.88884600  0.56622500  0.67466700  1
