# generated using pymatgen
data_Cu(NiC4)2
_symmetry_space_group_name_H-M   'P 1'
_cell_length_a   8.42360300
_cell_length_b   7.44655100
_cell_length_c   9.96722269
_cell_angle_alpha   55.56966051
_cell_angle_beta   90.00000000
_cell_angle_gamma   90.00000000
_symmetry_Int_Tables_number   1
_chemical_formula_structural   Cu(NiC4)2
_chemical_formula_sum   'Cu4 Ni8 C32'
_cell_volume   515.68364696
_cell_formula_units_Z   4
loop_
 _symmetry_equiv_pos_site_id
 _symmetry_equiv_pos_as_xyz
  1  'x, y, z'
loop_
 _atom_site_type_symbol
 _atom_site_label
 _atom_site_symmetry_multiplicity
 _atom_site_fract_x
 _atom_site_fract_y
 _atom_site_fract_z
 _atom_site_occupancy
  C  C0  1  0.69789100  0.45774300  0.02137000  1
  C  C1  1  0.19789100  0.54225700  0.47863000  1
  C  C2  1  0.30210900  0.54225700  0.97863000  1
  C  C3  1  0.80210900  0.45774300  0.52137000  1
  Ni  Ni4  1  0.71602800  0.92650900  0.19601100  1
  Ni  Ni5  1  0.21602800  0.07349100  0.30398900  1
  Ni  Ni6  1  0.28397200  0.07349100  0.80398900  1
  Ni  Ni7  1  0.78397200  0.92650900  0.69601100  1
  Ni  Ni8  1  0.50951500  0.55930500  0.26417300  1
  Ni  Ni9  1  0.00951500  0.44069500  0.23582700  1
  Ni  Ni10  1  0.49048500  0.44069500  0.73582700  1
  Ni  Ni11  1  0.99048500  0.55930500  0.76417300  1
  Cu  Cu12  1  0.62752700  0.11636000  0.48814000  1
  Cu  Cu13  1  0.12752700  0.88364000  0.01186000  1
  Cu  Cu14  1  0.37247300  0.88364000  0.51186000  1
  Cu  Cu15  1  0.87247300  0.11636000  0.98814000  1
  C  C16  1  0.77455500  0.77268100  0.36883200  1
  C  C17  1  0.27455500  0.22731900  0.13116800  1
  C  C18  1  0.22544500  0.22731900  0.63116800  1
  C  C19  1  0.72544500  0.77268100  0.86883200  1
  C  C20  1  0.65244300  0.14288500  0.15376400  1
  C  C21  1  0.15244300  0.85711500  0.34623600  1
  C  C22  1  0.34755700  0.85711500  0.84623600  1
  C  C23  1  0.84755700  0.14288500  0.65376400  1
  C  C24  1  0.84663300  0.96083500  0.07126600  1
  C  C25  1  0.34663300  0.03916500  0.42873400  1
  C  C26  1  0.15336700  0.03916500  0.92873400  1
  C  C27  1  0.65336700  0.96083500  0.57126600  1
  C  C28  1  0.57339300  0.80619400  0.16977100  1
  C  C29  1  0.07339300  0.19380600  0.33022900  1
  C  C30  1  0.42660700  0.19380600  0.83022900  1
  C  C31  1  0.92660700  0.80619400  0.66977100  1
  C  C32  1  0.62342000  0.41012500  0.40441600  1
  C  C33  1  0.12342000  0.58987500  0.09558400  1
  C  C34  1  0.37658000  0.58987500  0.59558400  1
  C  C35  1  0.87658000  0.41012500  0.90441600  1
  C  C36  1  0.34209900  0.56202900  0.31824200  1
  C  C37  1  0.84209900  0.43797100  0.18175800  1
  C  C38  1  0.65790100  0.43797100  0.68175800  1
  C  C39  1  0.15790100  0.56202900  0.81824200  1
  C  C40  1  0.50362900  0.50789400  0.13319200  1
  C  C41  1  0.00362900  0.49210600  0.36680800  1
  C  C42  1  0.49637100  0.49210600  0.86680800  1
  C  C43  1  0.99637100  0.50789400  0.63319200  1
