# generated using pymatgen
data_CuNiC
_symmetry_space_group_name_H-M   'P 1'
_cell_length_a   3.10016000
_cell_length_b   14.19786400
_cell_length_c   14.23495679
_cell_angle_alpha   89.79090452
_cell_angle_beta   90.00000000
_cell_angle_gamma   90.00000000
_symmetry_Int_Tables_number   1
_chemical_formula_structural   CuNiC
_chemical_formula_sum   'Cu18 Ni18 C18'
_cell_volume   626.55670442
_cell_formula_units_Z   18
loop_
 _symmetry_equiv_pos_site_id
 _symmetry_equiv_pos_as_xyz
  1  'x, y, z'
loop_
 _atom_site_type_symbol
 _atom_site_label
 _atom_site_symmetry_multiplicity
 _atom_site_fract_x
 _atom_site_fract_y
 _atom_site_fract_z
 _atom_site_occupancy
  C  C0  1  0.00000000  0.98613900  0.99945600  1
  C  C1  1  0.00000000  0.99721200  0.33950700  1
  C  C2  1  0.00000000  0.99188900  0.65918200  1
  C  C3  1  0.50000000  0.85481500  0.17281900  1
  C  C4  1  0.50000000  0.84653500  0.49570400  1
  C  C5  1  0.50000000  0.82741800  0.85062200  1
  C  C6  1  0.00000000  0.66647800  0.00249900  1
  C  C7  1  0.00000000  0.65489100  0.33057500  1
  C  C8  1  0.00000000  0.65419900  0.66390700  1
  C  C9  1  0.50000000  0.51251900  0.49688400  1
  C  C10  1  0.50000000  0.51402700  0.16301800  1
  C  C11  1  0.50000000  0.49988900  0.81698500  1
  C  C12  1  0.00000000  0.31982700  0.99812800  1
  C  C13  1  0.00000000  0.31978400  0.33160700  1
  C  C14  1  0.00000000  0.33236900  0.67653800  1
  C  C15  1  0.50000000  0.17925700  0.16533400  1
  C  C16  1  0.50000000  0.16694500  0.48079000  1
  C  C17  1  0.50000000  0.18011600  0.83164700  1
  Ni  Ni18  1  0.50000000  0.93789000  0.27231500  1
  Ni  Ni19  1  0.50000000  0.93422600  0.60600000  1
  Ni  Ni20  1  0.50000000  0.93537400  0.93237700  1
  Ni  Ni21  1  0.00000000  0.89941200  0.10283800  1
  Ni  Ni22  1  0.00000000  0.89523000  0.43763500  1
  Ni  Ni23  1  0.00000000  0.76100500  0.90342500  1
  Ni  Ni24  1  0.50000000  0.60194800  0.26666500  1
  Ni  Ni25  1  0.50000000  0.60039900  0.60330200  1
  Ni  Ni26  1  0.00000000  0.56820200  0.09650600  1
  Ni  Ni27  1  0.00000000  0.56552900  0.43536400  1
  Ni  Ni28  1  0.00000000  0.56824700  0.77226800  1
  Ni  Ni29  1  0.50000000  0.39644800  0.73008100  1
  Ni  Ni30  1  0.50000000  0.26975800  0.26809000  1
  Ni  Ni31  1  0.50000000  0.27015900  0.93374800  1
  Ni  Ni32  1  0.00000000  0.23194700  0.10139900  1
  Ni  Ni33  1  0.00000000  0.23505800  0.43679000  1
  Ni  Ni34  1  0.00000000  0.22640400  0.76457200  1
  Ni  Ni35  1  0.50000000  0.06441000  0.39894100  1
  Cu  Cu36  1  0.00000000  0.89506400  0.77086200  1
  Cu  Cu37  1  0.00000000  0.76834900  0.23508400  1
  Cu  Cu38  1  0.00000000  0.76642400  0.56698700  1
  Cu  Cu39  1  0.50000000  0.73135500  0.06835700  1
  Cu  Cu40  1  0.50000000  0.73638700  0.73104900  1
  Cu  Cu41  1  0.50000000  0.73078700  0.39884700  1
  Cu  Cu42  1  0.50000000  0.59865200  0.93693100  1
  Cu  Cu43  1  0.00000000  0.43690600  0.22927100  1
  Cu  Cu44  1  0.00000000  0.43099700  0.56231900  1
  Cu  Cu45  1  0.00000000  0.43724100  0.90139300  1
  Cu  Cu46  1  0.50000000  0.40056200  0.06606600  1
  Cu  Cu47  1  0.50000000  0.40092400  0.39773200  1
  Cu  Cu48  1  0.50000000  0.26743900  0.60088900  1
  Cu  Cu49  1  0.00000000  0.10285400  0.22770300  1
  Cu  Cu50  1  0.00000000  0.10269600  0.57025700  1
  Cu  Cu51  1  0.00000000  0.10130200  0.89964900  1
  Cu  Cu52  1  0.50000000  0.06566200  0.06399500  1
  Cu  Cu53  1  0.50000000  0.06044400  0.73509300  1
