# generated using pymatgen
data_CuNi3C10
_symmetry_space_group_name_H-M   'P 1'
_cell_length_a   8.44457600
_cell_length_b   8.44457600
_cell_length_c   8.44457600
_cell_angle_alpha   90.00000000
_cell_angle_beta   90.00000000
_cell_angle_gamma   90.00000000
_symmetry_Int_Tables_number   1
_chemical_formula_structural   CuNi3C10
_chemical_formula_sum   'Cu4 Ni12 C40'
_cell_volume   602.19000915
_cell_formula_units_Z   4
loop_
 _symmetry_equiv_pos_site_id
 _symmetry_equiv_pos_as_xyz
  1  'x, y, z'
loop_
 _atom_site_type_symbol
 _atom_site_label
 _atom_site_symmetry_multiplicity
 _atom_site_fract_x
 _atom_site_fract_y
 _atom_site_fract_z
 _atom_site_occupancy
  C  C0  1  0.49767800  0.49767800  0.49767800  1
  C  C1  1  0.50232200  0.99767800  0.00232200  1
  C  C2  1  0.62434500  0.37565500  0.87565500  1
  C  C3  1  0.87565500  0.62434500  0.37565500  1
  C  C4  1  0.00232200  0.50232200  0.99767800  1
  C  C5  1  0.99767800  0.00232200  0.50232200  1
  C  C6  1  0.12434500  0.12434500  0.12434500  1
  C  C7  1  0.37565500  0.87565500  0.62434500  1
  Ni  Ni8  1  0.63499500  0.62006400  0.12760800  1
  Ni  Ni9  1  0.62006400  0.12760800  0.63499500  1
  Ni  Ni10  1  0.62760800  0.86500500  0.37993600  1
  Ni  Ni11  1  0.87993600  0.87239200  0.13499500  1
  Ni  Ni12  1  0.87239200  0.13499500  0.87993600  1
  Ni  Ni13  1  0.86500500  0.37993600  0.62760800  1
  Ni  Ni14  1  0.12760800  0.63499500  0.62006400  1
  Ni  Ni15  1  0.13499500  0.87993600  0.87239200  1
  Ni  Ni16  1  0.12006400  0.37239200  0.36500500  1
  Ni  Ni17  1  0.37993600  0.62760800  0.86500500  1
  Ni  Ni18  1  0.37239200  0.36500500  0.12006400  1
  Ni  Ni19  1  0.36500500  0.12006400  0.37239200  1
  Cu  Cu20  1  0.75248600  0.75248600  0.75248600  1
  Cu  Cu21  1  0.74751400  0.24751400  0.25248600  1
  Cu  Cu22  1  0.25248600  0.74751400  0.24751400  1
  Cu  Cu23  1  0.24751400  0.25248600  0.74751400  1
  C  C24  1  0.62797700  0.88957700  0.60752600  1
  C  C25  1  0.63926800  0.86073200  0.13926800  1
  C  C26  1  0.64389000  0.35875100  0.62323600  1
  C  C27  1  0.61042300  0.39247400  0.12797700  1
  C  C28  1  0.60752600  0.62797700  0.88957700  1
  C  C29  1  0.62323600  0.64389000  0.35875100  1
  C  C30  1  0.64124900  0.12323600  0.85611000  1
  C  C31  1  0.61189300  0.11189300  0.38810700  1
  C  C32  1  0.88957700  0.60752600  0.62797700  1
  C  C33  1  0.85611000  0.64124900  0.12323600  1
  C  C34  1  0.88810700  0.88810700  0.88810700  1
  C  C35  1  0.85875100  0.87676400  0.35611000  1
  C  C36  1  0.86073200  0.13926800  0.63926800  1
  C  C37  1  0.87202300  0.11042300  0.10752600  1
  C  C38  1  0.87676400  0.35611000  0.85875100  1
  C  C39  1  0.89247400  0.37202300  0.38957700  1
  C  C40  1  0.13926800  0.63926800  0.86073200  1
  C  C41  1  0.12323600  0.85611000  0.64124900  1
  C  C42  1  0.10752600  0.87202300  0.11042300  1
  C  C43  1  0.11042300  0.10752600  0.87202300  1
  C  C44  1  0.11189300  0.38810700  0.61189300  1
  C  C45  1  0.14124900  0.37676400  0.14389000  1
  C  C46  1  0.12797700  0.61042300  0.39247400  1
  C  C47  1  0.14389000  0.14124900  0.37676400  1
  C  C48  1  0.35875100  0.62323600  0.64389000  1
  C  C49  1  0.38810700  0.61189300  0.11189300  1
  C  C50  1  0.35611000  0.85875100  0.87676400  1
  C  C51  1  0.39247400  0.12797700  0.61042300  1
  C  C52  1  0.37676400  0.14389000  0.14124900  1
  C  C53  1  0.37202300  0.38957700  0.89247400  1
  C  C54  1  0.38957700  0.89247400  0.37202300  1
  C  C55  1  0.36073200  0.36073200  0.36073200  1
