# generated using pymatgen
data_Cu2NiC9
_symmetry_space_group_name_H-M   'P 1'
_cell_length_a   6.14626100
_cell_length_b   4.94615300
_cell_length_c   10.50181322
_cell_angle_alpha   89.89326269
_cell_angle_beta   90.00000000
_cell_angle_gamma   90.00000000
_symmetry_Int_Tables_number   1
_chemical_formula_structural   Cu2NiC9
_chemical_formula_sum   'Cu4 Ni2 C18'
_cell_volume   319.25821510
_cell_formula_units_Z   2
loop_
 _symmetry_equiv_pos_site_id
 _symmetry_equiv_pos_as_xyz
  1  'x, y, z'
loop_
 _atom_site_type_symbol
 _atom_site_label
 _atom_site_symmetry_multiplicity
 _atom_site_fract_x
 _atom_site_fract_y
 _atom_site_fract_z
 _atom_site_occupancy
  C  C0  1  0.25000000  0.44414900  0.21527200  1
  C  C1  1  0.75000000  0.55585100  0.78472800  1
  Ni  Ni2  1  0.75000000  0.95756600  0.27062300  1
  Ni  Ni3  1  0.25000000  0.04243400  0.72937700  1
  Cu  Cu4  1  0.75000000  0.41462000  0.08277000  1
  Cu  Cu5  1  0.25000000  0.86858300  0.38803700  1
  Cu  Cu6  1  0.75000000  0.13141700  0.61196300  1
  Cu  Cu7  1  0.25000000  0.58538000  0.91723000  1
  C  C8  1  0.25000000  0.66378900  0.05741300  1
  C  C9  1  0.75000000  0.72338400  0.10023100  1
  C  C10  1  0.94894700  0.27791300  0.15495500  1
  C  C11  1  0.55105300  0.27791300  0.15495500  1
  C  C12  1  0.05788800  0.71370300  0.31505500  1
  C  C13  1  0.44211200  0.71370300  0.31505500  1
  C  C14  1  0.25000000  0.17047600  0.35603900  1
  C  C15  1  0.75000000  0.18859000  0.47127200  1
  C  C16  1  0.25000000  0.81141000  0.52872800  1
  C  C17  1  0.75000000  0.82952400  0.64396100  1
  C  C18  1  0.94211200  0.28629700  0.68494500  1
  C  C19  1  0.55788800  0.28629700  0.68494500  1
  C  C20  1  0.44894700  0.72208700  0.84504500  1
  C  C21  1  0.05105300  0.72208700  0.84504500  1
  C  C22  1  0.25000000  0.27661600  0.89976900  1
  C  C23  1  0.75000000  0.33621100  0.94258700  1
