# generated using pymatgen
data_Cu3NiC2
_symmetry_space_group_name_H-M   'P 1'
_cell_length_a   5.80770492
_cell_length_b   5.80770492
_cell_length_c   9.47971115
_cell_angle_alpha   86.32839342
_cell_angle_beta   86.32839342
_cell_angle_gamma   72.11314843
_symmetry_Int_Tables_number   1
_chemical_formula_structural   Cu3NiC2
_chemical_formula_sum   'Cu12 Ni4 C8'
_cell_volume   303.33425596
_cell_formula_units_Z   4
loop_
 _symmetry_equiv_pos_site_id
 _symmetry_equiv_pos_as_xyz
  1  'x, y, z'
loop_
 _atom_site_type_symbol
 _atom_site_label
 _atom_site_symmetry_multiplicity
 _atom_site_fract_x
 _atom_site_fract_y
 _atom_site_fract_z
 _atom_site_occupancy
  C  C0  1  0.64619000  0.64619000  0.88483300  1
  C  C1  1  0.88585600  0.88585600  0.60824500  1
  C  C2  1  0.25449700  0.25449700  0.76293200  1
  C  C3  1  0.50000000  0.50000000  0.50000000  1
  C  C4  1  0.74550300  0.74550300  0.23706800  1
  C  C5  1  0.11414400  0.11414400  0.39175500  1
  C  C6  1  0.35381000  0.35381000  0.11516700  1
  C  C7  1  0.00000000  0.00000000  0.00000000  1
  Ni  Ni8  1  0.81193500  0.18806500  0.50000000  1
  Ni  Ni9  1  0.20570900  0.20570900  0.97243200  1
  Ni  Ni10  1  0.79429100  0.79429100  0.02756800  1
  Ni  Ni11  1  0.18806500  0.81193500  0.50000000  1
  Cu  Cu12  1  0.95286200  0.57549700  0.73260500  1
  Cu  Cu13  1  0.57549700  0.95286200  0.73260500  1
  Cu  Cu14  1  0.72167800  0.72167800  0.45807900  1
  Cu  Cu15  1  0.48305900  0.48305900  0.73444600  1
  Cu  Cu16  1  0.97667300  0.97667300  0.21864100  1
  Cu  Cu17  1  0.02332700  0.02332700  0.78135900  1
  Cu  Cu18  1  0.51694100  0.51694100  0.26555400  1
  Cu  Cu19  1  0.27832200  0.27832200  0.54192100  1
  Cu  Cu20  1  0.69376000  0.30624000  0.00000000  1
  Cu  Cu21  1  0.42450300  0.04713800  0.26739500  1
  Cu  Cu22  1  0.30624000  0.69376000  0.00000000  1
  Cu  Cu23  1  0.04713800  0.42450300  0.26739500  1
