# generated using pymatgen
data_CuNiC7
_symmetry_space_group_name_H-M   'P 1'
_cell_length_a   5.43506900
_cell_length_b   10.10055942
_cell_length_c   10.35007093
_cell_angle_alpha   79.64855855
_cell_angle_beta   83.65622754
_cell_angle_gamma   79.30865163
_symmetry_Int_Tables_number   1
_chemical_formula_structural   CuNiC7
_chemical_formula_sum   'Cu6 Ni6 C42'
_cell_volume   547.48721072
_cell_formula_units_Z   6
loop_
 _symmetry_equiv_pos_site_id
 _symmetry_equiv_pos_as_xyz
  1  'x, y, z'
loop_
 _atom_site_type_symbol
 _atom_site_label
 _atom_site_symmetry_multiplicity
 _atom_site_fract_x
 _atom_site_fract_y
 _atom_site_fract_z
 _atom_site_occupancy
  C  C0  1  0.20681800  0.19174600  0.36254000  1
  C  C1  1  0.12706500  0.47476900  0.30066300  1
  C  C2  1  0.46382800  0.14367600  0.96655500  1
  C  C3  1  0.53617200  0.85632400  0.03344500  1
  C  C4  1  0.87293500  0.52523100  0.69933700  1
  C  C5  1  0.79318200  0.80825400  0.63746000  1
  C  C6  1  0.33259300  0.66632700  0.66521900  1
  C  C7  1  0.66740700  0.33367300  0.33478100  1
  C  C8  1  0.50000000  0.50000000  0.00000000  1
  C  C9  1  0.17130900  0.83107000  0.33348000  1
  C  C10  1  0.82869100  0.16893000  0.66652000  1
  C  C11  1  0.00000000  0.00000000  0.00000000  1
  Ni  Ni12  1  0.06580400  0.30462200  0.07011600  1
  Ni  Ni13  1  0.26904500  0.36433100  0.59533000  1
  Ni  Ni14  1  0.61202100  0.03137600  0.26193700  1
  Ni  Ni15  1  0.38797900  0.96862400  0.73806300  1
  Ni  Ni16  1  0.73095500  0.63566900  0.40467000  1
  Ni  Ni17  1  0.93419600  0.69537800  0.92988400  1
  Cu  Cu18  1  0.17340200  0.76495600  0.10545900  1
  Cu  Cu19  1  0.16534900  0.89790700  0.56275000  1
  Cu  Cu20  1  0.50068200  0.56298600  0.23204500  1
  Cu  Cu21  1  0.49931800  0.43701400  0.76795500  1
  Cu  Cu22  1  0.83465100  0.10209300  0.43725000  1
  Cu  Cu23  1  0.82659800  0.23504400  0.89454100  1
  C  C24  1  0.11749300  0.14760400  0.07335600  1
  C  C25  1  0.02127400  0.33659000  0.21175900  1
  C  C26  1  0.02285500  0.32163500  0.66736900  1
  C  C27  1  0.15962700  0.03518700  0.65627600  1
  C  C28  1  0.15660500  0.63101800  0.01496900  1
  C  C29  1  0.32016800  0.34822000  0.00089600  1
  C  C30  1  0.19382700  0.85361500  0.12893200  1
  C  C31  1  0.33522000  0.00049600  0.88228000  1
  C  C32  1  0.31311100  0.33014600  0.45450200  1
  C  C33  1  0.22479800  0.52225600  0.59015000  1
  C  C34  1  0.14023900  0.80982900  0.54031400  1
  C  C35  1  0.56351400  0.18849000  0.25766100  1
  C  C36  1  0.47700000  0.47428400  0.21036500  1
  C  C37  1  0.49908800  0.29948300  0.67760300  1
  C  C38  1  0.36477500  0.98626800  0.32894000  1
  C  C39  1  0.63522500  0.01373200  0.67106000  1
  C  C40  1  0.50091200  0.70051700  0.32239700  1
  C  C41  1  0.52300000  0.52571600  0.78963500  1
  C  C42  1  0.43648600  0.81151000  0.74233900  1
  C  C43  1  0.85976100  0.19017100  0.45968600  1
  C  C44  1  0.77520200  0.47774400  0.40985000  1
  C  C45  1  0.68688900  0.66985400  0.54549800  1
  C  C46  1  0.66478000  0.99950400  0.11772000  1
  C  C47  1  0.80617300  0.14638500  0.87106800  1
  C  C48  1  0.67983200  0.65178000  0.99910400  1
  C  C49  1  0.84339500  0.36898200  0.98503100  1
  C  C50  1  0.84037300  0.96481300  0.34372400  1
  C  C51  1  0.97714500  0.67836500  0.33263100  1
  C  C52  1  0.97872600  0.66341000  0.78824100  1
  C  C53  1  0.88250700  0.85239600  0.92664400  1
