# generated using pymatgen
data_Cu3NiC10
_symmetry_space_group_name_H-M   'P 1'
_cell_length_a   5.88881200
_cell_length_b   5.89190506
_cell_length_c   5.96184845
_cell_angle_alpha   90.12295459
_cell_angle_beta   119.13159511
_cell_angle_gamma   119.95818655
_symmetry_Int_Tables_number   1
_chemical_formula_structural   Cu3NiC10
_chemical_formula_sum   'Cu3 Ni1 C10'
_cell_volume   148.09848995
_cell_formula_units_Z   1
loop_
 _symmetry_equiv_pos_site_id
 _symmetry_equiv_pos_as_xyz
  1  'x, y, z'
loop_
 _atom_site_type_symbol
 _atom_site_label
 _atom_site_symmetry_multiplicity
 _atom_site_fract_x
 _atom_site_fract_y
 _atom_site_fract_z
 _atom_site_occupancy
  C  C0  1  0.00000000  0.50000000  0.50000000  1
  C  C1  1  0.00000000  0.00000000  0.50000000  1
  Ni  Ni2  1  0.00000000  0.00000000  0.00000000  1
  Cu  Cu3  1  0.50000000  0.50000000  0.00000000  1
  Cu  Cu4  1  0.00000000  0.50000000  0.00000000  1
  Cu  Cu5  1  0.50000000  0.00000000  0.00000000  1
  C  C6  1  0.52727000  0.27294200  0.80140000  1
  C  C7  1  0.53485300  0.76057100  0.79710300  1
  C  C8  1  0.02971700  0.25747700  0.78681900  1
  C  C9  1  0.97172000  0.22892600  0.21086600  1
  C  C10  1  0.02828000  0.77107400  0.78913400  1
  C  C11  1  0.97028300  0.74252300  0.21318100  1
  C  C12  1  0.46514700  0.23942900  0.20289700  1
  C  C13  1  0.47273000  0.72705800  0.19860000  1
