# generated using pymatgen
data_Cu12NiC35
_symmetry_space_group_name_H-M   'P 1'
_cell_length_a   7.55184000
_cell_length_b   7.73008917
_cell_length_c   8.15825109
_cell_angle_alpha   103.69962950
_cell_angle_beta   104.57846025
_cell_angle_gamma   87.79952667
_symmetry_Int_Tables_number   1
_chemical_formula_structural   Cu12NiC35
_chemical_formula_sum   'Cu12 Ni1 C35'
_cell_volume   447.68915157
_cell_formula_units_Z   1
loop_
 _symmetry_equiv_pos_site_id
 _symmetry_equiv_pos_as_xyz
  1  'x, y, z'
loop_
 _atom_site_type_symbol
 _atom_site_label
 _atom_site_symmetry_multiplicity
 _atom_site_fract_x
 _atom_site_fract_y
 _atom_site_fract_z
 _atom_site_occupancy
  C  C0  1  0.99678300  0.99366100  0.50005100  1
  C  C1  1  0.93027000  0.61726700  0.88269400  1
  C  C2  1  0.69340000  0.44963000  0.04119900  1
  C  C3  1  0.61275400  0.06406200  0.43681800  1
  C  C4  1  0.47284000  0.30686300  0.19297100  1
  C  C5  1  0.53836100  0.70531600  0.79717000  1
  C  C6  1  0.22332300  0.14978000  0.35183600  1
  C  C7  1  0.08409400  0.39085300  0.11458200  1
  C  C8  1  0.15885400  0.76826200  0.72556100  1
  Ni  Ni9  1  0.99624700  0.00318300  0.00103200  1
  Cu  Cu10  1  0.91913600  0.61150900  0.37809400  1
  Cu  Cu11  1  0.76508500  0.85008000  0.15643500  1
  Cu  Cu12  1  0.84628700  0.23181700  0.77053400  1
  Cu  Cu13  1  0.69482300  0.45512500  0.53310700  1
  Cu  Cu14  1  0.53614300  0.69673600  0.31064300  1
  Cu  Cu15  1  0.38071000  0.92604000  0.07603000  1
  Cu  Cu16  1  0.61532300  0.07098800  0.92027300  1
  Cu  Cu17  1  0.46440800  0.30564100  0.69414800  1
  Cu  Cu18  1  0.30963500  0.53736900  0.46302800  1
  Cu  Cu19  1  0.15194700  0.76949900  0.23076800  1
  Cu  Cu20  1  0.23284400  0.15951300  0.84564800  1
  Cu  Cu21  1  0.07777800  0.38872300  0.61567200  1
  C  C22  1  0.00335600  0.96875100  0.24555900  1
  C  C23  1  0.93754700  0.62310000  0.14658500  1
  C  C24  1  0.92801000  0.59007400  0.61551600  1
  C  C25  1  0.85300900  0.25108700  0.54390800  1
  C  C26  1  0.75320100  0.83579500  0.38051300  1
  C  C27  1  0.69636100  0.48078500  0.29018200  1
  C  C28  1  0.83183000  0.21816900  0.99345400  1
  C  C29  1  0.59498100  0.06756100  0.14770800  1
  C  C30  1  0.75769500  0.86257300  0.92635800  1
  C  C31  1  0.53322100  0.72602300  0.07644400  1
  C  C32  1  0.69379800  0.43442600  0.78418500  1
  C  C33  1  0.63389700  0.08756200  0.69804600  1
  C  C34  1  0.54165300  0.65608300  0.54242600  1
  C  C35  1  0.47599300  0.30767700  0.46361000  1
  C  C36  1  0.36635600  0.91710800  0.30230800  1
  C  C37  1  0.31128700  0.56303400  0.23527100  1
  C  C38  1  0.46726400  0.27742100  0.92183000  1
  C  C39  1  0.24036300  0.14272900  0.08139500  1
  C  C40  1  0.39453900  0.93177600  0.84983000  1
  C  C41  1  0.16120200  0.78579100  0.00287300  1
  C  C42  1  0.29500900  0.52884700  0.68851100  1
  C  C43  1  0.22699500  0.18641200  0.61386900  1
  C  C44  1  0.13443400  0.75446800  0.45602300  1
  C  C45  1  0.09265000  0.39410800  0.38827700  1
  C  C46  1  0.05896500  0.37934000  0.84329100  1
  C  C47  1  0.00807300  0.03449000  0.75912100  1
