# generated using pymatgen
data_Cu9Ni2C
_symmetry_space_group_name_H-M   'P 1'
_cell_length_a   7.91089200
_cell_length_b   8.38505300
_cell_length_c   12.41948000
_cell_angle_alpha   90.00000000
_cell_angle_beta   90.00000000
_cell_angle_gamma   90.00000000
_symmetry_Int_Tables_number   1
_chemical_formula_structural   Cu9Ni2C
_chemical_formula_sum   'Cu36 Ni8 C4'
_cell_volume   823.82445553
_cell_formula_units_Z   4
loop_
 _symmetry_equiv_pos_site_id
 _symmetry_equiv_pos_as_xyz
  1  'x, y, z'
loop_
 _atom_site_type_symbol
 _atom_site_label
 _atom_site_symmetry_multiplicity
 _atom_site_fract_x
 _atom_site_fract_y
 _atom_site_fract_z
 _atom_site_occupancy
  C  C0  1  0.42561500  0.50000000  0.25000000  1
  C  C1  1  0.07438500  0.00000000  0.75000000  1
  C  C2  1  0.57438500  0.50000000  0.75000000  1
  C  C3  1  0.92561500  0.00000000  0.25000000  1
  Ni  Ni4  1  0.60035700  0.81699100  0.46005900  1
  Ni  Ni5  1  0.89964300  0.68300900  0.96005900  1
  Ni  Ni6  1  0.89964300  0.31699100  0.53994100  1
  Ni  Ni7  1  0.60035700  0.18300900  0.03994100  1
  Ni  Ni8  1  0.39964300  0.18300900  0.53994100  1
  Ni  Ni9  1  0.10035700  0.31699100  0.03994100  1
  Ni  Ni10  1  0.10035700  0.68300900  0.46005900  1
  Ni  Ni11  1  0.39964300  0.81699100  0.96005900  1
  Cu  Cu12  1  0.43819300  0.68188200  0.16882700  1
  Cu  Cu13  1  0.06180700  0.81811800  0.66882700  1
  Cu  Cu14  1  0.06180700  0.18188200  0.83117300  1
  Cu  Cu15  1  0.43819300  0.31811800  0.33117300  1
  Cu  Cu16  1  0.56180700  0.31811800  0.83117300  1
  Cu  Cu17  1  0.93819300  0.18188200  0.33117300  1
  Cu  Cu18  1  0.93819300  0.81811800  0.16882700  1
  Cu  Cu19  1  0.56180700  0.68188200  0.66882700  1
  Cu  Cu20  1  0.72931900  0.50000000  0.25000000  1
  Cu  Cu21  1  0.77068100  0.00000000  0.75000000  1
  Cu  Cu22  1  0.27068100  0.50000000  0.75000000  1
  Cu  Cu23  1  0.22931900  0.00000000  0.25000000  1
  Cu  Cu24  1  0.53430800  0.62142100  0.40293800  1
  Cu  Cu25  1  0.96569200  0.87857900  0.90293800  1
  Cu  Cu26  1  0.96569200  0.12142100  0.59706200  1
  Cu  Cu27  1  0.53430800  0.37857900  0.09706200  1
  Cu  Cu28  1  0.46569200  0.37857900  0.59706200  1
  Cu  Cu29  1  0.03430800  0.12142100  0.09706200  1
  Cu  Cu30  1  0.03430800  0.87857900  0.40293800  1
  Cu  Cu31  1  0.46569200  0.62142100  0.90293800  1
  Cu  Cu32  1  0.38224300  0.89322400  0.46248100  1
  Cu  Cu33  1  0.11775700  0.60677600  0.96248100  1
  Cu  Cu34  1  0.11775700  0.39322400  0.53751900  1
  Cu  Cu35  1  0.38224300  0.10677600  0.03751900  1
  Cu  Cu36  1  0.61775700  0.10677600  0.53751900  1
  Cu  Cu37  1  0.88224300  0.39322400  0.03751900  1
  Cu  Cu38  1  0.88224300  0.60677600  0.46248100  1
  Cu  Cu39  1  0.61775700  0.89322400  0.96248100  1
  Cu  Cu40  1  0.68271600  0.90410700  0.33594600  1
  Cu  Cu41  1  0.81728400  0.59589300  0.83594600  1
  Cu  Cu42  1  0.81728400  0.40410700  0.66405400  1
  Cu  Cu43  1  0.68271600  0.09589300  0.16405400  1
  Cu  Cu44  1  0.31728400  0.09589300  0.66405400  1
  Cu  Cu45  1  0.18271600  0.40410700  0.16405400  1
  Cu  Cu46  1  0.18271600  0.59589300  0.33594600  1
  Cu  Cu47  1  0.31728400  0.90410700  0.83594600  1
