# generated using pymatgen
data_Cu5NiC2
_symmetry_space_group_name_H-M   'P 1'
_cell_length_a   5.06356600
_cell_length_b   4.71597100
_cell_length_c   18.04241585
_cell_angle_alpha   74.83782427
_cell_angle_beta   90.00000000
_cell_angle_gamma   90.00000000
_symmetry_Int_Tables_number   1
_chemical_formula_structural   Cu5NiC2
_chemical_formula_sum   'Cu20 Ni4 C8'
_cell_volume   415.84819412
_cell_formula_units_Z   4
loop_
 _symmetry_equiv_pos_site_id
 _symmetry_equiv_pos_as_xyz
  1  'x, y, z'
loop_
 _atom_site_type_symbol
 _atom_site_label
 _atom_site_symmetry_multiplicity
 _atom_site_fract_x
 _atom_site_fract_y
 _atom_site_fract_z
 _atom_site_occupancy
  C  C0  1  0.46997900  0.73508900  0.28848500  1
  C  C1  1  0.00163900  0.28697100  0.71268600  1
  C  C2  1  0.99836100  0.28697100  0.21268600  1
  C  C3  1  0.01742600  0.91475500  0.55675600  1
  C  C4  1  0.50977900  0.05304900  0.45085000  1
  C  C5  1  0.53002100  0.73508900  0.78848500  1
  C  C6  1  0.98257400  0.91475500  0.05675600  1
  C  C7  1  0.49022100  0.05304900  0.95085000  1
  Ni  Ni8  1  0.20555600  0.95974200  0.28115900  1
  Ni  Ni9  1  0.11275200  0.61914700  0.62588400  1
  Ni  Ni10  1  0.88724800  0.61914700  0.12588400  1
  Ni  Ni11  1  0.79444400  0.95974200  0.78115900  1
  Cu  Cu12  1  0.68245500  0.17846200  0.03564300  1
  Cu  Cu13  1  0.64396000  0.87038400  0.37104100  1
  Cu  Cu14  1  0.13471200  0.12831100  0.12603900  1
  Cu  Cu15  1  0.68330200  0.02485400  0.21408000  1
  Cu  Cu16  1  0.16992200  0.24002600  0.96989600  1
  Cu  Cu17  1  0.67515800  0.53474700  0.71488100  1
  Cu  Cu18  1  0.67953500  0.74478600  0.53525000  1
  Cu  Cu19  1  0.18196800  0.81833900  0.46653900  1
  Cu  Cu20  1  0.19870300  0.47047400  0.78273200  1
  Cu  Cu21  1  0.63609800  0.39201700  0.87015600  1
  Cu  Cu22  1  0.83007800  0.24002600  0.46989600  1
  Cu  Cu23  1  0.32484200  0.53474700  0.21488100  1
  Cu  Cu24  1  0.31754500  0.17846200  0.53564300  1
  Cu  Cu25  1  0.32046500  0.74478600  0.03525000  1
  Cu  Cu26  1  0.80129700  0.47047400  0.28273200  1
  Cu  Cu27  1  0.36390200  0.39201700  0.37015600  1
  Cu  Cu28  1  0.35604000  0.87038400  0.87104100  1
  Cu  Cu29  1  0.86528800  0.12831100  0.62603900  1
  Cu  Cu30  1  0.31669800  0.02485400  0.71408000  1
  Cu  Cu31  1  0.81803200  0.81833900  0.96653900  1
