# generated using pymatgen
data_Cu7(NiC6)2
_symmetry_space_group_name_H-M   'P 1'
_cell_length_a   13.55155586
_cell_length_b   13.55155586
_cell_length_c   13.55155586
_cell_angle_alpha   154.14900120
_cell_angle_beta   154.14900120
_cell_angle_gamma   36.88307043
_symmetry_Int_Tables_number   1
_chemical_formula_structural   Cu7(NiC6)2
_chemical_formula_sum   'Cu14 Ni4 C24'
_cell_volume   472.49973710
_cell_formula_units_Z   2
loop_
 _symmetry_equiv_pos_site_id
 _symmetry_equiv_pos_as_xyz
  1  'x, y, z'
loop_
 _atom_site_type_symbol
 _atom_site_label
 _atom_site_symmetry_multiplicity
 _atom_site_fract_x
 _atom_site_fract_y
 _atom_site_fract_z
 _atom_site_occupancy
  Ni  Ni0  1  0.83356300  0.83356300  0.00000000  1
  Ni  Ni1  1  0.91643700  0.41643700  0.50000000  1
  Ni  Ni2  1  0.58356300  0.08356300  0.50000000  1
  Ni  Ni3  1  0.16643700  0.16643700  0.00000000  1
  Cu  Cu4  1  0.37500000  0.62500000  0.25000000  1
  Cu  Cu5  1  0.37500000  0.12500000  0.75000000  1
  Cu  Cu6  1  0.70825300  0.95815600  0.75009700  1
  Cu  Cu7  1  0.20806000  0.95815600  0.24990300  1
  Cu  Cu8  1  0.50000000  0.50000000  0.00000000  1
  Cu  Cu9  1  0.04184400  0.79194000  0.75009700  1
  Cu  Cu10  1  0.04184400  0.29174700  0.24990300  1
  Cu  Cu11  1  0.87500000  0.62500000  0.25000000  1
  Cu  Cu12  1  0.37500000  0.62500000  0.75000000  1
  Cu  Cu13  1  0.70815600  0.95825300  0.25009700  1
  Cu  Cu14  1  0.70815600  0.45806000  0.74990300  1
  Cu  Cu15  1  0.25000000  0.75000000  0.50000000  1
  Cu  Cu16  1  0.04174700  0.29184400  0.74990300  1
  Cu  Cu17  1  0.54194000  0.29184400  0.25009700  1
  C  C18  1  0.14244600  0.37166300  0.77078300  1
  C  C19  1  0.60088000  0.37166300  0.22921700  1
  C  C20  1  0.14912000  0.87833700  0.27078300  1
  C  C21  1  0.60755500  0.87833700  0.72921700  1
  C  C22  1  0.45412800  0.17954200  0.72541400  1
  C  C23  1  0.45412800  0.72871500  0.27458600  1
  C  C24  1  0.96183400  0.73261600  0.77078300  1
  C  C25  1  0.96183400  0.19105100  0.22921700  1
  C  C26  1  0.26738400  0.03816600  0.22921700  1
  C  C27  1  0.80894900  0.03816600  0.77078300  1
  C  C28  1  0.27128500  0.54587200  0.72541400  1
  C  C29  1  0.82045800  0.54587200  0.27458600  1
  C  C30  1  0.12166300  0.39244500  0.27078300  1
  C  C31  1  0.12166300  0.85088000  0.72921700  1
  C  C32  1  0.62833700  0.39912000  0.77078300  1
  C  C33  1  0.62833700  0.85755500  0.22921700  1
  C  C34  1  0.92954200  0.70412800  0.22541400  1
  C  C35  1  0.47871500  0.70412800  0.77458600  1
  C  C36  1  0.94105100  0.21183400  0.72921700  1
  C  C37  1  0.48261600  0.21183400  0.27078300  1
  C  C38  1  0.78816600  0.05894900  0.27078300  1
  C  C39  1  0.78816600  0.51738400  0.72921700  1
  C  C40  1  0.29587200  0.07045800  0.77458600  1
  C  C41  1  0.29587200  0.52128500  0.22541400  1
