# generated using pymatgen
data_Cu4Ni5C11
_symmetry_space_group_name_H-M   'P 1'
_cell_length_a   8.18790100
_cell_length_b   8.77510800
_cell_length_c   13.09771070
_cell_angle_alpha   73.46520342
_cell_angle_beta   90.00000000
_cell_angle_gamma   90.00000000
_symmetry_Int_Tables_number   1
_chemical_formula_structural   Cu4Ni5C11
_chemical_formula_sum   'Cu16 Ni20 C44'
_cell_volume   902.15092035
_cell_formula_units_Z   4
loop_
 _symmetry_equiv_pos_site_id
 _symmetry_equiv_pos_as_xyz
  1  'x, y, z'
loop_
 _atom_site_type_symbol
 _atom_site_label
 _atom_site_symmetry_multiplicity
 _atom_site_fract_x
 _atom_site_fract_y
 _atom_site_fract_z
 _atom_site_occupancy
  C  C0  1  0.26077000  0.92137800  0.73602100  1
  C  C1  1  0.76077000  0.07862200  0.76397900  1
  C  C2  1  0.73923000  0.07862200  0.26397900  1
  C  C3  1  0.23923000  0.92137800  0.23602100  1
  Ni  Ni4  1  0.90659200  0.72120700  0.81071900  1
  Ni  Ni5  1  0.40659200  0.27879300  0.68928100  1
  Ni  Ni6  1  0.09340800  0.27879300  0.18928100  1
  Ni  Ni7  1  0.59340800  0.72120700  0.31071900  1
  Ni  Ni8  1  0.68588200  0.54866000  0.89489100  1
  Ni  Ni9  1  0.18588200  0.45134000  0.60510900  1
  Ni  Ni10  1  0.31411800  0.45134000  0.10510900  1
  Ni  Ni11  1  0.81411800  0.54866000  0.39489100  1
  Ni  Ni12  1  0.77969100  0.76485000  0.97022800  1
  Ni  Ni13  1  0.27969100  0.23515000  0.52977200  1
  Ni  Ni14  1  0.22030900  0.23515000  0.02977200  1
  Ni  Ni15  1  0.72030900  0.76485000  0.47022800  1
  Ni  Ni16  1  0.93816900  0.77057100  0.13058600  1
  Ni  Ni17  1  0.43816900  0.22942900  0.36941400  1
  Ni  Ni18  1  0.06183100  0.22942900  0.86941400  1
  Ni  Ni19  1  0.56183100  0.77057100  0.63058600  1
  Ni  Ni20  1  0.72295200  0.96161200  0.07082400  1
  Ni  Ni21  1  0.22295200  0.03838800  0.42917600  1
  Ni  Ni22  1  0.27704800  0.03838800  0.92917600  1
  Ni  Ni23  1  0.77704800  0.96161200  0.57082400  1
  Cu  Cu24  1  0.10628000  0.61556200  0.20329600  1
  Cu  Cu25  1  0.60628000  0.38443800  0.29670400  1
  Cu  Cu26  1  0.89372000  0.38443800  0.79670400  1
  Cu  Cu27  1  0.39372000  0.61556200  0.70329600  1
  Cu  Cu28  1  0.52963300  0.10411600  0.05726300  1
  Cu  Cu29  1  0.02963300  0.89588400  0.44273700  1
  Cu  Cu30  1  0.47036700  0.89588400  0.94273700  1
  Cu  Cu31  1  0.97036700  0.10411600  0.55726300  1
  Cu  Cu32  1  0.04709700  0.68321000  0.69441600  1
  Cu  Cu33  1  0.54709700  0.31679000  0.80558400  1
  Cu  Cu34  1  0.95290300  0.31679000  0.30558400  1
  Cu  Cu35  1  0.45290300  0.68321000  0.19441600  1
  Cu  Cu36  1  0.49524900  0.40321100  0.94763700  1
  Cu  Cu37  1  0.99524900  0.59678900  0.55236300  1
  Cu  Cu38  1  0.50475100  0.59678900  0.05236300  1
  Cu  Cu39  1  0.00475100  0.40321100  0.44763700  1
  C  C40  1  0.81694900  0.58039400  0.82315700  1
  C  C41  1  0.31694900  0.41960600  0.67684300  1
  C  C42  1  0.18305100  0.41960600  0.17684300  1
  C  C43  1  0.68305100  0.58039400  0.32315700  1
  C  C44  1  0.66067200  0.63908600  0.96333500  1
  C  C45  1  0.16067200  0.36091400  0.53666500  1
  C  C46  1  0.33932800  0.36091400  0.03666500  1
  C  C47  1  0.83932800  0.63908600  0.46333500  1
  C  C48  1  0.86721800  0.82442300  0.86775800  1
  C  C49  1  0.36721800  0.17557700  0.63224200  1
  C  C50  1  0.13278200  0.17557700  0.13224200  1
  C  C51  1  0.63278200  0.82442300  0.36775800  1
  C  C52  1  0.68569300  0.90044900  0.98803000  1
  C  C53  1  0.18569300  0.09955100  0.51197000  1
  C  C54  1  0.31430700  0.09955100  0.01197000  1
  C  C55  1  0.81430700  0.90044900  0.48803000  1
  C  C56  1  0.89767500  0.69874700  0.05538800  1
  C  C57  1  0.39767500  0.30125300  0.44461200  1
  C  C58  1  0.10232500  0.30125300  0.94461200  1
  C  C59  1  0.60232500  0.69874700  0.55538800  1
  C  C60  1  0.85226800  0.90373100  0.14027300  1
  C  C61  1  0.35226800  0.09626900  0.35972700  1
  C  C62  1  0.14773200  0.09626900  0.85972700  1
  C  C63  1  0.64773200  0.90373100  0.64027300  1
  C  C64  1  0.06412400  0.72074300  0.20274500  1
  C  C65  1  0.56412400  0.27925700  0.29725500  1
  C  C66  1  0.93587600  0.27925700  0.79725500  1
  C  C67  1  0.43587600  0.72074300  0.70274500  1
  C  C68  1  0.63628200  0.08151500  0.09351600  1
  C  C69  1  0.13628200  0.91848500  0.40648400  1
  C  C70  1  0.36371800  0.91848500  0.90648400  1
  C  C71  1  0.86371800  0.08151500  0.59351600  1
  C  C72  1  0.03123300  0.75845300  0.73804100  1
  C  C73  1  0.53123300  0.24154700  0.76195900  1
  C  C74  1  0.96876700  0.24154700  0.26195900  1
  C  C75  1  0.46876700  0.75845300  0.23804100  1
  C  C76  1  0.58546600  0.42381900  0.89369600  1
  C  C77  1  0.08546600  0.57618100  0.60630400  1
  C  C78  1  0.41453400  0.57618100  0.10630400  1
  C  C79  1  0.91453400  0.42381900  0.39369600  1
