# generated using pymatgen
data_Cu8NiC14
_symmetry_space_group_name_H-M   'P 1'
_cell_length_a   7.73934700
_cell_length_b   10.29865300
_cell_length_c   14.96050000
_cell_angle_alpha   90.00000000
_cell_angle_beta   90.00000000
_cell_angle_gamma   90.00000000
_symmetry_Int_Tables_number   1
_chemical_formula_structural   Cu8NiC14
_chemical_formula_sum   'Cu32 Ni4 C56'
_cell_volume   1192.42439645
_cell_formula_units_Z   4
loop_
 _symmetry_equiv_pos_site_id
 _symmetry_equiv_pos_as_xyz
  1  'x, y, z'
loop_
 _atom_site_type_symbol
 _atom_site_label
 _atom_site_symmetry_multiplicity
 _atom_site_fract_x
 _atom_site_fract_y
 _atom_site_fract_z
 _atom_site_occupancy
  C  C0  1  0.19786200  0.43421600  0.75000000  1
  C  C1  1  0.80213800  0.56578400  0.25000000  1
  C  C2  1  0.19786200  0.06578400  0.25000000  1
  C  C3  1  0.80213800  0.93421600  0.75000000  1
  C  C4  1  0.65073300  0.28543300  0.75000000  1
  C  C5  1  0.34926700  0.71456700  0.25000000  1
  C  C6  1  0.65073300  0.21456700  0.25000000  1
  C  C7  1  0.34926700  0.78543300  0.75000000  1
  C  C8  1  0.11841400  0.12980400  0.88706400  1
  C  C9  1  0.88158600  0.87019600  0.38706400  1
  C  C10  1  0.11841400  0.37019600  0.11293600  1
  C  C11  1  0.88158600  0.62980400  0.61293600  1
  C  C12  1  0.88158600  0.87019600  0.11293600  1
  C  C13  1  0.11841400  0.12980400  0.61293600  1
  C  C14  1  0.88158600  0.62980400  0.88706400  1
  C  C15  1  0.11841400  0.37019600  0.38706400  1
  C  C16  1  0.73132300  0.34186200  0.67471400  1
  C  C17  1  0.26867700  0.65813800  0.17471400  1
  C  C18  1  0.73132300  0.15813800  0.32528600  1
  C  C19  1  0.26867700  0.84186200  0.82528600  1
  C  C20  1  0.26867700  0.65813800  0.32528600  1
  C  C21  1  0.73132300  0.34186200  0.82528600  1
  C  C22  1  0.26867700  0.84186200  0.67471400  1
  C  C23  1  0.73132300  0.15813800  0.17471400  1
  C  C24  1  0.29094700  0.08500400  0.88776300  1
  C  C25  1  0.70905300  0.91499600  0.38776300  1
  C  C26  1  0.29094700  0.41499600  0.11223700  1
  C  C27  1  0.70905300  0.58500400  0.61223700  1
  C  C28  1  0.70905300  0.91499600  0.11223700  1
  C  C29  1  0.29094700  0.08500400  0.61223700  1
  C  C30  1  0.70905300  0.58500400  0.88776300  1
  C  C31  1  0.29094700  0.41499600  0.38776300  1
  C  C32  1  0.06970400  0.13905400  0.97792600  1
  C  C33  1  0.93029600  0.86094600  0.47792600  1
  C  C34  1  0.06970400  0.36094600  0.02207400  1
  C  C35  1  0.93029600  0.63905400  0.52207400  1
  C  C36  1  0.93029600  0.86094600  0.02207400  1
  C  C37  1  0.06970400  0.13905400  0.52207400  1
  C  C38  1  0.93029600  0.63905400  0.97792600  1
  C  C39  1  0.06970400  0.36094600  0.47792600  1
  C  C40  1  0.39514500  0.55533900  0.91755500  1
  C  C41  1  0.60485500  0.44466100  0.41755500  1
  C  C42  1  0.39514500  0.94466100  0.08244500  1
  C  C43  1  0.60485500  0.05533900  0.58244500  1
  C  C44  1  0.60485500  0.44466100  0.08244500  1
  C  C45  1  0.39514500  0.55533900  0.58244500  1
  C  C46  1  0.60485500  0.05533900  0.91755500  1
  C  C47  1  0.39514500  0.94466100  0.41755500  1
  C  C48  1  0.42381100  0.40072600  0.91825200  1
  C  C49  1  0.57618900  0.59927400  0.41825200  1
  C  C50  1  0.42381100  0.09927400  0.08174800  1
  C  C51  1  0.57618900  0.90072600  0.58174800  1
  C  C52  1  0.57618900  0.59927400  0.08174800  1
  C  C53  1  0.42381100  0.40072600  0.58174800  1
  C  C54  1  0.57618900  0.90072600  0.91825200  1
  C  C55  1  0.42381100  0.09927400  0.41825200  1
  Ni  Ni56  1  0.55812300  0.25000000  0.00000000  1
  Ni  Ni57  1  0.44187700  0.75000000  0.50000000  1
  Ni  Ni58  1  0.44187700  0.75000000  0.00000000  1
  Ni  Ni59  1  0.55812300  0.25000000  0.50000000  1
  Cu  Cu60  1  0.45881400  0.32063300  0.75000000  1
  Cu  Cu61  1  0.54118600  0.67936700  0.25000000  1
  Cu  Cu62  1  0.45881400  0.17936700  0.25000000  1
  Cu  Cu63  1  0.54118600  0.82063300  0.75000000  1
  Cu  Cu64  1  0.69217800  0.14024900  0.75000000  1
  Cu  Cu65  1  0.30782200  0.85975100  0.25000000  1
  Cu  Cu66  1  0.69217800  0.35975100  0.25000000  1
  Cu  Cu67  1  0.30782200  0.64024900  0.75000000  1
  Cu  Cu68  1  0.11504500  0.26538100  0.84557700  1
  Cu  Cu69  1  0.88495500  0.73461900  0.34557700  1
  Cu  Cu70  1  0.11504500  0.23461900  0.15442300  1
  Cu  Cu71  1  0.88495500  0.76538100  0.65442300  1
  Cu  Cu72  1  0.88495500  0.73461900  0.15442300  1
  Cu  Cu73  1  0.11504500  0.26538100  0.65442300  1
  Cu  Cu74  1  0.88495500  0.76538100  0.84557700  1
  Cu  Cu75  1  0.11504500  0.23461900  0.34557700  1
  Cu  Cu76  1  0.00798400  0.02505100  0.84327000  1
  Cu  Cu77  1  0.99201600  0.97494900  0.34327000  1
  Cu  Cu78  1  0.00798400  0.47494900  0.15673000  1
  Cu  Cu79  1  0.99201600  0.52505100  0.65673000  1
  Cu  Cu80  1  0.99201600  0.97494900  0.15673000  1
  Cu  Cu81  1  0.00798400  0.02505100  0.65673000  1
  Cu  Cu82  1  0.99201600  0.52505100  0.84327000  1
  Cu  Cu83  1  0.00798400  0.47494900  0.34327000  1
  Cu  Cu84  1  0.34930700  0.47217600  0.89564500  1
  Cu  Cu85  1  0.65069300  0.52782400  0.39564500  1
  Cu  Cu86  1  0.34930700  0.02782400  0.10435500  1
  Cu  Cu87  1  0.65069300  0.97217600  0.60435500  1
  Cu  Cu88  1  0.65069300  0.52782400  0.10435500  1
  Cu  Cu89  1  0.34930700  0.47217600  0.60435500  1
  Cu  Cu90  1  0.65069300  0.97217600  0.89564500  1
  Cu  Cu91  1  0.34930700  0.02782400  0.39564500  1
