# generated using pymatgen
data_Cu3NiC32
_symmetry_space_group_name_H-M   'P 1'
_cell_length_a   8.42393028
_cell_length_b   8.42393028
_cell_length_c   8.42393082
_cell_angle_alpha   61.67823164
_cell_angle_beta   61.67823164
_cell_angle_gamma   61.67822719
_symmetry_Int_Tables_number   1
_chemical_formula_structural   Cu3NiC32
_chemical_formula_sum   'Cu3 Ni1 C32'
_cell_volume   438.60098482
_cell_formula_units_Z   1
loop_
 _symmetry_equiv_pos_site_id
 _symmetry_equiv_pos_as_xyz
  1  'x, y, z'
loop_
 _atom_site_type_symbol
 _atom_site_label
 _atom_site_symmetry_multiplicity
 _atom_site_fract_x
 _atom_site_fract_y
 _atom_site_fract_z
 _atom_site_occupancy
  Ni  Ni0  1  0.14510900  0.14510900  0.14510900  1
  C  C1  1  0.99951200  0.99951200  0.99951200  1
  C  C2  1  0.50048400  0.50048400  0.50048400  1
  Cu  Cu3  1  0.85368000  0.85368000  0.85368000  1
  Cu  Cu4  1  0.64686100  0.64686100  0.64686100  1
  Cu  Cu5  1  0.35343900  0.35343900  0.35343900  1
  C  C6  1  0.04963600  0.75012400  0.45177000  1
  C  C7  1  0.75012400  0.45177000  0.04963600  1
  C  C8  1  0.45177000  0.04963600  0.75012400  1
  C  C9  1  0.54807100  0.95073500  0.25052900  1
  C  C10  1  0.25052900  0.54807100  0.95073500  1
  C  C11  1  0.95073500  0.25052900  0.54807100  1
  C  C12  1  0.49555000  0.89514800  0.67590500  1
  C  C13  1  0.89514800  0.67590500  0.49555000  1
  C  C14  1  0.75135200  0.93765500  0.09549400  1
  C  C15  1  0.67590500  0.49555000  0.89514800  1
  C  C16  1  0.39540700  0.98881100  0.17776400  1
  C  C17  1  0.56486500  0.74704600  0.40544100  1
  C  C18  1  0.09549400  0.75135200  0.93765500  1
  C  C19  1  0.40544100  0.56486500  0.74704600  1
  C  C20  1  0.00560700  0.82494700  0.60557700  1
  C  C21  1  0.74704600  0.40544100  0.56486500  1
  C  C22  1  0.06151700  0.90453600  0.24873400  1
  C  C23  1  0.82494700  0.60557700  0.00560700  1
  C  C24  1  0.17776400  0.39540700  0.98881100  1
  C  C25  1  0.93765500  0.09549400  0.75135200  1
  C  C26  1  0.25268800  0.59567100  0.43698600  1
  C  C27  1  0.98881100  0.17776400  0.39540700  1
  C  C28  1  0.59567100  0.43698600  0.25268800  1
  C  C29  1  0.90453600  0.24873400  0.06151700  1
  C  C30  1  0.43698600  0.25268800  0.59567100  1
  C  C31  1  0.60557700  0.00560700  0.82494700  1
  C  C32  1  0.32519600  0.50288100  0.10527300  1
  C  C33  1  0.24873400  0.06151700  0.90453600  1
  C  C34  1  0.10527300  0.32519600  0.50288100  1
  C  C35  1  0.50288100  0.10527300  0.32519600  1
