# generated using pymatgen
data_Cu14Ni2C9
_symmetry_space_group_name_H-M   'P 1'
_cell_length_a   6.63206800
_cell_length_b   5.02636300
_cell_length_c   8.46242836
_cell_angle_alpha   85.50202711
_cell_angle_beta   90.00000000
_cell_angle_gamma   90.00000000
_symmetry_Int_Tables_number   1
_chemical_formula_structural   Cu14Ni2C9
_chemical_formula_sum   'Cu14 Ni2 C9'
_cell_volume   281.22775602
_cell_formula_units_Z   1
loop_
 _symmetry_equiv_pos_site_id
 _symmetry_equiv_pos_as_xyz
  1  'x, y, z'
loop_
 _atom_site_type_symbol
 _atom_site_label
 _atom_site_symmetry_multiplicity
 _atom_site_fract_x
 _atom_site_fract_y
 _atom_site_fract_z
 _atom_site_occupancy
  C  C0  1  0.27705100  0.24606000  0.26320000  1
  C  C1  1  0.72294900  0.24606000  0.26320000  1
  C  C2  1  0.77601600  0.75226200  0.73396800  1
  C  C3  1  0.22398400  0.75226200  0.73396800  1
  C  C4  1  0.00000000  0.23438700  0.90304000  1
  C  C5  1  0.00000000  0.78450300  0.34215900  1
  C  C6  1  0.50000000  0.21283500  0.66475700  1
  C  C7  1  0.50000000  0.73468100  0.41901600  1
  C  C8  1  0.00000000  0.27707200  0.58814700  1
  Ni  Ni9  1  0.00000000  0.70413700  0.03675400  1
  Ni  Ni10  1  0.50000000  0.28998500  0.95344200  1
  Cu  Cu11  1  0.00000000  0.95038200  0.06935600  1
  Cu  Cu12  1  0.50000000  0.32655200  0.09908800  1
  Cu  Cu13  1  0.00000000  0.51621000  0.15217800  1
  Cu  Cu14  1  0.31233300  0.83762800  0.32720500  1
  Cu  Cu15  1  0.68766700  0.83762800  0.32720500  1
  Cu  Cu16  1  0.00000000  0.18743900  0.41761300  1
  Cu  Cu17  1  0.50000000  0.41820900  0.44247200  1
  Cu  Cu18  1  0.00000000  0.58896200  0.57665300  1
  Cu  Cu19  1  0.50000000  0.83169300  0.59076100  1
  Cu  Cu20  1  0.18245500  0.16928500  0.68887900  1
  Cu  Cu21  1  0.81754500  0.16928500  0.68887900  1
  Cu  Cu22  1  0.50000000  0.48582400  0.83997300  1
  Cu  Cu23  1  0.00000000  0.63651700  0.89143900  1
  Cu  Cu24  1  0.50000000  0.05457400  0.89748900  1
