# generated using pymatgen
data_CuNiC32
_symmetry_space_group_name_H-M   'P 1'
_cell_length_a   12.72371100
_cell_length_b   12.72371100
_cell_length_c   5.75980400
_cell_angle_alpha   90.00000000
_cell_angle_beta   90.00000000
_cell_angle_gamma   90.00000000
_symmetry_Int_Tables_number   1
_chemical_formula_structural   CuNiC32
_chemical_formula_sum   'Cu2 Ni2 C64'
_cell_volume   932.47092149
_cell_formula_units_Z   2
loop_
 _symmetry_equiv_pos_site_id
 _symmetry_equiv_pos_as_xyz
  1  'x, y, z'
loop_
 _atom_site_type_symbol
 _atom_site_label
 _atom_site_symmetry_multiplicity
 _atom_site_fract_x
 _atom_site_fract_y
 _atom_site_fract_z
 _atom_site_occupancy
  Ni  Ni0  1  0.50000000  0.50000000  0.00000000  1
  Ni  Ni1  1  0.00000000  0.00000000  0.50000000  1
  Cu  Cu2  1  0.50000000  0.00000000  0.25000000  1
  Cu  Cu3  1  0.00000000  0.50000000  0.75000000  1
  C  C4  1  0.40774100  0.71482000  0.46559400  1
  C  C5  1  0.90774100  0.78518000  0.96559400  1
  C  C6  1  0.71482000  0.59225900  0.53440600  1
  C  C7  1  0.21482000  0.90774100  0.03440600  1
  C  C8  1  0.59225900  0.28518000  0.46559400  1
  C  C9  1  0.09225900  0.21482000  0.96559400  1
  C  C10  1  0.28518000  0.40774100  0.53440600  1
  C  C11  1  0.78518000  0.09225900  0.03440600  1
  C  C12  1  0.33592200  0.13538500  0.49186300  1
  C  C13  1  0.83592200  0.36461500  0.99186300  1
  C  C14  1  0.13538500  0.66407800  0.50813700  1
  C  C15  1  0.63538500  0.83592200  0.00813700  1
  C  C16  1  0.66407800  0.86461500  0.49186300  1
  C  C17  1  0.16407800  0.63538500  0.99186300  1
  C  C18  1  0.86461500  0.33592200  0.50813700  1
  C  C19  1  0.36461500  0.16407800  0.00813700  1
  C  C20  1  0.28530900  0.02290100  0.46391700  1
  C  C21  1  0.78530900  0.47709900  0.96391700  1
  C  C22  1  0.02290100  0.71469100  0.53608300  1
  C  C23  1  0.52290100  0.78530900  0.03608300  1
  C  C24  1  0.71469100  0.97709900  0.46391700  1
  C  C25  1  0.21469100  0.52290100  0.96391700  1
  C  C26  1  0.97709900  0.28530900  0.53608300  1
  C  C27  1  0.47709900  0.21469100  0.03608300  1
  C  C28  1  0.43503600  0.85100300  0.49165100  1
  C  C29  1  0.93503600  0.64899700  0.99165100  1
  C  C30  1  0.85100300  0.56496400  0.50834900  1
  C  C31  1  0.35100300  0.93503600  0.00834900  1
  C  C32  1  0.56496400  0.14899700  0.49165100  1
  C  C33  1  0.06496400  0.35100300  0.99165100  1
  C  C34  1  0.14899700  0.43503600  0.50834900  1
  C  C35  1  0.64899700  0.06496400  0.00834900  1
  C  C36  1  0.27290600  0.69231500  0.49817600  1
  C  C37  1  0.77290600  0.80768500  0.99817600  1
  C  C38  1  0.69231500  0.72709400  0.50182400  1
  C  C39  1  0.19231500  0.77290600  0.00182400  1
  C  C40  1  0.72709400  0.30768500  0.49817600  1
  C  C41  1  0.22709400  0.19231500  0.99817600  1
  C  C42  1  0.30768500  0.27290600  0.50182400  1
  C  C43  1  0.80768500  0.22709400  0.00182400  1
  C  C44  1  0.47585300  0.64484600  0.67855900  1
  C  C45  1  0.97585300  0.85515400  0.17855900  1
  C  C46  1  0.64484600  0.52414700  0.32144100  1
  C  C47  1  0.14484600  0.97585300  0.82144100  1
  C  C48  1  0.52414700  0.35515400  0.67855900  1
  C  C49  1  0.02414700  0.14484600  0.17855900  1
  C  C50  1  0.35515400  0.47585300  0.32144100  1
  C  C51  1  0.85515400  0.02414700  0.82144100  1
  C  C52  1  0.45015700  0.67482400  0.19004500  1
  C  C53  1  0.95015700  0.82517600  0.69004500  1
  C  C54  1  0.67482400  0.54984300  0.80995500  1
  C  C55  1  0.17482400  0.95015700  0.30995500  1
  C  C56  1  0.54984300  0.32517600  0.19004500  1
  C  C57  1  0.04984300  0.17482400  0.69004500  1
  C  C58  1  0.32517600  0.45015700  0.80995500  1
  C  C59  1  0.82517600  0.04984300  0.30995500  1
  C  C60  1  0.35308200  0.05969700  0.48042400  1
  C  C61  1  0.85308200  0.44030300  0.98042400  1
  C  C62  1  0.05969700  0.64691800  0.51957600  1
  C  C63  1  0.55969700  0.85308200  0.01957600  1
  C  C64  1  0.64691800  0.94030300  0.48042400  1
  C  C65  1  0.14691800  0.55969700  0.98042400  1
  C  C66  1  0.94030300  0.35308200  0.51957600  1
  C  C67  1  0.44030300  0.14691800  0.01957600  1
