# generated using pymatgen
data_Cu4Ni5C14
_symmetry_space_group_name_H-M   'P 1'
_cell_length_a   8.88094000
_cell_length_b   10.97757500
_cell_length_c   18.50690000
_cell_angle_alpha   90.00000000
_cell_angle_beta   90.00000000
_cell_angle_gamma   90.00000000
_symmetry_Int_Tables_number   1
_chemical_formula_structural   Cu4Ni5C14
_chemical_formula_sum   'Cu32 Ni40 C112'
_cell_volume   1804.25961021
_cell_formula_units_Z   8
loop_
 _symmetry_equiv_pos_site_id
 _symmetry_equiv_pos_as_xyz
  1  'x, y, z'
loop_
 _atom_site_type_symbol
 _atom_site_label
 _atom_site_symmetry_multiplicity
 _atom_site_fract_x
 _atom_site_fract_y
 _atom_site_fract_z
 _atom_site_occupancy
  C  C0  1  0.93350300  0.09214500  0.56789400  1
  C  C1  1  0.43350300  0.90785500  0.93210600  1
  C  C2  1  0.06649700  0.40785500  0.06789400  1
  C  C3  1  0.56649700  0.59214500  0.43210600  1
  C  C4  1  0.06649700  0.90785500  0.43210600  1
  C  C5  1  0.56649700  0.09214500  0.06789400  1
  C  C6  1  0.93350300  0.59214500  0.93210600  1
  C  C7  1  0.43350300  0.40785500  0.56789400  1
  C  C8  1  0.91801000  0.07464900  0.74054900  1
  C  C9  1  0.41801000  0.92535100  0.75945100  1
  C  C10  1  0.08199000  0.42535100  0.24054900  1
  C  C11  1  0.58199000  0.57464900  0.25945100  1
  C  C12  1  0.08199000  0.92535100  0.25945100  1
  C  C13  1  0.58199000  0.07464900  0.24054900  1
  C  C14  1  0.91801000  0.57464900  0.75945100  1
  C  C15  1  0.41801000  0.42535100  0.74054900  1
  C  C16  1  0.62233600  0.09695000  0.45827800  1
  C  C17  1  0.12233600  0.90305000  0.04172200  1
  C  C18  1  0.37766400  0.40305000  0.95827800  1
  C  C19  1  0.87766400  0.59695000  0.54172200  1
  C  C20  1  0.37766400  0.90305000  0.54172200  1
  C  C21  1  0.87766400  0.09695000  0.95827800  1
  C  C22  1  0.62233600  0.59695000  0.04172200  1
  C  C23  1  0.12233600  0.40305000  0.45827800  1
  Ni  Ni24  1  0.67767700  0.21810000  0.68333200  1
  Ni  Ni25  1  0.17767700  0.78190000  0.81666800  1
  Ni  Ni26  1  0.32232300  0.28190000  0.18333200  1
  Ni  Ni27  1  0.82232300  0.71810000  0.31666800  1
  Ni  Ni28  1  0.32232300  0.78190000  0.31666800  1
  Ni  Ni29  1  0.82232300  0.21810000  0.18333200  1
  Ni  Ni30  1  0.67767700  0.71810000  0.81666800  1
  Ni  Ni31  1  0.17767700  0.28190000  0.68333200  1
  Ni  Ni32  1  0.41546600  0.15282700  0.65718900  1
  Ni  Ni33  1  0.91546600  0.84717300  0.84281100  1
  Ni  Ni34  1  0.58453400  0.34717300  0.15718900  1
  Ni  Ni35  1  0.08453400  0.65282700  0.34281100  1
  Ni  Ni36  1  0.58453400  0.84717300  0.34281100  1
  Ni  Ni37  1  0.08453400  0.15282700  0.15718900  1
  Ni  Ni38  1  0.41546600  0.65282700  0.84281100  1
  Ni  Ni39  1  0.91546600  0.34717300  0.65718900  1
  Ni  Ni40  1  0.62713000  0.00096000  0.63656100  1
  Ni  Ni41  1  0.12713000  0.99904000  0.86343900  1
  Ni  Ni42  1  0.37287000  0.49904000  0.13656100  1
  Ni  Ni43  1  0.87287000  0.50096000  0.36343900  1
  Ni  Ni44  1  0.37287000  0.99904000  0.36343900  1
  Ni  Ni45  1  0.87287000  0.00096000  0.13656100  1
  Ni  Ni46  1  0.62713000  0.50096000  0.86343900  1
  Ni  Ni47  1  0.12713000  0.49904000  0.63656100  1
  Ni  Ni48  1  0.71123100  0.79613900  0.68384000  1
  Ni  Ni49  1  0.21123100  0.20386100  0.81616000  1
  Ni  Ni50  1  0.28876900  0.70386100  0.18384000  1
  Ni  Ni51  1  0.78876900  0.29613900  0.31616000  1
  Ni  Ni52  1  0.28876900  0.20386100  0.31616000  1
  Ni  Ni53  1  0.78876900  0.79613900  0.18384000  1
  Ni  Ni54  1  0.71123100  0.29613900  0.81616000  1
  Ni  Ni55  1  0.21123100  0.70386100  0.68384000  1
  Ni  Ni56  1  0.74709900  0.84116200  0.55290700  1
  Ni  Ni57  1  0.24709900  0.15883800  0.94709300  1
  Ni  Ni58  1  0.25290100  0.65883800  0.05290700  1
  Ni  Ni59  1  0.75290100  0.34116200  0.44709300  1
  Ni  Ni60  1  0.25290100  0.15883800  0.44709300  1
  Ni  Ni61  1  0.75290100  0.84116200  0.05290700  1
  Ni  Ni62  1  0.74709900  0.34116200  0.94709300  1
  Ni  Ni63  1  0.24709900  0.65883800  0.55290700  1
  Cu  Cu64  1  0.72349400  0.78846400  0.44875500  1
  Cu  Cu65  1  0.22349400  0.21153600  0.05124500  1
  Cu  Cu66  1  0.27650600  0.71153600  0.94875500  1
  Cu  Cu67  1  0.77650600  0.28846400  0.55124500  1
  Cu  Cu68  1  0.27650600  0.21153600  0.55124500  1
  Cu  Cu69  1  0.77650600  0.78846400  0.94875500  1
  Cu  Cu70  1  0.72349400  0.28846400  0.05124500  1
  Cu  Cu71  1  0.22349400  0.71153600  0.44875500  1
  Cu  Cu72  1  0.97664600  0.84801600  0.55784000  1
  Cu  Cu73  1  0.47664600  0.15198400  0.94216000  1
  Cu  Cu74  1  0.02335400  0.65198400  0.05784000  1
  Cu  Cu75  1  0.52335400  0.34801600  0.44216000  1
  Cu  Cu76  1  0.02335400  0.15198400  0.44216000  1
  Cu  Cu77  1  0.52335400  0.84801600  0.05784000  1
  Cu  Cu78  1  0.97664600  0.34801600  0.94216000  1
  Cu  Cu79  1  0.47664600  0.65198400  0.55784000  1
  Cu  Cu80  1  0.15415300  0.04643500  0.65373800  1
  Cu  Cu81  1  0.65415300  0.95356500  0.84626200  1
  Cu  Cu82  1  0.84584700  0.45356500  0.15373800  1
  Cu  Cu83  1  0.34584700  0.54643500  0.34626200  1
  Cu  Cu84  1  0.84584700  0.95356500  0.34626200  1
  Cu  Cu85  1  0.34584700  0.04643500  0.15373800  1
  Cu  Cu86  1  0.15415300  0.54643500  0.84626200  1
  Cu  Cu87  1  0.65415300  0.45356500  0.65373800  1
  Cu  Cu88  1  0.12430600  0.91308900  0.68072300  1
  Cu  Cu89  1  0.62430600  0.08691100  0.81927700  1
  Cu  Cu90  1  0.87569400  0.58691100  0.18072300  1
  Cu  Cu91  1  0.37569400  0.41308900  0.31927700  1
  Cu  Cu92  1  0.87569400  0.08691100  0.31927700  1
  Cu  Cu93  1  0.37569400  0.91308900  0.18072300  1
  Cu  Cu94  1  0.12430600  0.41308900  0.81927700  1
  Cu  Cu95  1  0.62430600  0.58691100  0.68072300  1
  C  C96  1  0.76163400  0.32530400  0.65256000  1
  C  C97  1  0.26163400  0.67469600  0.84744000  1
  C  C98  1  0.23836600  0.17469600  0.15256000  1
  C  C99  1  0.73836600  0.82530400  0.34744000  1
  C  C100  1  0.23836600  0.67469600  0.34744000  1
  C  C101  1  0.73836600  0.32530400  0.15256000  1
  C  C102  1  0.76163400  0.82530400  0.84744000  1
  C  C103  1  0.26163400  0.17469600  0.65256000  1
  C  C104  1  0.51421200  0.24529400  0.67339400  1
  C  C105  1  0.01421200  0.75470600  0.82660600  1
  C  C106  1  0.48578800  0.25470600  0.17339400  1
  C  C107  1  0.98578800  0.74529400  0.32660600  1
  C  C108  1  0.48578800  0.75470600  0.32660600  1
  C  C109  1  0.98578800  0.24529400  0.17339400  1
  C  C110  1  0.51421200  0.74529400  0.82660600  1
  C  C111  1  0.01421200  0.25470600  0.67339400  1
  C  C112  1  0.71299700  0.20748700  0.76274000  1
  C  C113  1  0.21299700  0.79251300  0.73726000  1
  C  C114  1  0.28700300  0.29251300  0.26274000  1
  C  C115  1  0.78700300  0.70748700  0.23726000  1
  C  C116  1  0.28700300  0.79251300  0.23726000  1
  C  C117  1  0.78700300  0.20748700  0.26274000  1
  C  C118  1  0.71299700  0.70748700  0.73726000  1
  C  C119  1  0.21299700  0.29251300  0.76274000  1
  C  C120  1  0.72346500  0.10749400  0.64694500  1
  C  C121  1  0.22346500  0.89250600  0.85305500  1
  C  C122  1  0.27653500  0.39250600  0.14694500  1
  C  C123  1  0.77653500  0.60749400  0.35305500  1
  C  C124  1  0.27653500  0.89250600  0.35305500  1
  C  C125  1  0.77653500  0.10749400  0.14694500  1
  C  C126  1  0.72346500  0.60749400  0.85305500  1
  C  C127  1  0.22346500  0.39250600  0.64694500  1
  C  C128  1  0.46193300  0.03539700  0.64375100  1
  C  C129  1  0.96193300  0.96460300  0.85624900  1
  C  C130  1  0.53806700  0.46460300  0.14375100  1
  C  C131  1  0.03806700  0.53539700  0.35624900  1
  C  C132  1  0.53806700  0.96460300  0.35624900  1
  C  C133  1  0.03806700  0.03539700  0.14375100  1
  C  C134  1  0.46193300  0.53539700  0.85624900  1
  C  C135  1  0.96193300  0.46460300  0.64375100  1
  C  C136  1  0.65404700  0.91005300  0.69586700  1
  C  C137  1  0.15404700  0.08994700  0.80413300  1
  C  C138  1  0.34595300  0.58994700  0.19586700  1
  C  C139  1  0.84595300  0.41005300  0.30413300  1
  C  C140  1  0.34595300  0.08994700  0.30413300  1
  C  C141  1  0.84595300  0.91005300  0.19586700  1
  C  C142  1  0.65404700  0.41005300  0.80413300  1
  C  C143  1  0.15404700  0.58994700  0.69586700  1
  C  C144  1  0.64516400  0.94490500  0.56484300  1
  C  C145  1  0.14516400  0.05509500  0.93515700  1
  C  C146  1  0.35483600  0.55509500  0.06484300  1
  C  C147  1  0.85483600  0.44490500  0.43515700  1
  C  C148  1  0.35483600  0.05509500  0.43515700  1
  C  C149  1  0.85483600  0.94490500  0.06484300  1
  C  C150  1  0.64516400  0.44490500  0.93515700  1
  C  C151  1  0.14516400  0.55509500  0.56484300  1
  C  C152  1  0.76653700  0.76170100  0.61732700  1
  C  C153  1  0.26653700  0.23829900  0.88267300  1
  C  C154  1  0.23346300  0.73829900  0.11732700  1
  C  C155  1  0.73346300  0.26170100  0.38267300  1
  C  C156  1  0.23346300  0.23829900  0.38267300  1
  C  C157  1  0.73346300  0.76170100  0.11732700  1
  C  C158  1  0.76653700  0.26170100  0.88267300  1
  C  C159  1  0.26653700  0.73829900  0.61732700  1
  C  C160  1  0.68804600  0.75836900  0.49568500  1
  C  C161  1  0.18804600  0.24163100  0.00431500  1
  C  C162  1  0.31195400  0.74163100  0.99568500  1
  C  C163  1  0.81195400  0.25836900  0.50431500  1
  C  C164  1  0.31195400  0.24163100  0.50431500  1
  C  C165  1  0.81195400  0.75836900  0.99568500  1
  C  C166  1  0.68804600  0.25836900  0.00431500  1
  C  C167  1  0.18804600  0.74163100  0.49568500  1
  C  C168  1  0.89792300  0.88619500  0.52880800  1
  C  C169  1  0.39792300  0.11380500  0.97119200  1
  C  C170  1  0.10207700  0.61380500  0.02880800  1
  C  C171  1  0.60207700  0.38619500  0.47119200  1
  C  C172  1  0.10207700  0.11380500  0.47119200  1
  C  C173  1  0.60207700  0.88619500  0.02880800  1
  C  C174  1  0.89792300  0.38619500  0.97119200  1
  C  C175  1  0.39792300  0.61380500  0.52880800  1
  C  C176  1  0.07793700  0.97969900  0.65278100  1
  C  C177  1  0.57793700  0.02030100  0.84721900  1
  C  C178  1  0.92206300  0.52030100  0.15278100  1
  C  C179  1  0.42206300  0.47969900  0.34721900  1
  C  C180  1  0.92206300  0.02030100  0.34721900  1
  C  C181  1  0.42206300  0.97969900  0.15278100  1
  C  C182  1  0.07793700  0.47969900  0.84721900  1
  C  C183  1  0.57793700  0.52030100  0.65278100  1
