# generated using pymatgen
data_Cu4Ni7C3
_symmetry_space_group_name_H-M   'P 1'
_cell_length_a   16.79494300
_cell_length_b   7.28967100
_cell_length_c   12.81241145
_cell_angle_alpha   86.22946916
_cell_angle_beta   90.00000000
_cell_angle_gamma   90.00000000
_symmetry_Int_Tables_number   1
_chemical_formula_structural   Cu4Ni7C3
_chemical_formula_sum   'Cu16 Ni28 C12'
_cell_volume   1565.22312788
_cell_formula_units_Z   4
loop_
 _symmetry_equiv_pos_site_id
 _symmetry_equiv_pos_as_xyz
  1  'x, y, z'
loop_
 _atom_site_type_symbol
 _atom_site_label
 _atom_site_symmetry_multiplicity
 _atom_site_fract_x
 _atom_site_fract_y
 _atom_site_fract_z
 _atom_site_occupancy
  Ni  Ni0  1  0.27181300  0.27709800  0.83163300  1
  Ni  Ni1  1  0.77181300  0.22290200  0.16836700  1
  Ni  Ni2  1  0.72818700  0.72290200  0.16836700  1
  Ni  Ni3  1  0.22818700  0.77709800  0.83163300  1
  Ni  Ni4  1  0.34571800  0.99834800  0.85517200  1
  Ni  Ni5  1  0.84571800  0.50165200  0.14482800  1
  Ni  Ni6  1  0.65428200  0.00165200  0.14482800  1
  Ni  Ni7  1  0.15428200  0.49834800  0.85517200  1
  Ni  Ni8  1  0.42022100  0.93862700  0.87160500  1
  Ni  Ni9  1  0.92022100  0.56137300  0.12839500  1
  Ni  Ni10  1  0.57977900  0.06137300  0.12839500  1
  Ni  Ni11  1  0.07977900  0.43862700  0.87160500  1
  Ni  Ni12  1  0.28993300  0.87888700  0.79862100  1
  Ni  Ni13  1  0.78993300  0.62111300  0.20137900  1
  Ni  Ni14  1  0.71006700  0.12111300  0.20137900  1
  Ni  Ni15  1  0.21006700  0.37888700  0.79862100  1
  Ni  Ni16  1  0.34182700  0.85593300  0.61152400  1
  Ni  Ni17  1  0.84182700  0.64406700  0.38847600  1
  Ni  Ni18  1  0.65817300  0.14406700  0.38847600  1
  Ni  Ni19  1  0.15817300  0.35593300  0.61152400  1
  Ni  Ni20  1  0.55674400  0.92936300  0.81087900  1
  Ni  Ni21  1  0.05674400  0.57063700  0.18912100  1
  Ni  Ni22  1  0.44325600  0.07063700  0.18912100  1
  Ni  Ni23  1  0.94325600  0.42936300  0.81087900  1
  Ni  Ni24  1  0.64237600  0.12316300  0.68863800  1
  Ni  Ni25  1  0.14237600  0.37683700  0.31136200  1
  Ni  Ni26  1  0.35762400  0.87683700  0.31136200  1
  Ni  Ni27  1  0.85762400  0.62316300  0.68863800  1
  C  C28  1  0.50000000  0.50000000  0.00000000  1
  C  C29  1  0.00000000  0.00000000  0.00000000  1
  C  C30  1  0.36711600  0.43027500  0.14287900  1
  C  C31  1  0.86711600  0.06972500  0.85712100  1
  C  C32  1  0.63288400  0.56972500  0.85712100  1
  C  C33  1  0.13288400  0.93027500  0.14287900  1
  C  C34  1  0.50000000  0.50000000  0.50000000  1
  C  C35  1  0.00000000  0.00000000  0.50000000  1
  C  C36  1  0.35384200  0.31440200  0.45963200  1
  C  C37  1  0.85384200  0.18559800  0.54036800  1
  C  C38  1  0.64615800  0.68559800  0.54036800  1
  C  C39  1  0.14615800  0.81440200  0.45963200  1
  Cu  Cu40  1  0.60400100  0.04657700  0.75794400  1
  Cu  Cu41  1  0.10400100  0.45342300  0.24205600  1
  Cu  Cu42  1  0.39599900  0.95342300  0.24205600  1
  Cu  Cu43  1  0.89599900  0.54657700  0.75794400  1
  Cu  Cu44  1  0.33308000  0.18924900  0.84884400  1
  Cu  Cu45  1  0.83308000  0.31075100  0.15115600  1
  Cu  Cu46  1  0.66692000  0.81075100  0.15115600  1
  Cu  Cu47  1  0.16692000  0.68924900  0.84884400  1
  Cu  Cu48  1  0.49272800  0.95938800  0.85673900  1
  Cu  Cu49  1  0.99272800  0.54061200  0.14326100  1
  Cu  Cu50  1  0.50727200  0.04061200  0.14326100  1
  Cu  Cu51  1  0.00727200  0.45938800  0.85673900  1
  Cu  Cu52  1  0.31100900  0.87226000  0.69400700  1
  Cu  Cu53  1  0.81100900  0.62774000  0.30599300  1
  Cu  Cu54  1  0.68899100  0.12774000  0.30599300  1
  Cu  Cu55  1  0.18899100  0.37226000  0.69400700  1
