# generated using pymatgen
data_Cu4Ni3C19
_symmetry_space_group_name_H-M   'P 1'
_cell_length_a   8.63413600
_cell_length_b   9.23073282
_cell_length_c   13.40109839
_cell_angle_alpha   92.56704310
_cell_angle_beta   90.76337497
_cell_angle_gamma   90.97658656
_symmetry_Int_Tables_number   1
_chemical_formula_structural   Cu4Ni3C19
_chemical_formula_sum   'Cu12 Ni9 C57'
_cell_volume   1066.72665558
_cell_formula_units_Z   3
loop_
 _symmetry_equiv_pos_site_id
 _symmetry_equiv_pos_as_xyz
  1  'x, y, z'
loop_
 _atom_site_type_symbol
 _atom_site_label
 _atom_site_symmetry_multiplicity
 _atom_site_fract_x
 _atom_site_fract_y
 _atom_site_fract_z
 _atom_site_occupancy
  C  C0  1  0.14288400  0.23585900  0.84057000  1
  C  C1  1  0.85656900  0.10248100  0.48796400  1
  C  C2  1  0.38470100  0.73801500  0.84063000  1
  C  C3  1  0.38073800  0.40591200  0.50284100  1
  C  C4  1  0.35903600  0.05242400  0.17382400  1
  C  C5  1  0.62519500  0.92564800  0.83206000  1
  C  C6  1  0.62302300  0.59554500  0.49325700  1
  C  C7  1  0.12184300  0.57518100  0.17840700  1
  C  C8  1  0.87683100  0.76103500  0.15850800  1
  Ni  Ni9  1  0.48185500  0.34404400  0.83766000  1
  Ni  Ni10  1  0.51146900  0.99315800  0.49575700  1
  Ni  Ni11  1  0.87062300  0.44945300  0.80854500  1
  Ni  Ni12  1  0.00387700  0.82730600  0.83735600  1
  Ni  Ni13  1  0.00242200  0.50083200  0.49580400  1
  Ni  Ni14  1  0.00807700  0.16600500  0.17187400  1
  Ni  Ni15  1  0.62455200  0.28303000  0.12281500  1
  Ni  Ni16  1  0.12462100  0.88155000  0.52592300  1
  Ni  Ni17  1  0.49881500  0.67140900  0.16743900  1
  Cu  Cu18  1  0.82760300  0.13617700  0.93703600  1
  Cu  Cu19  1  0.30283900  0.01617600  0.73251500  1
  Cu  Cu20  1  0.69981600  0.66256300  0.95809900  1
  Cu  Cu21  1  0.70200900  0.31141100  0.59677400  1
  Cu  Cu22  1  0.19879000  0.53188700  0.71594600  1
  Cu  Cu23  1  0.18440600  0.18893200  0.39707900  1
  Cu  Cu24  1  0.80067100  0.80358300  0.61542600  1
  Cu  Cu25  1  0.81223800  0.48621000  0.27801500  1
  Cu  Cu26  1  0.30861000  0.67241200  0.37984600  1
  Cu  Cu27  1  0.28052300  0.35578500  0.06396400  1
  Cu  Cu28  1  0.69343200  0.98327600  0.26761100  1
  Cu  Cu29  1  0.18977200  0.85156300  0.06166600  1
  C  C30  1  0.12800500  0.98077600  0.75893800  1
  C  C31  1  0.65337100  0.14358100  0.91703800  1
  C  C32  1  0.92737500  0.24611300  0.88196400  1
  C  C33  1  0.25953500  0.33449000  0.95136800  1
  C  C34  1  0.32564500  0.17761300  0.76295500  1
  C  C35  1  0.67739400  0.49674500  0.94374200  1
  C  C36  1  0.66565900  0.15003200  0.56499100  1
  C  C37  1  0.70213900  0.31884500  0.71272300  1
  C  C38  1  0.11477700  0.40050000  0.75795500  1
  C  C39  1  0.70276500  0.01938400  0.38146500  1
  C  C40  1  0.07311500  0.08356600  0.44838900  1
  C  C41  1  0.36812400  0.54635600  0.75055500  1
  C  C42  1  0.87393300  0.69707400  0.93225700  1
  C  C43  1  0.35403300  0.18008300  0.43307100  1
  C  C44  1  0.87537800  0.33593800  0.56107100  1
  C  C45  1  0.58547200  0.75078900  0.90132100  1
  C  C46  1  0.18928600  0.82889100  0.94426700  1
  C  C47  1  0.58918400  0.41436100  0.55228400  1
  C  C48  1  0.18792700  0.51571000  0.59780000  1
  C  C49  1  0.58139700  0.08355700  0.21355500  1
  C  C50  1  0.11629200  0.67558100  0.75011900  1
  C  C51  1  0.17701500  0.15277200  0.28042600  1
  C  C52  1  0.13164300  0.34754600  0.41609300  1
  C  C53  1  0.14983600  0.01435100  0.09131400  1
  C  C54  1  0.87952400  0.98085600  0.91110500  1
  C  C55  1  0.87939000  0.65754600  0.58049500  1
  C  C56  1  0.81230500  0.81925500  0.73256700  1
  C  C57  1  0.85120900  0.32020000  0.25158500  1
  C  C58  1  0.41755500  0.91799800  0.77977600  1
  C  C59  1  0.81707500  0.51184600  0.39488800  1
  C  C60  1  0.42158500  0.58096300  0.43438100  1
  C  C61  1  0.85392000  0.16286700  0.05408800  1
  C  C62  1  0.37529100  0.23346200  0.10877600  1
  C  C63  1  0.13399200  0.63993700  0.40505900  1
  C  C64  1  0.63025100  0.79566200  0.57724600  1
  C  C65  1  0.11913000  0.35513000  0.11899200  1
  C  C66  1  0.63662300  0.50661300  0.24513700  1
  C  C67  1  0.88350400  0.93446300  0.57084600  1
  C  C68  1  0.31490000  0.00365400  0.61429300  1
  C  C69  1  0.91917500  0.58839200  0.22775000  1
  C  C70  1  0.31767700  0.64137200  0.26307700  1
  C  C71  1  0.33685900  0.83955900  0.39952400  1
  C  C72  1  0.36503900  0.50609200  0.08767200  1
  C  C73  1  0.63631100  0.82202400  0.25347800  1
  C  C74  1  0.68456100  0.70003400  0.07488500  1
  C  C75  1  0.08153400  0.74713800  0.10947000  1
  C  C76  1  0.36346600  0.83693200  0.10070200  1
  C  C77  1  0.86199300  0.99449200  0.22333600  1
