# generated using pymatgen
data_Cu3Ni2C23
_symmetry_space_group_name_H-M   'P 1'
_cell_length_a   5.77080760
_cell_length_b   5.77080760
_cell_length_c   9.50576485
_cell_angle_alpha   89.31596558
_cell_angle_beta   89.31596558
_cell_angle_gamma   60.50230574
_symmetry_Int_Tables_number   1
_chemical_formula_structural   Cu3Ni2C23
_chemical_formula_sum   'Cu3 Ni2 C23'
_cell_volume   275.50243446
_cell_formula_units_Z   1
loop_
 _symmetry_equiv_pos_site_id
 _symmetry_equiv_pos_as_xyz
  1  'x, y, z'
loop_
 _atom_site_type_symbol
 _atom_site_label
 _atom_site_symmetry_multiplicity
 _atom_site_fract_x
 _atom_site_fract_y
 _atom_site_fract_z
 _atom_site_occupancy
  C  C0  1  0.32713100  0.32713100  0.88783600  1
  C  C1  1  0.01800600  0.01800600  0.99012200  1
  C  C2  1  0.00879100  0.00879100  0.49990200  1
  C  C3  1  0.66267200  0.66267200  0.40205900  1
  C  C4  1  0.16753100  0.66737600  0.21409600  1
  C  C5  1  0.66737600  0.16753100  0.21409600  1
  C  C6  1  0.82451300  0.82451300  0.71534600  1
  Ni  Ni7  1  0.33199200  0.33199200  0.49095900  1
  Ni  Ni8  1  0.65994900  0.65994900  0.98224700  1
  Cu  Cu9  1  0.17585000  0.17585000  0.21729900  1
  Cu  Cu10  1  0.34002600  0.82379200  0.70981200  1
  Cu  Cu11  1  0.82379200  0.34002600  0.70981200  1
  C  C12  1  0.16342200  0.66683600  0.59681800  1
  C  C13  1  0.47958300  0.47958300  0.34414400  1
  C  C14  1  0.34009400  0.34009400  0.10277200  1
  C  C15  1  0.00740100  0.00740100  0.31387100  1
  C  C16  1  0.99869000  0.99869000  0.80363500  1
  C  C17  1  0.66683600  0.16342200  0.59681800  1
  C  C18  1  0.04054200  0.47745200  0.34506000  1
  C  C19  1  0.47745200  0.04054200  0.34506000  1
  C  C20  1  0.84174000  0.84174000  0.10778400  1
  C  C21  1  0.16672800  0.16672800  0.60095200  1
  C  C22  1  0.51055600  0.95419600  0.84018600  1
  C  C23  1  0.95419600  0.51055600  0.84018600  1
  C  C24  1  0.66399100  0.66399100  0.60306000  1
  C  C25  1  0.33228900  0.83985800  0.10606000  1
  C  C26  1  0.50816500  0.50816500  0.82171800  1
  C  C27  1  0.83985800  0.33228900  0.10606000  1
