# generated using pymatgen
data_Cu11Ni2C5
_symmetry_space_group_name_H-M   'P 1'
_cell_length_a   7.34115400
_cell_length_b   10.24708600
_cell_length_c   14.16053521
_cell_angle_alpha   73.42665322
_cell_angle_beta   90.00000000
_cell_angle_gamma   90.00000000
_symmetry_Int_Tables_number   1
_chemical_formula_structural   Cu11Ni2C5
_chemical_formula_sum   'Cu44 Ni8 C20'
_cell_volume   1020.97775184
_cell_formula_units_Z   4
loop_
 _symmetry_equiv_pos_site_id
 _symmetry_equiv_pos_as_xyz
  1  'x, y, z'
loop_
 _atom_site_type_symbol
 _atom_site_label
 _atom_site_symmetry_multiplicity
 _atom_site_fract_x
 _atom_site_fract_y
 _atom_site_fract_z
 _atom_site_occupancy
  C  C0  1  0.58541300  0.30015100  0.20376100  1
  C  C1  1  0.08541300  0.69984900  0.29623900  1
  C  C2  1  0.41458700  0.69984900  0.79623900  1
  C  C3  1  0.91458700  0.30015100  0.70376100  1
  C  C4  1  0.75719800  0.10071400  0.98848100  1
  C  C5  1  0.25719800  0.89928600  0.51151900  1
  C  C6  1  0.24280200  0.89928600  0.01151900  1
  C  C7  1  0.74280200  0.10071400  0.48848100  1
  C  C8  1  0.29604500  0.56944300  0.07835800  1
  C  C9  1  0.79604500  0.43055700  0.42164200  1
  C  C10  1  0.70395500  0.43055700  0.92164200  1
  C  C11  1  0.20395500  0.56944300  0.57835800  1
  C  C12  1  0.92530000  0.41663400  0.24292900  1
  C  C13  1  0.42530000  0.58336600  0.25707100  1
  C  C14  1  0.07470000  0.58336600  0.75707100  1
  C  C15  1  0.57470000  0.41663400  0.74292900  1
  C  C16  1  0.99413500  0.40047300  0.14148500  1
  C  C17  1  0.49413500  0.59952700  0.35851500  1
  C  C18  1  0.00586500  0.59952700  0.85851500  1
  C  C19  1  0.50586500  0.40047300  0.64148500  1
  Ni  Ni20  1  0.70346700  0.95012700  0.27312300  1
  Ni  Ni21  1  0.20346700  0.04987300  0.22687700  1
  Ni  Ni22  1  0.29653300  0.04987300  0.72687700  1
  Ni  Ni23  1  0.79653300  0.95012700  0.77312300  1
  Ni  Ni24  1  0.73917300  0.74357500  0.07502200  1
  Ni  Ni25  1  0.23917300  0.25642500  0.42497800  1
  Ni  Ni26  1  0.26082700  0.25642500  0.92497800  1
  Ni  Ni27  1  0.76082700  0.74357500  0.57502200  1
  Cu  Cu28  1  0.90787300  0.87380700  0.34052000  1
  Cu  Cu29  1  0.40787300  0.12619300  0.15948000  1
  Cu  Cu30  1  0.09212700  0.12619300  0.65948000  1
  Cu  Cu31  1  0.59212700  0.87380700  0.84052000  1
  Cu  Cu32  1  0.80631800  0.05023100  0.15823100  1
  Cu  Cu33  1  0.30631800  0.94976900  0.34176900  1
  Cu  Cu34  1  0.19368200  0.94976900  0.84176900  1
  Cu  Cu35  1  0.69368200  0.05023100  0.65823100  1
  Cu  Cu36  1  0.79920200  0.72603800  0.20333300  1
  Cu  Cu37  1  0.29920200  0.27396200  0.29666700  1
  Cu  Cu38  1  0.20079800  0.27396200  0.79666700  1
  Cu  Cu39  1  0.70079800  0.72603800  0.70333300  1
  Cu  Cu40  1  0.48995700  0.53442600  0.14589800  1
  Cu  Cu41  1  0.98995700  0.46557400  0.35410200  1
  Cu  Cu42  1  0.51004300  0.46557400  0.85410200  1
  Cu  Cu43  1  0.01004300  0.53442600  0.64589800  1
  Cu  Cu44  1  0.15435700  0.64807200  0.13553600  1
  Cu  Cu45  1  0.65435700  0.35192800  0.36446400  1
  Cu  Cu46  1  0.84564300  0.35192800  0.86446400  1
  Cu  Cu47  1  0.34564300  0.64807200  0.63553600  1
  Cu  Cu48  1  0.55901400  0.87060700  0.06404100  1
  Cu  Cu49  1  0.05901400  0.12939300  0.43595900  1
  Cu  Cu50  1  0.44098600  0.12939300  0.93595900  1
  Cu  Cu51  1  0.94098600  0.87060700  0.56404100  1
  Cu  Cu52  1  0.65402000  0.31898300  0.02997000  1
  Cu  Cu53  1  0.15402000  0.68101700  0.47003000  1
  Cu  Cu54  1  0.34598000  0.68101700  0.97003000  1
  Cu  Cu55  1  0.84598000  0.31898300  0.52997000  1
  Cu  Cu56  1  0.09076300  0.13398100  0.99495300  1
  Cu  Cu57  1  0.59076300  0.86601900  0.50504700  1
  Cu  Cu58  1  0.90923700  0.86601900  0.00504700  1
  Cu  Cu59  1  0.40923700  0.13398100  0.49495300  1
  Cu  Cu60  1  0.68394400  0.09450700  0.32508300  1
  Cu  Cu61  1  0.18394400  0.90549300  0.17491700  1
  Cu  Cu62  1  0.31605600  0.90549300  0.67491700  1
  Cu  Cu63  1  0.81605600  0.09450700  0.82508300  1
  Cu  Cu64  1  0.20530100  0.42873800  0.06627300  1
  Cu  Cu65  1  0.70530100  0.57126200  0.43372700  1
  Cu  Cu66  1  0.79469900  0.57126200  0.93372700  1
  Cu  Cu67  1  0.29469900  0.42873800  0.56627300  1
  Cu  Cu68  1  0.88585600  0.38972500  0.18460100  1
  Cu  Cu69  1  0.38585600  0.61027500  0.31539900  1
  Cu  Cu70  1  0.11414400  0.61027500  0.81539900  1
  Cu  Cu71  1  0.61414400  0.38972500  0.68460100  1
