# generated using pymatgen
data_CuNi3C37
_symmetry_space_group_name_H-M   'P 1'
_cell_length_a   8.71904132
_cell_length_b   8.71904132
_cell_length_c   8.71904105
_cell_angle_alpha   61.03661219
_cell_angle_beta   61.03661219
_cell_angle_gamma   61.03661200
_symmetry_Int_Tables_number   1
_chemical_formula_structural   CuNi3C37
_chemical_formula_sum   'Cu1 Ni3 C37'
_cell_volume   479.63707291
_cell_formula_units_Z   1
loop_
 _symmetry_equiv_pos_site_id
 _symmetry_equiv_pos_as_xyz
  1  'x, y, z'
loop_
 _atom_site_type_symbol
 _atom_site_label
 _atom_site_symmetry_multiplicity
 _atom_site_fract_x
 _atom_site_fract_y
 _atom_site_fract_z
 _atom_site_occupancy
  C  C0  1  0.21238400  0.72839500  0.39227200  1
  C  C1  1  0.39227200  0.21238400  0.72839500  1
  C  C2  1  0.23803600  0.64243100  0.81356200  1
  C  C3  1  0.98163600  0.98163600  0.98163600  1
  C  C4  1  0.72839500  0.39227200  0.21238400  1
  C  C5  1  0.64243100  0.81356200  0.23803600  1
  C  C6  1  0.81356200  0.23803600  0.64243100  1
  Ni  Ni7  1  0.14204400  0.14204400  0.14204400  1
  Ni  Ni8  1  0.64454600  0.64454600  0.64454600  1
  Ni  Ni9  1  0.35462500  0.35462500  0.35462500  1
  Cu  Cu10  1  0.84844100  0.84844100  0.84844100  1
  C  C11  1  0.04602100  0.45319300  0.74838200  1
  C  C12  1  0.45319300  0.74838200  0.04602100  1
  C  C13  1  0.74838200  0.04602100  0.45319300  1
  C  C14  1  0.25147600  0.95932300  0.54168900  1
  C  C15  1  0.54168900  0.25147600  0.95932300  1
  C  C16  1  0.95932300  0.54168900  0.25147600  1
  C  C17  1  0.48994900  0.71020700  0.87588300  1
  C  C18  1  0.71020700  0.87588300  0.48994900  1
  C  C19  1  0.87588300  0.48994900  0.71020700  1
  C  C20  1  0.07857700  0.26255900  0.90542700  1
  C  C21  1  0.22966000  0.43617100  0.57875800  1
  C  C22  1  0.03467200  0.61138900  0.79040300  1
  C  C23  1  0.26255900  0.90542700  0.07857700  1
  C  C24  1  0.43617100  0.57875800  0.22966000  1
  C  C25  1  0.57875800  0.22966000  0.43617100  1
  C  C26  1  0.20943000  0.97413600  0.37859300  1
  C  C27  1  0.08722400  0.94003400  0.72564600  1
  C  C28  1  0.37859300  0.20943000  0.97413600  1
  C  C29  1  0.61138900  0.79040300  0.03467200  1
  C  C30  1  0.90542700  0.07857700  0.26255900  1
  C  C31  1  0.79040300  0.03467200  0.61138900  1
  C  C32  1  0.41302300  0.77006700  0.56889300  1
  C  C33  1  0.56889300  0.41302300  0.77006700  1
  C  C34  1  0.72564600  0.08722400  0.94003400  1
  C  C35  1  0.97413600  0.37859300  0.20943000  1
  C  C36  1  0.77006700  0.56889300  0.41302300  1
  C  C37  1  0.94003400  0.72564600  0.08722400  1
  C  C38  1  0.12273100  0.50169100  0.30033500  1
  C  C39  1  0.30033500  0.12273100  0.50169100  1
  C  C40  1  0.50169100  0.30033500  0.12273100  1
