# generated using pymatgen
data_CuNi
_symmetry_space_group_name_H-M   'P 1'
_cell_length_a   3.09488386
_cell_length_b   3.09488386
_cell_length_c   15.18453100
_cell_angle_alpha   90.00000000
_cell_angle_beta   90.00000000
_cell_angle_gamma   119.99999693
_symmetry_Int_Tables_number   1
_chemical_formula_structural   CuNi
_chemical_formula_sum   'Cu6 Ni6'
_cell_volume   125.95654487
_cell_formula_units_Z   6
loop_
 _symmetry_equiv_pos_site_id
 _symmetry_equiv_pos_as_xyz
  1  'x, y, z'
loop_
 _atom_site_type_symbol
 _atom_site_label
 _atom_site_symmetry_multiplicity
 _atom_site_fract_x
 _atom_site_fract_y
 _atom_site_fract_z
 _atom_site_occupancy
  Ni  Ni0  1  0.33333300  0.66666700  0.83298600  1
  Ni  Ni1  1  0.66666700  0.33333300  0.33298600  1
  Ni  Ni2  1  0.66666700  0.33333300  0.66650900  1
  Ni  Ni3  1  0.33333300  0.66666700  0.16650900  1
  Ni  Ni4  1  0.00000000  0.00000000  0.49972300  1
  Ni  Ni5  1  0.00000000  0.00000000  0.99972300  1
  Cu  Cu6  1  0.00000000  0.00000000  0.87435200  1
  Cu  Cu7  1  0.00000000  0.00000000  0.37435200  1
  Cu  Cu8  1  0.33333300  0.66666700  0.70800400  1
  Cu  Cu9  1  0.66666700  0.33333300  0.20800400  1
  Cu  Cu10  1  0.66666700  0.33333300  0.54152600  1
  Cu  Cu11  1  0.33333300  0.66666700  0.04152600  1
