# generated using pymatgen
data_Cu6NiC27
_symmetry_space_group_name_H-M   'P 1'
_cell_length_a   8.81707130
_cell_length_b   8.81707130
_cell_length_c   8.81707106
_cell_angle_alpha   58.27678161
_cell_angle_beta   58.27678161
_cell_angle_gamma   58.27678351
_symmetry_Int_Tables_number   1
_chemical_formula_structural   Cu6NiC27
_chemical_formula_sum   'Cu6 Ni1 C27'
_cell_volume   465.55329850
_cell_formula_units_Z   1
loop_
 _symmetry_equiv_pos_site_id
 _symmetry_equiv_pos_as_xyz
  1  'x, y, z'
loop_
 _atom_site_type_symbol
 _atom_site_label
 _atom_site_symmetry_multiplicity
 _atom_site_fract_x
 _atom_site_fract_y
 _atom_site_fract_z
 _atom_site_occupancy
  C  C0  1  0.85687100  0.85687100  0.85687100  1
  C  C1  1  0.64386000  0.64386000  0.64386000  1
  C  C2  1  0.35790800  0.35790800  0.35790800  1
  Ni  Ni3  1  0.14290000  0.14290000  0.14290000  1
  Cu  Cu4  1  0.25086800  0.53925900  0.96386500  1
  Cu  Cu5  1  0.96386500  0.25086800  0.53925900  1
  Cu  Cu6  1  0.53925900  0.96386500  0.25086800  1
  Cu  Cu7  1  0.46808200  0.03404700  0.74738700  1
  Cu  Cu8  1  0.03404700  0.74738700  0.46808200  1
  Cu  Cu9  1  0.74738700  0.46808200  0.03404700  1
  C  C10  1  0.72018700  0.49359600  0.86282000  1
  C  C11  1  0.49359600  0.86282000  0.72018700  1
  C  C12  1  0.07740100  0.71994900  0.93637000  1
  C  C13  1  0.86282000  0.72018700  0.49359600  1
  C  C14  1  0.42404800  0.56592200  0.78202900  1
  C  C15  1  0.22828200  0.36550100  0.98126500  1
  C  C16  1  0.93637000  0.07740100  0.71994900  1
  C  C17  1  0.78202900  0.42404800  0.56592200  1
  C  C18  1  0.56592200  0.78202900  0.42404800  1
  C  C19  1  0.63463300  0.00812700  0.78173300  1
  C  C20  1  0.28088700  0.05674400  0.92289700  1
  C  C21  1  0.00812700  0.78173300  0.63463300  1
  C  C22  1  0.98126500  0.22828200  0.36550100  1
  C  C23  1  0.71994900  0.93637000  0.07740100  1
  C  C24  1  0.36550100  0.98126500  0.22828200  1
  C  C25  1  0.43980500  0.21521700  0.57520300  1
  C  C26  1  0.21521700  0.57520300  0.43980500  1
  C  C27  1  0.05674400  0.92289700  0.28088700  1
  C  C28  1  0.78173300  0.63463300  0.00812700  1
  C  C29  1  0.57520300  0.43980500  0.21521600  1
  C  C30  1  0.13730600  0.27796900  0.50706300  1
  C  C31  1  0.92289700  0.28088700  0.05674400  1
  C  C32  1  0.50706300  0.13730600  0.27796900  1
  C  C33  1  0.27796900  0.50706300  0.13730600  1
