# generated using pymatgen
data_CuNi4C3
_symmetry_space_group_name_H-M   'P 1'
_cell_length_a   6.95135500
_cell_length_b   7.44407291
_cell_length_c   7.96393499
_cell_angle_alpha   87.42150688
_cell_angle_beta   88.35157741
_cell_angle_gamma   63.11964143
_symmetry_Int_Tables_number   1
_chemical_formula_structural   CuNi4C3
_chemical_formula_sum   'Cu4 Ni16 C12'
_cell_volume   367.18945735
_cell_formula_units_Z   4
loop_
 _symmetry_equiv_pos_site_id
 _symmetry_equiv_pos_as_xyz
  1  'x, y, z'
loop_
 _atom_site_type_symbol
 _atom_site_label
 _atom_site_symmetry_multiplicity
 _atom_site_fract_x
 _atom_site_fract_y
 _atom_site_fract_z
 _atom_site_occupancy
  C  C0  1  0.74381800  0.81362200  0.82865200  1
  C  C1  1  0.24696700  0.81015900  0.32482900  1
  C  C2  1  0.75303300  0.18984100  0.67517100  1
  C  C3  1  0.25618200  0.18637800  0.17134800  1
  C  C4  1  0.00000000  0.00000000  0.00000000  1
  C  C5  1  0.00000000  0.50000000  0.50000000  1
  C  C6  1  0.50000000  0.50000000  0.00000000  1
  C  C7  1  0.50000000  0.00000000  0.50000000  1
  C  C8  1  0.27752500  0.23887600  0.83843700  1
  C  C9  1  0.78630700  0.23533900  0.33868900  1
  C  C10  1  0.21369300  0.76466100  0.66131100  1
  C  C11  1  0.72247500  0.76112400  0.16156300  1
  Ni  Ni12  1  0.40162900  0.61518400  0.76865100  1
  Ni  Ni13  1  0.27695800  0.91229700  0.55948800  1
  Ni  Ni14  1  0.21811200  0.08388000  0.93764400  1
  Ni  Ni15  1  0.32715500  0.34360800  0.98292900  1
  Ni  Ni16  1  0.08922000  0.38854300  0.72935100  1
  Ni  Ni17  1  0.84166100  0.33993700  0.48207100  1
  Ni  Ni18  1  0.00668300  0.88810600  0.77046900  1
  Ni  Ni19  1  0.51444100  0.88029900  0.26749300  1
  Ni  Ni20  1  0.48555900  0.11970100  0.73250700  1
  Ni  Ni21  1  0.99331700  0.11189400  0.22953100  1
  Ni  Ni22  1  0.15833900  0.66006300  0.51792900  1
  Ni  Ni23  1  0.91078000  0.61145700  0.27064900  1
  Ni  Ni24  1  0.67284500  0.65639200  0.01707100  1
  Ni  Ni25  1  0.78188800  0.91612000  0.06235600  1
  Ni  Ni26  1  0.72304200  0.08770300  0.44051200  1
  Ni  Ni27  1  0.59837100  0.38481600  0.23134900  1
  Cu  Cu28  1  0.75730400  0.27224900  0.89396500  1
  Cu  Cu29  1  0.72094300  0.74943800  0.60391200  1
  Cu  Cu30  1  0.27905700  0.25056200  0.39608800  1
  Cu  Cu31  1  0.24269600  0.72775100  0.10603500  1
