# generated using pymatgen
data_Cu6NiC22
_symmetry_space_group_name_H-M   'P 1'
_cell_length_a   12.95889100
_cell_length_b   6.62527800
_cell_length_c   6.63766161
_cell_angle_alpha   75.22304675
_cell_angle_beta   90.00000000
_cell_angle_gamma   90.00000000
_symmetry_Int_Tables_number   1
_chemical_formula_structural   Cu6NiC22
_chemical_formula_sum   'Cu12 Ni2 C44'
_cell_volume   551.03643706
_cell_formula_units_Z   2
loop_
 _symmetry_equiv_pos_site_id
 _symmetry_equiv_pos_as_xyz
  1  'x, y, z'
loop_
 _atom_site_type_symbol
 _atom_site_label
 _atom_site_symmetry_multiplicity
 _atom_site_fract_x
 _atom_site_fract_y
 _atom_site_fract_z
 _atom_site_occupancy
  Ni  Ni0  1  0.75000000  0.87008100  0.48241900  1
  Ni  Ni1  1  0.25000000  0.12991900  0.51758100  1
  C  C2  1  0.49061300  0.90633300  0.72355100  1
  C  C3  1  0.00938700  0.90633300  0.72355100  1
  C  C4  1  0.37890100  0.79236100  0.86590300  1
  C  C5  1  0.12109900  0.79236100  0.86590300  1
  C  C6  1  0.38883800  0.80749700  0.59328100  1
  C  C7  1  0.11116200  0.80749700  0.59328100  1
  C  C8  1  0.84752400  0.87724100  0.02520100  1
  C  C9  1  0.65247600  0.87724100  0.02520100  1
  C  C10  1  0.96048500  0.76848800  0.16594800  1
  C  C11  1  0.53951500  0.76848800  0.16594800  1
  C  C12  1  0.84592600  0.52952200  0.85069100  1
  C  C13  1  0.65407400  0.52952200  0.85069100  1
  C  C14  1  0.91278900  0.58035500  0.60748800  1
  C  C15  1  0.58721100  0.58035500  0.60748800  1
  C  C16  1  0.16039200  0.65615200  0.30301400  1
  C  C17  1  0.33960800  0.65615200  0.30301400  1
  C  C18  1  0.83971800  0.63785000  0.22461500  1
  C  C19  1  0.66028200  0.63785000  0.22461500  1
  C  C20  1  0.16028200  0.36215000  0.77538500  1
  C  C21  1  0.33971800  0.36215000  0.77538500  1
  C  C22  1  0.83960800  0.34384800  0.69698600  1
  C  C23  1  0.66039200  0.34384800  0.69698600  1
  C  C24  1  0.41278900  0.41964500  0.39251200  1
  C  C25  1  0.08721100  0.41964500  0.39251200  1
  C  C26  1  0.15407400  0.47047800  0.14930900  1
  C  C27  1  0.34592600  0.47047800  0.14930900  1
  C  C28  1  0.46048500  0.23151200  0.83405200  1
  C  C29  1  0.03951500  0.23151200  0.83405200  1
  C  C30  1  0.34752400  0.12275900  0.97479900  1
  C  C31  1  0.15247600  0.12275900  0.97479900  1
  C  C32  1  0.88883800  0.19250300  0.40671900  1
  C  C33  1  0.61116200  0.19250300  0.40671900  1
  C  C34  1  0.87890100  0.20763900  0.13409700  1
  C  C35  1  0.62109900  0.20763900  0.13409700  1
  C  C36  1  0.50938700  0.09366700  0.27644900  1
  C  C37  1  0.99061300  0.09366700  0.27644900  1
  Cu  Cu38  1  0.40635200  0.88862400  0.71374600  1
  Cu  Cu39  1  0.09364800  0.88862400  0.71374600  1
  Cu  Cu40  1  0.87677700  0.79156700  0.17981300  1
  Cu  Cu41  1  0.62322300  0.79156700  0.17981300  1
  Cu  Cu42  1  0.84278700  0.51163200  0.68956000  1
  Cu  Cu43  1  0.65721300  0.51163200  0.68956000  1
  Cu  Cu44  1  0.34278700  0.48836800  0.31044000  1
  Cu  Cu45  1  0.15721300  0.48836800  0.31044000  1
  Cu  Cu46  1  0.37677700  0.20843300  0.82018700  1
  Cu  Cu47  1  0.12322300  0.20843300  0.82018700  1
  Cu  Cu48  1  0.90635200  0.11137600  0.28625400  1
  Cu  Cu49  1  0.59364800  0.11137600  0.28625400  1
  C  C50  1  0.85819000  0.90527900  0.33829600  1
  C  C51  1  0.64181000  0.90527900  0.33829600  1
  C  C52  1  0.75000000  0.61064800  0.58174000  1
  C  C53  1  0.25000000  0.38935200  0.41826000  1
  C  C54  1  0.35819000  0.09472100  0.66170400  1
  C  C55  1  0.14181000  0.09472100  0.66170400  1
  C  C56  1  0.25000000  0.99002200  0.37332200  1
  C  C57  1  0.75000000  0.00997800  0.62667800  1
