# generated using pymatgen
data_CuNiC
_symmetry_space_group_name_H-M   'P 1'
_cell_length_a   5.49156900
_cell_length_b   12.56840000
_cell_length_c   13.49907800
_cell_angle_alpha   90.00000000
_cell_angle_beta   90.00000000
_cell_angle_gamma   90.00000000
_symmetry_Int_Tables_number   1
_chemical_formula_structural   CuNiC
_chemical_formula_sum   'Cu16 Ni16 C16'
_cell_volume   931.70954691
_cell_formula_units_Z   16
loop_
 _symmetry_equiv_pos_site_id
 _symmetry_equiv_pos_as_xyz
  1  'x, y, z'
loop_
 _atom_site_type_symbol
 _atom_site_label
 _atom_site_symmetry_multiplicity
 _atom_site_fract_x
 _atom_site_fract_y
 _atom_site_fract_z
 _atom_site_occupancy
  C  C0  1  0.75865400  0.83512800  0.98324100  1
  C  C1  1  0.74134600  0.83512800  0.48324100  1
  C  C2  1  0.28983000  0.90404400  0.73083700  1
  C  C3  1  0.21017000  0.90404400  0.23083700  1
  C  C4  1  0.71017000  0.59595600  0.23083700  1
  C  C5  1  0.78983000  0.59595600  0.73083700  1
  C  C6  1  0.24134600  0.66487200  0.48324100  1
  C  C7  1  0.25865400  0.66487200  0.98324100  1
  C  C8  1  0.75865400  0.33512800  0.51675900  1
  C  C9  1  0.74134600  0.33512800  0.01675900  1
  C  C10  1  0.21017000  0.40404400  0.26916300  1
  C  C11  1  0.28983000  0.40404400  0.76916300  1
  C  C12  1  0.78983000  0.09595600  0.76916300  1
  C  C13  1  0.71017000  0.09595600  0.26916300  1
  C  C14  1  0.24134600  0.16487200  0.01675900  1
  C  C15  1  0.25865400  0.16487200  0.51675900  1
  Ni  Ni16  1  0.51765500  0.98045400  0.20352100  1
  Ni  Ni17  1  0.98234500  0.98045400  0.70352100  1
  Ni  Ni18  1  0.43780900  0.78395600  0.42104600  1
  Ni  Ni19  1  0.06219100  0.78395600  0.92104600  1
  Ni  Ni20  1  0.56219100  0.71604400  0.92104600  1
  Ni  Ni21  1  0.93780900  0.71604400  0.42104600  1
  Ni  Ni22  1  0.01765500  0.51954600  0.20352100  1
  Ni  Ni23  1  0.48234500  0.51954600  0.70352100  1
  Ni  Ni24  1  0.51765500  0.48045400  0.29647900  1
  Ni  Ni25  1  0.98234500  0.48045400  0.79647900  1
  Ni  Ni26  1  0.06219100  0.28395600  0.57895400  1
  Ni  Ni27  1  0.43780900  0.28395600  0.07895400  1
  Ni  Ni28  1  0.56219100  0.21604400  0.57895400  1
  Ni  Ni29  1  0.93780900  0.21604400  0.07895400  1
  Ni  Ni30  1  0.01765500  0.01954600  0.29647900  1
  Ni  Ni31  1  0.48234500  0.01954600  0.79647900  1
  Cu  Cu32  1  0.07521500  0.95346100  0.10042600  1
  Cu  Cu33  1  0.42478500  0.95346100  0.60042600  1
  Cu  Cu34  1  0.84287200  0.74850400  0.10396700  1
  Cu  Cu35  1  0.65712800  0.74850400  0.60396700  1
  Cu  Cu36  1  0.34287200  0.75149600  0.10396700  1
  Cu  Cu37  1  0.15712800  0.75149600  0.60396700  1
  Cu  Cu38  1  0.92478500  0.54653900  0.60042600  1
  Cu  Cu39  1  0.57521500  0.54653900  0.10042600  1
  Cu  Cu40  1  0.42478500  0.45346100  0.89957400  1
  Cu  Cu41  1  0.07521500  0.45346100  0.39957400  1
  Cu  Cu42  1  0.65712800  0.24850400  0.89603300  1
  Cu  Cu43  1  0.84287200  0.24850400  0.39603300  1
  Cu  Cu44  1  0.15712800  0.25149600  0.89603300  1
  Cu  Cu45  1  0.34287200  0.25149600  0.39603300  1
  Cu  Cu46  1  0.92478500  0.04653900  0.89957400  1
  Cu  Cu47  1  0.57521500  0.04653900  0.39957400  1
