# generated using pymatgen
data_Cu4NiC9
_symmetry_space_group_name_H-M   'P 1'
_cell_length_a   7.41917700
_cell_length_b   7.41917700
_cell_length_c   19.64348800
_cell_angle_alpha   90.00000000
_cell_angle_beta   90.00000000
_cell_angle_gamma   90.00000000
_symmetry_Int_Tables_number   1
_chemical_formula_structural   Cu4NiC9
_chemical_formula_sum   'Cu32 Ni8 C72'
_cell_volume   1081.25983382
_cell_formula_units_Z   8
loop_
 _symmetry_equiv_pos_site_id
 _symmetry_equiv_pos_as_xyz
  1  'x, y, z'
loop_
 _atom_site_type_symbol
 _atom_site_label
 _atom_site_symmetry_multiplicity
 _atom_site_fract_x
 _atom_site_fract_y
 _atom_site_fract_z
 _atom_site_occupancy
  C  C0  1  0.87398100  0.12601900  0.25000000  1
  C  C1  1  0.12601900  0.87398100  0.75000000  1
  C  C2  1  0.62601900  0.62601900  0.00000000  1
  C  C3  1  0.37398100  0.37398100  0.50000000  1
  C  C4  1  0.89237600  0.39317700  0.49235100  1
  C  C5  1  0.10762400  0.60682300  0.99235100  1
  C  C6  1  0.89317700  0.60762400  0.24235100  1
  C  C7  1  0.10682300  0.39237600  0.74235100  1
  C  C8  1  0.60682300  0.10762400  0.00764900  1
  C  C9  1  0.39317700  0.89237600  0.50764900  1
  C  C10  1  0.60762400  0.89317700  0.75764900  1
  C  C11  1  0.39237600  0.10682300  0.25764900  1
  C  C12  1  0.60268000  0.39732000  0.75000000  1
  C  C13  1  0.39732000  0.60268000  0.25000000  1
  C  C14  1  0.89732000  0.89732000  0.50000000  1
  C  C15  1  0.10268000  0.10268000  0.00000000  1
  Ni  Ni16  1  0.64020500  0.13261400  0.39944500  1
  Ni  Ni17  1  0.35979500  0.86738600  0.89944500  1
  Ni  Ni18  1  0.63261400  0.85979500  0.14944500  1
  Ni  Ni19  1  0.36738600  0.14020500  0.64944500  1
  Ni  Ni20  1  0.86738600  0.35979500  0.10055500  1
  Ni  Ni21  1  0.13261400  0.64020500  0.60055500  1
  Ni  Ni22  1  0.85979500  0.63261400  0.85055500  1
  Ni  Ni23  1  0.14020500  0.36738600  0.35055500  1
  Cu  Cu24  1  0.57009500  0.14997300  0.83697500  1
  Cu  Cu25  1  0.42990500  0.85002700  0.33697500  1
  Cu  Cu26  1  0.64997300  0.92990500  0.58697500  1
  Cu  Cu27  1  0.35002700  0.07009500  0.08697500  1
  Cu  Cu28  1  0.85002700  0.42990500  0.66302500  1
  Cu  Cu29  1  0.14997300  0.57009500  0.16302500  1
  Cu  Cu30  1  0.92990500  0.64997300  0.41302500  1
  Cu  Cu31  1  0.07009500  0.35002700  0.91302500  1
  Cu  Cu32  1  0.61699300  0.40120600  0.59940200  1
  Cu  Cu33  1  0.38300700  0.59879400  0.09940200  1
  Cu  Cu34  1  0.90120600  0.88300700  0.34940200  1
  Cu  Cu35  1  0.09879400  0.11699300  0.84940200  1
  Cu  Cu36  1  0.59879400  0.38300700  0.90059800  1
  Cu  Cu37  1  0.40120600  0.61699300  0.40059800  1
  Cu  Cu38  1  0.88300700  0.90120600  0.65059800  1
  Cu  Cu39  1  0.11699300  0.09879400  0.15059800  1
  Cu  Cu40  1  0.65374100  0.60186300  0.56811500  1
  Cu  Cu41  1  0.34625900  0.39813700  0.06811500  1
  Cu  Cu42  1  0.10186300  0.84625900  0.31811500  1
  Cu  Cu43  1  0.89813700  0.15374100  0.81811500  1
  Cu  Cu44  1  0.39813700  0.34625900  0.93188500  1
  Cu  Cu45  1  0.60186300  0.65374100  0.43188500  1
  Cu  Cu46  1  0.84625900  0.10186300  0.68188500  1
  Cu  Cu47  1  0.15374100  0.89813700  0.18188500  1
  Cu  Cu48  1  0.01522400  0.16329800  0.56841000  1
  Cu  Cu49  1  0.98477600  0.83670200  0.06841000  1
  Cu  Cu50  1  0.66329800  0.48477600  0.31841000  1
  Cu  Cu51  1  0.33670200  0.51522400  0.81841000  1
  Cu  Cu52  1  0.83670200  0.98477600  0.93159000  1
  Cu  Cu53  1  0.16329800  0.01522400  0.43159000  1
  Cu  Cu54  1  0.48477600  0.66329800  0.68159000  1
  Cu  Cu55  1  0.51522400  0.33670200  0.18159000  1
  C  C56  1  0.46660900  0.07126500  0.43626100  1
  C  C57  1  0.53339100  0.92873500  0.93626100  1
  C  C58  1  0.57126500  0.03339100  0.18626100  1
  C  C59  1  0.42873500  0.96660900  0.68626100  1
  C  C60  1  0.92873500  0.53339100  0.06373900  1
  C  C61  1  0.07126500  0.46660900  0.56373900  1
  C  C62  1  0.03339100  0.57126500  0.81373900  1
  C  C63  1  0.96660900  0.42873500  0.31373900  1
  C  C64  1  0.79536000  0.99255000  0.40994900  1
  C  C65  1  0.20464000  0.00745000  0.90994900  1
  C  C66  1  0.49255000  0.70464000  0.15994900  1
  C  C67  1  0.50745000  0.29536000  0.65994900  1
  C  C68  1  0.00745000  0.20464000  0.09005100  1
  C  C69  1  0.99255000  0.79536000  0.59005100  1
  C  C70  1  0.70464000  0.49255000  0.84005100  1
  C  C71  1  0.29536000  0.50745000  0.34005100  1
  C  C72  1  0.69664400  0.31766600  0.42928800  1
  C  C73  1  0.30335600  0.68233400  0.92928800  1
  C  C74  1  0.81766600  0.80335600  0.17928800  1
  C  C75  1  0.18233400  0.19664400  0.67928800  1
  C  C76  1  0.68233400  0.30335600  0.07071200  1
  C  C77  1  0.31766600  0.69664400  0.57071200  1
  C  C78  1  0.80335600  0.81766600  0.82071200  1
  C  C79  1  0.19664400  0.18233400  0.32071200  1
  C  C80  1  0.60554000  0.15145600  0.32187500  1
  C  C81  1  0.39446000  0.84854400  0.82187500  1
  C  C82  1  0.65145600  0.89446000  0.07187500  1
  C  C83  1  0.34854400  0.10554000  0.57187500  1
  C  C84  1  0.84854400  0.39446000  0.17812500  1
  C  C85  1  0.15145600  0.60554000  0.67812500  1
  C  C86  1  0.89446000  0.65145600  0.92812500  1
  C  C87  1  0.10554000  0.34854400  0.42812500  1
  C  C88  1  0.63455400  0.14866100  0.79330700  1
  C  C89  1  0.36544600  0.85133900  0.29330700  1
  C  C90  1  0.64866100  0.86544600  0.54330700  1
  C  C91  1  0.35133900  0.13455400  0.04330700  1
  C  C92  1  0.85133900  0.36544600  0.70669300  1
  C  C93  1  0.14866100  0.63455400  0.20669300  1
  C  C94  1  0.86544600  0.64866100  0.45669300  1
  C  C95  1  0.13455400  0.35133900  0.95669300  1
  C  C96  1  0.67271900  0.47121800  0.56070900  1
  C  C97  1  0.32728100  0.52878200  0.06070900  1
  C  C98  1  0.97121800  0.82728100  0.31070900  1
  C  C99  1  0.02878200  0.17271900  0.81070900  1
  C  C100  1  0.52878200  0.32728100  0.93929100  1
  C  C101  1  0.47121800  0.67271900  0.43929100  1
  C  C102  1  0.82728100  0.97121800  0.68929100  1
  C  C103  1  0.17271900  0.02878200  0.18929100  1
  C  C104  1  0.91226200  0.15146800  0.53745900  1
  C  C105  1  0.08773800  0.84853200  0.03745900  1
  C  C106  1  0.65146800  0.58773800  0.28745900  1
  C  C107  1  0.34853200  0.41226200  0.78745900  1
  C  C108  1  0.84853200  0.08773800  0.96254100  1
  C  C109  1  0.15146800  0.91226200  0.46254100  1
  C  C110  1  0.58773800  0.65146800  0.71254100  1
  C  C111  1  0.41226200  0.34853200  0.21254100  1
