# generated using pymatgen
data_Cu8Ni3C38
_symmetry_space_group_name_H-M   'P 1'
_cell_length_a   10.13608466
_cell_length_b   10.13608466
_cell_length_c   14.08968300
_cell_angle_alpha   90.00000000
_cell_angle_beta   90.00000000
_cell_angle_gamma   120.00000430
_symmetry_Int_Tables_number   1
_chemical_formula_structural   Cu8Ni3C38
_chemical_formula_sum   'Cu16 Ni6 C76'
_cell_volume   1253.63842020
_cell_formula_units_Z   2
loop_
 _symmetry_equiv_pos_site_id
 _symmetry_equiv_pos_as_xyz
  1  'x, y, z'
loop_
 _atom_site_type_symbol
 _atom_site_label
 _atom_site_symmetry_multiplicity
 _atom_site_fract_x
 _atom_site_fract_y
 _atom_site_fract_z
 _atom_site_occupancy
  C  C0  1  0.00000000  0.00000000  0.00000000  1
  C  C1  1  0.00000000  0.00000000  0.50000000  1
  C  C2  1  0.10132800  0.33058900  0.06209000  1
  C  C3  1  0.22926100  0.33058900  0.56209000  1
  C  C4  1  0.10132800  0.77073900  0.56209000  1
  C  C5  1  0.33333300  0.66666700  0.88123400  1
  C  C6  1  0.33333300  0.66666700  0.38123400  1
  C  C7  1  0.22926100  0.89867200  0.06209000  1
  C  C8  1  0.66941100  0.77073900  0.06209000  1
  C  C9  1  0.33058900  0.10132800  0.43791000  1
  C  C10  1  0.66941100  0.89867200  0.56209000  1
  C  C11  1  0.33058900  0.22926100  0.93791000  1
  C  C12  1  0.77073900  0.10132800  0.93791000  1
  C  C13  1  0.66666700  0.33333300  0.11876600  1
  C  C14  1  0.66666700  0.33333300  0.61876600  1
  C  C15  1  0.89867200  0.22926100  0.43791000  1
  C  C16  1  0.77073900  0.66941100  0.43791000  1
  C  C17  1  0.89867200  0.66941100  0.93791000  1
  Ni  Ni18  1  0.00000000  0.43458700  0.25000000  1
  Ni  Ni19  1  0.00000000  0.56541300  0.75000000  1
  Ni  Ni20  1  0.43458700  0.43458700  0.75000000  1
  Ni  Ni21  1  0.56541300  0.56541300  0.25000000  1
  Ni  Ni22  1  0.43458700  0.00000000  0.25000000  1
  Ni  Ni23  1  0.56541300  0.00000000  0.75000000  1
  Cu  Cu24  1  0.08603200  0.30912100  0.84696800  1
  Cu  Cu25  1  0.22308900  0.30912100  0.34696800  1
  Cu  Cu26  1  0.08603200  0.77691100  0.34696800  1
  Cu  Cu27  1  0.33333300  0.66666700  0.61513100  1
  Cu  Cu28  1  0.33333300  0.66666700  0.11513100  1
  Cu  Cu29  1  0.22308900  0.91396800  0.84696800  1
  Cu  Cu30  1  0.30912100  0.08603200  0.65303200  1
  Cu  Cu31  1  0.69087900  0.77691100  0.84696800  1
  Cu  Cu32  1  0.30912100  0.22308900  0.15303200  1
  Cu  Cu33  1  0.69087900  0.91396800  0.34696800  1
  Cu  Cu34  1  0.77691100  0.08603200  0.15303200  1
  Cu  Cu35  1  0.66666700  0.33333300  0.38486900  1
  Cu  Cu36  1  0.66666700  0.33333300  0.88486900  1
  Cu  Cu37  1  0.91396800  0.22308900  0.65303200  1
  Cu  Cu38  1  0.77691100  0.69087900  0.65303200  1
  Cu  Cu39  1  0.91396800  0.69087900  0.15303200  1
  C  C40  1  0.00000000  0.22220400  0.75000000  1
  C  C41  1  0.00953200  0.22836800  0.56824500  1
  C  C42  1  0.06949300  0.30820100  0.34834600  1
  C  C43  1  0.22220400  0.22220400  0.25000000  1
  C  C44  1  0.21883600  0.22836800  0.06824500  1
  C  C45  1  0.23870800  0.30820100  0.84834600  1
  C  C46  1  0.12003200  0.47561200  0.84261100  1
  C  C47  1  0.20125200  0.50910000  0.15320700  1
  C  C48  1  0.12003200  0.64442100  0.34261100  1
  C  C49  1  0.00953200  0.78116400  0.06824500  1
  C  C50  1  0.00000000  0.77779600  0.25000000  1
  C  C51  1  0.06949300  0.76129200  0.84834600  1
  C  C52  1  0.30784800  0.50910000  0.65320700  1
  C  C53  1  0.35557900  0.47561200  0.34261100  1
  C  C54  1  0.20125200  0.69215200  0.65320700  1
  C  C55  1  0.33333300  0.66666700  0.50842200  1
  C  C56  1  0.33333300  0.66666700  0.00842200  1
  C  C57  1  0.30784800  0.79874800  0.15320700  1
  C  C58  1  0.52438800  0.64442100  0.84261100  1
  C  C59  1  0.49090000  0.69215200  0.15320700  1
  C  C60  1  0.23870800  0.93050700  0.34834600  1
  C  C61  1  0.22220400  0.00000000  0.75000000  1
  C  C62  1  0.21883600  0.99046800  0.56824500  1
  C  C63  1  0.22836800  0.00953200  0.93175500  1
  C  C64  1  0.35557900  0.87996800  0.84261100  1
  C  C65  1  0.49090000  0.79874800  0.65320700  1
  C  C66  1  0.30820100  0.06949300  0.15165400  1
  C  C67  1  0.52438800  0.87996800  0.34261100  1
  C  C68  1  0.69179900  0.76129200  0.34834600  1
  C  C69  1  0.22836800  0.21883600  0.43175500  1
  C  C70  1  0.77163200  0.78116400  0.56824500  1
  C  C71  1  0.77779600  0.77779600  0.75000000  1
  C  C72  1  0.30820100  0.23870800  0.65165400  1
  C  C73  1  0.47561200  0.12003200  0.65738900  1
  C  C74  1  0.69179900  0.93050700  0.84834600  1
  C  C75  1  0.50910000  0.20125200  0.34679300  1
  C  C76  1  0.64442100  0.12003200  0.15738900  1
  C  C77  1  0.77163200  0.99046800  0.06824500  1
  C  C78  1  0.78116400  0.00953200  0.43175500  1
  C  C79  1  0.77779600  0.00000000  0.25000000  1
  C  C80  1  0.76129200  0.06949300  0.65165400  1
  C  C81  1  0.50910000  0.30784800  0.84679300  1
  C  C82  1  0.47561200  0.35557900  0.15738900  1
  C  C83  1  0.69215200  0.20125200  0.84679300  1
  C  C84  1  0.66666700  0.33333300  0.49157800  1
  C  C85  1  0.66666700  0.33333300  0.99157800  1
  C  C86  1  0.79874800  0.30784800  0.34679300  1
  C  C87  1  0.64442100  0.52438800  0.65738900  1
  C  C88  1  0.69215200  0.49090000  0.34679300  1
  C  C89  1  0.93050700  0.23870800  0.15165400  1
  C  C90  1  0.99046800  0.21883600  0.93175500  1
  C  C91  1  0.87996800  0.35557900  0.65738900  1
  C  C92  1  0.79874800  0.49090000  0.84679300  1
  C  C93  1  0.87996800  0.52438800  0.15738900  1
  C  C94  1  0.76129200  0.69179900  0.15165400  1
  C  C95  1  0.78116400  0.77163200  0.93175500  1
  C  C96  1  0.93050700  0.69179900  0.65165400  1
  C  C97  1  0.99046800  0.77163200  0.43175500  1
