# generated using pymatgen
data_Cu11(NiC16)5
_symmetry_space_group_name_H-M   'P 1'
_cell_length_a   5.01568712
_cell_length_b   5.01568712
_cell_length_c   38.45336428
_cell_angle_alpha   89.00863152
_cell_angle_beta   89.00863152
_cell_angle_gamma   119.60585959
_symmetry_Int_Tables_number   1
_chemical_formula_structural   Cu11(NiC16)5
_chemical_formula_sum   'Cu11 Ni5 C80'
_cell_volume   840.58171449
_cell_formula_units_Z   1
loop_
 _symmetry_equiv_pos_site_id
 _symmetry_equiv_pos_as_xyz
  1  'x, y, z'
loop_
 _atom_site_type_symbol
 _atom_site_label
 _atom_site_symmetry_multiplicity
 _atom_site_fract_x
 _atom_site_fract_y
 _atom_site_fract_z
 _atom_site_occupancy
  C  C0  1  0.71609700  0.90842700  0.56250100  1
  C  C1  1  0.61899100  0.49617200  0.81239700  1
  C  C2  1  0.68991700  0.56833400  0.62499000  1
  C  C3  1  0.74777600  0.62841700  0.43746400  1
  C  C4  1  0.80615200  0.68281700  0.25003400  1
  C  C5  1  0.87379100  0.74932700  0.06242800  1
  C  C6  1  0.93770800  0.81248800  0.87494000  1
  C  C7  1  0.66575700  0.21490000  0.68759500  1
  C  C8  1  0.99081900  0.87471100  0.68748300  1
  C  C9  1  0.78510000  0.33424300  0.31240500  1
  C  C10  1  0.90476500  0.46142700  0.93762800  1
  C  C11  1  0.06248500  0.93751500  0.50000000  1
  C  C12  1  0.12528900  0.00918100  0.31251700  1
  C  C13  1  0.03698100  0.59028800  0.56262900  1
  C  C14  1  0.15740900  0.70836600  0.18766300  1
  C  C15  1  0.83948500  0.03561700  0.18753200  1
  C  C16  1  0.96438300  0.16051500  0.81246800  1
  C  C17  1  0.29163400  0.84259100  0.81233700  1
  C  C18  1  0.40971200  0.96301900  0.43737100  1
  C  C19  1  0.09157300  0.28390300  0.43749900  1
  C  C20  1  0.21190400  0.40657200  0.06251100  1
  C  C21  1  0.18751200  0.06229200  0.12506000  1
  C  C22  1  0.34201000  0.53552000  0.68739900  1
  C  C23  1  0.46448000  0.65799000  0.31260100  1
  C  C24  1  0.25067300  0.12620900  0.93757200  1
  C  C25  1  0.59342800  0.78809600  0.93748900  1
  C  C26  1  0.31718300  0.19384800  0.74996600  1
  C  C27  1  0.37158300  0.25222400  0.56253600  1
  C  C28  1  0.43166600  0.31008300  0.37501000  1
  C  C29  1  0.50382800  0.38100900  0.18760300  1
  C  C30  1  0.56483800  0.43516200  0.00000000  1
  C  C31  1  0.53857300  0.09523500  0.06237200  1
  Ni  Ni32  1  0.64617200  0.85415500  0.75008100  1
  Ni  Ni33  1  0.77029000  0.98001600  0.37503100  1
  Ni  Ni34  1  0.89517100  0.10482900  0.00000000  1
  Ni  Ni35  1  0.01998400  0.22971000  0.62496900  1
  Ni  Ni36  1  0.14584500  0.35382800  0.24991900  1
  Cu  Cu37  1  0.73282900  0.26717100  0.50000000  1
  Cu  Cu38  1  0.85836400  0.39143100  0.12501600  1
  Cu  Cu39  1  0.98565300  0.52691400  0.74993300  1
  Cu  Cu40  1  0.09820200  0.64203400  0.37499700  1
  Cu  Cu41  1  0.23356300  0.76643700  0.00000000  1
  Cu  Cu42  1  0.35796600  0.90179800  0.62500300  1
  Cu  Cu43  1  0.26642900  0.48383000  0.87499400  1
  Cu  Cu44  1  0.39160200  0.60839800  0.50000000  1
  Cu  Cu45  1  0.51617000  0.73357100  0.12500600  1
  Cu  Cu46  1  0.47308600  0.01434700  0.25006700  1
  Cu  Cu47  1  0.60856900  0.14163600  0.87498400  1
  C  C48  1  0.71794100  0.95612600  0.47177100  1
  C  C49  1  0.68651900  0.91366500  0.65331400  1
  C  C50  1  0.69493400  0.56998600  0.52849900  1
  C  C51  1  0.82132300  0.69593500  0.15332900  1
  C  C52  1  0.67374300  0.55481700  0.72104000  1
  C  C53  1  0.80879100  0.68145000  0.34652400  1
  C  C54  1  0.93058500  0.80556400  0.97158600  1
  C  C55  1  0.94368400  0.81433500  0.77842400  1
  C  C56  1  0.06962400  0.95142400  0.40391300  1
  C  C57  1  0.69161700  0.20796800  0.59708100  1
  C  C58  1  0.04857600  0.93037600  0.59608700  1
  C  C59  1  0.82164600  0.33809200  0.22204500  1
  C  C60  1  0.95762300  0.46925500  0.84651800  1
  C  C61  1  0.66190800  0.17835400  0.77795500  1
  C  C62  1  0.79203200  0.30838300  0.40291900  1
  C  C63  1  0.90613400  0.42265200  0.02831200  1
  C  C64  1  0.84384200  0.08201000  0.09665800  1
  C  C65  1  0.80384100  0.03798800  0.27779300  1
  C  C66  1  0.91799000  0.15615800  0.90334200  1
  C  C67  1  0.08110800  0.59300500  0.47168100  1
  C  C68  1  0.20783500  0.71939700  0.09661300  1
  C  C69  1  0.03925800  0.55490700  0.65300300  1
  C  C70  1  0.16491600  0.68144500  0.27785700  1
  C  C71  1  0.28060300  0.79216500  0.90338700  1
  C  C72  1  0.96201200  0.19615900  0.72220700  1
  C  C73  1  0.08633500  0.31348100  0.34668600  1
  C  C74  1  0.21098200  0.44753300  0.97208700  1
  C  C75  1  0.04387400  0.28205900  0.52822900  1
  C  C76  1  0.16736300  0.40464700  0.15333600  1
  C  C77  1  0.31855500  0.83508400  0.72214300  1
  C  C78  1  0.44509300  0.96074200  0.34699700  1
  C  C79  1  0.40699500  0.91889200  0.52831900  1
  C  C80  1  0.33644400  0.56987300  0.59704500  1
  C  C81  1  0.46158200  0.68760200  0.22168800  1
  C  C82  1  0.59535300  0.83263700  0.84666400  1
  C  C83  1  0.31239800  0.53841800  0.77831200  1
  C  C84  1  0.43012700  0.66355600  0.40295500  1
  C  C85  1  0.19443600  0.06941500  0.02841400  1
  C  C86  1  0.55246700  0.78901800  0.02791300  1
  C  C87  1  0.18566500  0.05631600  0.22157600  1
  C  C88  1  0.30406500  0.17867700  0.84667100  1
  C  C89  1  0.31855000  0.19120900  0.65347600  1
  C  C90  1  0.44518300  0.32625700  0.27896000  1
  C  C91  1  0.57030000  0.44552900  0.90330800  1
  C  C92  1  0.43001400  0.30506600  0.47150100  1
  C  C93  1  0.55447100  0.42970000  0.09669200  1
  C  C94  1  0.57734800  0.09386600  0.97168800  1
  C  C95  1  0.53074500  0.04237700  0.15348200  1
