# generated using pymatgen
data_CuNi3C8
_symmetry_space_group_name_H-M   'P 1'
_cell_length_a   5.70125691
_cell_length_b   5.70125691
_cell_length_c   9.14143700
_cell_angle_alpha   90.00000000
_cell_angle_beta   90.00000000
_cell_angle_gamma   119.99998732
_symmetry_Int_Tables_number   1
_chemical_formula_structural   CuNi3C8
_chemical_formula_sum   'Cu2 Ni6 C16'
_cell_volume   257.32760658
_cell_formula_units_Z   2
loop_
 _symmetry_equiv_pos_site_id
 _symmetry_equiv_pos_as_xyz
  1  'x, y, z'
loop_
 _atom_site_type_symbol
 _atom_site_label
 _atom_site_symmetry_multiplicity
 _atom_site_fract_x
 _atom_site_fract_y
 _atom_site_fract_z
 _atom_site_occupancy
  Ni  Ni0  1  0.17017500  0.34034900  0.21447500  1
  Ni  Ni1  1  0.65965100  0.82982500  0.21447500  1
  Ni  Ni2  1  0.17017500  0.82982500  0.21447500  1
  Ni  Ni3  1  0.82982500  0.17017500  0.71447500  1
  Ni  Ni4  1  0.34034900  0.17017500  0.71447500  1
  Ni  Ni5  1  0.82982500  0.65965100  0.71447500  1
  Cu  Cu6  1  0.33333300  0.66666700  0.49347800  1
  Cu  Cu7  1  0.66666700  0.33333300  0.99347800  1
  C  C8  1  0.15890200  0.31780500  0.60103700  1
  C  C9  1  0.48487400  0.51512600  0.33268000  1
  C  C10  1  0.33333300  0.66666700  0.11149000  1
  C  C11  1  0.00000000  0.00000000  0.30606300  1
  C  C12  1  0.00000000  0.00000000  0.80606300  1
  C  C13  1  0.68219500  0.84109800  0.60103700  1
  C  C14  1  0.03025200  0.51512600  0.33268000  1
  C  C15  1  0.48487400  0.96974800  0.33268000  1
  C  C16  1  0.84109800  0.15890200  0.10103700  1
  C  C17  1  0.15890200  0.84109800  0.60103700  1
  C  C18  1  0.51512600  0.03025200  0.83268000  1
  C  C19  1  0.96974800  0.48487400  0.83268000  1
  C  C20  1  0.66666700  0.33333300  0.61149000  1
  C  C21  1  0.31780500  0.15890200  0.10103700  1
  C  C22  1  0.51512600  0.48487400  0.83268000  1
  C  C23  1  0.84109800  0.68219500  0.10103700  1
