# generated using pymatgen
data_Cu8Ni2C
_symmetry_space_group_name_H-M   'P 1'
_cell_length_a   9.13502600
_cell_length_b   9.33391000
_cell_length_c   13.80475100
_cell_angle_alpha   90.00000000
_cell_angle_beta   90.00000000
_cell_angle_gamma   90.00000000
_symmetry_Int_Tables_number   1
_chemical_formula_structural   Cu8Ni2C
_chemical_formula_sum   'Cu64 Ni16 C8'
_cell_volume   1177.06914178
_cell_formula_units_Z   8
loop_
 _symmetry_equiv_pos_site_id
 _symmetry_equiv_pos_as_xyz
  1  'x, y, z'
loop_
 _atom_site_type_symbol
 _atom_site_label
 _atom_site_symmetry_multiplicity
 _atom_site_fract_x
 _atom_site_fract_y
 _atom_site_fract_z
 _atom_site_occupancy
  C  C0  1  0.89718000  0.85981800  0.12569100  1
  C  C1  1  0.60282000  0.85981800  0.62569100  1
  C  C2  1  0.39718000  0.64018200  0.12569100  1
  C  C3  1  0.10282000  0.64018200  0.62569100  1
  C  C4  1  0.89718000  0.35981800  0.37430900  1
  C  C5  1  0.60282000  0.35981800  0.87430900  1
  C  C6  1  0.39718000  0.14018200  0.37430900  1
  C  C7  1  0.10282000  0.14018200  0.87430900  1
  Ni  Ni8  1  0.93336900  0.92616600  0.72309300  1
  Ni  Ni9  1  0.56663100  0.92616600  0.22309300  1
  Ni  Ni10  1  0.06663100  0.57383400  0.22309300  1
  Ni  Ni11  1  0.43336900  0.57383400  0.72309300  1
  Ni  Ni12  1  0.56663100  0.42616600  0.27690700  1
  Ni  Ni13  1  0.93336900  0.42616600  0.77690700  1
  Ni  Ni14  1  0.43336900  0.07383400  0.77690700  1
  Ni  Ni15  1  0.06663100  0.07383400  0.27690700  1
  Ni  Ni16  1  0.31125900  0.83841900  0.48718900  1
  Ni  Ni17  1  0.18874100  0.83841900  0.98718900  1
  Ni  Ni18  1  0.81125900  0.66158100  0.48718900  1
  Ni  Ni19  1  0.68874100  0.66158100  0.98718900  1
  Ni  Ni20  1  0.31125900  0.33841900  0.01281100  1
  Ni  Ni21  1  0.18874100  0.33841900  0.51281100  1
  Ni  Ni22  1  0.81125900  0.16158100  0.01281100  1
  Ni  Ni23  1  0.68874100  0.16158100  0.51281100  1
  Cu  Cu24  1  0.30252600  0.99937400  0.47587200  1
  Cu  Cu25  1  0.19747400  0.99937400  0.97587200  1
  Cu  Cu26  1  0.00554900  0.98433400  0.35025000  1
  Cu  Cu27  1  0.49445100  0.98433400  0.85025000  1
  Cu  Cu28  1  0.53289900  0.97651100  0.32600500  1
  Cu  Cu29  1  0.96710100  0.97651100  0.82600500  1
  Cu  Cu30  1  0.76699400  0.91869100  0.72381800  1
  Cu  Cu31  1  0.73300600  0.91869100  0.22381800  1
  Cu  Cu32  1  0.27066700  0.81167300  0.08179800  1
  Cu  Cu33  1  0.22933300  0.81167300  0.58179800  1
  Cu  Cu34  1  0.03090200  0.80014400  0.01039900  1
  Cu  Cu35  1  0.46909800  0.80014400  0.51039900  1
  Cu  Cu36  1  0.98738100  0.77211600  0.72164700  1
  Cu  Cu37  1  0.51261900  0.77211600  0.22164700  1
  Cu  Cu38  1  0.25894600  0.75998300  0.40579500  1
  Cu  Cu39  1  0.24105400  0.75998300  0.90579500  1
  Cu  Cu40  1  0.75894600  0.74001700  0.40579500  1
  Cu  Cu41  1  0.74105400  0.74001700  0.90579500  1
  Cu  Cu42  1  0.01261900  0.72788400  0.22164700  1
  Cu  Cu43  1  0.48738100  0.72788400  0.72164700  1
  Cu  Cu44  1  0.96909800  0.69985600  0.51039900  1
  Cu  Cu45  1  0.53090200  0.69985600  0.01039900  1
  Cu  Cu46  1  0.77066700  0.68832700  0.08179800  1
  Cu  Cu47  1  0.72933300  0.68832700  0.58179800  1
  Cu  Cu48  1  0.23300600  0.58130900  0.22381800  1
  Cu  Cu49  1  0.26699400  0.58130900  0.72381800  1
  Cu  Cu50  1  0.46710100  0.52348900  0.82600500  1
  Cu  Cu51  1  0.03289900  0.52348900  0.32600500  1
  Cu  Cu52  1  0.50554900  0.51566600  0.35025000  1
  Cu  Cu53  1  0.99445100  0.51566600  0.85025000  1
  Cu  Cu54  1  0.80252600  0.50062600  0.47587200  1
  Cu  Cu55  1  0.69747400  0.50062600  0.97587200  1
  Cu  Cu56  1  0.30252600  0.49937400  0.02412800  1
  Cu  Cu57  1  0.19747400  0.49937400  0.52412800  1
  Cu  Cu58  1  0.49445100  0.48433400  0.64975000  1
  Cu  Cu59  1  0.00554900  0.48433400  0.14975000  1
  Cu  Cu60  1  0.53289900  0.47651100  0.17399500  1
  Cu  Cu61  1  0.96710100  0.47651100  0.67399500  1
  Cu  Cu62  1  0.73300600  0.41869100  0.27618200  1
  Cu  Cu63  1  0.76699400  0.41869100  0.77618200  1
  Cu  Cu64  1  0.27066700  0.31167300  0.41820200  1
  Cu  Cu65  1  0.22933300  0.31167300  0.91820200  1
  Cu  Cu66  1  0.46909800  0.30014400  0.98960100  1
  Cu  Cu67  1  0.03090200  0.30014400  0.48960100  1
  Cu  Cu68  1  0.51261900  0.27211600  0.27835300  1
  Cu  Cu69  1  0.98738100  0.27211600  0.77835300  1
  Cu  Cu70  1  0.25894600  0.25998300  0.09420500  1
  Cu  Cu71  1  0.24105400  0.25998300  0.59420500  1
  Cu  Cu72  1  0.75894600  0.24001700  0.09420500  1
  Cu  Cu73  1  0.74105400  0.24001700  0.59420500  1
  Cu  Cu74  1  0.48738100  0.22788400  0.77835300  1
  Cu  Cu75  1  0.01261900  0.22788400  0.27835300  1
  Cu  Cu76  1  0.53090200  0.19985600  0.48960100  1
  Cu  Cu77  1  0.96909800  0.19985600  0.98960100  1
  Cu  Cu78  1  0.77066700  0.18832700  0.41820200  1
  Cu  Cu79  1  0.72933300  0.18832700  0.91820200  1
  Cu  Cu80  1  0.26699400  0.08130900  0.77618200  1
  Cu  Cu81  1  0.23300600  0.08130900  0.27618200  1
  Cu  Cu82  1  0.46710100  0.02348900  0.67399500  1
  Cu  Cu83  1  0.03289900  0.02348900  0.17399500  1
  Cu  Cu84  1  0.99445100  0.01566600  0.64975000  1
  Cu  Cu85  1  0.50554900  0.01566600  0.14975000  1
  Cu  Cu86  1  0.80252600  0.00062600  0.02412800  1
  Cu  Cu87  1  0.69747400  0.00062600  0.52412800  1
