# generated using pymatgen
data_Cu(NiC12)2
_symmetry_space_group_name_H-M   'P 1'
_cell_length_a   11.30211090
_cell_length_b   11.30211090
_cell_length_c   6.32673700
_cell_angle_alpha   90.00000000
_cell_angle_beta   90.00000000
_cell_angle_gamma   120.41539683
_symmetry_Int_Tables_number   1
_chemical_formula_structural   Cu(NiC12)2
_chemical_formula_sum   'Cu2 Ni4 C48'
_cell_volume   696.94162721
_cell_formula_units_Z   2
loop_
 _symmetry_equiv_pos_site_id
 _symmetry_equiv_pos_as_xyz
  1  'x, y, z'
loop_
 _atom_site_type_symbol
 _atom_site_label
 _atom_site_symmetry_multiplicity
 _atom_site_fract_x
 _atom_site_fract_y
 _atom_site_fract_z
 _atom_site_occupancy
  Ni  Ni0  1  0.33144600  0.66855400  0.00000000  1
  Ni  Ni1  1  0.16855400  0.83144600  0.50000000  1
  Ni  Ni2  1  0.83144600  0.16855400  0.50000000  1
  Ni  Ni3  1  0.66855400  0.33144600  0.00000000  1
  Cu  Cu4  1  0.00000000  0.00000000  0.00000000  1
  Cu  Cu5  1  0.50000000  0.50000000  0.50000000  1
  C  C6  1  0.28188800  0.12389500  0.14774000  1
  C  C7  1  0.62389500  0.78188800  0.64774000  1
  C  C8  1  0.37610500  0.21811200  0.64774000  1
  C  C9  1  0.71811200  0.87610500  0.14774000  1
  C  C10  1  0.21811200  0.37610500  0.35226000  1
  C  C11  1  0.87610500  0.71811200  0.85226000  1
  C  C12  1  0.12389500  0.28188800  0.85226000  1
  C  C13  1  0.78188800  0.62389500  0.35226000  1
  C  C14  1  0.27253100  0.00166900  0.01567900  1
  C  C15  1  0.50166900  0.77253100  0.51567900  1
  C  C16  1  0.49833100  0.22746900  0.51567900  1
  C  C17  1  0.72746900  0.99833100  0.01567900  1
  C  C18  1  0.22746900  0.49833100  0.48432100  1
  C  C19  1  0.99833100  0.72746900  0.98432100  1
  C  C20  1  0.00166900  0.27253100  0.98432100  1
  C  C21  1  0.77253100  0.50166900  0.48432100  1
  C  C22  1  0.38016200  0.95580900  0.85040100  1
  C  C23  1  0.45580900  0.88016200  0.35040100  1
  C  C24  1  0.54419100  0.11983800  0.35040100  1
  C  C25  1  0.61983800  0.04419100  0.85040100  1
  C  C26  1  0.11983800  0.54419100  0.64959900  1
  C  C27  1  0.04419100  0.61983800  0.14959900  1
  C  C28  1  0.95580900  0.38016200  0.14959900  1
  C  C29  1  0.88016200  0.45580900  0.64959900  1
  C  C30  1  0.50000000  0.00000000  0.85152500  1
  C  C31  1  0.50000000  0.00000000  0.35152500  1
  C  C32  1  0.00000000  0.50000000  0.64847500  1
  C  C33  1  0.00000000  0.50000000  0.14847500  1
  C  C34  1  0.33230300  0.40287400  0.84783100  1
  C  C35  1  0.90287400  0.83230300  0.34783100  1
  C  C36  1  0.09712600  0.16769700  0.34783100  1
  C  C37  1  0.66769700  0.59712600  0.84783100  1
  C  C38  1  0.16769700  0.09712600  0.65216900  1
  C  C39  1  0.59712600  0.66769700  0.15216900  1
  C  C40  1  0.40287400  0.33230300  0.15216900  1
  C  C41  1  0.83230300  0.90287400  0.65216900  1
  C  C42  1  0.86774000  0.86774000  0.50000000  1
  C  C43  1  0.36774000  0.36774000  0.00000000  1
  C  C44  1  0.63226000  0.63226000  0.00000000  1
  C  C45  1  0.13226000  0.13226000  0.50000000  1
  C  C46  1  0.21814000  0.02732700  0.10873000  1
  C  C47  1  0.52732700  0.71814000  0.60873000  1
  C  C48  1  0.47267300  0.28186000  0.60873000  1
  C  C49  1  0.78186000  0.97267300  0.10873000  1
  C  C50  1  0.28186000  0.47267300  0.39127000  1
  C  C51  1  0.97267300  0.78186000  0.89127000  1
  C  C52  1  0.02732700  0.21814000  0.89127000  1
  C  C53  1  0.71814000  0.52732700  0.39127000  1
