# generated using pymatgen
data_Cu2Ni8C5
_symmetry_space_group_name_H-M   'P 1'
_cell_length_a   5.16460400
_cell_length_b   7.32919258
_cell_length_c   19.50791588
_cell_angle_alpha   93.70210854
_cell_angle_beta   89.55183935
_cell_angle_gamma   106.06609362
_symmetry_Int_Tables_number   1
_chemical_formula_structural   Cu2Ni8C5
_chemical_formula_sum   'Cu8 Ni32 C20'
_cell_volume   708.06096238
_cell_formula_units_Z   4
loop_
 _symmetry_equiv_pos_site_id
 _symmetry_equiv_pos_as_xyz
  1  'x, y, z'
loop_
 _atom_site_type_symbol
 _atom_site_label
 _atom_site_symmetry_multiplicity
 _atom_site_fract_x
 _atom_site_fract_y
 _atom_site_fract_z
 _atom_site_occupancy
  C  C0  1  0.96636600  0.70921900  0.10916300  1
  C  C1  1  0.71651600  0.46015400  0.35855200  1
  C  C2  1  0.46792800  0.21158800  0.60824600  1
  C  C3  1  0.03105600  0.28886400  0.88970200  1
  C  C4  1  0.00012800  0.99979100  0.99969600  1
  C  C5  1  0.75035000  0.75559800  0.25112700  1
  C  C6  1  0.50074300  0.50570700  0.50104600  1
  C  C7  1  0.25063300  0.24987200  0.74958500  1
  C  C8  1  0.87029800  0.87200500  0.62528600  1
  C  C9  1  0.63123900  0.62871700  0.87390500  1
  C  C10  1  0.36973700  0.37195100  0.12515000  1
  C  C11  1  0.12161800  0.12283700  0.37522000  1
  C  C12  1  0.91076600  0.22844000  0.52835000  1
  C  C13  1  0.84466800  0.51998700  0.71988700  1
  C  C14  1  0.59012400  0.27454500  0.97222500  1
  C  C15  1  0.34392400  0.02290200  0.22083400  1
  C  C16  1  0.65628600  0.98063200  0.77986500  1
  C  C17  1  0.41068000  0.72590800  0.02752700  1
  C  C18  1  0.16014100  0.47835100  0.27838100  1
  C  C19  1  0.09384300  0.77278700  0.47080700  1
  Ni  Ni20  1  0.94501200  0.09893600  0.80503800  1
  Ni  Ni21  1  0.89092800  0.15199400  0.45364300  1
  Ni  Ni22  1  0.76805700  0.08297100  0.57985700  1
  Ni  Ni23  1  0.98831200  0.62709000  0.28652300  1
  Ni  Ni24  1  0.75564100  0.12125500  0.96588400  1
  Ni  Ni25  1  0.97193500  0.66904200  0.67000000  1
  Ni  Ni26  1  0.85198100  0.59483100  0.79488100  1
  Ni  Ni27  1  0.73881500  0.37717000  0.53648200  1
  Ni  Ni28  1  0.73374400  0.41574000  0.91974700  1
  Ni  Ni29  1  0.80464400  0.65236200  0.44655100  1
  Ni  Ni30  1  0.61131600  0.36041700  0.04589900  1
  Ni  Ni31  1  0.47705700  0.12467600  0.78489400  1
  Ni  Ni32  1  0.47234300  0.16759200  0.16929300  1
  Ni  Ni33  1  0.55567200  0.40136100  0.69526000  1
  Ni  Ni34  1  0.70806800  0.82392400  0.05092000  1
  Ni  Ni35  1  0.35344600  0.10636900  0.29446500  1
  Ni  Ni36  1  0.65017100  0.90583300  0.70529600  1
  Ni  Ni37  1  0.29243900  0.17618900  0.94945100  1
  Ni  Ni38  1  0.45742800  0.57434500  0.30163700  1
  Ni  Ni39  1  0.52874900  0.83128000  0.83022000  1
  Ni  Ni40  1  0.51682500  0.87365200  0.21728800  1
  Ni  Ni41  1  0.39064600  0.64076600  0.95417600  1
  Ni  Ni42  1  0.20802600  0.32438100  0.55160400  1
  Ni  Ni43  1  0.26678200  0.58414200  0.08033800  1
  Ni  Ni44  1  0.26690600  0.62353800  0.46721200  1
  Ni  Ni45  1  0.13938900  0.40123900  0.20370600  1
  Ni  Ni46  1  0.01778300  0.33316900  0.33000000  1
  Ni  Ni47  1  0.24403200  0.87836200  0.03461400  1
  Ni  Ni48  1  0.02312200  0.37531600  0.71548400  1
  Ni  Ni49  1  0.22266200  0.91782100  0.41946400  1
  Ni  Ni50  1  0.10225600  0.85547700  0.54454500  1
  Ni  Ni51  1  0.05465200  0.90228200  0.19662600  1
  Cu  Cu52  1  0.93749900  0.81985900  0.92089000  1
  Cu  Cu53  1  0.68529400  0.56998100  0.16884800  1
  Cu  Cu54  1  0.81435800  0.93267500  0.33013400  1
  Cu  Cu55  1  0.43727700  0.31987400  0.41860900  1
  Cu  Cu56  1  0.56300400  0.68255600  0.58027500  1
  Cu  Cu57  1  0.18769600  0.06773100  0.66795100  1
  Cu  Cu58  1  0.31517200  0.43257400  0.83183100  1
  Cu  Cu59  1  0.06440900  0.18021400  0.07917400  1
