# generated using pymatgen
data_Cu6Ni4C15
_symmetry_space_group_name_H-M   'P 1'
_cell_length_a   6.42430778
_cell_length_b   6.42430778
_cell_length_c   19.55404618
_cell_angle_alpha   82.76943033
_cell_angle_beta   82.76943033
_cell_angle_gamma   41.49453198
_symmetry_Int_Tables_number   1
_chemical_formula_structural   Cu6Ni4C15
_chemical_formula_sum   'Cu12 Ni8 C30'
_cell_volume   529.83108849
_cell_formula_units_Z   2
loop_
 _symmetry_equiv_pos_site_id
 _symmetry_equiv_pos_as_xyz
  1  'x, y, z'
loop_
 _atom_site_type_symbol
 _atom_site_label
 _atom_site_symmetry_multiplicity
 _atom_site_fract_x
 _atom_site_fract_y
 _atom_site_fract_z
 _atom_site_occupancy
  Ni  Ni0  1  0.65413800  0.05753700  0.30001300  1
  Ni  Ni1  1  0.68200400  0.05699500  0.09486700  1
  Ni  Ni2  1  0.05753700  0.65413800  0.80001300  1
  Ni  Ni3  1  0.05699500  0.68200400  0.59486700  1
  Ni  Ni4  1  0.94300500  0.31799600  0.40513300  1
  Ni  Ni5  1  0.94246300  0.34586200  0.19998700  1
  Ni  Ni6  1  0.31799600  0.94300500  0.90513300  1
  Ni  Ni7  1  0.34586200  0.94246300  0.69998700  1
  Cu  Cu8  1  0.19308100  0.60652700  0.41197000  1
  Cu  Cu9  1  0.20901200  0.66217500  0.19521600  1
  Cu  Cu10  1  0.62540400  0.03425300  0.47217100  1
  Cu  Cu11  1  0.60652700  0.19308100  0.91197000  1
  Cu  Cu12  1  0.66217500  0.20901200  0.69521600  1
  Cu  Cu13  1  0.03425300  0.62540400  0.97217100  1
  Cu  Cu14  1  0.96574700  0.37459600  0.02782900  1
  Cu  Cu15  1  0.33782500  0.79098800  0.30478400  1
  Cu  Cu16  1  0.39347300  0.80691900  0.08803000  1
  Cu  Cu17  1  0.37459600  0.96574700  0.52782900  1
  Cu  Cu18  1  0.79098800  0.33782500  0.80478400  1
  Cu  Cu19  1  0.80691900  0.39347300  0.58803000  1
  C  C20  1  0.17612400  0.80288300  0.12529800  1
  C  C21  1  0.51413800  0.30985600  0.43458700  1
  C  C22  1  0.51643000  0.33864100  0.19878100  1
  C  C23  1  0.96895600  0.77237100  0.47181000  1
  C  C24  1  0.80288300  0.17612400  0.62529800  1
  C  C25  1  0.30985600  0.51413800  0.93458700  1
  C  C26  1  0.09537700  0.53978400  0.36200500  1
  C  C27  1  0.33864100  0.51643000  0.69878100  1
  C  C28  1  0.77237100  0.96895600  0.97181000  1
  C  C29  1  0.94238400  0.70873900  0.20607600  1
  C  C30  1  0.06695900  0.51299700  0.04813200  1
  C  C31  1  0.48700300  0.93304100  0.45186800  1
  C  C32  1  0.53978400  0.09537700  0.86200500  1
  C  C33  1  0.70873900  0.94238400  0.70607600  1
  C  C34  1  0.29126100  0.05761600  0.29392400  1
  C  C35  1  0.46021600  0.90462300  0.13799500  1
  C  C36  1  0.51299700  0.06695900  0.54813200  1
  C  C37  1  0.93304100  0.48700300  0.95186800  1
  C  C38  1  0.05761600  0.29126100  0.79392400  1
  C  C39  1  0.22762900  0.03104400  0.02819000  1
  C  C40  1  0.66135900  0.48357000  0.30121900  1
  C  C41  1  0.90462300  0.46021600  0.63799500  1
  C  C42  1  0.69014400  0.48586200  0.06541300  1
  C  C43  1  0.19711700  0.82387600  0.37470200  1
  C  C44  1  0.14534600  0.85465400  0.25000000  1
  C  C45  1  0.03104400  0.22762900  0.52819000  1
  C  C46  1  0.48357000  0.66135900  0.80121900  1
  C  C47  1  0.48586200  0.69014400  0.56541300  1
  C  C48  1  0.82387600  0.19711700  0.87470200  1
  C  C49  1  0.85465400  0.14534600  0.75000000  1
