# generated using pymatgen
data_Cu3(Ni2C)2
_symmetry_space_group_name_H-M   'P 1'
_cell_length_a   6.04343519
_cell_length_b   6.04343519
_cell_length_c   7.36436200
_cell_angle_alpha   90.00000000
_cell_angle_beta   90.00000000
_cell_angle_gamma   94.74107601
_symmetry_Int_Tables_number   1
_chemical_formula_structural   Cu3(Ni2C)2
_chemical_formula_sum   'Cu6 Ni8 C4'
_cell_volume   268.04908638
_cell_formula_units_Z   2
loop_
 _symmetry_equiv_pos_site_id
 _symmetry_equiv_pos_as_xyz
  1  'x, y, z'
loop_
 _atom_site_type_symbol
 _atom_site_label
 _atom_site_symmetry_multiplicity
 _atom_site_fract_x
 _atom_site_fract_y
 _atom_site_fract_z
 _atom_site_occupancy
  C  C0  1  0.79165600  0.79165600  0.25000000  1
  C  C1  1  0.20834400  0.20834400  0.75000000  1
  C  C2  1  0.25284800  0.25284800  0.25000000  1
  C  C3  1  0.74715200  0.74715200  0.75000000  1
  Ni  Ni4  1  0.95951000  0.49891300  0.75000000  1
  Ni  Ni5  1  0.50108700  0.04049000  0.25000000  1
  Ni  Ni6  1  0.74945100  0.41071200  0.75000000  1
  Ni  Ni7  1  0.58928800  0.25054900  0.25000000  1
  Ni  Ni8  1  0.41071200  0.74945100  0.75000000  1
  Ni  Ni9  1  0.25054900  0.58928800  0.25000000  1
  Ni  Ni10  1  0.49891300  0.95951000  0.75000000  1
  Ni  Ni11  1  0.04049000  0.50108700  0.25000000  1
  Cu  Cu12  1  0.02325900  0.02325900  0.25000000  1
  Cu  Cu13  1  0.27172500  0.27172500  0.50319900  1
  Cu  Cu14  1  0.27172500  0.27172500  0.99680100  1
  Cu  Cu15  1  0.72827500  0.72827500  0.49680100  1
  Cu  Cu16  1  0.72827500  0.72827500  0.00319900  1
  Cu  Cu17  1  0.97674100  0.97674100  0.75000000  1
