# generated using pymatgen
data_CuNiC5
_symmetry_space_group_name_H-M   'P 1'
_cell_length_a   5.74843800
_cell_length_b   5.74844200
_cell_length_c   8.05224200
_cell_angle_alpha   90.00027474
_cell_angle_beta   89.99971815
_cell_angle_gamma   90.00000000
_symmetry_Int_Tables_number   1
_chemical_formula_structural   CuNiC5
_chemical_formula_sum   'Cu4 Ni4 C20'
_cell_volume   266.08281350
_cell_formula_units_Z   4
loop_
 _symmetry_equiv_pos_site_id
 _symmetry_equiv_pos_as_xyz
  1  'x, y, z'
loop_
 _atom_site_type_symbol
 _atom_site_label
 _atom_site_symmetry_multiplicity
 _atom_site_fract_x
 _atom_site_fract_y
 _atom_site_fract_z
 _atom_site_occupancy
  C  C0  1  0.00000000  0.22751400  0.99999900  1
  C  C1  1  0.00000000  0.77248800  0.50000000  1
  C  C2  1  0.22751400  0.00000000  0.25000000  1
  C  C3  1  0.77248800  0.00000000  0.74999900  1
  Ni  Ni4  1  0.23378800  0.50000200  0.24999800  1
  Ni  Ni5  1  0.49999800  0.23378800  0.00000300  1
  Ni  Ni6  1  0.50000000  0.76621000  0.50000000  1
  Ni  Ni7  1  0.76620800  0.49999900  0.75000300  1
  Cu  Cu8  1  0.25620400  0.25620500  0.62500000  1
  Cu  Cu9  1  0.25620700  0.74379300  0.87499700  1
  Cu  Cu10  1  0.74379400  0.25620700  0.37500200  1
  Cu  Cu11  1  0.74379200  0.74379100  0.12500000  1
  C  C12  1  0.00733500  0.26763000  0.25997300  1
  C  C13  1  0.00733500  0.73237100  0.24002700  1
  C  C14  1  0.26763000  0.00733500  0.99002700  1
  C  C15  1  0.26763100  0.99266600  0.50997400  1
  C  C16  1  0.26392100  0.48848800  0.01046500  1
  C  C17  1  0.26392200  0.51151200  0.48953500  1
  C  C18  1  0.48848800  0.26392100  0.23953500  1
  C  C19  1  0.48848900  0.73607900  0.26046500  1
  C  C20  1  0.51151200  0.26392200  0.76046500  1
  C  C21  1  0.51151200  0.73607700  0.73953500  1
  C  C22  1  0.73607800  0.51151100  0.51046500  1
  C  C23  1  0.73607900  0.48848900  0.98953500  1
  C  C24  1  0.73237000  0.99266700  0.49002600  1
  C  C25  1  0.73237000  0.00733600  0.00997300  1
  C  C26  1  0.99266700  0.26763000  0.74002600  1
  C  C27  1  0.99266700  0.73237000  0.75997400  1
