# generated using pymatgen
data_Cu11Ni9C10
_symmetry_space_group_name_H-M   'P 1'
_cell_length_a   15.42073100
_cell_length_b   4.76085500
_cell_length_c   4.77491683
_cell_angle_alpha   87.00896180
_cell_angle_beta   90.00000000
_cell_angle_gamma   90.00000000
_symmetry_Int_Tables_number   1
_chemical_formula_structural   Cu11Ni9C10
_chemical_formula_sum   'Cu11 Ni9 C10'
_cell_volume   350.07708825
_cell_formula_units_Z   1
loop_
 _symmetry_equiv_pos_site_id
 _symmetry_equiv_pos_as_xyz
  1  'x, y, z'
loop_
 _atom_site_type_symbol
 _atom_site_label
 _atom_site_symmetry_multiplicity
 _atom_site_fract_x
 _atom_site_fract_y
 _atom_site_fract_z
 _atom_site_occupancy
  C  C0  1  0.40336000  0.00602400  0.99408100  1
  C  C1  1  0.59664000  0.00602400  0.99408100  1
  C  C2  1  0.80291000  0.96770600  0.01176400  1
  C  C3  1  0.00000000  0.95824200  0.98979100  1
  C  C4  1  0.19709000  0.96770600  0.01176400  1
  C  C5  1  0.50000000  0.50213800  0.49817500  1
  C  C6  1  0.89669000  0.54867500  0.50640300  1
  C  C7  1  0.68854100  0.50787300  0.48433200  1
  C  C8  1  0.10331000  0.54867500  0.50640300  1
  C  C9  1  0.31145900  0.50787300  0.48433200  1
  Ni  Ni10  1  0.89855400  0.80657600  0.81083400  1
  Ni  Ni11  1  0.10144600  0.80657600  0.81083400  1
  Ni  Ni12  1  0.40250500  0.70468600  0.29318200  1
  Ni  Ni13  1  0.59749500  0.70468600  0.29318200  1
  Ni  Ni14  1  0.79655500  0.68895800  0.31280600  1
  Ni  Ni15  1  0.00000000  0.69262800  0.31366700  1
  Ni  Ni16  1  0.20344500  0.68895800  0.31280600  1
  Ni  Ni17  1  0.39995900  0.30374300  0.69351700  1
  Ni  Ni18  1  0.60004100  0.30374300  0.69351700  1
  Cu  Cu19  1  0.50000000  0.80219300  0.79341600  1
  Cu  Cu20  1  0.70342200  0.80368800  0.80416300  1
  Cu  Cu21  1  0.29657800  0.80368800  0.80416300  1
  Cu  Cu22  1  0.79844200  0.29521500  0.70649600  1
  Cu  Cu23  1  0.00000000  0.30370700  0.70253800  1
  Cu  Cu24  1  0.20155800  0.29521500  0.70649600  1
  Cu  Cu25  1  0.50000000  0.20652200  0.19688100  1
  Cu  Cu26  1  0.90005300  0.19158600  0.19421800  1
  Cu  Cu27  1  0.70490400  0.19255600  0.19097100  1
  Cu  Cu28  1  0.29509600  0.19255600  0.19097100  1
  Cu  Cu29  1  0.09994700  0.19158600  0.19421800  1
