# generated using pymatgen
data_CuNiC24
_symmetry_space_group_name_H-M   'P 1'
_cell_length_a   8.22000314
_cell_length_b   8.22305544
_cell_length_c   8.54708531
_cell_angle_alpha   93.72264246
_cell_angle_beta   86.35860302
_cell_angle_gamma   75.14356519
_symmetry_Int_Tables_number   1
_chemical_formula_structural   CuNiC24
_chemical_formula_sum   'Cu2 Ni2 C48'
_cell_volume   555.30919553
_cell_formula_units_Z   2
loop_
 _symmetry_equiv_pos_site_id
 _symmetry_equiv_pos_as_xyz
  1  'x, y, z'
loop_
 _atom_site_type_symbol
 _atom_site_label
 _atom_site_symmetry_multiplicity
 _atom_site_fract_x
 _atom_site_fract_y
 _atom_site_fract_z
 _atom_site_occupancy
  C  C0  1  0.52115500  0.73048700  0.10218500  1
  C  C1  1  0.01960400  0.22891900  0.10246100  1
  C  C2  1  0.47927700  0.27084500  0.89476500  1
  C  C3  1  0.97939100  0.77046700  0.89543100  1
  C  C4  1  0.14153700  0.87512600  0.27154800  1
  C  C5  1  0.64198900  0.37807500  0.27063300  1
  C  C6  1  0.37130300  0.10883200  0.27081800  1
  C  C7  1  0.87607200  0.60805100  0.27139900  1
  C  C8  1  0.62760700  0.89287300  0.72700900  1
  C  C9  1  0.12614100  0.39301600  0.72922400  1
  C  C10  1  0.85701500  0.12239500  0.72700400  1
  C  C11  1  0.35727300  0.62410000  0.73017100  1
  Ni  Ni12  1  0.23469100  0.01541600  0.65992600  1
  Ni  Ni13  1  0.73491700  0.51501200  0.65965000  1
  Cu  Cu14  1  0.27227500  0.47947000  0.33608900  1
  Cu  Cu15  1  0.76884300  0.98126600  0.33183900  1
  C  C16  1  0.49038500  0.76042200  0.40813100  1
  C  C17  1  0.98987200  0.25942800  0.40862100  1
  C  C18  1  0.50761400  0.24227200  0.58728800  1
  C  C19  1  0.00705400  0.74278000  0.58822200  1
  C  C20  1  0.71594700  0.03409200  0.04098200  1
  C  C21  1  0.21620500  0.53343000  0.04247300  1
  C  C22  1  0.28626100  0.96332000  0.96392500  1
  C  C23  1  0.78668200  0.46378200  0.96392600  1
  C  C24  1  0.84038400  0.90956900  0.06800400  1
  C  C25  1  0.34122700  0.40889300  0.06809700  1
  C  C26  1  0.31976300  0.92920900  0.10662000  1
  C  C27  1  0.82059400  0.43010600  0.10662600  1
  C  C28  1  0.62567100  0.12445100  0.16359700  1
  C  C29  1  0.12524700  0.62285700  0.16536600  1
  C  C30  1  0.45815300  0.29232600  0.42261500  1
  C  C31  1  0.95610100  0.79429800  0.42452500  1
  C  C32  1  0.33311800  0.91660700  0.42279900  1
  C  C33  1  0.83356900  0.41670600  0.42276000  1
  C  C34  1  0.66446900  0.08527000  0.56692900  1
  C  C35  1  0.16350700  0.58513000  0.56707000  1
  C  C36  1  0.53516500  0.71650600  0.57559600  1
  C  C37  1  0.03255300  0.21437100  0.57630400  1
  C  C38  1  0.37917500  0.86988800  0.84437100  1
  C  C39  1  0.88021900  0.37098900  0.84441600  1
  C  C40  1  0.67989200  0.07014000  0.89928300  1
  C  C41  1  0.17988000  0.57044800  0.90095500  1
  C  C42  1  0.16291500  0.08796800  0.93588200  1
  C  C43  1  0.66211200  0.58721800  0.93580400  1
  C  C44  1  0.45221700  0.61120800  0.30782500  1
  C  C45  1  0.95109100  0.11183900  0.30627000  1
  C  C46  1  0.63821200  0.79904600  0.30640900  1
  C  C47  1  0.13972800  0.29730600  0.30974900  1
  C  C48  1  0.54615000  0.38830800  0.69142700  1
  C  C49  1  0.04675100  0.88767100  0.69307900  1
  C  C50  1  0.36143300  0.20399600  0.69120500  1
  C  C51  1  0.86159800  0.70379700  0.69269600  1
