# generated using pymatgen
data_Cu20NiC28
_symmetry_space_group_name_H-M   'P 1'
_cell_length_a   5.83564949
_cell_length_b   8.52497827
_cell_length_c   9.97539497
_cell_angle_alpha   65.04511190
_cell_angle_beta   82.56174408
_cell_angle_gamma   81.08195973
_symmetry_Int_Tables_number   1
_chemical_formula_structural   Cu20NiC28
_chemical_formula_sum   'Cu20 Ni1 C28'
_cell_volume   443.35545557
_cell_formula_units_Z   1
loop_
 _symmetry_equiv_pos_site_id
 _symmetry_equiv_pos_as_xyz
  1  'x, y, z'
loop_
 _atom_site_type_symbol
 _atom_site_label
 _atom_site_symmetry_multiplicity
 _atom_site_fract_x
 _atom_site_fract_y
 _atom_site_fract_z
 _atom_site_occupancy
  C  C0  1  0.52068100  0.11456500  0.80770800  1
  C  C1  1  0.48032100  0.88404400  0.19578600  1
  C  C2  1  0.01513600  0.62014000  0.31402200  1
  C  C3  1  0.97835100  0.37703700  0.69661800  1
  C  C4  1  0.00258800  0.99513900  0.00171000  1
  C  C5  1  0.49463500  0.50209400  0.50650700  1
  C  C6  1  0.17757700  0.25918300  0.98835800  1
  C  C7  1  0.83158000  0.72652900  0.02187700  1
  C  C8  1  0.32064100  0.77413100  0.97096100  1
  C  C9  1  0.69286800  0.21329900  0.04026400  1
  C  C10  1  0.34136300  0.23638100  0.51262600  1
  C  C11  1  0.65606100  0.76850300  0.49515200  1
  C  C12  1  0.81091600  0.29589600  0.45347400  1
  C  C13  1  0.16999200  0.72077800  0.53884500  1
  C  C14  1  0.98356000  0.00319000  0.25236700  1
  C  C15  1  0.02046000  0.00933000  0.73837900  1
  C  C16  1  0.51115600  0.50915200  0.24666800  1
  C  C17  1  0.47567400  0.48220100  0.77109300  1
  C  C18  1  0.69629600  0.78639200  0.73933300  1
  C  C19  1  0.44219900  0.86163900  0.68804900  1
  C  C20  1  0.28984000  0.21183300  0.27005700  1
  C  C21  1  0.55834200  0.14524600  0.31206600  1
  C  C22  1  0.05915600  0.63334100  0.81319000  1
  C  C23  1  0.86223100  0.52673600  0.92421500  1
  C  C24  1  0.48870000  0.50307000  0.99824400  1
  C  C25  1  0.22408500  0.49914200  0.04005200  1
  C  C26  1  0.98332800  0.99075700  0.52188000  1
  C  C27  1  0.24629200  0.99726500  0.47266800  1
  Ni  Ni28  1  0.88251600  0.32854600  0.19838200  1
  Cu  Cu29  1  0.15296000  0.20799600  0.92174900  1
  Cu  Cu30  1  0.85087000  0.78399800  0.08480500  1
  Cu  Cu31  1  0.30925000  0.88561400  0.97975300  1
  Cu  Cu32  1  0.69562300  0.10854000  0.02245200  1
  Cu  Cu33  1  0.34810300  0.28839900  0.58167200  1
  Cu  Cu34  1  0.64216200  0.71590500  0.42748800  1
  Cu  Cu35  1  0.80159000  0.39220800  0.48365300  1
  Cu  Cu36  1  0.18713800  0.60891200  0.53020100  1
  Cu  Cu37  1  0.07012400  0.93145400  0.20381400  1
  Cu  Cu38  1  0.93002300  0.06293600  0.80041400  1
  Cu  Cu39  1  0.42447300  0.57085900  0.30324300  1
  Cu  Cu40  1  0.56765100  0.43051800  0.70814500  1
  Cu  Cu41  1  0.59498400  0.89576200  0.68682000  1
  Cu  Cu42  1  0.40184900  0.10508000  0.31464500  1
  Cu  Cu43  1  0.90446000  0.60099500  0.81556600  1
  Cu  Cu44  1  0.33832000  0.55663400  0.95424800  1
  Cu  Cu45  1  0.13592500  0.93552900  0.55906600  1
  Cu  Cu46  1  0.75473900  0.40890800  0.08566300  1
  Cu  Cu47  1  0.07879700  0.38540000  0.19731200  1
  Cu  Cu48  1  0.81636200  0.19369200  0.31170000  1
