# generated using pymatgen
data_Cu2(NiC3)3
_symmetry_space_group_name_H-M   'P 1'
_cell_length_a   5.56761912
_cell_length_b   5.56761912
_cell_length_c   15.19193002
_cell_angle_alpha   89.35352186
_cell_angle_beta   89.35352186
_cell_angle_gamma   122.89161395
_symmetry_Int_Tables_number   1
_chemical_formula_structural   Cu2(NiC3)3
_chemical_formula_sum   'Cu2 Ni3 C9'
_cell_volume   395.32545568
_cell_formula_units_Z   1
loop_
 _symmetry_equiv_pos_site_id
 _symmetry_equiv_pos_as_xyz
  1  'x, y, z'
loop_
 _atom_site_type_symbol
 _atom_site_label
 _atom_site_symmetry_multiplicity
 _atom_site_fract_x
 _atom_site_fract_y
 _atom_site_fract_z
 _atom_site_occupancy
  Ni  Ni0  1  0.35855800  0.35855800  0.23184900  1
  Ni  Ni1  1  0.03353400  0.64584700  0.22388100  1
  Ni  Ni2  1  0.64584700  0.03353400  0.22388100  1
  Cu  Cu3  1  0.66902700  0.34285800  0.03650000  1
  Cu  Cu4  1  0.34285800  0.66902700  0.03650000  1
  C  C5  1  0.50572200  0.50572200  0.00288100  1
  C  C6  1  0.50803200  0.00802300  0.00302100  1
  C  C7  1  0.00802300  0.50803200  0.00302100  1
  C  C8  1  0.66160200  0.33900900  0.14501200  1
  C  C9  1  0.33900900  0.66160200  0.14501200  1
  C  C10  1  0.91653800  0.91653800  0.18759100  1
  C  C11  1  0.74509100  0.74509100  0.26255100  1
  C  C12  1  0.01012900  0.32313100  0.28154900  1
  C  C13  1  0.32313100  0.01012900  0.28154900  1
