# generated using pymatgen
data_Cu2Ni3C23
_symmetry_space_group_name_H-M   'P 1'
_cell_length_a   6.08260317
_cell_length_b   6.08260317
_cell_length_c   9.79254719
_cell_angle_alpha   89.38414353
_cell_angle_beta   89.38414353
_cell_angle_gamma   60.25327478
_symmetry_Int_Tables_number   1
_chemical_formula_structural   Cu2Ni3C23
_chemical_formula_sum   'Cu2 Ni3 C23'
_cell_volume   314.53898256
_cell_formula_units_Z   1
loop_
 _symmetry_equiv_pos_site_id
 _symmetry_equiv_pos_as_xyz
  1  'x, y, z'
loop_
 _atom_site_type_symbol
 _atom_site_label
 _atom_site_symmetry_multiplicity
 _atom_site_fract_x
 _atom_site_fract_y
 _atom_site_fract_z
 _atom_site_occupancy
  C  C0  1  0.67055800  0.67055800  0.90164400  1
  C  C1  1  0.01081000  0.01081000  0.00659100  1
  C  C2  1  0.01317300  0.01317300  0.49046100  1
  C  C3  1  0.33541700  0.33541700  0.37049000  1
  Ni  Ni4  1  0.82985600  0.33694000  0.21502400  1
  Ni  Ni5  1  0.33694000  0.82985600  0.21502400  1
  Ni  Ni6  1  0.16821500  0.16821500  0.71655000  1
  Cu  Cu7  1  0.65530900  0.65530900  0.47317500  1
  Cu  Cu8  1  0.32768100  0.32768100  0.01087000  1
  C  C9  1  0.82929000  0.82929000  0.21467900  1
  C  C10  1  0.66205300  0.16810900  0.71578500  1
  C  C11  1  0.16810900  0.66205300  0.71578500  1
  C  C12  1  0.83858400  0.31205000  0.60622700  1
  C  C13  1  0.51599800  0.51599800  0.33229000  1
  C  C14  1  0.66776700  0.66776700  0.10468000  1
  C  C15  1  0.99721100  0.99721100  0.31172000  1
  C  C16  1  0.99932300  0.99932300  0.82033400  1
  C  C17  1  0.31205000  0.83858400  0.60622700  1
  C  C18  1  0.96343700  0.51946400  0.33655500  1
  C  C19  1  0.51946400  0.96343700  0.33655500  1
  C  C20  1  0.15993400  0.15993400  0.10582200  1
  C  C21  1  0.84464800  0.84464800  0.60318100  1
  C  C22  1  0.48652800  0.03291300  0.83008800  1
  C  C23  1  0.03291300  0.48652800  0.83008800  1
  C  C24  1  0.33363600  0.33363600  0.60285400  1
  C  C25  1  0.68354300  0.15265100  0.10127100  1
  C  C26  1  0.48577700  0.48577700  0.83260500  1
  C  C27  1  0.15265100  0.68354300  0.10127100  1
