# generated using pymatgen
data_CuNi3C32
_symmetry_space_group_name_H-M   'P 1'
_cell_length_a   8.44793180
_cell_length_b   8.44793180
_cell_length_c   8.44793109
_cell_angle_alpha   61.25952773
_cell_angle_beta   61.25952773
_cell_angle_gamma   61.25952841
_symmetry_Int_Tables_number   1
_chemical_formula_structural   CuNi3C32
_chemical_formula_sum   'Cu1 Ni3 C32'
_cell_volume   438.39403962
_cell_formula_units_Z   1
loop_
 _symmetry_equiv_pos_site_id
 _symmetry_equiv_pos_as_xyz
  1  'x, y, z'
loop_
 _atom_site_type_symbol
 _atom_site_label
 _atom_site_symmetry_multiplicity
 _atom_site_fract_x
 _atom_site_fract_y
 _atom_site_fract_z
 _atom_site_occupancy
  Ni  Ni0  1  0.64311400  0.64311400  0.64311400  1
  Ni  Ni1  1  0.85835800  0.85835800  0.85835800  1
  Ni  Ni2  1  0.35750200  0.35750200  0.35750200  1
  Cu  Cu3  1  0.14287100  0.14287100  0.14287100  1
  C  C4  1  0.00190400  0.00190400  0.00190400  1
  C  C5  1  0.50061900  0.50061900  0.50061900  1
  C  C6  1  0.95657300  0.24903000  0.54164800  1
  C  C7  1  0.54164800  0.95657300  0.24903000  1
  C  C8  1  0.24903000  0.54164800  0.95657300  1
  C  C9  1  0.75159000  0.45463800  0.04398600  1
  C  C10  1  0.45463800  0.04398600  0.75159000  1
  C  C11  1  0.04398600  0.75159000  0.45463800  1
  C  C12  1  0.50201100  0.11669800  0.31656000  1
  C  C13  1  0.31656000  0.50201100  0.11669800  1
  C  C14  1  0.11669800  0.31656000  0.50201100  1
  C  C15  1  0.94324400  0.08930700  0.74163900  1
  C  C16  1  0.99011100  0.18437300  0.38671400  1
  C  C17  1  0.75802500  0.41233400  0.56055200  1
  C  C18  1  0.74163900  0.94324400  0.08930700  1
  C  C19  1  0.56055200  0.75802500  0.41233400  1
  C  C20  1  0.81510200  0.61624600  0.00495800  1
  C  C21  1  0.41233400  0.56055200  0.75802500  1
  C  C22  1  0.90894100  0.25877800  0.05451600  1
  C  C23  1  0.61624600  0.00495800  0.81510200  1
  C  C24  1  0.38671400  0.99011100  0.18437300  1
  C  C25  1  0.08930700  0.74163900  0.94324400  1
  C  C26  1  0.58895300  0.44112600  0.24268000  1
  C  C27  1  0.18437300  0.38671400  0.99011100  1
  C  C28  1  0.44112600  0.24268000  0.58895300  1
  C  C29  1  0.25877800  0.05451600  0.90894100  1
  C  C30  1  0.24268000  0.58895300  0.44112600  1
  C  C31  1  0.00495800  0.81510200  0.61624600  1
  C  C32  1  0.05451600  0.90894100  0.25877800  1
  C  C33  1  0.88514300  0.67960700  0.50056300  1
  C  C34  1  0.67960700  0.50056300  0.88514300  1
  C  C35  1  0.50056300  0.88514300  0.67960700  1
