# generated using pymatgen
data_Cu5Ni3C26
_symmetry_space_group_name_H-M   'P 1'
_cell_length_a   6.03194800
_cell_length_b   6.22191504
_cell_length_c   10.10876369
_cell_angle_alpha   91.71333202
_cell_angle_beta   90.15372015
_cell_angle_gamma   118.74026100
_symmetry_Int_Tables_number   1
_chemical_formula_structural   Cu5Ni3C26
_chemical_formula_sum   'Cu5 Ni3 C26'
_cell_volume   332.43593892
_cell_formula_units_Z   1
loop_
 _symmetry_equiv_pos_site_id
 _symmetry_equiv_pos_as_xyz
  1  'x, y, z'
loop_
 _atom_site_type_symbol
 _atom_site_label
 _atom_site_symmetry_multiplicity
 _atom_site_fract_x
 _atom_site_fract_y
 _atom_site_fract_z
 _atom_site_occupancy
  C  C0  1  0.81904300  0.62913400  0.56161800  1
  C  C1  1  0.42062600  0.25764200  0.54690100  1
  C  C2  1  0.68423800  0.35871400  0.77795400  1
  C  C3  1  0.17793500  0.81383800  0.07657600  1
  C  C4  1  0.85773700  0.25389500  0.54680100  1
  C  C5  1  0.35668400  0.69768600  0.26901300  1
  C  C6  1  0.64571300  0.81204900  0.07506900  1
  C  C7  1  0.23748900  0.45957100  0.05284600  1
  C  C8  1  0.02512000  0.04489000  0.99115000  1
  C  C9  1  0.00743700  0.98823500  0.48583900  1
  Ni  Ni10  1  0.83535900  0.65429100  0.29036500  1
  Ni  Ni11  1  0.16301500  0.84560300  0.79158500  1
  Ni  Ni12  1  0.66957100  0.86517300  0.78087000  1
  Cu  Cu13  1  0.65548700  0.30038500  0.03592500  1
  Cu  Cu14  1  0.34304800  0.67144500  0.52006400  1
  Cu  Cu15  1  0.34042600  0.17181200  0.28579800  1
  Cu  Cu16  1  0.84800400  0.17124600  0.28584800  1
  Cu  Cu17  1  0.18801700  0.35695400  0.78016100  1
  C  C18  1  0.98297900  0.95364000  0.17053200  1
  C  C19  1  0.87661900  0.72821300  0.89713800  1
  C  C20  1  0.52110800  0.50421300  0.16521500  1
  C  C21  1  0.69264200  0.36507700  0.40998300  1
  C  C22  1  0.99641300  0.50247700  0.16388200  1
  C  C23  1  0.33297400  0.16293500  0.89601000  1
  C  C24  1  0.50672600  0.99951800  0.16261700  1
  C  C25  1  0.14571600  0.80888600  0.39839900  1
  C  C26  1  0.84000100  0.16489200  0.89407200  1
  C  C27  1  0.51306700  0.00116200  0.67284700  1
  C  C28  1  0.68478300  0.80954500  0.40142400  1
  C  C29  1  0.03020200  0.54789800  0.67477700  1
  C  C30  1  0.36766600  0.71787800  0.89665700  1
  C  C31  1  0.53238500  0.54752300  0.67561100  1
  C  C32  1  0.16319700  0.30530100  0.43415100  1
  C  C33  1  0.99687200  0.98165000  0.67500200  1
