# generated using pymatgen
data_Cu3Ni2C31
_symmetry_space_group_name_H-M   'P 1'
_cell_length_a   8.58032813
_cell_length_b   8.58032813
_cell_length_c   8.58032817
_cell_angle_alpha   60.66415662
_cell_angle_beta   60.66415662
_cell_angle_gamma   60.66416380
_symmetry_Int_Tables_number   1
_chemical_formula_structural   Cu3Ni2C31
_chemical_formula_sum   'Cu3 Ni2 C31'
_cell_volume   453.37759816
_cell_formula_units_Z   1
loop_
 _symmetry_equiv_pos_site_id
 _symmetry_equiv_pos_as_xyz
  1  'x, y, z'
loop_
 _atom_site_type_symbol
 _atom_site_label
 _atom_site_symmetry_multiplicity
 _atom_site_fract_x
 _atom_site_fract_y
 _atom_site_fract_z
 _atom_site_occupancy
  Ni  Ni0  1  0.99582200  0.99582200  0.99582200  1
  Ni  Ni1  1  0.50176200  0.50176200  0.50176200  1
  Cu  Cu2  1  0.85357900  0.85357900  0.85357900  1
  Cu  Cu3  1  0.64372400  0.64372400  0.64372400  1
  Cu  Cu4  1  0.35550000  0.35550000  0.35550000  1
  C  C5  1  0.14387600  0.14387600  0.14387600  1
  C  C6  1  0.25350800  0.54674500  0.95088800  1
  C  C7  1  0.74563600  0.45997000  0.04924200  1
  C  C8  1  0.45997000  0.04924200  0.74563600  1
  C  C9  1  0.04924200  0.74563600  0.45997000  1
  C  C10  1  0.95088800  0.25350800  0.54674500  1
  C  C11  1  0.54674500  0.95088800  0.25350800  1
  C  C12  1  0.89953300  0.68510400  0.48536800  1
  C  C13  1  0.68510400  0.48536800  0.89953300  1
  C  C14  1  0.94066200  0.08974900  0.73919100  1
  C  C15  1  0.48536800  0.89953300  0.68510400  1
  C  C16  1  0.99037500  0.18279400  0.38896400  1
  C  C17  1  0.75322900  0.40701900  0.55600700  1
  C  C18  1  0.73919100  0.94066200  0.08974900  1
  C  C19  1  0.55600700  0.75322900  0.40701900  1
  C  C20  1  0.81878300  0.60991000  0.00869500  1
  C  C21  1  0.40701900  0.55600700  0.75322900  1
  C  C22  1  0.91142900  0.25434700  0.06862200  1
  C  C23  1  0.60991000  0.00869500  0.81878300  1
  C  C24  1  0.38896400  0.99037500  0.18279400  1
  C  C25  1  0.08974900  0.73919100  0.94066200  1
  C  C26  1  0.59297500  0.43806400  0.25283000  1
  C  C27  1  0.18279400  0.38896400  0.99037500  1
  C  C28  1  0.43806400  0.25283000  0.59297500  1
  C  C29  1  0.25434700  0.06862200  0.91142900  1
  C  C30  1  0.25283000  0.59297500  0.43806400  1
  C  C31  1  0.00869500  0.81878300  0.60991000  1
  C  C32  1  0.49703400  0.10906400  0.31999500  1
  C  C33  1  0.06862200  0.91142900  0.25434700  1
  C  C34  1  0.31999500  0.49703400  0.10906400  1
  C  C35  1  0.10906400  0.31999500  0.49703400  1
