# generated using pymatgen
data_Cu2Ni8C11
_symmetry_space_group_name_H-M   'P 1'
_cell_length_a   9.21019300
_cell_length_b   6.44824200
_cell_length_c   15.20230138
_cell_angle_alpha   74.26021450
_cell_angle_beta   90.00000000
_cell_angle_gamma   90.00000000
_symmetry_Int_Tables_number   1
_chemical_formula_structural   Cu2Ni8C11
_chemical_formula_sum   'Cu8 Ni32 C44'
_cell_volume   869.00397951
_cell_formula_units_Z   4
loop_
 _symmetry_equiv_pos_site_id
 _symmetry_equiv_pos_as_xyz
  1  'x, y, z'
loop_
 _atom_site_type_symbol
 _atom_site_label
 _atom_site_symmetry_multiplicity
 _atom_site_fract_x
 _atom_site_fract_y
 _atom_site_fract_z
 _atom_site_occupancy
  C  C0  1  0.58582000  0.67774200  0.86582400  1
  C  C1  1  0.91418000  0.67774200  0.36582400  1
  C  C2  1  0.41418000  0.32225800  0.13417600  1
  C  C3  1  0.08582000  0.32225800  0.63417600  1
  Ni  Ni4  1  0.88664400  0.38664300  0.23957600  1
  Ni  Ni5  1  0.61335600  0.38664300  0.73957600  1
  Ni  Ni6  1  0.11335600  0.61335700  0.76042400  1
  Ni  Ni7  1  0.38664400  0.61335700  0.26042400  1
  Ni  Ni8  1  0.55398900  0.57310200  0.25289700  1
  Ni  Ni9  1  0.94601100  0.57310200  0.75289700  1
  Ni  Ni10  1  0.44601100  0.42689800  0.74710300  1
  Ni  Ni11  1  0.05398900  0.42689800  0.24710300  1
  Ni  Ni12  1  0.84884000  0.03300300  0.59140200  1
  Ni  Ni13  1  0.65116000  0.03300300  0.09140200  1
  Ni  Ni14  1  0.15116000  0.96699700  0.40859800  1
  Ni  Ni15  1  0.34884000  0.96699700  0.90859800  1
  Ni  Ni16  1  0.99833400  0.93474300  0.57501300  1
  Ni  Ni17  1  0.50166600  0.93474300  0.07501300  1
  Ni  Ni18  1  0.00166600  0.06525700  0.42498700  1
  Ni  Ni19  1  0.49833400  0.06525700  0.92498700  1
  Ni  Ni20  1  0.86326700  0.95389600  0.85697800  1
  Ni  Ni21  1  0.63673300  0.95389600  0.35697800  1
  Ni  Ni22  1  0.13673300  0.04610400  0.14302200  1
  Ni  Ni23  1  0.36326700  0.04610400  0.64302200  1
  Ni  Ni24  1  0.81831400  0.84766700  0.95891400  1
  Ni  Ni25  1  0.68168600  0.84766700  0.45891400  1
  Ni  Ni26  1  0.18168600  0.15233300  0.04108600  1
  Ni  Ni27  1  0.31831400  0.15233300  0.54108600  1
  Ni  Ni28  1  0.71531200  0.27309900  0.38779300  1
  Ni  Ni29  1  0.78468800  0.27309900  0.88779300  1
  Ni  Ni30  1  0.28468800  0.72690100  0.61220700  1
  Ni  Ni31  1  0.21531200  0.72690100  0.11220700  1
  Ni  Ni32  1  0.63015200  0.43358300  0.42988300  1
  Ni  Ni33  1  0.86984800  0.43358300  0.92988300  1
  Ni  Ni34  1  0.36984800  0.56641700  0.57011700  1
  Ni  Ni35  1  0.13015200  0.56641700  0.07011700  1
  Cu  Cu36  1  0.73388200  0.48510600  0.09070100  1
  Cu  Cu37  1  0.76611800  0.48510600  0.59070100  1
  Cu  Cu38  1  0.26611800  0.51489400  0.90929900  1
  Cu  Cu39  1  0.23388200  0.51489400  0.40929900  1
  Cu  Cu40  1  0.62723600  0.92461400  0.67309500  1
  Cu  Cu41  1  0.87276400  0.92461400  0.17309500  1
  Cu  Cu42  1  0.37276400  0.07538600  0.32690500  1
  Cu  Cu43  1  0.12723600  0.07538600  0.82690500  1
  C  C44  1  0.71836200  0.35897400  0.16993000  1
  C  C45  1  0.78163800  0.35897400  0.66993000  1
  C  C46  1  0.28163800  0.64102600  0.83007000  1
  C  C47  1  0.21836200  0.64102600  0.33007000  1
  C  C48  1  0.61925300  0.54160400  0.04179100  1
  C  C49  1  0.88074700  0.54160400  0.54179100  1
  C  C50  1  0.38074700  0.45839600  0.95820900  1
  C  C51  1  0.11925300  0.45839600  0.45820900  1
  C  C52  1  0.85626400  0.55414600  0.05999800  1
  C  C53  1  0.64373600  0.55414600  0.55999800  1
  C  C54  1  0.14373600  0.44585400  0.94000200  1
  C  C55  1  0.35626400  0.44585400  0.44000200  1
  C  C56  1  0.72823900  0.81302600  0.71960600  1
  C  C57  1  0.77176100  0.81302600  0.21960600  1
  C  C58  1  0.27176100  0.18697400  0.28039400  1
  C  C59  1  0.22823900  0.18697400  0.78039400  1
  C  C60  1  0.64408400  0.02002900  0.59028800  1
  C  C61  1  0.85591600  0.02002900  0.09028800  1
  C  C62  1  0.35591600  0.97997100  0.40971200  1
  C  C63  1  0.14408400  0.97997100  0.90971200  1
  C  C64  1  0.50707300  0.93638600  0.71429400  1
  C  C65  1  0.99292700  0.93638600  0.21429400  1
  C  C66  1  0.49292700  0.06361400  0.28570600  1
  C  C67  1  0.00707300  0.06361400  0.78570600  1
  C  C68  1  0.96232600  0.41515700  0.28069900  1
  C  C69  1  0.53767400  0.41515700  0.78069900  1
  C  C70  1  0.03767400  0.58484300  0.71930100  1
  C  C71  1  0.46232600  0.58484300  0.21930100  1
  C  C72  1  0.95101000  0.07026100  0.57528300  1
  C  C73  1  0.54899000  0.07026100  0.07528300  1
  C  C74  1  0.04899000  0.92973900  0.42471700  1
  C  C75  1  0.45101000  0.92973900  0.92471700  1
  C  C76  1  0.77780700  0.92033800  0.89878200  1
  C  C77  1  0.72219300  0.92033800  0.39878200  1
  C  C78  1  0.22219300  0.07966200  0.10121800  1
  C  C79  1  0.27780700  0.07966200  0.60121800  1
  C  C80  1  0.70083200  0.42693400  0.38275700  1
  C  C81  1  0.79916800  0.42693400  0.88275700  1
  C  C82  1  0.29916800  0.57306600  0.61724300  1
  C  C83  1  0.20083200  0.57306600  0.11724300  1
