# generated using pymatgen
data_CuNiC20
_symmetry_space_group_name_H-M   'P 1'
_cell_length_a   9.61145166
_cell_length_b   9.61491863
_cell_length_c   7.15811431
_cell_angle_alpha   79.51001535
_cell_angle_beta   79.54227540
_cell_angle_gamma   119.31362735
_symmetry_Int_Tables_number   1
_chemical_formula_structural   CuNiC20
_chemical_formula_sum   'Cu2 Ni2 C40'
_cell_volume   538.16214352
_cell_formula_units_Z   2
loop_
 _symmetry_equiv_pos_site_id
 _symmetry_equiv_pos_as_xyz
  1  'x, y, z'
loop_
 _atom_site_type_symbol
 _atom_site_label
 _atom_site_symmetry_multiplicity
 _atom_site_fract_x
 _atom_site_fract_y
 _atom_site_fract_z
 _atom_site_occupancy
  C  C0  1  0.07052300  0.43182000  0.32504100  1
  C  C1  1  0.31927100  0.18069000  0.67427000  1
  C  C2  1  0.56713000  0.92844000  0.32572800  1
  C  C3  1  0.82017400  0.68085600  0.67592400  1
  Ni  Ni4  1  0.25771700  0.25721600  0.26994500  1
  Ni  Ni5  1  0.99191200  0.49006500  0.73071200  1
  Cu  Cu6  1  0.75767200  0.75695800  0.27178600  1
  Cu  Cu7  1  0.49397900  0.99424700  0.72752000  1
  C  C8  1  0.35058500  0.52966500  0.51845100  1
  C  C9  1  0.85097200  0.03017900  0.52176000  1
  C  C10  1  0.66697300  0.45492900  0.08709700  1
  C  C11  1  0.17242500  0.95543100  0.08844700  1
  C  C12  1  0.29403400  0.58025100  0.91092000  1
  C  C13  1  0.79527600  0.07950400  0.91365000  1
  C  C14  1  0.21910400  0.89768200  0.48336700  1
  C  C15  1  0.72154300  0.40150000  0.47699100  1
  C  C16  1  0.19107500  0.12467300  0.08462800  1
  C  C17  1  0.01710200  0.19360900  0.39185900  1
  C  C18  1  0.20191000  0.04332100  0.50521400  1
  C  C19  1  0.27892700  0.48156900  0.11237900  1
  C  C20  1  0.48275000  0.30991400  0.15013100  1
  C  C21  1  0.33695100  0.37110300  0.48091600  1
  C  C22  1  0.20512400  0.54561600  0.49491900  1
  C  C23  1  0.70017300  0.04321800  0.50667200  1
  C  C24  1  0.55748300  0.23473200  0.60443200  1
  C  C25  1  0.05553700  0.72862900  0.60929700  1
  C  C26  1  0.62751300  0.06027400  0.91612000  1
  C  C27  1  0.12519900  0.56170900  0.91123200  1
  C  C28  1  0.34428000  0.49923200  0.75092100  1
  C  C29  1  0.75012000  0.40474000  0.24623100  1
  C  C30  1  0.25050000  0.90439000  0.25056600  1
  C  C31  1  0.68648500  0.62357000  0.08757100  1
  C  C32  1  0.51986300  0.69372300  0.39571000  1
  C  C33  1  0.70850900  0.55131400  0.49229900  1
  C  C34  1  0.87876800  0.41583600  0.51797600  1
  C  C35  1  0.37898400  0.91547600  0.51782900  1
  C  C36  1  0.93888900  0.26325300  0.85570000  1
  C  C37  1  0.43798100  0.76461200  0.84625700  1
  C  C38  1  0.27679700  0.97070000  0.88825200  1
  C  C39  1  0.76639400  0.47116500  0.88581700  1
  C  C40  1  0.77876100  0.97458300  0.11353100  1
  C  C41  1  0.98910200  0.81458300  0.14705400  1
  C  C42  1  0.83339600  0.87146400  0.48254200  1
  C  C43  1  0.84655600  0.99914100  0.75233300  1
