# generated using pymatgen
data_CuNiC12
_symmetry_space_group_name_H-M   'P 1'
_cell_length_a   5.77696600
_cell_length_b   8.34500100
_cell_length_c   8.54332924
_cell_angle_alpha   68.46166722
_cell_angle_beta   90.00000000
_cell_angle_gamma   90.00000000
_symmetry_Int_Tables_number   1
_chemical_formula_structural   CuNiC12
_chemical_formula_sum   'Cu2 Ni2 C24'
_cell_volume   383.10399801
_cell_formula_units_Z   2
loop_
 _symmetry_equiv_pos_site_id
 _symmetry_equiv_pos_as_xyz
  1  'x, y, z'
loop_
 _atom_site_type_symbol
 _atom_site_label
 _atom_site_symmetry_multiplicity
 _atom_site_fract_x
 _atom_site_fract_y
 _atom_site_fract_z
 _atom_site_occupancy
  C  C0  1  0.50000000  0.00000000  0.00000000  1
  C  C1  1  0.00000000  0.00000000  0.00000000  1
  Ni  Ni2  1  0.25000000  0.02861700  0.66626100  1
  Ni  Ni3  1  0.75000000  0.97138300  0.33373900  1
  C  C4  1  0.75000000  0.71251800  0.75727200  1
  C  C5  1  0.25000000  0.28748200  0.24272800  1
  C  C6  1  0.75000000  0.27385900  0.62525600  1
  C  C7  1  0.25000000  0.72614100  0.37474400  1
  Cu  Cu8  1  0.25000000  0.45316900  0.82388700  1
  Cu  Cu9  1  0.75000000  0.54683100  0.17611300  1
  C  C10  1  0.47624900  0.99383100  0.78012200  1
  C  C11  1  0.97624900  0.00616900  0.21987800  1
  C  C12  1  0.52375100  0.00616900  0.21987800  1
  C  C13  1  0.02375100  0.99383100  0.78012200  1
  C  C14  1  0.25000000  0.22152600  0.55195500  1
  C  C15  1  0.75000000  0.77847400  0.44804500  1
  C  C16  1  0.25000000  0.90560000  0.57250800  1
  C  C17  1  0.75000000  0.09440000  0.42749200  1
  C  C18  1  0.46094400  0.49608300  0.71043500  1
  C  C19  1  0.96094400  0.50391700  0.28956500  1
  C  C20  1  0.53905600  0.50391700  0.28956500  1
  C  C21  1  0.03905600  0.49608300  0.71043500  1
  C  C22  1  0.25000000  0.55701700  0.93091600  1
  C  C23  1  0.75000000  0.44298300  0.06908400  1
  C  C24  1  0.25000000  0.26628400  0.93019000  1
  C  C25  1  0.75000000  0.73371600  0.06981000  1
  C  C26  1  0.25000000  0.85893900  0.07179700  1
  C  C27  1  0.75000000  0.14106100  0.92820300  1
