# generated using pymatgen
data_Cu7Ni3C5
_symmetry_space_group_name_H-M   'P 1'
_cell_length_a   4.78920600
_cell_length_b   4.80168171
_cell_length_c   15.44140041
_cell_angle_alpha   89.83813474
_cell_angle_beta   89.84317425
_cell_angle_gamma   88.49531340
_symmetry_Int_Tables_number   1
_chemical_formula_structural   Cu7Ni3C5
_chemical_formula_sum   'Cu14 Ni6 C10'
_cell_volume   354.96907465
_cell_formula_units_Z   2
loop_
 _symmetry_equiv_pos_site_id
 _symmetry_equiv_pos_as_xyz
  1  'x, y, z'
loop_
 _atom_site_type_symbol
 _atom_site_label
 _atom_site_symmetry_multiplicity
 _atom_site_fract_x
 _atom_site_fract_y
 _atom_site_fract_z
 _atom_site_occupancy
  C  C0  1  0.00000000  0.00000000  0.00000000  1
  C  C1  1  0.03242400  0.99255100  0.80648900  1
  C  C2  1  0.02116300  0.97792500  0.60004700  1
  C  C3  1  0.97883700  0.02207500  0.39995300  1
  C  C4  1  0.96757600  0.00744900  0.19351100  1
  C  C5  1  0.46253400  0.47927300  0.89622700  1
  C  C6  1  0.50000000  0.50000000  0.50000000  1
  C  C7  1  0.48132300  0.52869500  0.69935900  1
  C  C8  1  0.51867700  0.47130500  0.30064100  1
  C  C9  1  0.53746600  0.52072700  0.10377300  1
  Ni  Ni10  1  0.82345000  0.82671200  0.09741800  1
  Ni  Ni11  1  0.68067900  0.31762500  0.40303100  1
  Ni  Ni12  1  0.69893000  0.30770300  0.20429400  1
  Ni  Ni13  1  0.30107000  0.69229700  0.79570600  1
  Ni  Ni14  1  0.31932100  0.68237500  0.59696900  1
  Ni  Ni15  1  0.17655000  0.17328800  0.90258200  1
  Cu  Cu16  1  0.79797300  0.79764100  0.90056300  1
  Cu  Cu17  1  0.80704100  0.79982400  0.70336000  1
  Cu  Cu18  1  0.79996800  0.79893800  0.50027800  1
  Cu  Cu19  1  0.79727300  0.80566300  0.29783700  1
  Cu  Cu20  1  0.69858600  0.30407900  0.99828400  1
  Cu  Cu21  1  0.69984000  0.28829900  0.79208600  1
  Cu  Cu22  1  0.70481600  0.29593300  0.60136400  1
  Cu  Cu23  1  0.30141400  0.69592100  0.00171600  1
  Cu  Cu24  1  0.29518400  0.70406700  0.39863600  1
  Cu  Cu25  1  0.30016000  0.71170100  0.20791400  1
  Cu  Cu26  1  0.20003200  0.20106200  0.49972200  1
  Cu  Cu27  1  0.20272700  0.19433700  0.70216300  1
  Cu  Cu28  1  0.20202700  0.20235900  0.09943700  1
  Cu  Cu29  1  0.19295900  0.20017600  0.29664000  1
