# generated using pymatgen
data_Cu11NiC6
_symmetry_space_group_name_H-M   'P 1'
_cell_length_a   5.70792483
_cell_length_b   5.70792483
_cell_length_c   7.40956522
_cell_angle_alpha   73.32992239
_cell_angle_beta   73.32992239
_cell_angle_gamma   72.99603528
_symmetry_Int_Tables_number   1
_chemical_formula_structural   Cu11NiC6
_chemical_formula_sum   'Cu11 Ni1 C6'
_cell_volume   215.65481017
_cell_formula_units_Z   1
loop_
 _symmetry_equiv_pos_site_id
 _symmetry_equiv_pos_as_xyz
  1  'x, y, z'
loop_
 _atom_site_type_symbol
 _atom_site_label
 _atom_site_symmetry_multiplicity
 _atom_site_fract_x
 _atom_site_fract_y
 _atom_site_fract_z
 _atom_site_occupancy
  C  C0  1  0.33291700  0.33291700  0.16562200  1
  C  C1  1  0.34841000  0.34841000  0.66928700  1
  C  C2  1  0.66429100  0.66429100  0.34281000  1
  C  C3  1  0.65934300  0.65934300  0.82145600  1
  C  C4  1  0.00202300  0.00202300  0.50150100  1
  C  C5  1  0.99738600  0.99738600  0.99698600  1
  Ni  Ni6  1  0.55857100  0.55857100  0.63797000  1
  Cu  Cu7  1  0.64012800  0.02672400  0.66996100  1
  Cu  Cu8  1  0.96862600  0.36251200  0.33088000  1
  Cu  Cu9  1  0.42869400  0.42869400  0.37207900  1
  Cu  Cu10  1  0.11450400  0.11450400  0.69713400  1
  Cu  Cu11  1  0.76206600  0.76206600  0.03430700  1
  Cu  Cu12  1  0.23448300  0.23448300  0.96014700  1
  Cu  Cu13  1  0.89809000  0.89809000  0.29712400  1
  Cu  Cu14  1  0.02672400  0.64012800  0.66996100  1
  Cu  Cu15  1  0.36251200  0.96862600  0.33088000  1
  Cu  Cu16  1  0.69939700  0.30183400  0.00094800  1
  Cu  Cu17  1  0.30183400  0.69939700  0.00094800  1
