# generated using pymatgen
data_Cu3(NiC10)2
_symmetry_space_group_name_H-M   'P 1'
_cell_length_a   5.55669200
_cell_length_b   5.59772887
_cell_length_c   39.27609652
_cell_angle_alpha   90.03645212
_cell_angle_beta   90.03781197
_cell_angle_gamma   90.04679690
_symmetry_Int_Tables_number   1
_chemical_formula_structural   Cu3(NiC10)2
_chemical_formula_sum   'Cu12 Ni8 C80'
_cell_volume   1221.67637429
_cell_formula_units_Z   4
loop_
 _symmetry_equiv_pos_site_id
 _symmetry_equiv_pos_as_xyz
  1  'x, y, z'
loop_
 _atom_site_type_symbol
 _atom_site_label
 _atom_site_symmetry_multiplicity
 _atom_site_fract_x
 _atom_site_fract_y
 _atom_site_fract_z
 _atom_site_occupancy
  C  C0  1  0.00929500  0.99624000  0.04982700  1
  C  C1  1  0.00885300  0.99755100  0.25043400  1
  C  C2  1  0.00984300  0.99881000  0.45051700  1
  C  C3  1  0.01024000  0.99433900  0.65033000  1
  C  C4  1  0.01114000  0.99370300  0.85010300  1
  C  C5  1  0.49108900  0.49835600  0.35032600  1
  C  C6  1  0.49124400  0.49772700  0.15043600  1
  C  C7  1  0.49200600  0.49917400  0.55039500  1
  C  C8  1  0.48970900  0.49993500  0.74830500  1
  C  C9  1  0.48864200  0.50001700  0.94833200  1
  C  C10  1  0.51049300  0.50459200  0.05077500  1
  C  C11  1  0.51057200  0.50548200  0.25087100  1
  C  C12  1  0.51066200  0.50650700  0.65043600  1
  C  C13  1  0.50897300  0.50214600  0.45068000  1
  C  C14  1  0.51172400  0.50574600  0.85057400  1
  C  C15  1  0.98951900  0.00629200  0.15065300  1
  C  C16  1  0.98900900  0.00754600  0.35087100  1
  C  C17  1  0.98507000  0.00439800  0.55063000  1
  C  C18  1  0.98661700  0.00611900  0.74826100  1
  C  C19  1  0.98553000  0.00624600  0.94798000  1
  Ni  Ni20  1  0.99985500  0.50175900  0.00032200  1
  Ni  Ni21  1  0.99981200  0.50178600  0.39999300  1
  Ni  Ni22  1  0.00025900  0.50020500  0.50052600  1
  Ni  Ni23  1  0.00075900  0.49717800  0.60124700  1
  Ni  Ni24  1  0.00036300  0.50086500  0.80062000  1
  Ni  Ni25  1  0.49982400  0.00010700  0.10035300  1
  Ni  Ni26  1  0.49961400  0.99981500  0.30068800  1
  Ni  Ni27  1  0.00025500  0.49997400  0.20063700  1
  Cu  Cu28  1  0.00035500  0.50006700  0.09999900  1
  Cu  Cu29  1  0.99997900  0.50052800  0.69999300  1
  Cu  Cu30  1  0.99992300  0.50000700  0.89973300  1
  Cu  Cu31  1  0.49910300  0.00014300  0.99967800  1
  Cu  Cu32  1  0.49972600  0.99997700  0.20025400  1
  Cu  Cu33  1  0.49936900  0.99979300  0.50005300  1
  Cu  Cu34  1  0.49951100  0.00027300  0.59994600  1
  Cu  Cu35  1  0.49889500  0.00014800  0.89960300  1
  Cu  Cu36  1  0.49975900  0.99995900  0.40028300  1
  Cu  Cu37  1  0.49892600  0.00018400  0.69970500  1
  Cu  Cu38  1  0.49963200  0.00014600  0.80008300  1
  Cu  Cu39  1  0.00027500  0.50014000  0.30010800  1
  C  C40  1  0.99553400  0.44253900  0.04900800  1
  C  C41  1  0.99587400  0.44440200  0.24933200  1
  C  C42  1  0.99651100  0.44718100  0.44969700  1
  C  C43  1  0.99595900  0.44225100  0.64966500  1
  C  C44  1  0.99521200  0.44019300  0.84914400  1
  C  C45  1  0.23191300  0.23682300  0.19292700  1
  C  C46  1  0.23683700  0.23182600  0.10651200  1
  C  C47  1  0.23611400  0.23138200  0.30681900  1
  C  C48  1  0.23161500  0.23817000  0.39305300  1
  C  C49  1  0.23052000  0.23772900  0.59295400  1
  C  C50  1  0.23128200  0.23918400  0.50652300  1
  C  C51  1  0.23616700  0.23762300  0.70906600  1
  C  C52  1  0.23563200  0.24196100  0.79181200  1
  C  C53  1  0.23519900  0.23643000  0.90899200  1
  C  C54  1  0.23517200  0.24098100  0.99168400  1
  C  C55  1  0.26824400  0.73681700  0.29302200  1
  C  C56  1  0.26565200  0.72821400  0.00644300  1
  C  C57  1  0.26768200  0.73738200  0.09263200  1
  C  C58  1  0.26360500  0.73109100  0.20683400  1
  C  C59  1  0.26284400  0.73174100  0.40655100  1
  C  C60  1  0.26211300  0.73039000  0.49312100  1
  C  C61  1  0.27093900  0.72749100  0.69349900  1
  C  C62  1  0.26214300  0.73056600  0.60675400  1
  C  C63  1  0.26477000  0.72933000  0.80665300  1
  C  C64  1  0.27224900  0.72624800  0.89333300  1
  C  C65  1  0.50453400  0.94615700  0.34943000  1
  C  C66  1  0.50422400  0.94479800  0.14922900  1
  C  C67  1  0.50852100  0.93964100  0.55003200  1
  C  C68  1  0.50399700  0.92605600  0.75014400  1
  C  C69  1  0.50474400  0.92590900  0.95000100  1
  C  C70  1  0.49748900  0.07250500  0.05013800  1
  C  C71  1  0.49732100  0.07250200  0.25043000  1
  C  C72  1  0.49709900  0.08109500  0.65007900  1
  C  C73  1  0.49693100  0.07835700  0.44999300  1
  C  C74  1  0.49694200  0.08105400  0.84981400  1
  C  C75  1  0.74082000  0.25376500  0.10620500  1
  C  C76  1  0.74662800  0.25790800  0.19323800  1
  C  C77  1  0.74110200  0.25351000  0.30644400  1
  C  C78  1  0.74662800  0.25947600  0.39337700  1
  C  C79  1  0.74771400  0.25918400  0.59328000  1
  C  C80  1  0.74651600  0.26068600  0.50609500  1
  C  C81  1  0.74079000  0.26407100  0.79193800  1
  C  C82  1  0.73698100  0.26301200  0.70883700  1
  C  C83  1  0.74022600  0.26346600  0.99185600  1
  C  C84  1  0.73517100  0.26455900  0.90871800  1
  C  C85  1  0.75832900  0.75149800  0.00615300  1
  C  C86  1  0.75404200  0.75851200  0.09297600  1
  C  C87  1  0.75888700  0.75280100  0.20641200  1
  C  C88  1  0.75354000  0.75817100  0.29333300  1
  C  C89  1  0.75994500  0.75169800  0.49344800  1
  C  C90  1  0.75780700  0.75645800  0.69379900  1
  C  C91  1  0.76001400  0.75391900  0.40618400  1
  C  C92  1  0.76053000  0.75220300  0.60638800  1
  C  C93  1  0.75956200  0.75239000  0.80638600  1
  C  C94  1  0.75941400  0.75811200  0.89351600  1
  C  C95  1  0.00291000  0.57244900  0.15030000  1
  C  C96  1  0.00249600  0.57180800  0.35031800  1
  C  C97  1  0.00290800  0.56895900  0.54981900  1
  C  C98  1  0.00440500  0.57049000  0.75063000  1
  C  C99  1  0.00463200  0.57089700  0.95047100  1
