# generated using pymatgen
data_Cu5Ni4C37
_symmetry_space_group_name_H-M   'P 1'
_cell_length_a   12.28343003
_cell_length_b   12.28343003
_cell_length_c   9.48292491
_cell_angle_alpha   83.56818751
_cell_angle_beta   83.56818751
_cell_angle_gamma   141.14208613
_symmetry_Int_Tables_number   1
_chemical_formula_structural   Cu5Ni4C37
_chemical_formula_sum   'Cu10 Ni8 C74'
_cell_volume   845.24257050
_cell_formula_units_Z   2
loop_
 _symmetry_equiv_pos_site_id
 _symmetry_equiv_pos_as_xyz
  1  'x, y, z'
loop_
 _atom_site_type_symbol
 _atom_site_label
 _atom_site_symmetry_multiplicity
 _atom_site_fract_x
 _atom_site_fract_y
 _atom_site_fract_z
 _atom_site_occupancy
  C  C0  1  0.07612900  0.92387100  0.75000000  1
  C  C1  1  0.92387100  0.07612900  0.25000000  1
  C  C2  1  0.23020500  0.66897600  0.84360900  1
  C  C3  1  0.33102400  0.76979500  0.65639100  1
  C  C4  1  0.76979500  0.33102400  0.15639100  1
  C  C5  1  0.66897600  0.23020500  0.34360900  1
  C  C6  1  0.42873400  0.76470700  0.76128000  1
  C  C7  1  0.23529300  0.57126600  0.73872000  1
  C  C8  1  0.57126600  0.23529300  0.23872000  1
  C  C9  1  0.76470700  0.42873400  0.26128000  1
  C  C10  1  0.54249900  0.72733900  0.10182400  1
  C  C11  1  0.27266100  0.45750100  0.39817600  1
  C  C12  1  0.45750100  0.27266100  0.89817600  1
  C  C13  1  0.72733900  0.54249900  0.60182400  1
  C  C14  1  0.63622400  0.68527100  0.02938600  1
  C  C15  1  0.31472900  0.36377600  0.47061400  1
  C  C16  1  0.36377600  0.31472900  0.97061400  1
  C  C17  1  0.68527100  0.63622400  0.52938600  1
  C  C18  1  0.58230000  0.74502000  0.91796500  1
  C  C19  1  0.25498000  0.41770000  0.58203500  1
  C  C20  1  0.41770000  0.25498000  0.08203500  1
  C  C21  1  0.74502000  0.58230000  0.41796500  1
  C  C22  1  0.41191800  0.53819900  0.04883600  1
  C  C23  1  0.46180100  0.58808200  0.45116400  1
  C  C24  1  0.58808200  0.46180100  0.95116400  1
  C  C25  1  0.53819900  0.41191800  0.54883600  1
  C  C26  1  0.96886400  0.37880300  0.45665300  1
  C  C27  1  0.62119700  0.03113600  0.04334700  1
  C  C28  1  0.03113600  0.62119700  0.54334700  1
  C  C29  1  0.37880300  0.96886400  0.95665300  1
  C  C30  1  0.88373700  0.33405500  0.63998800  1
  C  C31  1  0.66594500  0.11626300  0.86001200  1
  C  C32  1  0.11626300  0.66594500  0.36001200  1
  C  C33  1  0.33405500  0.88373700  0.13998800  1
  C  C34  1  0.91360600  0.22544100  0.58901900  1
  C  C35  1  0.77455900  0.08639400  0.91098100  1
  C  C36  1  0.08639400  0.77455900  0.41098100  1
  C  C37  1  0.22544100  0.91360600  0.08901900  1
  C  C38  1  0.75195000  0.17613000  0.55144900  1
  C  C39  1  0.82387000  0.24805000  0.94855100  1
  C  C40  1  0.24805000  0.82387000  0.44855100  1
  C  C41  1  0.17613000  0.75195000  0.05144900  1
  Ni  Ni42  1  0.10092300  0.22319700  0.87916600  1
  Ni  Ni43  1  0.77680300  0.89907700  0.62083400  1
  Ni  Ni44  1  0.89907700  0.77680300  0.12083400  1
  Ni  Ni45  1  0.22319700  0.10092300  0.37916600  1
  Ni  Ni46  1  0.47114000  0.11552600  0.66647900  1
  Ni  Ni47  1  0.88447400  0.52886000  0.83352100  1
  Ni  Ni48  1  0.52886000  0.88447400  0.33352100  1
  Ni  Ni49  1  0.11552600  0.47114000  0.16647900  1
  Cu  Cu50  1  0.30561000  0.69439000  0.75000000  1
  Cu  Cu51  1  0.69439000  0.30561000  0.25000000  1
  Cu  Cu52  1  0.54229500  0.67244800  0.02591900  1
  Cu  Cu53  1  0.32755200  0.45770500  0.47408100  1
  Cu  Cu54  1  0.45770500  0.32755200  0.97408100  1
  Cu  Cu55  1  0.67244800  0.54229500  0.52591900  1
  Cu  Cu56  1  0.88065500  0.27897900  0.56209300  1
  Cu  Cu57  1  0.72102100  0.11934500  0.93790700  1
  Cu  Cu58  1  0.11934500  0.72102100  0.43790700  1
  Cu  Cu59  1  0.27897900  0.88065500  0.06209300  1
  C  C60  1  0.90441300  0.05570700  0.97446600  1
  C  C61  1  0.94429300  0.09558700  0.52553400  1
  C  C62  1  0.09558700  0.94429300  0.02553400  1
  C  C63  1  0.05570700  0.90441300  0.47446600  1
  C  C64  1  0.16228900  0.17871100  0.78811500  1
  C  C65  1  0.82128900  0.83771100  0.71188500  1
  C  C66  1  0.83771100  0.82128900  0.21188500  1
  C  C67  1  0.17871100  0.16228900  0.28811500  1
  C  C68  1  0.20746300  0.30792100  0.98794800  1
  C  C69  1  0.69207900  0.79253700  0.51205200  1
  C  C70  1  0.79253700  0.69207900  0.01205200  1
  C  C71  1  0.30792100  0.20746300  0.48794800  1
  C  C72  1  0.12918400  0.34835000  0.77534000  1
  C  C73  1  0.65165000  0.87081600  0.72466000  1
  C  C74  1  0.87081600  0.65165000  0.22466000  1
  C  C75  1  0.34835000  0.12918400  0.27534000  1
  C  C76  1  0.39681800  0.15003300  0.76009000  1
  C  C77  1  0.84996700  0.60318200  0.73991000  1
  C  C78  1  0.60318200  0.84996700  0.23991000  1
  C  C79  1  0.15003300  0.39681800  0.26009000  1
  C  C80  1  0.50022600  0.04174800  0.76653600  1
  C  C81  1  0.95825200  0.49977400  0.73346400  1
  C  C82  1  0.49977400  0.95825200  0.23346400  1
  C  C83  1  0.04174800  0.50022600  0.26653600  1
  C  C84  1  0.64472400  0.28466000  0.54872000  1
  C  C85  1  0.71534000  0.35527600  0.95128000  1
  C  C86  1  0.35527600  0.71534000  0.45128000  1
  C  C87  1  0.28466000  0.64472400  0.04872000  1
  C  C88  1  0.32267300  0.97302100  0.60395500  1
  C  C89  1  0.02697900  0.67732700  0.89604500  1
  C  C90  1  0.67732700  0.02697900  0.39604500  1
  C  C91  1  0.97302100  0.32267300  0.10395500  1
