# generated using pymatgen
data_Cu6Ni2C5
_symmetry_space_group_name_H-M   'P 1'
_cell_length_a   8.50541400
_cell_length_b   9.01791200
_cell_length_c   13.29111600
_cell_angle_alpha   90.00000000
_cell_angle_beta   90.00000000
_cell_angle_gamma   90.00000000
_symmetry_Int_Tables_number   1
_chemical_formula_structural   Cu6Ni2C5
_chemical_formula_sum   'Cu24 Ni8 C20'
_cell_volume   1019.44288482
_cell_formula_units_Z   4
loop_
 _symmetry_equiv_pos_site_id
 _symmetry_equiv_pos_as_xyz
  1  'x, y, z'
loop_
 _atom_site_type_symbol
 _atom_site_label
 _atom_site_symmetry_multiplicity
 _atom_site_fract_x
 _atom_site_fract_y
 _atom_site_fract_z
 _atom_site_occupancy
  C  C0  1  0.47568200  0.48619300  0.25898700  1
  C  C1  1  0.47568200  0.51380700  0.74101300  1
  C  C2  1  0.97568200  0.98619300  0.24101300  1
  C  C3  1  0.97568200  0.01380700  0.75898700  1
  C  C4  1  0.24960300  0.23126200  0.30461300  1
  C  C5  1  0.24960300  0.76873800  0.69538700  1
  C  C6  1  0.74960300  0.73126200  0.19538700  1
  C  C7  1  0.74960300  0.26873800  0.80461300  1
  C  C8  1  0.24351900  0.74276900  0.30441500  1
  C  C9  1  0.24351900  0.25723100  0.69558500  1
  C  C10  1  0.74351900  0.24276900  0.19558500  1
  C  C11  1  0.74351900  0.75723100  0.80441500  1
  C  C12  1  0.88545700  0.00000000  0.50000000  1
  C  C13  1  0.38545700  0.50000000  0.00000000  1
  C  C14  1  0.62240900  0.50000000  0.50000000  1
  C  C15  1  0.12240900  0.00000000  0.00000000  1
  C  C16  1  0.99649500  0.50000000  0.00000000  1
  C  C17  1  0.49649500  0.00000000  0.50000000  1
  C  C18  1  0.49737400  0.00000000  0.00000000  1
  C  C19  1  0.99737400  0.50000000  0.50000000  1
  Ni  Ni20  1  0.35672000  0.31620200  0.30732500  1
  Ni  Ni21  1  0.35672000  0.68379800  0.69267500  1
  Ni  Ni22  1  0.85672000  0.81620200  0.19267500  1
  Ni  Ni23  1  0.85672000  0.18379800  0.80732500  1
  Ni  Ni24  1  0.34416000  0.65179400  0.29884600  1
  Ni  Ni25  1  0.34416000  0.34820600  0.70115400  1
  Ni  Ni26  1  0.84416000  0.15179400  0.20115400  1
  Ni  Ni27  1  0.84416000  0.84820600  0.79884600  1
  Cu  Cu28  1  0.14250300  0.14211700  0.30732200  1
  Cu  Cu29  1  0.14250300  0.85788300  0.69267800  1
  Cu  Cu30  1  0.64250300  0.64211700  0.19267800  1
  Cu  Cu31  1  0.64250300  0.35788300  0.80732200  1
  Cu  Cu32  1  0.14221500  0.83706800  0.31513700  1
  Cu  Cu33  1  0.14221500  0.16293200  0.68486300  1
  Cu  Cu34  1  0.64221500  0.33706800  0.18486300  1
  Cu  Cu35  1  0.64221500  0.66293200  0.81513700  1
  Cu  Cu36  1  0.38176100  0.48183100  0.08724700  1
  Cu  Cu37  1  0.38176100  0.51816900  0.91275300  1
  Cu  Cu38  1  0.88176100  0.98183100  0.41275300  1
  Cu  Cu39  1  0.88176100  0.01816900  0.58724700  1
  Cu  Cu40  1  0.12643600  0.99056300  0.08794300  1
  Cu  Cu41  1  0.12643600  0.00943700  0.91205700  1
  Cu  Cu42  1  0.62643600  0.49056300  0.41205700  1
  Cu  Cu43  1  0.62643600  0.50943700  0.58794300  1
  Cu  Cu44  1  0.49792600  0.90513900  0.43927500  1
  Cu  Cu45  1  0.49792600  0.09486100  0.56072500  1
  Cu  Cu46  1  0.99792600  0.40513900  0.06072500  1
  Cu  Cu47  1  0.99792600  0.59486100  0.93927500  1
  Cu  Cu48  1  0.49535800  0.90233700  0.05865300  1
  Cu  Cu49  1  0.49535800  0.09766300  0.94134700  1
  Cu  Cu50  1  0.99535800  0.40233700  0.44134700  1
  Cu  Cu51  1  0.99535800  0.59766300  0.55865300  1
