# generated using pymatgen
data_Cu12Ni2C13
_symmetry_space_group_name_H-M   'P 1'
_cell_length_a   11.11323400
_cell_length_b   11.11323400
_cell_length_c   11.11323400
_cell_angle_alpha   90.00000000
_cell_angle_beta   90.00000000
_cell_angle_gamma   90.00000000
_symmetry_Int_Tables_number   1
_chemical_formula_structural   Cu12Ni2C13
_chemical_formula_sum   'Cu48 Ni8 C52'
_cell_volume   1372.52851786
_cell_formula_units_Z   4
loop_
 _symmetry_equiv_pos_site_id
 _symmetry_equiv_pos_as_xyz
  1  'x, y, z'
loop_
 _atom_site_type_symbol
 _atom_site_label
 _atom_site_symmetry_multiplicity
 _atom_site_fract_x
 _atom_site_fract_y
 _atom_site_fract_z
 _atom_site_occupancy
  C  C0  1  0.50000000  0.50000000  0.00000000  1
  C  C1  1  0.50000000  0.00000000  0.50000000  1
  C  C2  1  0.00000000  0.50000000  0.50000000  1
  C  C3  1  0.00000000  0.00000000  0.00000000  1
  C  C4  1  0.19105200  0.58301200  0.14520100  1
  C  C5  1  0.80894800  0.08301200  0.35479900  1
  C  C6  1  0.30894800  0.41698800  0.64520100  1
  C  C7  1  0.69105200  0.91698800  0.85479900  1
  C  C8  1  0.14520100  0.19105200  0.58301200  1
  C  C9  1  0.35479900  0.80894800  0.08301200  1
  C  C10  1  0.64520100  0.30894800  0.41698800  1
  C  C11  1  0.85479900  0.69105200  0.91698800  1
  C  C12  1  0.58301200  0.14520100  0.19105200  1
  C  C13  1  0.08301200  0.35479900  0.80894800  1
  C  C14  1  0.41698800  0.64520100  0.30894800  1
  C  C15  1  0.91698800  0.85479900  0.69105200  1
  C  C16  1  0.80894800  0.41698800  0.85479900  1
  C  C17  1  0.19105200  0.91698800  0.64520100  1
  C  C18  1  0.69105200  0.58301200  0.35479900  1
  C  C19  1  0.30894800  0.08301200  0.14520100  1
  C  C20  1  0.85479900  0.80894800  0.41698800  1
  C  C21  1  0.64520100  0.19105200  0.91698800  1
  C  C22  1  0.35479900  0.69105200  0.58301200  1
  C  C23  1  0.14520100  0.30894800  0.08301200  1
  C  C24  1  0.41698800  0.85479900  0.80894800  1
  C  C25  1  0.91698800  0.64520100  0.19105200  1
  C  C26  1  0.58301200  0.35479900  0.69105200  1
  C  C27  1  0.08301200  0.14520100  0.30894800  1
  C  C28  1  0.19109600  0.31795400  0.88845200  1
  C  C29  1  0.80890400  0.81795400  0.61154800  1
  C  C30  1  0.30890400  0.68204600  0.38845200  1
  C  C31  1  0.69109600  0.18204600  0.11154800  1
  C  C32  1  0.88845200  0.19109600  0.31795400  1
  C  C33  1  0.61154800  0.80890400  0.81795400  1
  C  C34  1  0.38845200  0.30890400  0.68204600  1
  C  C35  1  0.11154800  0.69109600  0.18204600  1
  C  C36  1  0.31795400  0.88845200  0.19109600  1
  C  C37  1  0.81795400  0.61154800  0.80890400  1
  C  C38  1  0.68204600  0.38845200  0.30890400  1
  C  C39  1  0.18204600  0.11154800  0.69109600  1
  C  C40  1  0.80890400  0.68204600  0.11154800  1
  C  C41  1  0.19109600  0.18204600  0.38845200  1
  C  C42  1  0.69109600  0.31795400  0.61154800  1
  C  C43  1  0.30890400  0.81795400  0.88845200  1
  C  C44  1  0.11154800  0.80890400  0.68204600  1
  C  C45  1  0.38845200  0.19109600  0.18204600  1
  C  C46  1  0.61154800  0.69109600  0.31795400  1
  C  C47  1  0.88845200  0.30890400  0.81795400  1
  C  C48  1  0.68204600  0.11154800  0.80890400  1
  C  C49  1  0.18204600  0.38845200  0.19109600  1
  C  C50  1  0.31795400  0.61154800  0.69109600  1
  C  C51  1  0.81795400  0.88845200  0.30890400  1
  Ni  Ni52  1  0.17745800  0.82254200  0.32254200  1
  Ni  Ni53  1  0.82254200  0.32254200  0.17745800  1
  Ni  Ni54  1  0.32254200  0.17745800  0.82254200  1
  Ni  Ni55  1  0.67745800  0.67745800  0.67745800  1
  Ni  Ni56  1  0.82254200  0.17745800  0.67745800  1
  Ni  Ni57  1  0.17745800  0.67745800  0.82254200  1
  Ni  Ni58  1  0.67745800  0.82254200  0.17745800  1
  Ni  Ni59  1  0.32254200  0.32254200  0.32254200  1
  Cu  Cu60  1  0.38867900  0.64313000  0.64843000  1
  Cu  Cu61  1  0.61132100  0.14313000  0.85157000  1
  Cu  Cu62  1  0.11132100  0.35687000  0.14843000  1
  Cu  Cu63  1  0.88867900  0.85687000  0.35157000  1
  Cu  Cu64  1  0.64843000  0.38867900  0.64313000  1
  Cu  Cu65  1  0.85157000  0.61132100  0.14313000  1
  Cu  Cu66  1  0.14843000  0.11132100  0.35687000  1
  Cu  Cu67  1  0.35157000  0.88867900  0.85687000  1
  Cu  Cu68  1  0.64313000  0.64843000  0.38867900  1
  Cu  Cu69  1  0.14313000  0.85157000  0.61132100  1
  Cu  Cu70  1  0.35687000  0.14843000  0.11132100  1
  Cu  Cu71  1  0.85687000  0.35157000  0.88867900  1
  Cu  Cu72  1  0.61132100  0.35687000  0.35157000  1
  Cu  Cu73  1  0.38867900  0.85687000  0.14843000  1
  Cu  Cu74  1  0.88867900  0.64313000  0.85157000  1
  Cu  Cu75  1  0.11132100  0.14313000  0.64843000  1
  Cu  Cu76  1  0.35157000  0.61132100  0.35687000  1
  Cu  Cu77  1  0.14843000  0.38867900  0.85687000  1
  Cu  Cu78  1  0.85157000  0.88867900  0.64313000  1
  Cu  Cu79  1  0.64843000  0.11132100  0.14313000  1
  Cu  Cu80  1  0.35687000  0.35157000  0.61132100  1
  Cu  Cu81  1  0.85687000  0.14843000  0.38867900  1
  Cu  Cu82  1  0.64313000  0.85157000  0.88867900  1
  Cu  Cu83  1  0.14313000  0.64843000  0.11132100  1
  Cu  Cu84  1  0.46995500  0.61602700  0.89194600  1
  Cu  Cu85  1  0.53004500  0.11602700  0.60805400  1
  Cu  Cu86  1  0.03004500  0.38397300  0.39194600  1
  Cu  Cu87  1  0.96995500  0.88397300  0.10805400  1
  Cu  Cu88  1  0.89194600  0.46995500  0.61602700  1
  Cu  Cu89  1  0.60805400  0.53004500  0.11602700  1
  Cu  Cu90  1  0.39194600  0.03004500  0.38397300  1
  Cu  Cu91  1  0.10805400  0.96995500  0.88397300  1
  Cu  Cu92  1  0.61602700  0.89194600  0.46995500  1
  Cu  Cu93  1  0.11602700  0.60805400  0.53004500  1
  Cu  Cu94  1  0.38397300  0.39194600  0.03004500  1
  Cu  Cu95  1  0.88397300  0.10805400  0.96995500  1
  Cu  Cu96  1  0.53004500  0.38397300  0.10805400  1
  Cu  Cu97  1  0.46995500  0.88397300  0.39194600  1
  Cu  Cu98  1  0.96995500  0.61602700  0.60805400  1
  Cu  Cu99  1  0.03004500  0.11602700  0.89194600  1
  Cu  Cu100  1  0.10805400  0.53004500  0.38397300  1
  Cu  Cu101  1  0.39194600  0.46995500  0.88397300  1
  Cu  Cu102  1  0.60805400  0.96995500  0.61602700  1
  Cu  Cu103  1  0.89194600  0.03004500  0.11602700  1
  Cu  Cu104  1  0.38397300  0.10805400  0.53004500  1
  Cu  Cu105  1  0.88397300  0.39194600  0.46995500  1
  Cu  Cu106  1  0.61602700  0.60805400  0.96995500  1
  Cu  Cu107  1  0.11602700  0.89194600  0.03004500  1
