# generated using pymatgen
data_Cu7Ni2C15
_symmetry_space_group_name_H-M   'P 1'
_cell_length_a   10.08269600
_cell_length_b   5.25835200
_cell_length_c   10.71706770
_cell_angle_alpha   83.97725840
_cell_angle_beta   90.00000000
_cell_angle_gamma   90.00000000
_symmetry_Int_Tables_number   1
_chemical_formula_structural   Cu7Ni2C15
_chemical_formula_sum   'Cu14 Ni4 C30'
_cell_volume   565.06511813
_cell_formula_units_Z   2
loop_
 _symmetry_equiv_pos_site_id
 _symmetry_equiv_pos_as_xyz
  1  'x, y, z'
loop_
 _atom_site_type_symbol
 _atom_site_label
 _atom_site_symmetry_multiplicity
 _atom_site_fract_x
 _atom_site_fract_y
 _atom_site_fract_z
 _atom_site_occupancy
  Ni  Ni0  1  0.75000000  0.49126100  0.89775300  1
  Ni  Ni1  1  0.25000000  0.50873900  0.10224700  1
  Ni  Ni2  1  0.25000000  0.17475400  0.43498600  1
  Ni  Ni3  1  0.75000000  0.82524600  0.56501400  1
  Cu  Cu4  1  0.06151400  0.39353100  0.88033600  1
  Cu  Cu5  1  0.43848600  0.39353100  0.88033600  1
  Cu  Cu6  1  0.56151400  0.60646900  0.11966400  1
  Cu  Cu7  1  0.93848600  0.60646900  0.11966400  1
  Cu  Cu8  1  0.56245300  0.27481700  0.45680300  1
  Cu  Cu9  1  0.93754700  0.27481700  0.45680300  1
  Cu  Cu10  1  0.06830000  0.06103600  0.21312800  1
  Cu  Cu11  1  0.43170000  0.06103600  0.21312800  1
  Cu  Cu12  1  0.06245300  0.72518300  0.54319700  1
  Cu  Cu13  1  0.43754700  0.72518300  0.54319700  1
  Cu  Cu14  1  0.75000000  0.15815000  0.23155100  1
  Cu  Cu15  1  0.25000000  0.84185000  0.76844900  1
  Cu  Cu16  1  0.93170000  0.93896400  0.78687200  1
  Cu  Cu17  1  0.56830000  0.93896400  0.78687200  1
  C  C18  1  0.88825900  0.24049500  0.84796300  1
  C  C19  1  0.61174100  0.24049500  0.84796300  1
  C  C20  1  0.43422400  0.31456300  0.06285000  1
  C  C21  1  0.06577600  0.31456300  0.06285000  1
  C  C22  1  0.25000000  0.20557500  0.24107000  1
  C  C23  1  0.25000000  0.54824200  0.90354300  1
  C  C24  1  0.75000000  0.45175800  0.09645700  1
  C  C25  1  0.93422400  0.68543700  0.93715000  1
  C  C26  1  0.56902300  0.34931400  0.27063300  1
  C  C27  1  0.93097700  0.34931400  0.27063300  1
  C  C28  1  0.56577600  0.68543700  0.93715000  1
  C  C29  1  0.38825900  0.75950500  0.15203700  1
  C  C30  1  0.38636000  0.42516300  0.48457200  1
  C  C31  1  0.11174100  0.75950500  0.15203700  1
  C  C32  1  0.11364000  0.42516300  0.48457200  1
  C  C33  1  0.88089400  0.91482100  0.18304200  1
  C  C34  1  0.61910600  0.91482100  0.18304200  1
  C  C35  1  0.61364000  0.57483700  0.51542800  1
  C  C36  1  0.88636000  0.57483700  0.51542800  1
  C  C37  1  0.06654300  0.97812600  0.39658300  1
  C  C38  1  0.43097700  0.65068600  0.72936700  1
  C  C39  1  0.43345700  0.97812600  0.39658300  1
  C  C40  1  0.06902300  0.65068600  0.72936700  1
  C  C41  1  0.25000000  0.87451000  0.58146400  1
  C  C42  1  0.75000000  0.12549000  0.41853600  1
  C  C43  1  0.75000000  0.79442500  0.75893000  1
  C  C44  1  0.93345700  0.02187400  0.60341700  1
  C  C45  1  0.56654300  0.02187400  0.60341700  1
  C  C46  1  0.38089400  0.08517900  0.81695800  1
  C  C47  1  0.11910600  0.08517900  0.81695800  1
