# generated using pymatgen
data_Cu3NiC24
_symmetry_space_group_name_H-M   'P 1'
_cell_length_a   6.10508000
_cell_length_b   4.76208800
_cell_length_c   10.46704167
_cell_angle_alpha   89.87561048
_cell_angle_beta   90.00000000
_cell_angle_gamma   90.00000000
_symmetry_Int_Tables_number   1
_chemical_formula_structural   Cu3NiC24
_chemical_formula_sum   'Cu3 Ni1 C24'
_cell_volume   304.30683378
_cell_formula_units_Z   1
loop_
 _symmetry_equiv_pos_site_id
 _symmetry_equiv_pos_as_xyz
  1  'x, y, z'
loop_
 _atom_site_type_symbol
 _atom_site_label
 _atom_site_symmetry_multiplicity
 _atom_site_fract_x
 _atom_site_fract_y
 _atom_site_fract_z
 _atom_site_occupancy
  C  C0  1  0.24937100  0.99998300  0.00053300  1
  C  C1  1  0.75062900  0.99998300  0.00053300  1
  C  C2  1  0.24913200  0.50021400  0.49969600  1
  C  C3  1  0.75086800  0.50021400  0.49969600  1
  Ni  Ni4  1  0.50000000  0.97798300  0.71850800  1
  Cu  Cu5  1  0.00000000  0.47491200  0.78158400  1
  Cu  Cu6  1  0.00000000  0.02491500  0.28148300  1
  Cu  Cu7  1  0.50000000  0.52549100  0.21855600  1
  C  C8  1  0.50000000  0.41993400  0.90741600  1
  C  C9  1  0.00000000  0.91560800  0.59387600  1
  C  C10  1  0.50000000  0.08226200  0.40419200  1
  C  C11  1  0.00000000  0.58153400  0.09484700  1
  C  C12  1  0.00000000  0.70723500  0.95729900  1
  C  C13  1  0.50000000  0.74192700  0.90531200  1
  C  C14  1  0.29699600  0.28913200  0.83607500  1
  C  C15  1  0.70300400  0.28913200  0.83607500  1
  C  C16  1  0.79845000  0.77961700  0.66402300  1
  C  C17  1  0.20155000  0.77961700  0.66402300  1
  C  C18  1  0.00000000  0.23836500  0.59679400  1
  C  C19  1  0.50000000  0.20944300  0.54120400  1
  C  C20  1  0.00000000  0.79401200  0.45578200  1
  C  C21  1  0.50000000  0.75988300  0.40338300  1
  C  C22  1  0.29690600  0.21458600  0.33355800  1
  C  C23  1  0.70309400  0.21458600  0.33355800  1
  C  C24  1  0.79711200  0.71435300  0.16552100  1
  C  C25  1  0.20288800  0.71435300  0.16552100  1
  C  C26  1  0.00000000  0.25902200  0.09680500  1
  C  C27  1  0.50000000  0.29170400  0.04415000  1
