# generated using pymatgen
data_Cu3Ni3C22
_symmetry_space_group_name_H-M   'P 1'
_cell_length_a   6.00392463
_cell_length_b   6.00874442
_cell_length_c   9.77736989
_cell_angle_alpha   89.48595933
_cell_angle_beta   89.59490974
_cell_angle_gamma   119.68250991
_symmetry_Int_Tables_number   1
_chemical_formula_structural   Cu3Ni3C22
_chemical_formula_sum   'Cu3 Ni3 C22'
_cell_volume   306.40550584
_cell_formula_units_Z   1
loop_
 _symmetry_equiv_pos_site_id
 _symmetry_equiv_pos_as_xyz
  1  'x, y, z'
loop_
 _atom_site_type_symbol
 _atom_site_label
 _atom_site_symmetry_multiplicity
 _atom_site_fract_x
 _atom_site_fract_y
 _atom_site_fract_z
 _atom_site_occupancy
  C  C0  1  0.34367600  0.67328900  0.90187400  1
  C  C1  1  0.99494500  0.99935600  0.98958800  1
  C  C2  1  0.99276700  0.99394300  0.48931100  1
  C  C3  1  0.67586000  0.34123700  0.39980100  1
  Ni  Ni4  1  0.65328700  0.82684800  0.22034500  1
  Ni  Ni5  1  0.82641000  0.65121700  0.71960400  1
  Ni  Ni6  1  0.82347900  0.17011600  0.71317200  1
  Cu  Cu7  1  0.16501800  0.82402900  0.21162800  1
  Cu  Cu8  1  0.16865200  0.34178800  0.21075600  1
  Cu  Cu9  1  0.33657800  0.16385200  0.71134600  1
  C  C10  1  0.32608400  0.66174000  0.48974000  1
  C  C11  1  0.66302000  0.32657600  0.99057500  1
  C  C12  1  0.15822000  0.82716300  0.59323500  1
  C  C13  1  0.04277600  0.53214200  0.34767500  1
  C  C14  1  0.37196100  0.69860700  0.10630400  1
  C  C15  1  0.97518900  0.97761000  0.30049600  1
  C  C16  1  0.97429800  0.97418600  0.80060400  1
  C  C17  1  0.15165900  0.32554000  0.58925800  1
  C  C18  1  0.48947600  0.96493500  0.34552500  1
  C  C19  1  0.49393900  0.53257100  0.34865100  1
  C  C20  1  0.32886800  0.15596300  0.09131300  1
  C  C21  1  0.65820400  0.82605500  0.59650700  1
  C  C22  1  0.53072300  0.48932100  0.84841500  1
  C  C23  1  0.53514200  0.04067700  0.84816600  1
  C  C24  1  0.69185300  0.36704000  0.60613300  1
  C  C25  1  0.83052400  0.66026400  0.09710600  1
  C  C26  1  0.96708900  0.49138300  0.84640100  1
  C  C27  1  0.83030000  0.16285300  0.09430900  1
