# generated using pymatgen
data_Cu3NiC10
_symmetry_space_group_name_H-M   'P 1'
_cell_length_a   7.94240400
_cell_length_b   9.35169700
_cell_length_c   12.96189100
_cell_angle_alpha   90.00000000
_cell_angle_beta   90.00000000
_cell_angle_gamma   90.00000000
_symmetry_Int_Tables_number   1
_chemical_formula_structural   Cu3NiC10
_chemical_formula_sum   'Cu12 Ni4 C40'
_cell_volume   962.74387929
_cell_formula_units_Z   4
loop_
 _symmetry_equiv_pos_site_id
 _symmetry_equiv_pos_as_xyz
  1  'x, y, z'
loop_
 _atom_site_type_symbol
 _atom_site_label
 _atom_site_symmetry_multiplicity
 _atom_site_fract_x
 _atom_site_fract_y
 _atom_site_fract_z
 _atom_site_occupancy
  C  C0  1  0.75000000  0.48780300  0.44119500  1
  C  C1  1  0.75000000  0.98780300  0.05880500  1
  C  C2  1  0.25000000  0.51219700  0.55880500  1
  C  C3  1  0.25000000  0.01219700  0.94119500  1
  Ni  Ni4  1  0.75000000  0.52748100  0.71722200  1
  Ni  Ni5  1  0.75000000  0.02748100  0.78277800  1
  Ni  Ni6  1  0.25000000  0.97251900  0.21722200  1
  Ni  Ni7  1  0.25000000  0.47251900  0.28277800  1
  Cu  Cu8  1  0.93727600  0.73863300  0.34803400  1
  Cu  Cu9  1  0.93727600  0.23863300  0.15196600  1
  Cu  Cu10  1  0.75000000  0.29543800  0.97160800  1
  Cu  Cu11  1  0.75000000  0.79543800  0.52839200  1
  Cu  Cu12  1  0.56272400  0.23863300  0.15196600  1
  Cu  Cu13  1  0.56272400  0.73863300  0.34803400  1
  Cu  Cu14  1  0.43727600  0.26136700  0.65196600  1
  Cu  Cu15  1  0.43727600  0.76136700  0.84803400  1
  Cu  Cu16  1  0.25000000  0.70456200  0.02839200  1
  Cu  Cu17  1  0.25000000  0.20456200  0.47160800  1
  Cu  Cu18  1  0.06272400  0.26136700  0.65196600  1
  Cu  Cu19  1  0.06272400  0.76136700  0.84803400  1
  C  C20  1  0.02398900  0.66570200  0.75923100  1
  C  C21  1  0.02398900  0.16570200  0.74076900  1
  C  C22  1  0.94843900  0.88377500  0.87813400  1
  C  C23  1  0.94843900  0.38377500  0.62186600  1
  C  C24  1  0.90642900  0.33328800  0.04784000  1
  C  C25  1  0.90642900  0.83328800  0.45216000  1
  C  C26  1  0.75000000  0.66240900  0.33321600  1
  C  C27  1  0.75000000  0.89079300  0.61920500  1
  C  C28  1  0.75000000  0.39079300  0.88079500  1
  C  C29  1  0.75000000  0.13371200  0.95393500  1
  C  C30  1  0.75000000  0.16240900  0.16678400  1
  C  C31  1  0.75000000  0.63371200  0.54606500  1
  C  C32  1  0.59357100  0.33328800  0.04784000  1
  C  C33  1  0.59357100  0.83328800  0.45216000  1
  C  C34  1  0.55156100  0.88377500  0.87813400  1
  C  C35  1  0.55156100  0.38377500  0.62186600  1
  C  C36  1  0.47601100  0.66570200  0.75923100  1
  C  C37  1  0.47601100  0.16570200  0.74076900  1
  C  C38  1  0.52398900  0.83429800  0.25923100  1
  C  C39  1  0.52398900  0.33429800  0.24076900  1
  C  C40  1  0.44843900  0.61622500  0.37813400  1
  C  C41  1  0.44843900  0.11622500  0.12186600  1
  C  C42  1  0.40642900  0.16671200  0.54784000  1
  C  C43  1  0.40642900  0.66671200  0.95216000  1
  C  C44  1  0.25000000  0.86628800  0.04606500  1
  C  C45  1  0.25000000  0.60920700  0.11920500  1
  C  C46  1  0.25000000  0.36628800  0.45393500  1
  C  C47  1  0.25000000  0.10920700  0.38079500  1
  C  C48  1  0.25000000  0.33759100  0.66678400  1
  C  C49  1  0.25000000  0.83759100  0.83321600  1
  C  C50  1  0.09357100  0.16671200  0.54784000  1
  C  C51  1  0.09357100  0.66671200  0.95216000  1
  C  C52  1  0.05156100  0.61622500  0.37813400  1
  C  C53  1  0.05156100  0.11622500  0.12186600  1
  C  C54  1  0.97601100  0.33429800  0.24076900  1
  C  C55  1  0.97601100  0.83429800  0.25923100  1
