# generated using pymatgen
data_Cu3Ni21C32
_symmetry_space_group_name_H-M   'P 1'
_cell_length_a   5.76117937
_cell_length_b   5.76117937
_cell_length_c   19.08696504
_cell_angle_alpha   98.68019772
_cell_angle_beta   90.00000000
_cell_angle_gamma   120.00000000
_symmetry_Int_Tables_number   1
_chemical_formula_structural   Cu3Ni21C32
_chemical_formula_sum   'Cu3 Ni21 C32'
_cell_volume   540.24853167
_cell_formula_units_Z   1
loop_
 _symmetry_equiv_pos_site_id
 _symmetry_equiv_pos_as_xyz
  1  'x, y, z'
loop_
 _atom_site_type_symbol
 _atom_site_label
 _atom_site_symmetry_multiplicity
 _atom_site_fract_x
 _atom_site_fract_y
 _atom_site_fract_z
 _atom_site_occupancy
  Ni  Ni0  1  0.21885500  0.93760900  0.15646400  1
  Ni  Ni1  1  0.34374900  0.68749700  0.03124600  1
  Ni  Ni2  1  0.71875400  0.93760900  0.15646400  1
  Ni  Ni3  1  0.21885500  0.43771000  0.15646400  1
  Ni  Ni4  1  0.43778800  0.87557700  0.31336500  1
  Ni  Ni5  1  0.09377100  0.18754300  0.28131400  1
  Ni  Ni6  1  0.74968100  0.49936200  0.24904300  1
  Ni  Ni7  1  0.96860100  0.93720400  0.40607400  1
  Ni  Ni8  1  0.46887000  0.43747200  0.40607400  1
  Ni  Ni9  1  0.21861100  0.93743500  0.65625900  1
  Ni  Ni10  1  0.18735000  0.37470200  0.56205200  1
  Ni  Ni11  1  0.84370600  0.68741100  0.53111700  1
  Ni  Ni12  1  0.96860100  0.43747200  0.40607400  1
  Ni  Ni13  1  0.71882400  0.93743500  0.65625900  1
  Ni  Ni14  1  0.24999000  0.49998000  0.74997000  1
  Ni  Ni15  1  0.46881300  0.93762500  0.90618900  1
  Ni  Ni16  1  0.71882400  0.43764800  0.65625900  1
  Ni  Ni17  1  0.93768900  0.87537800  0.81306700  1
  Ni  Ni18  1  0.46881300  0.43737600  0.90618900  1
  Ni  Ni19  1  0.59369900  0.18739600  0.78109500  1
  Ni  Ni20  1  0.96856400  0.43737600  0.90618900  1
  Cu  Cu21  1  0.00024500  0.00049000  0.00073500  1
  Cu  Cu22  1  0.68742900  0.37485800  0.06228700  1
  Cu  Cu23  1  0.50005000  0.00009900  0.50014800  1
  C  C24  1  0.07031100  0.58394500  0.09757800  1
  C  C25  1  0.51363400  0.58394500  0.09757800  1
  C  C26  1  0.40313000  0.80625900  0.20938900  1
  C  C27  1  0.03497300  0.06994800  0.10492100  1
  C  C28  1  0.11730200  0.79109200  0.46488300  1
  C  C29  1  0.92318300  0.84636700  0.21574500  1
  C  C30  1  0.36937700  0.29256000  0.21574500  1
  C  C31  1  0.26438000  0.52876100  0.34695100  1
  C  C32  1  0.51363400  0.02726700  0.09757800  1
  C  C33  1  0.26438000  0.08257100  0.34695100  1
  C  C34  1  0.01462900  0.58249500  0.59712400  1
  C  C35  1  0.15280800  0.30561600  0.45842400  1
  C  C36  1  0.92318300  0.29256000  0.21574500  1
  C  C37  1  0.67379000  0.79109200  0.46488300  1
  C  C38  1  0.78437300  0.56874400  0.35311700  1
  C  C39  1  0.67379000  0.34758100  0.46488300  1
  C  C40  1  0.42288200  0.84576300  0.71552600  1
  C  C41  1  0.81819000  0.08257100  0.34695100  1
  C  C42  1  0.01462900  0.02925900  0.59712400  1
  C  C43  1  0.56786600  0.58249500  0.59712400  1
  C  C44  1  0.90299600  0.80599200  0.70898800  1
  C  C45  1  0.53488300  0.06976700  0.60465000  1
  C  C46  1  0.28451300  0.56902600  0.85353900  1
  C  C47  1  0.42288200  0.29264500  0.71552600  1
  C  C48  1  0.17375200  0.79125100  0.96500300  1
  C  C49  1  0.86976300  0.29264500  0.71552600  1
  C  C50  1  0.61749900  0.79125100  0.96500300  1
  C  C51  1  0.17375200  0.34750400  0.96500300  1
  C  C52  1  0.76432000  0.52864200  0.84677000  1
  C  C53  1  0.31812900  0.08244900  0.84677000  1
  C  C54  1  0.65261200  0.30522300  0.95783500  1
  C  C55  1  0.76432000  0.08244900  0.84677000  1
