# generated using pymatgen
data_Cu3NiC2
_symmetry_space_group_name_H-M   'P 1'
_cell_length_a   4.69430800
_cell_length_b   4.69430800
_cell_length_c   12.68742800
_cell_angle_alpha   90.00000000
_cell_angle_beta   90.00000000
_cell_angle_gamma   93.39304253
_symmetry_Int_Tables_number   1
_chemical_formula_structural   Cu3NiC2
_chemical_formula_sum   'Cu12 Ni4 C8'
_cell_volume   279.09674733
_cell_formula_units_Z   4
loop_
 _symmetry_equiv_pos_site_id
 _symmetry_equiv_pos_as_xyz
  1  'x, y, z'
loop_
 _atom_site_type_symbol
 _atom_site_label
 _atom_site_symmetry_multiplicity
 _atom_site_fract_x
 _atom_site_fract_y
 _atom_site_fract_z
 _atom_site_occupancy
  C  C0  1  0.97503400  0.97503400  0.62451500  1
  C  C1  1  0.97503400  0.97503400  0.87548500  1
  C  C2  1  0.02496600  0.02496600  0.12451500  1
  C  C3  1  0.02496600  0.02496600  0.37548500  1
  C  C4  1  0.52018100  0.52018100  0.75000000  1
  C  C5  1  0.47981900  0.47981900  0.25000000  1
  C  C6  1  0.50000000  0.50000000  0.00000000  1
  C  C7  1  0.50000000  0.50000000  0.50000000  1
  Ni  Ni8  1  0.30151500  0.30151500  0.37756800  1
  Ni  Ni9  1  0.30151500  0.30151500  0.12243200  1
  Ni  Ni10  1  0.69848500  0.69848500  0.62243200  1
  Ni  Ni11  1  0.69848500  0.69848500  0.87756800  1
  Cu  Cu12  1  0.79998000  0.19027700  0.75000000  1
  Cu  Cu13  1  0.80972300  0.20002000  0.25000000  1
  Cu  Cu14  1  0.80495600  0.19504400  0.00000000  1
  Cu  Cu15  1  0.80495600  0.19504400  0.50000000  1
  Cu  Cu16  1  0.28727300  0.28727300  0.62585000  1
  Cu  Cu17  1  0.28727300  0.28727300  0.87415000  1
  Cu  Cu18  1  0.71272700  0.71272700  0.12585000  1
  Cu  Cu19  1  0.71272700  0.71272700  0.37415000  1
  Cu  Cu20  1  0.19027700  0.79998000  0.75000000  1
  Cu  Cu21  1  0.20002000  0.80972300  0.25000000  1
  Cu  Cu22  1  0.19504400  0.80495600  0.00000000  1
  Cu  Cu23  1  0.19504400  0.80495600  0.50000000  1
