# generated using pymatgen
data_Cu2NiC7
_symmetry_space_group_name_H-M   'P 1'
_cell_length_a   5.15745600
_cell_length_b   8.20120000
_cell_length_c   11.18708000
_cell_angle_alpha   90.00000000
_cell_angle_beta   90.00000000
_cell_angle_gamma   90.00000000
_symmetry_Int_Tables_number   1
_chemical_formula_structural   Cu2NiC7
_chemical_formula_sum   'Cu8 Ni4 C28'
_cell_volume   473.18359377
_cell_formula_units_Z   4
loop_
 _symmetry_equiv_pos_site_id
 _symmetry_equiv_pos_as_xyz
  1  'x, y, z'
loop_
 _atom_site_type_symbol
 _atom_site_label
 _atom_site_symmetry_multiplicity
 _atom_site_fract_x
 _atom_site_fract_y
 _atom_site_fract_z
 _atom_site_occupancy
  C  C0  1  0.19504200  0.12253200  0.11556600  1
  C  C1  1  0.69504200  0.62253200  0.38443400  1
  C  C2  1  0.19504200  0.37746800  0.61556600  1
  C  C3  1  0.69504200  0.87746800  0.88443400  1
  C  C4  1  0.70132600  0.31159400  0.19597800  1
  C  C5  1  0.20132600  0.81159400  0.30402200  1
  C  C6  1  0.70132600  0.18840600  0.69597800  1
  C  C7  1  0.20132600  0.68840600  0.80402200  1
  Ni  Ni8  1  0.69113400  0.91166400  0.16429600  1
  Ni  Ni9  1  0.19113400  0.41166400  0.33570400  1
  Ni  Ni10  1  0.69113400  0.58833600  0.66429600  1
  Ni  Ni11  1  0.19113400  0.08833600  0.83570400  1
  Cu  Cu12  1  0.37328900  0.57047000  0.00972100  1
  Cu  Cu13  1  0.14365100  0.68786900  0.04040600  1
  Cu  Cu14  1  0.64365100  0.18786900  0.45959400  1
  Cu  Cu15  1  0.87328900  0.07047000  0.49027900  1
  Cu  Cu16  1  0.37328900  0.92953000  0.50972100  1
  Cu  Cu17  1  0.14365100  0.81213100  0.54040600  1
  Cu  Cu18  1  0.64365100  0.31213100  0.95959400  1
  Cu  Cu19  1  0.87328900  0.42953000  0.99027900  1
  C  C20  1  0.69207900  0.40363000  0.01108400  1
  C  C21  1  0.62701100  0.82285600  0.04847500  1
  C  C22  1  0.55756900  0.08363000  0.16785700  1
  C  C23  1  0.99114800  0.93671100  0.18015700  1
  C  C24  1  0.09402100  0.31481000  0.22303000  1
  C  C25  1  0.59402100  0.81481000  0.27697000  1
  C  C26  1  0.49114800  0.43671100  0.31984300  1
  C  C27  1  0.05756900  0.58363000  0.33214300  1
  C  C28  1  0.12701100  0.32285600  0.45152500  1
  C  C29  1  0.19207900  0.90363000  0.48891600  1
  C  C30  1  0.69207900  0.09637000  0.51108400  1
  C  C31  1  0.62701100  0.67714400  0.54847500  1
  C  C32  1  0.55756900  0.41637000  0.66785700  1
  C  C33  1  0.99114800  0.56328900  0.68015700  1
  C  C34  1  0.09402100  0.18519000  0.72303000  1
  C  C35  1  0.59402100  0.68519000  0.77697000  1
  C  C36  1  0.49114800  0.06328900  0.81984300  1
  C  C37  1  0.05756900  0.91637000  0.83214300  1
  C  C38  1  0.12701100  0.17714400  0.95152500  1
  C  C39  1  0.19207900  0.59637000  0.98891600  1
