# generated using pymatgen
data_CuNi3C11
_symmetry_space_group_name_H-M   'P 1'
_cell_length_a   6.03256118
_cell_length_b   6.03256118
_cell_length_c   45.28276000
_cell_angle_alpha   90.00000000
_cell_angle_beta   90.00000000
_cell_angle_gamma   119.99999105
_symmetry_Int_Tables_number   1
_chemical_formula_structural   CuNi3C11
_chemical_formula_sum   'Cu6 Ni18 C66'
_cell_volume   1427.14148602
_cell_formula_units_Z   6
loop_
 _symmetry_equiv_pos_site_id
 _symmetry_equiv_pos_as_xyz
  1  'x, y, z'
loop_
 _atom_site_type_symbol
 _atom_site_label
 _atom_site_symmetry_multiplicity
 _atom_site_fract_x
 _atom_site_fract_y
 _atom_site_fract_z
 _atom_site_occupancy
  Ni  Ni0  1  0.00000000  0.00000000  0.03054500  1
  Ni  Ni1  1  0.33333300  0.66666700  0.13879700  1
  Ni  Ni2  1  0.66666700  0.33333300  0.24984000  1
  Ni  Ni3  1  0.66666700  0.33333300  0.08338900  1
  Ni  Ni4  1  0.00000000  0.00000000  0.35698700  1
  Ni  Ni5  1  0.00000000  0.00000000  0.19472000  1
  Ni  Ni6  1  0.33333300  0.66666700  0.30187900  1
  Ni  Ni7  1  0.33333300  0.66666700  0.47158000  1
  Ni  Ni8  1  0.66666700  0.33333300  0.41657200  1
  Ni  Ni9  1  0.66666700  0.33333300  0.58673400  1
  Ni  Ni10  1  0.00000000  0.00000000  0.69329700  1
  Ni  Ni11  1  0.00000000  0.00000000  0.53251000  1
  Ni  Ni12  1  0.33333300  0.66666700  0.64026800  1
  Ni  Ni13  1  0.33333300  0.66666700  0.80350900  1
  Ni  Ni14  1  0.66666700  0.33333300  0.74822100  1
  Ni  Ni15  1  0.66666700  0.33333300  0.91603900  1
  Ni  Ni16  1  0.00000000  0.00000000  0.86159700  1
  Ni  Ni17  1  0.33333300  0.66666700  0.97445600  1
  Cu  Cu18  1  0.66666700  0.33333300  0.99580600  1
  Cu  Cu19  1  0.00000000  0.00000000  0.10962400  1
  Cu  Cu20  1  0.66666700  0.33333300  0.33653200  1
  Cu  Cu21  1  0.33333300  0.66666700  0.22350900  1
  Cu  Cu22  1  0.00000000  0.00000000  0.44741600  1
  Cu  Cu23  1  0.33333300  0.66666700  0.88502400  1
  C  C24  1  0.33333300  0.66666700  0.05333900  1
  C  C25  1  0.66666700  0.33333300  0.16662400  1
  C  C26  1  0.00000000  0.00000000  0.28033200  1
  C  C27  1  0.66666700  0.33333300  0.66673800  1
  C  C28  1  0.33333300  0.66666700  0.56027400  1
  C  C29  1  0.00000000  0.00000000  0.77497000  1
  C  C30  1  0.33333300  0.66666700  0.39505200  1
  C  C31  1  0.66666700  0.33333300  0.50643100  1
  C  C32  1  0.00000000  0.00000000  0.61367400  1
  C  C33  1  0.33333300  0.66666700  0.72019200  1
  C  C34  1  0.66666700  0.33333300  0.82747500  1
  C  C35  1  0.00000000  0.00000000  0.93825500  1
  C  C36  1  0.16958500  0.33917100  0.07882900  1
  C  C37  1  0.01636700  0.50818300  0.02315200  1
  C  C38  1  0.49181700  0.50818300  0.02315200  1
  C  C39  1  0.16958500  0.83041500  0.07882900  1
  C  C40  1  0.66082900  0.83041500  0.07882900  1
  C  C41  1  0.49181700  0.98363300  0.02315200  1
  C  C42  1  0.50560400  0.01120700  0.19384400  1
  C  C43  1  0.34435800  0.17217900  0.13924200  1
  C  C44  1  0.82782100  0.17217900  0.13924200  1
  C  C45  1  0.50560400  0.49439600  0.19384400  1
  C  C46  1  0.98879300  0.49439600  0.19384400  1
  C  C47  1  0.82782100  0.65564200  0.13924200  1
  C  C48  1  0.84216700  0.68433300  0.31053200  1
  C  C49  1  0.67233700  0.83616900  0.25436900  1
  C  C50  1  0.84216700  0.15783300  0.31053200  1
  C  C51  1  0.16383100  0.83616900  0.25436900  1
  C  C52  1  0.31566700  0.15783300  0.31053200  1
  C  C53  1  0.16383100  0.32766300  0.25436900  1
  C  C54  1  0.18397000  0.36794100  0.42405500  1
  C  C55  1  0.02091900  0.51045900  0.37329800  1
  C  C56  1  0.18397000  0.81603000  0.42405500  1
  C  C57  1  0.48954100  0.51045900  0.37329800  1
  C  C58  1  0.63205900  0.81603000  0.42405500  1
  C  C59  1  0.48954100  0.97908100  0.37329800  1
  C  C60  1  0.35712000  0.17856000  0.48530400  1
  C  C61  1  0.50767500  0.01535000  0.53501100  1
  C  C62  1  0.82144000  0.17856000  0.48530400  1
  C  C63  1  0.50767500  0.49232500  0.53501100  1
  C  C64  1  0.82144000  0.64288000  0.48530400  1
  C  C65  1  0.98465000  0.49232500  0.53501100  1
  C  C66  1  0.65758700  0.82879300  0.58770800  1
  C  C67  1  0.83569400  0.67138800  0.64028200  1
  C  C68  1  0.17120700  0.82879300  0.58770800  1
  C  C69  1  0.83569400  0.16430600  0.64028200  1
  C  C70  1  0.32861200  0.16430600  0.64028200  1
  C  C71  1  0.17120700  0.34241300  0.58770800  1
  C  C72  1  0.01143200  0.50571600  0.69393200  1
  C  C73  1  0.16923800  0.33847600  0.74346700  1
  C  C74  1  0.16923800  0.83076200  0.74346700  1
  C  C75  1  0.49428400  0.50571600  0.69393200  1
  C  C76  1  0.66152400  0.83076200  0.74346700  1
  C  C77  1  0.49428400  0.98856800  0.69393200  1
  C  C78  1  0.33800800  0.16900400  0.79744300  1
  C  C79  1  0.50581000  0.01162100  0.84795200  1
  C  C80  1  0.83099600  0.16900400  0.79744300  1
  C  C81  1  0.50581000  0.49419000  0.84795200  1
  C  C82  1  0.98837900  0.49419000  0.84795200  1
  C  C83  1  0.83099600  0.66199200  0.79744300  1
  C  C84  1  0.84366900  0.68733800  0.96069600  1
  C  C85  1  0.69932200  0.84966100  0.91015800  1
  C  C86  1  0.84366900  0.15633100  0.96069600  1
  C  C87  1  0.15033900  0.84966100  0.91015800  1
  C  C88  1  0.31266200  0.15633100  0.96069600  1
  C  C89  1  0.15033900  0.30067800  0.91015800  1
