# generated using pymatgen
data_CuNiC
_symmetry_space_group_name_H-M   'P 1'
_cell_length_a   3.08052500
_cell_length_b   4.77832800
_cell_length_c   14.33523560
_cell_angle_alpha   89.23864571
_cell_angle_beta   90.00000000
_cell_angle_gamma   90.00000000
_symmetry_Int_Tables_number   1
_chemical_formula_structural   CuNiC
_chemical_formula_sum   'Cu6 Ni6 C6'
_cell_volume   210.99258194
_cell_formula_units_Z   6
loop_
 _symmetry_equiv_pos_site_id
 _symmetry_equiv_pos_as_xyz
  1  'x, y, z'
loop_
 _atom_site_type_symbol
 _atom_site_label
 _atom_site_symmetry_multiplicity
 _atom_site_fract_x
 _atom_site_fract_y
 _atom_site_fract_z
 _atom_site_occupancy
  C  C0  1  0.00000000  0.99084200  0.99929700  1
  C  C1  1  0.00000000  0.99402700  0.33260600  1
  C  C2  1  0.00000000  0.97697500  0.66663000  1
  C  C3  1  0.50000000  0.42167500  0.16544500  1
  C  C4  1  0.50000000  0.56219700  0.49956800  1
  C  C5  1  0.50000000  0.55771500  0.83471800  1
  Ni  Ni6  1  0.50000000  0.82606300  0.59956000  1
  Ni  Ni7  1  0.50000000  0.80048200  0.93932000  1
  Ni  Ni8  1  0.00000000  0.71032500  0.76834700  1
  Ni  Ni9  1  0.00000000  0.70179600  0.42912300  1
  Ni  Ni10  1  0.00000000  0.28244000  0.23822900  1
  Ni  Ni11  1  0.50000000  0.17641900  0.06377800  1
  Cu  Cu12  1  0.50000000  0.79567500  0.26804300  1
  Cu  Cu13  1  0.00000000  0.67175100  0.10971700  1
  Cu  Cu14  1  0.00000000  0.32311200  0.56275600  1
  Cu  Cu15  1  0.00000000  0.30716900  0.89312700  1
  Cu  Cu16  1  0.50000000  0.18922600  0.40134200  1
  Cu  Cu17  1  0.50000000  0.21211200  0.72839800  1
