# generated using pymatgen
data_CuNiC4
_symmetry_space_group_name_H-M   'P 1'
_cell_length_a   5.08204900
_cell_length_b   8.85928049
_cell_length_c   11.22199812
_cell_angle_alpha   90.01277775
_cell_angle_beta   90.41460926
_cell_angle_gamma   90.09619493
_symmetry_Int_Tables_number   1
_chemical_formula_structural   CuNiC4
_chemical_formula_sum   'Cu8 Ni8 C32'
_cell_volume   505.23740597
_cell_formula_units_Z   8
loop_
 _symmetry_equiv_pos_site_id
 _symmetry_equiv_pos_as_xyz
  1  'x, y, z'
loop_
 _atom_site_type_symbol
 _atom_site_label
 _atom_site_symmetry_multiplicity
 _atom_site_fract_x
 _atom_site_fract_y
 _atom_site_fract_z
 _atom_site_occupancy
  C  C0  1  0.67538600  0.01450600  0.16637700  1
  C  C1  1  0.34831200  0.99788100  0.89759700  1
  C  C2  1  0.33607400  0.00256000  0.35253800  1
  C  C3  1  0.82433600  0.50951900  0.33311500  1
  C  C4  1  0.10376700  0.49151500  0.72560300  1
  C  C5  1  0.16517800  0.50914200  0.15285500  1
  C  C6  1  0.15216400  0.50634300  0.53428600  1
  C  C7  1  0.66087400  0.99350200  0.67236600  1
  Ni  Ni8  1  0.85494800  0.16911800  0.89057000  1
  Ni  Ni9  1  0.16044100  0.16242000  0.62102000  1
  Ni  Ni10  1  0.66182600  0.34501000  0.10190700  1
  Ni  Ni11  1  0.34423200  0.32571600  0.35266600  1
  Ni  Ni12  1  0.65143200  0.66641400  0.65026500  1
  Ni  Ni13  1  0.83973000  0.83770500  0.39469300  1
  Ni  Ni14  1  0.36648700  0.65472900  0.90837400  1
  Ni  Ni15  1  0.15036800  0.83930700  0.11205900  1
  Cu  Cu16  1  0.84363800  0.16885200  0.37134100  1
  Cu  Cu17  1  0.16734100  0.17079600  0.12989200  1
  Cu  Cu18  1  0.65801800  0.33559200  0.62540700  1
  Cu  Cu19  1  0.34542900  0.32661100  0.88509500  1
  Cu  Cu20  1  0.66381300  0.67264600  0.13374100  1
  Cu  Cu21  1  0.84459700  0.83114500  0.87417800  1
  Cu  Cu22  1  0.34000700  0.67042900  0.36719300  1
  Cu  Cu23  1  0.15209200  0.82634200  0.62300100  1
  C  C24  1  0.70498100  0.03658600  0.34885700  1
  C  C25  1  0.90327200  0.16923100  0.09879100  1
  C  C26  1  0.31049400  0.03815100  0.13092800  1
  C  C27  1  0.78074500  0.19819500  0.64913600  1
  C  C28  1  0.72301500  0.30704000  0.35696400  1
  C  C29  1  0.22312300  0.19113400  0.85412600  1
  C  C30  1  0.11066300  0.16176400  0.40413500  1
  C  C31  1  0.60520900  0.32582100  0.92517700  1
  C  C32  1  0.81066000  0.46701500  0.62077500  1
  C  C33  1  0.29343500  0.30646700  0.16222100  1
  C  C34  1  0.38385500  0.34486500  0.60950000  1
  C  C35  1  0.79883000  0.53935000  0.15375700  1
  C  C36  1  0.21080100  0.46046300  0.87843400  1
  C  C37  1  0.71356400  0.70004000  0.83814600  1
  C  C38  1  0.60522700  0.66538600  0.38892900  1
  C  C39  1  0.19694700  0.53327400  0.36401800  1
  C  C40  1  0.39715400  0.66451700  0.09702500  1
  C  C41  1  0.78188300  0.81074300  0.14728400  1
  C  C42  1  0.88178800  0.83531000  0.59279500  1
  C  C43  1  0.26391600  0.68275500  0.63760300  1
  C  C44  1  0.20721700  0.80473700  0.34802400  1
  C  C45  1  0.71235600  0.96754800  0.86313800  1
  C  C46  1  0.10561700  0.82809500  0.91679300  1
  C  C47  1  0.29722000  0.95662600  0.63703700  1
