# generated using pymatgen
data_Cu10NiC5
_symmetry_space_group_name_H-M   'P 1'
_cell_length_a   17.48431400
_cell_length_b   15.29353500
_cell_length_c   17.32957452
_cell_angle_alpha   85.87439761
_cell_angle_beta   90.00000000
_cell_angle_gamma   90.00000000
_symmetry_Int_Tables_number   1
_chemical_formula_structural   Cu10NiC5
_chemical_formula_sum   'Cu40 Ni4 C20'
_cell_volume   4621.86808538
_cell_formula_units_Z   4
loop_
 _symmetry_equiv_pos_site_id
 _symmetry_equiv_pos_as_xyz
  1  'x, y, z'
loop_
 _atom_site_type_symbol
 _atom_site_label
 _atom_site_symmetry_multiplicity
 _atom_site_fract_x
 _atom_site_fract_y
 _atom_site_fract_z
 _atom_site_occupancy
  C  C0  1  0.49354000  0.87776100  0.30979800  1
  C  C1  1  0.00646000  0.37776100  0.80979800  1
  C  C2  1  0.50646000  0.12223900  0.69020200  1
  C  C3  1  0.99354000  0.62223900  0.19020200  1
  C  C4  1  0.69271000  0.05798700  0.41868300  1
  C  C5  1  0.80729000  0.55798700  0.91868300  1
  C  C6  1  0.30729000  0.94201300  0.58131700  1
  C  C7  1  0.19271000  0.44201300  0.08131700  1
  C  C8  1  0.61209500  0.97469400  0.65409500  1
  C  C9  1  0.88790500  0.47469400  0.15409500  1
  C  C10  1  0.38790500  0.02530600  0.34590500  1
  C  C11  1  0.11209500  0.52530600  0.84590500  1
  C  C12  1  0.43861900  0.82421700  0.55823500  1
  C  C13  1  0.06138100  0.32421700  0.05823500  1
  C  C14  1  0.56138100  0.17578300  0.44176500  1
  C  C15  1  0.93861900  0.67578300  0.94176500  1
  C  C16  1  0.53334900  0.93447100  0.53650500  1
  C  C17  1  0.96665100  0.43447100  0.03650500  1
  C  C18  1  0.46665100  0.06552900  0.46349500  1
  C  C19  1  0.03334900  0.56552900  0.96349500  1
  Ni  Ni20  1  0.62647900  0.86453500  0.46556900  1
  Ni  Ni21  1  0.87352100  0.36453500  0.96556900  1
  Ni  Ni22  1  0.37352100  0.13546500  0.53443100  1
  Ni  Ni23  1  0.12647900  0.63546500  0.03443100  1
  Cu  Cu24  1  0.56983700  0.87698200  0.27540600  1
  Cu  Cu25  1  0.93016300  0.37698200  0.77540600  1
  Cu  Cu26  1  0.43016300  0.12301800  0.72459400  1
  Cu  Cu27  1  0.06983700  0.62301800  0.22459400  1
  Cu  Cu28  1  0.43987000  0.81109900  0.34167400  1
  Cu  Cu29  1  0.06013000  0.31109900  0.84167400  1
  Cu  Cu30  1  0.56013000  0.18890100  0.65832600  1
  Cu  Cu31  1  0.93987000  0.68890100  0.15832600  1
  Cu  Cu32  1  0.76084000  0.03219200  0.46336300  1
  Cu  Cu33  1  0.73916000  0.53219200  0.96336300  1
  Cu  Cu34  1  0.23916000  0.96780800  0.53663700  1
  Cu  Cu35  1  0.26084000  0.46780800  0.03663700  1
  Cu  Cu36  1  0.66154300  0.03960500  0.34287700  1
  Cu  Cu37  1  0.83845700  0.53960500  0.84287700  1
  Cu  Cu38  1  0.33845700  0.96039500  0.65712300  1
  Cu  Cu39  1  0.16154300  0.46039500  0.15712300  1
  Cu  Cu40  1  0.64115900  0.12508300  0.46578700  1
  Cu  Cu41  1  0.85884100  0.62508300  0.96578700  1
  Cu  Cu42  1  0.35884100  0.87491700  0.53421300  1
  Cu  Cu43  1  0.14115900  0.37491700  0.03421300  1
  Cu  Cu44  1  0.66962400  0.03481000  0.61837500  1
  Cu  Cu45  1  0.83037600  0.53481000  0.11837500  1
  Cu  Cu46  1  0.33037600  0.96519000  0.38162500  1
  Cu  Cu47  1  0.16962400  0.46519000  0.88162500  1
  Cu  Cu48  1  0.61696500  0.88400100  0.68882300  1
  Cu  Cu49  1  0.88303500  0.38400100  0.18882300  1
  Cu  Cu50  1  0.38303500  0.11599900  0.31117700  1
  Cu  Cu51  1  0.11696500  0.61599900  0.81117700  1
  Cu  Cu52  1  0.53550500  0.02198500  0.68739400  1
  Cu  Cu53  1  0.96449500  0.52198500  0.18739400  1
  Cu  Cu54  1  0.46449500  0.97801500  0.31260600  1
  Cu  Cu55  1  0.03550500  0.47801500  0.81260600  1
  Cu  Cu56  1  0.45161400  0.75094900  0.50936000  1
  Cu  Cu57  1  0.04838600  0.25094900  0.00936000  1
  Cu  Cu58  1  0.54838600  0.24905100  0.49064000  1
  Cu  Cu59  1  0.95161400  0.74905100  0.99064000  1
  Cu  Cu60  1  0.46370600  0.83895000  0.63959200  1
  Cu  Cu61  1  0.03629400  0.33895000  0.13959200  1
  Cu  Cu62  1  0.53629400  0.16105000  0.36040800  1
  Cu  Cu63  1  0.96370600  0.66105000  0.86040800  1
