# generated using pymatgen
data_Cu12Ni3C2
_symmetry_space_group_name_H-M   'P 1'
_cell_length_a   8.93641559
_cell_length_b   8.93641559
_cell_length_c   8.93641620
_cell_angle_alpha   55.39898714
_cell_angle_beta   55.39898714
_cell_angle_gamma   55.39899046
_symmetry_Int_Tables_number   1
_chemical_formula_structural   Cu12Ni3C2
_chemical_formula_sum   'Cu24 Ni6 C4'
_cell_volume   450.70056902
_cell_formula_units_Z   2
loop_
 _symmetry_equiv_pos_site_id
 _symmetry_equiv_pos_as_xyz
  1  'x, y, z'
loop_
 _atom_site_type_symbol
 _atom_site_label
 _atom_site_symmetry_multiplicity
 _atom_site_fract_x
 _atom_site_fract_y
 _atom_site_fract_z
 _atom_site_occupancy
  C  C0  1  0.14305400  0.14305400  0.14305400  1
  C  C1  1  0.34755000  0.34755000  0.34755000  1
  C  C2  1  0.65245000  0.65245000  0.65245000  1
  C  C3  1  0.85694600  0.85694600  0.85694600  1
  Ni  Ni4  1  0.74596400  0.04297900  0.45889500  1
  Ni  Ni5  1  0.95702100  0.54110500  0.25403600  1
  Ni  Ni6  1  0.54110500  0.25403600  0.95702100  1
  Ni  Ni7  1  0.45889500  0.74596400  0.04297900  1
  Ni  Ni8  1  0.04297900  0.45889500  0.74596400  1
  Ni  Ni9  1  0.25403600  0.95702100  0.54110500  1
  Cu  Cu10  1  0.52766500  0.21571200  0.14976800  1
  Cu  Cu11  1  0.21571200  0.14976800  0.52766500  1
  Cu  Cu12  1  0.79555000  0.01766600  0.60488800  1
  Cu  Cu13  1  0.87107700  0.13120100  0.25936600  1
  Cu  Cu14  1  0.14976800  0.52766500  0.21571200  1
  Cu  Cu15  1  0.74063400  0.12892300  0.86879900  1
  Cu  Cu16  1  0.98233400  0.39511200  0.20445000  1
  Cu  Cu17  1  0.53789400  0.16945900  0.49228100  1
  Cu  Cu18  1  0.83054100  0.50771900  0.46210600  1
  Cu  Cu19  1  0.39511200  0.20445000  0.98233400  1
  Cu  Cu20  1  0.86879900  0.74063400  0.12892300  1
  Cu  Cu21  1  0.50771900  0.46210600  0.83054100  1
  Cu  Cu22  1  0.49228100  0.53789400  0.16945900  1
  Cu  Cu23  1  0.13120100  0.25936600  0.87107700  1
  Cu  Cu24  1  0.60488800  0.79555000  0.01766600  1
  Cu  Cu25  1  0.16945900  0.49228100  0.53789400  1
  Cu  Cu26  1  0.46210600  0.83054100  0.50771900  1
  Cu  Cu27  1  0.01766600  0.60488800  0.79555000  1
  Cu  Cu28  1  0.25936600  0.87107700  0.13120100  1
  Cu  Cu29  1  0.85023200  0.47233500  0.78428800  1
  Cu  Cu30  1  0.12892300  0.86879900  0.74063400  1
  Cu  Cu31  1  0.20445000  0.98233400  0.39511200  1
  Cu  Cu32  1  0.78428800  0.85023200  0.47233500  1
  Cu  Cu33  1  0.47233500  0.78428800  0.85023200  1
