# generated using pymatgen
data_CuNiC11
_symmetry_space_group_name_H-M   'P 1'
_cell_length_a   6.50241300
_cell_length_b   8.55506900
_cell_length_c   9.98126830
_cell_angle_alpha   85.26794216
_cell_angle_beta   90.00000000
_cell_angle_gamma   90.00000000
_symmetry_Int_Tables_number   1
_chemical_formula_structural   CuNiC11
_chemical_formula_sum   'Cu4 Ni4 C44'
_cell_volume   553.35128808
_cell_formula_units_Z   4
loop_
 _symmetry_equiv_pos_site_id
 _symmetry_equiv_pos_as_xyz
  1  'x, y, z'
loop_
 _atom_site_type_symbol
 _atom_site_label
 _atom_site_symmetry_multiplicity
 _atom_site_fract_x
 _atom_site_fract_y
 _atom_site_fract_z
 _atom_site_occupancy
  C  C0  1  0.00000000  0.90501500  0.62048100  1
  C  C1  1  0.00000000  0.90619800  0.11960100  1
  C  C2  1  0.22548200  0.72543200  0.87672300  1
  C  C3  1  0.77451800  0.72543200  0.87672300  1
  C  C4  1  0.22488100  0.72570400  0.37644400  1
  C  C5  1  0.77511900  0.72570400  0.37644400  1
  C  C6  1  0.72592200  0.27428800  0.62458200  1
  C  C7  1  0.27407800  0.27428800  0.62458200  1
  C  C8  1  0.72590900  0.27411100  0.12284900  1
  C  C9  1  0.27409100  0.27411100  0.12284900  1
  C  C10  1  0.50000000  0.09364500  0.88028000  1
  C  C11  1  0.50000000  0.09273600  0.37974400  1
  C  C12  1  0.00000000  0.33480000  0.39238700  1
  C  C13  1  0.50000000  0.66498900  0.60710700  1
  C  C14  1  0.50000000  0.66536400  0.10663100  1
  C  C15  1  0.00000000  0.33514600  0.89367400  1
  Ni  Ni16  1  0.00000000  0.58752700  0.64111300  1
  Ni  Ni17  1  0.00000000  0.58973700  0.14031700  1
  Ni  Ni18  1  0.50000000  0.41193500  0.85904900  1
  Ni  Ni19  1  0.50000000  0.41258100  0.35880500  1
  Cu  Cu20  1  0.50000000  0.96560600  0.64812500  1
  Cu  Cu21  1  0.50000000  0.96562200  0.14842200  1
  Cu  Cu22  1  0.00000000  0.03550200  0.85169400  1
  Cu  Cu23  1  0.00000000  0.03224000  0.35314000  1
  C  C24  1  0.50000000  0.92905400  0.52471500  1
  C  C25  1  0.00000000  0.88977500  0.82160800  1
  C  C26  1  0.50000000  0.92920600  0.02480000  1
  C  C27  1  0.50000000  0.85259300  0.74484900  1
  C  C28  1  0.00000000  0.88767900  0.32009000  1
  C  C29  1  0.50000000  0.85263800  0.24499700  1
  C  C30  1  0.18663100  0.68903000  0.58736900  1
  C  C31  1  0.81336900  0.68903000  0.58736900  1
  C  C32  1  0.18706500  0.69015800  0.08520700  1
  C  C33  1  0.81293500  0.69015800  0.08520700  1
  C  C34  1  0.50000000  0.57793800  0.90912300  1
  C  C35  1  0.00000000  0.57287300  0.79816900  1
  C  C36  1  0.50000000  0.57845800  0.40935100  1
  C  C37  1  0.00000000  0.57893200  0.29637200  1
  C  C38  1  0.50000000  0.42749000  0.70207700  1
  C  C39  1  0.00000000  0.42200700  0.59152600  1
  C  C40  1  0.50000000  0.42826700  0.20165600  1
  C  C41  1  0.00000000  0.42261500  0.09218800  1
  C  C42  1  0.31332600  0.31050500  0.91254900  1
  C  C43  1  0.68667400  0.31050500  0.91254900  1
  C  C44  1  0.68618600  0.31133900  0.41218700  1
  C  C45  1  0.31381400  0.31133900  0.41218700  1
  C  C46  1  0.00000000  0.14796500  0.75550800  1
  C  C47  1  0.50000000  0.11049300  0.67805900  1
  C  C48  1  0.00000000  0.14662200  0.25801100  1
  C  C49  1  0.00000000  0.07100800  0.97531600  1
  C  C50  1  0.50000000  0.11051600  0.17812800  1
  C  C51  1  0.00000000  0.06409500  0.47706600  1
