# generated using pymatgen
data_Cu12Ni5C39
_symmetry_space_group_name_H-M   'P 1'
_cell_length_a   5.92131700
_cell_length_b   6.05878104
_cell_length_c   19.85269003
_cell_angle_alpha   96.77493340
_cell_angle_beta   89.51498261
_cell_angle_gamma   118.93777950
_symmetry_Int_Tables_number   1
_chemical_formula_structural   Cu12Ni5C39
_chemical_formula_sum   'Cu12 Ni5 C39'
_cell_volume   617.98712222
_cell_formula_units_Z   1
loop_
 _symmetry_equiv_pos_site_id
 _symmetry_equiv_pos_as_xyz
  1  'x, y, z'
loop_
 _atom_site_type_symbol
 _atom_site_label
 _atom_site_symmetry_multiplicity
 _atom_site_fract_x
 _atom_site_fract_y
 _atom_site_fract_z
 _atom_site_occupancy
  C  C0  1  0.65988200  0.81577100  0.96987800  1
  C  C1  1  0.59972000  0.69531600  0.78182700  1
  C  C2  1  0.89627000  0.30451600  0.71393800  1
  C  C3  1  0.84822700  0.19386500  0.54037000  1
  C  C4  1  0.09670700  0.68453900  0.27450700  1
  C  C5  1  0.41120000  0.31777900  0.22179000  1
  C  C6  1  0.34231900  0.18278300  0.03173400  1
  Ni  Ni7  1  0.14218600  0.26821700  0.87424000  1
  Ni  Ni8  1  0.99250400  0.49046100  0.00242400  1
  Ni  Ni9  1  0.12667900  0.75914400  0.87497200  1
  Ni  Ni10  1  0.14885900  0.80758500  0.46901200  1
  Ni  Ni11  1  0.88193700  0.76222900  0.12615600  1
  Cu  Cu12  1  0.62889500  0.25401500  0.87629000  1
  Cu  Cu13  1  0.24466900  0.99394000  0.74896400  1
  Cu  Cu14  1  0.37581900  0.74710700  0.62870100  1
  Cu  Cu15  1  0.11678700  0.23548800  0.37036700  1
  Cu  Cu16  1  0.86729800  0.74704900  0.62816900  1
  Cu  Cu17  1  0.62275100  0.74998600  0.37096500  1
  Cu  Cu18  1  0.37662500  0.25701800  0.62889800  1
  Cu  Cu19  1  0.62401500  0.24209000  0.37143200  1
  Cu  Cu20  1  0.50083900  0.50335300  0.50522900  1
  Cu  Cu21  1  0.74868200  0.00031000  0.24826300  1
  Cu  Cu22  1  0.37818100  0.75296400  0.12422500  1
  Cu  Cu23  1  0.87518900  0.25237500  0.12562200  1
  C  C24  1  0.27883700  0.59798600  0.93277700  1
  C  C25  1  0.83400100  0.16996600  0.93670500  1
  C  C26  1  0.85326400  0.63092700  0.93803300  1
  C  C27  1  0.07514500  0.09612500  0.68401200  1
  C  C28  1  0.94833300  0.39310800  0.82430600  1
  C  C29  1  0.40380600  0.87775300  0.81453600  1
  C  C30  1  0.30784700  0.11241100  0.92740500  1
  C  C31  1  0.57782500  0.61895200  0.68528000  1
  C  C32  1  0.43015400  0.36279600  0.82198100  1
  C  C33  1  0.97744000  0.91097900  0.82004200  1
  C  C34  1  0.67850300  0.85878900  0.57470000  1
  C  C35  1  0.22735400  0.40305300  0.57038200  1
  C  C36  1  0.06558800  0.63921400  0.67830200  1
  C  C37  1  0.51329500  0.09201200  0.68313800  1
  C  C38  1  0.16961800  0.87141900  0.55998600  1
  C  C39  1  0.32679400  0.62774200  0.44126400  1
  C  C40  1  0.66996900  0.39823400  0.56782700  1
  C  C41  1  0.80294000  0.09725300  0.42161500  1
  C  C42  1  0.93365000  0.32722000  0.30702700  1
  C  C43  1  0.46826000  0.89948400  0.30505900  1
  C  C44  1  0.29616400  0.11919400  0.43436800  1
  C  C45  1  0.80176400  0.60958200  0.44111300  1
  C  C46  1  0.58509200  0.67118400  0.18589200  1
  C  C47  1  0.02869300  0.09823300  0.18099500  1
  C  C48  1  0.68021500  0.85428600  0.07023600  1
  C  C49  1  0.44529000  0.39632900  0.32668300  1
  C  C50  1  0.59880800  0.12758100  0.18660200  1
  C  C51  1  0.90494600  0.87196600  0.30647800  1
  C  C52  1  0.06908700  0.64184300  0.17596400  1
  C  C53  1  0.15194100  0.37222600  0.06056800  1
  C  C54  1  0.72288600  0.40129300  0.06648700  1
  C  C55  1  0.16625500  0.83296600  0.06226500  1
