# generated using pymatgen
data_Cu4NiC
_symmetry_space_group_name_H-M   'P 1'
_cell_length_a   8.85812900
_cell_length_b   9.15874400
_cell_length_c   16.18914000
_cell_angle_alpha   90.00000000
_cell_angle_beta   90.00000000
_cell_angle_gamma   90.00000000
_symmetry_Int_Tables_number   1
_chemical_formula_structural   Cu4NiC
_chemical_formula_sum   'Cu64 Ni16 C16'
_cell_volume   1313.41417586
_cell_formula_units_Z   16
loop_
 _symmetry_equiv_pos_site_id
 _symmetry_equiv_pos_as_xyz
  1  'x, y, z'
loop_
 _atom_site_type_symbol
 _atom_site_label
 _atom_site_symmetry_multiplicity
 _atom_site_fract_x
 _atom_site_fract_y
 _atom_site_fract_z
 _atom_site_occupancy
  C  C0  1  0.86972200  0.23908600  0.98731000  1
  C  C1  1  0.36972200  0.76091400  0.01269000  1
  C  C2  1  0.36972200  0.26091400  0.98731000  1
  C  C3  1  0.86972200  0.73908600  0.01269000  1
  C  C4  1  0.66805700  0.51799000  0.23527900  1
  C  C5  1  0.16805700  0.48201000  0.76472100  1
  C  C6  1  0.16805700  0.98201000  0.23527900  1
  C  C7  1  0.66805700  0.01799000  0.76472100  1
  C  C8  1  0.17443900  0.48026600  0.26809400  1
  C  C9  1  0.67443900  0.51973400  0.73190600  1
  C  C10  1  0.67443900  0.01973400  0.26809400  1
  C  C11  1  0.17443900  0.98026600  0.73190600  1
  C  C12  1  0.10933100  0.26554900  0.49958800  1
  C  C13  1  0.60933100  0.73445100  0.50041200  1
  C  C14  1  0.60933100  0.23445100  0.49958800  1
  C  C15  1  0.10933100  0.76554900  0.50041200  1
  Ni  Ni16  1  0.74722000  0.04035900  0.00981400  1
  Ni  Ni17  1  0.24722000  0.95964100  0.99018600  1
  Ni  Ni18  1  0.24722000  0.45964100  0.00981400  1
  Ni  Ni19  1  0.74722000  0.54035900  0.99018600  1
  Ni  Ni20  1  0.53850300  0.71574000  0.24959700  1
  Ni  Ni21  1  0.03850300  0.28426000  0.75040300  1
  Ni  Ni22  1  0.03850300  0.78426000  0.24959700  1
  Ni  Ni23  1  0.53850300  0.21574000  0.75040300  1
  Ni  Ni24  1  0.02693100  0.29586100  0.25079300  1
  Ni  Ni25  1  0.52693100  0.70413900  0.74920700  1
  Ni  Ni26  1  0.52693100  0.20413900  0.25079300  1
  Ni  Ni27  1  0.02693100  0.79586100  0.74920700  1
  Ni  Ni28  1  0.24841700  0.45822200  0.51024400  1
  Ni  Ni29  1  0.74841700  0.54177800  0.48975600  1
  Ni  Ni30  1  0.74841700  0.04177800  0.51024400  1
  Ni  Ni31  1  0.24841700  0.95822200  0.48975600  1
  Cu  Cu32  1  0.89650700  0.14736100  0.01732300  1
  Cu  Cu33  1  0.39650700  0.85263900  0.98267700  1
  Cu  Cu34  1  0.39650700  0.35263900  0.01732300  1
  Cu  Cu35  1  0.89650700  0.64736100  0.98267700  1
  Cu  Cu36  1  0.73152300  0.00598800  0.92405800  1
  Cu  Cu37  1  0.23152300  0.99401200  0.07594200  1
  Cu  Cu38  1  0.23152300  0.49401200  0.92405800  1
  Cu  Cu39  1  0.73152300  0.50598800  0.07594200  1
  Cu  Cu40  1  0.62409200  0.12013400  0.04439700  1
  Cu  Cu41  1  0.12409200  0.87986600  0.95560300  1
  Cu  Cu42  1  0.12409200  0.37986600  0.04439700  1
  Cu  Cu43  1  0.62409200  0.62013400  0.95560300  1
  Cu  Cu44  1  0.79373300  0.91817800  0.05959900  1
  Cu  Cu45  1  0.29373300  0.08182200  0.94040100  1
  Cu  Cu46  1  0.29373300  0.58182200  0.05959900  1
  Cu  Cu47  1  0.79373300  0.41817800  0.94040100  1
  Cu  Cu48  1  0.69208600  0.61430500  0.26034100  1
  Cu  Cu49  1  0.19208600  0.38569500  0.73965900  1
  Cu  Cu50  1  0.19208600  0.88569500  0.26034100  1
  Cu  Cu51  1  0.69208600  0.11430500  0.73965900  1
  Cu  Cu52  1  0.53029400  0.75545400  0.16414100  1
  Cu  Cu53  1  0.03029400  0.24454600  0.83585900  1
  Cu  Cu54  1  0.03029400  0.74454600  0.16414100  1
  Cu  Cu55  1  0.53029400  0.25545400  0.83585900  1
  Cu  Cu56  1  0.57406700  0.83555900  0.30316300  1
  Cu  Cu57  1  0.07406700  0.16444100  0.69683700  1
  Cu  Cu58  1  0.07406700  0.66444100  0.30316300  1
  Cu  Cu59  1  0.57406700  0.33555900  0.69683700  1
  Cu  Cu60  1  0.41606900  0.62760300  0.27786800  1
  Cu  Cu61  1  0.91606900  0.37239700  0.72213200  1
  Cu  Cu62  1  0.91606900  0.87239700  0.27786800  1
  Cu  Cu63  1  0.41606900  0.12760300  0.72213200  1
  Cu  Cu64  1  0.19055800  0.38247800  0.24294900  1
  Cu  Cu65  1  0.69055800  0.61752200  0.75705100  1
  Cu  Cu66  1  0.69055800  0.11752200  0.24294900  1
  Cu  Cu67  1  0.19055800  0.88247800  0.75705100  1
  Cu  Cu68  1  0.06008800  0.16428200  0.20666600  1
  Cu  Cu69  1  0.56008800  0.83571800  0.79333400  1
  Cu  Cu70  1  0.56008800  0.33571800  0.20666600  1
  Cu  Cu71  1  0.06008800  0.66428200  0.79333400  1
  Cu  Cu72  1  0.99983400  0.27573400  0.33722400  1
  Cu  Cu73  1  0.49983400  0.72426600  0.66277600  1
  Cu  Cu74  1  0.49983400  0.22426600  0.33722400  1
  Cu  Cu75  1  0.99983400  0.77573400  0.66277600  1
  Cu  Cu76  1  0.91802800  0.38622300  0.21034900  1
  Cu  Cu77  1  0.41802800  0.61377700  0.78965100  1
  Cu  Cu78  1  0.41802800  0.11377700  0.21034900  1
  Cu  Cu79  1  0.91802800  0.88622300  0.78965100  1
  Cu  Cu80  1  0.09261300  0.36211000  0.52609500  1
  Cu  Cu81  1  0.59261300  0.63789000  0.47390500  1
  Cu  Cu82  1  0.59261300  0.13789000  0.52609500  1
  Cu  Cu83  1  0.09261300  0.86211000  0.47390500  1
  Cu  Cu84  1  0.26497800  0.47242300  0.42276000  1
  Cu  Cu85  1  0.76497800  0.52757700  0.57724000  1
  Cu  Cu86  1  0.76497800  0.02757700  0.42276000  1
  Cu  Cu87  1  0.26497800  0.97242300  0.57724000  1
  Cu  Cu88  1  0.36833500  0.38002200  0.54943700  1
  Cu  Cu89  1  0.86833500  0.61997800  0.45056300  1
  Cu  Cu90  1  0.86833500  0.11997800  0.54943700  1
  Cu  Cu91  1  0.36833500  0.88002200  0.45056300  1
  Cu  Cu92  1  0.20896600  0.59135100  0.55180600  1
  Cu  Cu93  1  0.70896600  0.40864900  0.44819400  1
  Cu  Cu94  1  0.70896600  0.90864900  0.55180600  1
  Cu  Cu95  1  0.20896600  0.09135100  0.44819400  1
