# generated using pymatgen
data_Cu(NiC)3
_symmetry_space_group_name_H-M   'P 1'
_cell_length_a   5.96438200
_cell_length_b   5.36059000
_cell_length_c   10.58719491
_cell_angle_alpha   88.75013771
_cell_angle_beta   90.00000000
_cell_angle_gamma   90.00000000
_symmetry_Int_Tables_number   1
_chemical_formula_structural   Cu(NiC)3
_chemical_formula_sum   'Cu4 Ni12 C12'
_cell_volume   338.41968073
_cell_formula_units_Z   4
loop_
 _symmetry_equiv_pos_site_id
 _symmetry_equiv_pos_as_xyz
  1  'x, y, z'
loop_
 _atom_site_type_symbol
 _atom_site_label
 _atom_site_symmetry_multiplicity
 _atom_site_fract_x
 _atom_site_fract_y
 _atom_site_fract_z
 _atom_site_occupancy
  C  C0  1  0.05680500  0.57201700  0.76710200  1
  C  C1  1  0.55059500  0.12237700  0.73585300  1
  C  C2  1  0.05059500  0.87762300  0.26414700  1
  C  C3  1  0.55680500  0.42798300  0.23289800  1
  C  C4  1  0.49761400  0.51432600  0.50762700  1
  C  C5  1  0.24769800  0.00151800  0.50581700  1
  C  C6  1  0.74769800  0.99848200  0.49418300  1
  C  C7  1  0.99761400  0.48567400  0.49237300  1
  C  C8  1  0.98917300  0.49490400  0.01845400  1
  C  C9  1  0.23527700  0.01080900  0.99517500  1
  C  C10  1  0.73527700  0.98919100  0.00482500  1
  C  C11  1  0.48917300  0.50509600  0.98154600  1
  Ni  Ni12  1  0.74342300  0.31728600  0.58314600  1
  Ni  Ni13  1  0.25111300  0.32676900  0.58957300  1
  Ni  Ni14  1  0.50336600  0.88245400  0.59789500  1
  Ni  Ni15  1  0.00336600  0.11754600  0.40210500  1
  Ni  Ni16  1  0.24342300  0.68271400  0.41685400  1
  Ni  Ni17  1  0.75111300  0.67323100  0.41042700  1
  Ni  Ni18  1  0.72160100  0.61348000  0.09751400  1
  Ni  Ni19  1  0.98304300  0.15518000  0.09179000  1
  Ni  Ni20  1  0.48931400  0.18717600  0.07747600  1
  Ni  Ni21  1  0.98931400  0.81282400  0.92252400  1
  Ni  Ni22  1  0.48304300  0.84482000  0.90821000  1
  Ni  Ni23  1  0.22160100  0.38652000  0.90248600  1
  Cu  Cu24  1  0.99985900  0.80039900  0.63270600  1
  Cu  Cu25  1  0.49985900  0.19960100  0.36729400  1
  Cu  Cu26  1  0.23112000  0.68043500  0.14079600  1
  Cu  Cu27  1  0.73112000  0.31956500  0.85920400  1
