# generated using pymatgen
data_CuNiC21
_symmetry_space_group_name_H-M   'P 1'
_cell_length_a   8.26235300
_cell_length_b   9.27780200
_cell_length_c   15.48122000
_cell_angle_alpha   90.00000000
_cell_angle_beta   90.00000000
_cell_angle_gamma   90.00000000
_symmetry_Int_Tables_number   1
_chemical_formula_structural   CuNiC21
_chemical_formula_sum   'Cu4 Ni4 C84'
_cell_volume   1186.73575681
_cell_formula_units_Z   4
loop_
 _symmetry_equiv_pos_site_id
 _symmetry_equiv_pos_as_xyz
  1  'x, y, z'
loop_
 _atom_site_type_symbol
 _atom_site_label
 _atom_site_symmetry_multiplicity
 _atom_site_fract_x
 _atom_site_fract_y
 _atom_site_fract_z
 _atom_site_occupancy
  Ni  Ni0  1  0.25000000  0.40157800  0.80589200  1
  Ni  Ni1  1  0.25000000  0.90157800  0.69410800  1
  Ni  Ni2  1  0.75000000  0.59842200  0.19410800  1
  Ni  Ni3  1  0.75000000  0.09842200  0.30589200  1
  Cu  Cu4  1  0.25000000  0.59432000  0.47530200  1
  Cu  Cu5  1  0.25000000  0.09432000  0.02469800  1
  Cu  Cu6  1  0.75000000  0.40568000  0.52469800  1
  Cu  Cu7  1  0.75000000  0.90568000  0.97530200  1
  C  C8  1  0.25000000  0.98929500  0.43536300  1
  C  C9  1  0.25000000  0.48929500  0.06463700  1
  C  C10  1  0.75000000  0.01070500  0.56463700  1
  C  C11  1  0.75000000  0.51070500  0.93536300  1
  C  C12  1  0.07517400  0.82421000  0.30646500  1
  C  C13  1  0.42482600  0.32421000  0.19353500  1
  C  C14  1  0.57517400  0.17579000  0.69353500  1
  C  C15  1  0.92482600  0.67579000  0.80646500  1
  C  C16  1  0.92482600  0.17579000  0.69353500  1
  C  C17  1  0.57517400  0.67579000  0.80646500  1
  C  C18  1  0.42482600  0.82421000  0.30646500  1
  C  C19  1  0.07517400  0.32421000  0.19353500  1
  C  C20  1  0.01160000  0.87689000  0.12705600  1
  C  C21  1  0.48840000  0.37689000  0.37294400  1
  C  C22  1  0.51160000  0.12311000  0.87294400  1
  C  C23  1  0.98840000  0.62311000  0.62705600  1
  C  C24  1  0.98840000  0.12311000  0.87294400  1
  C  C25  1  0.51160000  0.62311000  0.62705600  1
  C  C26  1  0.48840000  0.87689000  0.12705600  1
  C  C27  1  0.01160000  0.37689000  0.37294400  1
  C  C28  1  0.09879200  0.78332300  0.05589600  1
  C  C29  1  0.40120800  0.28332300  0.44410400  1
  C  C30  1  0.59879200  0.21667700  0.94410400  1
  C  C31  1  0.90120800  0.71667700  0.55589600  1
  C  C32  1  0.90120800  0.21667700  0.94410400  1
  C  C33  1  0.59879200  0.71667700  0.55589600  1
  C  C34  1  0.40120800  0.78332300  0.05589600  1
  C  C35  1  0.09879200  0.28332300  0.44410400  1
  C  C36  1  0.15230200  0.86819500  0.88881200  1
  C  C37  1  0.34769800  0.36819500  0.61118800  1
  C  C38  1  0.65230200  0.13180500  0.11118800  1
  C  C39  1  0.84769800  0.63180500  0.38881200  1
  C  C40  1  0.84769800  0.13180500  0.11118800  1
  C  C41  1  0.65230200  0.63180500  0.38881200  1
  C  C42  1  0.34769800  0.86819500  0.88881200  1
  C  C43  1  0.15230200  0.36819500  0.61118800  1
  C  C44  1  0.25000000  0.81725000  0.25843300  1
  C  C45  1  0.25000000  0.31725000  0.24156700  1
  C  C46  1  0.75000000  0.18275000  0.74156700  1
  C  C47  1  0.75000000  0.68275000  0.75843300  1
  C  C48  1  0.05256400  0.69272500  0.36214600  1
  C  C49  1  0.44743600  0.19272500  0.13785400  1
  C  C50  1  0.55256400  0.30727500  0.63785400  1
  C  C51  1  0.94743600  0.80727500  0.86214600  1
  C  C52  1  0.94743600  0.30727500  0.63785400  1
  C  C53  1  0.55256400  0.80727500  0.86214600  1
  C  C54  1  0.44743600  0.69272500  0.36214600  1
  C  C55  1  0.05256400  0.19272500  0.13785400  1
  C  C56  1  0.54819800  0.85842500  0.23896600  1
  C  C57  1  0.95180200  0.35842500  0.26103400  1
  C  C58  1  0.04819800  0.14157500  0.76103400  1
  C  C59  1  0.45180200  0.64157500  0.73896600  1
  C  C60  1  0.45180200  0.14157500  0.76103400  1
  C  C61  1  0.04819800  0.64157500  0.73896600  1
  C  C62  1  0.95180200  0.85842500  0.23896600  1
  C  C63  1  0.54819800  0.35842500  0.26103400  1
  C  C64  1  0.09737700  0.96616400  0.36817400  1
  C  C65  1  0.40262300  0.46616400  0.13182600  1
  C  C66  1  0.59737700  0.03383600  0.63182600  1
  C  C67  1  0.90262300  0.53383600  0.86817400  1
  C  C68  1  0.90262300  0.03383600  0.63182600  1
  C  C69  1  0.59737700  0.53383600  0.86817400  1
  C  C70  1  0.40262300  0.96616400  0.36817400  1
  C  C71  1  0.09737700  0.46616400  0.13182600  1
  C  C72  1  0.25000000  0.37128200  0.99824900  1
  C  C73  1  0.25000000  0.87128200  0.50175100  1
  C  C74  1  0.75000000  0.62871800  0.00175100  1
  C  C75  1  0.75000000  0.12871800  0.49824900  1
  C  C76  1  0.25000000  0.64400500  0.03776300  1
  C  C77  1  0.25000000  0.14400500  0.46223700  1
  C  C78  1  0.75000000  0.35599500  0.96223700  1
  C  C79  1  0.75000000  0.85599500  0.53776300  1
  C  C80  1  0.03789400  0.87455800  0.06450500  1
  C  C81  1  0.46210600  0.37455800  0.43549500  1
  C  C82  1  0.53789400  0.12544200  0.93549500  1
  C  C83  1  0.96210600  0.62544200  0.56450500  1
  C  C84  1  0.96210600  0.12544200  0.93549500  1
  C  C85  1  0.53789400  0.62544200  0.56450500  1
  C  C86  1  0.46210600  0.87455800  0.06450500  1
  C  C87  1  0.03789400  0.37455800  0.43549500  1
  C  C88  1  0.25000000  0.92860200  0.89542600  1
  C  C89  1  0.25000000  0.42860200  0.60457400  1
  C  C90  1  0.75000000  0.07139800  0.10457400  1
  C  C91  1  0.75000000  0.57139800  0.39542600  1
