# generated using pymatgen
data_Cu11NiC6
_symmetry_space_group_name_H-M   'P 1'
_cell_length_a   5.88019900
_cell_length_b   4.94266900
_cell_length_c   16.26292229
_cell_angle_alpha   89.70931896
_cell_angle_beta   90.00000000
_cell_angle_gamma   90.00000000
_symmetry_Int_Tables_number   1
_chemical_formula_structural   Cu11NiC6
_chemical_formula_sum   'Cu22 Ni2 C12'
_cell_volume   472.65749538
_cell_formula_units_Z   2
loop_
 _symmetry_equiv_pos_site_id
 _symmetry_equiv_pos_as_xyz
  1  'x, y, z'
loop_
 _atom_site_type_symbol
 _atom_site_label
 _atom_site_symmetry_multiplicity
 _atom_site_fract_x
 _atom_site_fract_y
 _atom_site_fract_z
 _atom_site_occupancy
  C  C0  1  0.17034000  0.99688800  0.33049200  1
  C  C1  1  0.83526400  0.01192200  0.16126200  1
  C  C2  1  0.20806000  0.00000000  0.00000000  1
  C  C3  1  0.17034000  0.00311200  0.66950800  1
  C  C4  1  0.83066300  0.00000000  0.50000000  1
  C  C5  1  0.83526400  0.98807800  0.83873800  1
  C  C6  1  0.33000700  0.50000000  0.50000000  1
  C  C7  1  0.33900400  0.51414400  0.84116500  1
  C  C8  1  0.33900400  0.48585600  0.15883500  1
  C  C9  1  0.63333900  0.50000000  0.00000000  1
  C  C10  1  0.66752500  0.50228100  0.33126200  1
  C  C11  1  0.66752500  0.49771900  0.66873800  1
  Ni  Ni12  1  0.39999200  0.28137700  0.05369300  1
  Ni  Ni13  1  0.39999200  0.71862300  0.94630700  1
  Cu  Cu14  1  0.10697900  0.23607400  0.22044300  1
  Cu  Cu15  1  0.10469900  0.22950600  0.55852100  1
  Cu  Cu16  1  0.11416400  0.21759800  0.89072600  1
  Cu  Cu17  1  0.87886800  0.24823400  0.04865400  1
  Cu  Cu18  1  0.89587300  0.23166600  0.38961500  1
  Cu  Cu19  1  0.88984500  0.22088400  0.72596100  1
  Cu  Cu20  1  0.60528000  0.26558200  0.22324600  1
  Cu  Cu21  1  0.39456000  0.26713000  0.39002800  1
  Cu  Cu22  1  0.60361900  0.26925000  0.55879000  1
  Cu  Cu23  1  0.38315800  0.28566500  0.73010100  1
  Cu  Cu24  1  0.60979200  0.27018600  0.88675000  1
  Cu  Cu25  1  0.60979200  0.72981400  0.11325000  1
  Cu  Cu26  1  0.38315800  0.71433500  0.26989900  1
  Cu  Cu27  1  0.60361900  0.73075000  0.44121000  1
  Cu  Cu28  1  0.60528000  0.73441800  0.77675400  1
  Cu  Cu29  1  0.39456000  0.73287000  0.60997200  1
  Cu  Cu30  1  0.11416400  0.78240200  0.10927400  1
  Cu  Cu31  1  0.10469900  0.77049400  0.44147900  1
  Cu  Cu32  1  0.88984500  0.77911600  0.27403900  1
  Cu  Cu33  1  0.87886800  0.75176600  0.95134600  1
  Cu  Cu34  1  0.10697900  0.76392600  0.77955700  1
  Cu  Cu35  1  0.89587300  0.76833400  0.61038500  1
