# generated using pymatgen
data_Cu2Ni3C29
_symmetry_space_group_name_H-M   'P 1'
_cell_length_a   5.96447348
_cell_length_b   5.96447348
_cell_length_c   9.78053432
_cell_angle_alpha   89.38106665
_cell_angle_beta   89.38106665
_cell_angle_gamma   59.66545640
_symmetry_Int_Tables_number   1
_chemical_formula_structural   Cu2Ni3C29
_chemical_formula_sum   'Cu2 Ni3 C29'
_cell_volume   300.28236460
_cell_formula_units_Z   1
loop_
 _symmetry_equiv_pos_site_id
 _symmetry_equiv_pos_as_xyz
  1  'x, y, z'
loop_
 _atom_site_type_symbol
 _atom_site_label
 _atom_site_symmetry_multiplicity
 _atom_site_fract_x
 _atom_site_fract_y
 _atom_site_fract_z
 _atom_site_occupancy
  C  C0  1  0.37797900  0.81433900  0.05670800  1
  C  C1  1  0.81433900  0.37797900  0.05670800  1
  C  C2  1  0.66469400  0.66469400  0.26663000  1
  C  C3  1  0.79821000  0.79821000  0.04082900  1
  C  C4  1  0.00206200  0.00206200  0.98059300  1
  C  C5  1  0.19949200  0.19949200  0.54835600  1
  C  C6  1  0.33518400  0.33518400  0.76644400  1
  C  C7  1  0.18696500  0.60722300  0.53967200  1
  C  C8  1  0.00952800  0.00952800  0.47889400  1
  C  C9  1  0.60722300  0.18696500  0.53967200  1
  Ni  Ni10  1  0.33995300  0.83214200  0.78038300  1
  Ni  Ni11  1  0.83214200  0.33995300  0.78038300  1
  Ni  Ni12  1  0.18008700  0.18008700  0.27997600  1
  Cu  Cu13  1  0.34105000  0.34105000  0.02531400  1
  Cu  Cu14  1  0.67565700  0.67565700  0.52200800  1
  C  C15  1  0.83405100  0.83405100  0.77862500  1
  C  C16  1  0.17369100  0.67262400  0.28008500  1
  C  C17  1  0.67262400  0.17369100  0.28008500  1
  C  C18  1  0.34118800  0.85847800  0.39762100  1
  C  C19  1  0.50816000  0.50816000  0.63871300  1
  C  C20  1  0.02066400  0.02066400  0.17173900  1
  C  C21  1  0.65911500  0.65911500  0.89131100  1
  C  C22  1  0.01394300  0.01394300  0.67550800  1
  C  C23  1  0.50725600  0.97976000  0.65470200  1
  C  C24  1  0.85847800  0.34118800  0.39762100  1
  C  C25  1  0.97976000  0.50725600  0.65470200  1
  C  C26  1  0.17432000  0.17432000  0.91152100  1
  C  C27  1  0.02569100  0.48864800  0.15683100  1
  C  C28  1  0.84417000  0.84417000  0.41502500  1
  C  C29  1  0.48864800  0.02569100  0.15683100  1
  C  C30  1  0.33127100  0.33127100  0.39491400  1
  C  C31  1  0.17141500  0.67126500  0.90375900  1
  C  C32  1  0.49551900  0.49551900  0.15242500  1
  C  C33  1  0.67126500  0.17141500  0.90375900  1
