# generated using pymatgen
data_Cu(Ni2C11)2
_symmetry_space_group_name_H-M   'P 1'
_cell_length_a   10.05034743
_cell_length_b   10.01864628
_cell_length_c   9.85391963
_cell_angle_alpha   60.75423193
_cell_angle_beta   60.43307541
_cell_angle_gamma   58.81269266
_symmetry_Int_Tables_number   1
_chemical_formula_structural   Cu(Ni2C11)2
_chemical_formula_sum   'Cu2 Ni8 C44'
_cell_volume   701.13318169
_cell_formula_units_Z   2
loop_
 _symmetry_equiv_pos_site_id
 _symmetry_equiv_pos_as_xyz
  1  'x, y, z'
loop_
 _atom_site_type_symbol
 _atom_site_label
 _atom_site_symmetry_multiplicity
 _atom_site_fract_x
 _atom_site_fract_y
 _atom_site_fract_z
 _atom_site_occupancy
  C  C0  1  0.54383600  0.95616400  0.54383600  1
  C  C1  1  0.95665900  0.54334100  0.54334100  1
  C  C2  1  0.70665900  0.29334100  0.29334100  1
  C  C3  1  0.29383600  0.70616400  0.29383600  1
  C  C4  1  0.95616400  0.54383600  0.95616400  1
  C  C5  1  0.54334100  0.95665900  0.95665900  1
  C  C6  1  0.29334100  0.70665900  0.70665900  1
  C  C7  1  0.70616400  0.29383600  0.70616400  1
  Ni  Ni8  1  0.91415300  0.91736800  0.26294300  1
  Ni  Ni9  1  0.33263200  0.33584700  0.34446400  1
  Ni  Ni10  1  0.26294300  0.90553600  0.91415300  1
  Ni  Ni11  1  0.90553600  0.26294300  0.91736800  1
  Ni  Ni12  1  0.34446400  0.98705700  0.33263200  1
  Ni  Ni13  1  0.98705700  0.34446400  0.33584700  1
  Ni  Ni14  1  0.91736800  0.91415300  0.90553600  1
  Ni  Ni15  1  0.33584700  0.33263200  0.98705700  1
  C  C16  1  0.12500000  0.12500000  0.62500000  1
  C  C17  1  0.12500000  0.12500000  0.12500000  1
  C  C18  1  0.62500000  0.12500000  0.12500000  1
  C  C19  1  0.12500000  0.62500000  0.12500000  1
  Cu  Cu20  1  0.50000000  0.50000000  0.50000000  1
  Cu  Cu21  1  0.75000000  0.75000000  0.75000000  1
  C  C22  1  0.76243600  0.94457400  0.26799700  1
  C  C23  1  0.56747700  0.31605800  0.55793900  1
  C  C24  1  0.94110500  0.04035400  0.26028200  1
  C  C25  1  0.20964600  0.30889500  0.49174100  1
  C  C26  1  0.26028200  0.75825900  0.94110500  1
  C  C27  1  0.48795000  0.21314100  0.31750200  1
  C  C28  1  0.55793900  0.55852500  0.56747700  1
  C  C29  1  0.31605800  0.56747800  0.55852500  1
  C  C30  1  0.98140600  0.31750200  0.21314100  1
  C  C31  1  0.75825900  0.26028200  0.04035400  1
  C  C32  1  0.30542600  0.48756400  0.22500700  1
  C  C33  1  0.55852500  0.55793900  0.31605800  1
  C  C34  1  0.26799700  0.02499300  0.76243600  1
  C  C35  1  0.02499300  0.26799700  0.94457400  1
  C  C36  1  0.03685900  0.76205000  0.26859400  1
  C  C37  1  0.31750200  0.98140600  0.48795000  1
  C  C38  1  0.93249800  0.26859400  0.76205000  1
  C  C39  1  0.21314100  0.48795000  0.98140600  1
  C  C40  1  0.22500700  0.98200300  0.30542600  1
  C  C41  1  0.98200300  0.22500700  0.48756400  1
  C  C42  1  0.69147500  0.69206100  0.93394200  1
  C  C43  1  0.94457400  0.76243600  0.02499300  1
  C  C44  1  0.49174100  0.98971800  0.20964600  1
  C  C45  1  0.26859400  0.93249800  0.03685900  1
  C  C46  1  0.93394200  0.68252300  0.69147500  1
  C  C47  1  0.69206100  0.69147500  0.68252200  1
  C  C48  1  0.76205000  0.03685900  0.93249800  1
  C  C49  1  0.98971800  0.49174100  0.30889500  1
  C  C50  1  0.04035400  0.94110500  0.75825900  1
  C  C51  1  0.30889500  0.20964600  0.98971800  1
  C  C52  1  0.68252200  0.93394200  0.69206100  1
  C  C53  1  0.48756400  0.30542600  0.98200300  1
