# generated using pymatgen
data_Cu3NiC5
_symmetry_space_group_name_H-M   'P 1'
_cell_length_a   5.66159700
_cell_length_b   6.29404855
_cell_length_c   11.96375707
_cell_angle_alpha   92.99244476
_cell_angle_beta   96.63225808
_cell_angle_gamma   114.19103332
_symmetry_Int_Tables_number   1
_chemical_formula_structural   Cu3NiC5
_chemical_formula_sum   'Cu12 Ni4 C20'
_cell_volume   383.94308738
_cell_formula_units_Z   4
loop_
 _symmetry_equiv_pos_site_id
 _symmetry_equiv_pos_as_xyz
  1  'x, y, z'
loop_
 _atom_site_type_symbol
 _atom_site_label
 _atom_site_symmetry_multiplicity
 _atom_site_fract_x
 _atom_site_fract_y
 _atom_site_fract_z
 _atom_site_occupancy
  C  C0  1  0.96028600  0.22705800  0.89743700  1
  C  C1  1  0.03971400  0.77294200  0.10256300  1
  Ni  Ni2  1  0.46923400  0.72311100  0.90277600  1
  Ni  Ni3  1  0.53076600  0.27688900  0.09722400  1
  Ni  Ni4  1  0.73534500  0.38737500  0.62711400  1
  Ni  Ni5  1  0.26465500  0.61262500  0.37288600  1
  Cu  Cu6  1  0.56205000  0.45878000  0.80421400  1
  Cu  Cu7  1  0.43795000  0.54122000  0.19578600  1
  Cu  Cu8  1  0.31349900  0.93486400  0.79446200  1
  Cu  Cu9  1  0.68650100  0.06513600  0.20553800  1
  Cu  Cu10  1  0.35501700  0.28653600  0.51745600  1
  Cu  Cu11  1  0.64498300  0.71346400  0.48254400  1
  Cu  Cu12  1  0.97122900  0.29602400  0.51167000  1
  Cu  Cu13  1  0.02877100  0.70397600  0.48833000  1
  Cu  Cu14  1  0.94529500  0.85919600  0.69741000  1
  Cu  Cu15  1  0.05470500  0.14080400  0.30259000  1
  Cu  Cu16  1  0.14222600  0.11376100  0.69329500  1
  Cu  Cu17  1  0.85777400  0.88623900  0.30670500  1
  C  C18  1  0.23884200  0.65874300  0.96713300  1
  C  C19  1  0.76115800  0.34125700  0.03286700  1
  C  C20  1  0.74564300  0.82775300  0.96649100  1
  C  C21  1  0.25435700  0.17224700  0.03350900  1
  C  C22  1  0.40582500  0.48391000  0.82744000  1
  C  C23  1  0.59417500  0.51609000  0.17256000  1
  C  C24  1  0.47963600  0.91486500  0.81863200  1
  C  C25  1  0.52036400  0.08513500  0.18136800  1
  C  C26  1  0.77755900  0.39744400  0.75578800  1
  C  C27  1  0.22244100  0.60255600  0.24421200  1
  C  C28  1  0.42894400  0.23964300  0.58724700  1
  C  C29  1  0.57105600  0.76035700  0.41275300  1
  C  C30  1  0.87849800  0.24139300  0.57901500  1
  C  C31  1  0.12150200  0.75860700  0.42098500  1
  C  C32  1  0.82400600  0.62674400  0.58077300  1
  C  C33  1  0.17599400  0.37325600  0.41922700  1
  C  C34  1  0.06629100  0.00248200  0.74783700  1
  C  C35  1  0.93370900  0.99751800  0.25216300  1
