# generated using pymatgen
data_Cu16NiC12
_symmetry_space_group_name_H-M   'P 1'
_cell_length_a   9.83437606
_cell_length_b   9.83437606
_cell_length_c   9.83437606
_cell_angle_alpha   60.00000000
_cell_angle_beta   60.00000000
_cell_angle_gamma   60.00000000
_symmetry_Int_Tables_number   1
_chemical_formula_structural   Cu16NiC12
_chemical_formula_sum   'Cu32 Ni2 C24'
_cell_volume   672.55133058
_cell_formula_units_Z   2
loop_
 _symmetry_equiv_pos_site_id
 _symmetry_equiv_pos_as_xyz
  1  'x, y, z'
loop_
 _atom_site_type_symbol
 _atom_site_label
 _atom_site_symmetry_multiplicity
 _atom_site_fract_x
 _atom_site_fract_y
 _atom_site_fract_z
 _atom_site_occupancy
  C  C0  1  0.96764600  0.96764600  0.53235400  1
  C  C1  1  0.71764600  0.28235400  0.28235400  1
  C  C2  1  0.96764600  0.53235400  0.96764600  1
  C  C3  1  0.53235400  0.96764600  0.53235400  1
  C  C4  1  0.71764600  0.71764600  0.28235400  1
  C  C5  1  0.28235400  0.71764600  0.71764600  1
  C  C6  1  0.53235400  0.53235400  0.96764600  1
  C  C7  1  0.96764600  0.53235400  0.53235400  1
  C  C8  1  0.71764600  0.28235400  0.71764600  1
  C  C9  1  0.28235400  0.71764600  0.28235400  1
  C  C10  1  0.53235400  0.96764600  0.96764600  1
  C  C11  1  0.28235400  0.28235400  0.71764600  1
  C  C12  1  0.12500000  0.62500000  0.12500000  1
  C  C13  1  0.12500000  0.12500000  0.62500000  1
  C  C14  1  0.12500000  0.12500000  0.12500000  1
  C  C15  1  0.62500000  0.12500000  0.12500000  1
  C  C16  1  0.33605400  0.99183700  0.33605400  1
  C  C17  1  0.99183700  0.33605400  0.33605400  1
  C  C18  1  0.33605400  0.33605400  0.99183700  1
  C  C19  1  0.33605400  0.33605400  0.33605400  1
  C  C20  1  0.91394600  0.91394600  0.91394600  1
  C  C21  1  0.25816300  0.91394600  0.91394600  1
  C  C22  1  0.91394600  0.91394600  0.25816300  1
  C  C23  1  0.91394600  0.25816300  0.91394600  1
  Ni  Ni24  1  0.75000000  0.75000000  0.75000000  1
  Ni  Ni25  1  0.50000000  0.50000000  0.50000000  1
  Cu  Cu26  1  0.94251300  0.03397100  0.26527200  1
  Cu  Cu27  1  0.75824300  0.26527200  0.03397100  1
  Cu  Cu28  1  0.21602900  0.98472800  0.30748700  1
  Cu  Cu29  1  0.30748700  0.98472800  0.49175700  1
  Cu  Cu30  1  0.68786600  0.68786600  0.68786600  1
  Cu  Cu31  1  0.98472800  0.30748700  0.21602900  1
  Cu  Cu32  1  0.98472800  0.21602900  0.49175700  1
  Cu  Cu33  1  0.68786600  0.68786600  0.93640100  1
  Cu  Cu34  1  0.93640100  0.68786600  0.68786600  1
  Cu  Cu35  1  0.49175700  0.30748700  0.98472800  1
  Cu  Cu36  1  0.21602900  0.49175700  0.98472800  1
  Cu  Cu37  1  0.68786600  0.93640100  0.68786600  1
  Cu  Cu38  1  0.49175700  0.21602900  0.30748700  1
  Cu  Cu39  1  0.98472800  0.49175700  0.30748700  1
  Cu  Cu40  1  0.21602900  0.30748700  0.49175700  1
  Cu  Cu41  1  0.94251300  0.75824300  0.03397100  1
  Cu  Cu42  1  0.30748700  0.49175700  0.21602900  1
  Cu  Cu43  1  0.03397100  0.94251300  0.75824300  1
  Cu  Cu44  1  0.26527200  0.75824300  0.94251300  1
  Cu  Cu45  1  0.75824300  0.03397100  0.94251300  1
  Cu  Cu46  1  0.56213400  0.31359900  0.56213400  1
  Cu  Cu47  1  0.03397100  0.75824300  0.26527200  1
  Cu  Cu48  1  0.75824300  0.94251300  0.26527200  1
  Cu  Cu49  1  0.56213400  0.56213400  0.31359900  1
  Cu  Cu50  1  0.31359900  0.56213400  0.56213400  1
  Cu  Cu51  1  0.26527200  0.03397100  0.75824300  1
  Cu  Cu52  1  0.26527200  0.94251300  0.03397100  1
  Cu  Cu53  1  0.56213400  0.56213400  0.56213400  1
  Cu  Cu54  1  0.94251300  0.26527200  0.75824300  1
  Cu  Cu55  1  0.03397100  0.26527200  0.94251300  1
  Cu  Cu56  1  0.49175700  0.98472800  0.21602900  1
  Cu  Cu57  1  0.30748700  0.21602900  0.98472800  1
