# generated using pymatgen
data_Cu2NiC18
_symmetry_space_group_name_H-M   'P 1'
_cell_length_a   6.38262900
_cell_length_b   6.96562594
_cell_length_c   9.02864948
_cell_angle_alpha   97.24161353
_cell_angle_beta   99.08964803
_cell_angle_gamma   116.53529901
_symmetry_Int_Tables_number   1
_chemical_formula_structural   Cu2NiC18
_chemical_formula_sum   'Cu2 Ni1 C18'
_cell_volume   345.71534689
_cell_formula_units_Z   1
loop_
 _symmetry_equiv_pos_site_id
 _symmetry_equiv_pos_as_xyz
  1  'x, y, z'
loop_
 _atom_site_type_symbol
 _atom_site_label
 _atom_site_symmetry_multiplicity
 _atom_site_fract_x
 _atom_site_fract_y
 _atom_site_fract_z
 _atom_site_occupancy
  Ni  Ni0  1  0.00000000  0.00000000  0.00000000  1
  Cu  Cu1  1  0.45512100  0.00818100  0.24888800  1
  Cu  Cu2  1  0.54487900  0.99181900  0.75111200  1
  C  C3  1  0.79035500  0.57263000  0.14915200  1
  C  C4  1  0.20964500  0.42737000  0.85084800  1
  C  C5  1  0.09474200  0.32751700  0.34850200  1
  C  C6  1  0.90525800  0.67248300  0.65149800  1
  C  C7  1  0.37915200  0.77363700  0.19562400  1
  C  C8  1  0.62084800  0.22636300  0.80437600  1
  C  C9  1  0.89427700  0.68234300  0.27735300  1
  C  C10  1  0.10572300  0.31765700  0.72264700  1
  C  C11  1  0.60718400  0.16188700  0.39612600  1
  C  C12  1  0.39281600  0.83811300  0.60387400  1
  C  C13  1  0.29387900  0.42498300  0.35377300  1
  C  C14  1  0.70612100  0.57501700  0.64622700  1
  C  C15  1  0.18605800  0.34482700  0.97401900  1
  C  C16  1  0.81394200  0.65517300  0.02598100  1
  C  C17  1  0.33817300  0.10931800  0.13994000  1
  C  C18  1  0.66182700  0.89068200  0.86006000  1
  C  C19  1  0.91510000  0.12312300  0.17409400  1
  C  C20  1  0.08490000  0.87687700  0.82590600  1
