# generated using pymatgen
data_CuNiC
_symmetry_space_group_name_H-M   'P 1'
_cell_length_a   9.44364084
_cell_length_b   9.44364084
_cell_length_c   9.44364089
_cell_angle_alpha   114.43557290
_cell_angle_beta   114.43557290
_cell_angle_gamma   114.43557746
_symmetry_Int_Tables_number   1
_chemical_formula_structural   CuNiC
_chemical_formula_sum   'Cu6 Ni6 C6'
_cell_volume   494.72376296
_cell_formula_units_Z   6
loop_
 _symmetry_equiv_pos_site_id
 _symmetry_equiv_pos_as_xyz
  1  'x, y, z'
loop_
 _atom_site_type_symbol
 _atom_site_label
 _atom_site_symmetry_multiplicity
 _atom_site_fract_x
 _atom_site_fract_y
 _atom_site_fract_z
 _atom_site_occupancy
  C  C0  1  0.27580700  0.41617000  0.75291000  1
  C  C1  1  0.58383000  0.24709000  0.72419300  1
  C  C2  1  0.24709000  0.72419300  0.58383000  1
  C  C3  1  0.75291000  0.27580700  0.41617000  1
  C  C4  1  0.41617000  0.75291000  0.27580700  1
  C  C5  1  0.72419300  0.58383000  0.24709000  1
  Ni  Ni6  1  0.87398700  0.62452000  0.91982500  1
  Ni  Ni7  1  0.08017500  0.12601300  0.37548000  1
  Ni  Ni8  1  0.62452000  0.91982500  0.87398700  1
  Ni  Ni9  1  0.37548000  0.08017500  0.12601300  1
  Ni  Ni10  1  0.91982500  0.87398700  0.62452000  1
  Ni  Ni11  1  0.12601300  0.37548000  0.08017500  1
  Cu  Cu12  1  0.48570600  0.31215300  0.86615400  1
  Cu  Cu13  1  0.13384600  0.51429400  0.68784700  1
  Cu  Cu14  1  0.68784700  0.13384600  0.51429400  1
  Cu  Cu15  1  0.31215300  0.86615400  0.48570600  1
  Cu  Cu16  1  0.86615400  0.48570600  0.31215300  1
  Cu  Cu17  1  0.51429400  0.68784700  0.13384600  1
