# generated using pymatgen
data_Cu4NiC
_symmetry_space_group_name_H-M   'P 1'
_cell_length_a   7.91114400
_cell_length_b   9.35560600
_cell_length_c   16.33129080
_cell_angle_alpha   87.85879457
_cell_angle_beta   90.00000000
_cell_angle_gamma   90.00000000
_symmetry_Int_Tables_number   1
_chemical_formula_structural   Cu4NiC
_chemical_formula_sum   'Cu16 Ni4 C4'
_cell_volume   1207.89278566
_cell_formula_units_Z   4
loop_
 _symmetry_equiv_pos_site_id
 _symmetry_equiv_pos_as_xyz
  1  'x, y, z'
loop_
 _atom_site_type_symbol
 _atom_site_label
 _atom_site_symmetry_multiplicity
 _atom_site_fract_x
 _atom_site_fract_y
 _atom_site_fract_z
 _atom_site_occupancy
  C  C0  1  0.81669800  0.68617100  0.60668000  1
  C  C1  1  0.68330200  0.68617100  0.10668000  1
  C  C2  1  0.31669800  0.31382900  0.89332000  1
  C  C3  1  0.18330200  0.31382900  0.39332000  1
  Ni  Ni4  1  0.50624400  0.85653200  0.87230200  1
  Ni  Ni5  1  0.99375600  0.85653200  0.37230200  1
  Ni  Ni6  1  0.00624400  0.14346800  0.62769800  1
  Ni  Ni7  1  0.49375600  0.14346800  0.12769800  1
  Cu  Cu8  1  0.66579300  0.94069800  0.68916700  1
  Cu  Cu9  1  0.83420700  0.94069800  0.18916700  1
  Cu  Cu10  1  0.15158600  0.82408800  0.55628900  1
  Cu  Cu11  1  0.34841400  0.82408800  0.05628900  1
  Cu  Cu12  1  0.81976100  0.68077900  0.93594300  1
  Cu  Cu13  1  0.68023900  0.68077900  0.43594300  1
  Cu  Cu14  1  0.31970300  0.59369300  0.79792700  1
  Cu  Cu15  1  0.18029700  0.59369300  0.29792700  1
  Cu  Cu16  1  0.81970300  0.40630700  0.70207300  1
  Cu  Cu17  1  0.68029700  0.40630700  0.20207300  1
  Cu  Cu18  1  0.31976100  0.31922100  0.56405700  1
  Cu  Cu19  1  0.18023900  0.31922100  0.06405700  1
  Cu  Cu20  1  0.65158600  0.17591200  0.94371100  1
  Cu  Cu21  1  0.84841400  0.17591200  0.44371100  1
  Cu  Cu22  1  0.16579300  0.05930200  0.81083300  1
  Cu  Cu23  1  0.33420700  0.05930200  0.31083300  1
