# generated using pymatgen
data_Cu2Ni2C13
_symmetry_space_group_name_H-M   'P 1'
_cell_length_a   8.05346158
_cell_length_b   8.05346158
_cell_length_c   6.82303412
_cell_angle_alpha   88.22192807
_cell_angle_beta   88.22192807
_cell_angle_gamma   51.83080804
_symmetry_Int_Tables_number   1
_chemical_formula_structural   Cu2Ni2C13
_chemical_formula_sum   'Cu4 Ni4 C26'
_cell_volume   347.70527697
_cell_formula_units_Z   2
loop_
 _symmetry_equiv_pos_site_id
 _symmetry_equiv_pos_as_xyz
  1  'x, y, z'
loop_
 _atom_site_type_symbol
 _atom_site_label
 _atom_site_symmetry_multiplicity
 _atom_site_fract_x
 _atom_site_fract_y
 _atom_site_fract_z
 _atom_site_occupancy
  C  C0  1  0.37637000  0.37637000  0.69879900  1
  C  C1  1  0.00000000  0.50000000  0.50000000  1
  C  C2  1  0.50000000  0.00000000  0.50000000  1
  C  C3  1  0.62363000  0.62363000  0.30120100  1
  C  C4  1  0.76586200  0.23413800  0.00000000  1
  C  C5  1  0.23413800  0.76586200  0.00000000  1
  C  C6  1  0.00000000  0.50000000  0.00000000  1
  C  C7  1  0.50000000  0.00000000  0.00000000  1
  Ni  Ni8  1  0.88068600  0.88068600  0.67794800  1
  Ni  Ni9  1  0.39317600  0.39317600  0.23579400  1
  Ni  Ni10  1  0.60682400  0.60682400  0.76420600  1
  Ni  Ni11  1  0.11931400  0.11931400  0.32205200  1
  Cu  Cu12  1  0.94999800  0.94999800  0.35451800  1
  Cu  Cu13  1  0.81304800  0.81304800  0.21611300  1
  Cu  Cu14  1  0.18695200  0.18695200  0.78388700  1
  Cu  Cu15  1  0.05000200  0.05000200  0.64548200  1
  C  C16  1  0.97557000  0.97557000  0.77652100  1
  C  C17  1  0.49794300  0.49794300  0.24164100  1
  C  C18  1  0.88749900  0.88749900  0.44489800  1
  C  C19  1  0.64406200  0.00988500  0.73075500  1
  C  C20  1  0.00988500  0.64406200  0.73075500  1
  C  C21  1  0.33803600  0.33803600  0.43160600  1
  C  C22  1  0.18613100  0.54910300  0.11102700  1
  C  C23  1  0.54910300  0.18613100  0.11102700  1
  C  C24  1  0.24046500  0.24046500  0.86932900  1
  C  C25  1  0.75953500  0.75953500  0.13067100  1
  C  C26  1  0.81386900  0.45089700  0.88897300  1
  C  C27  1  0.45089700  0.81386900  0.88897300  1
  C  C28  1  0.66196400  0.66196400  0.56839400  1
  C  C29  1  0.35593800  0.99011500  0.26924500  1
  C  C30  1  0.99011500  0.35593800  0.26924500  1
  C  C31  1  0.11250100  0.11250100  0.55510200  1
  C  C32  1  0.50205700  0.50205700  0.75835900  1
  C  C33  1  0.02443000  0.02443000  0.22347900  1
