# generated using pymatgen
data_Cu(NiC5)3
_symmetry_space_group_name_H-M   'P 1'
_cell_length_a   5.93454700
_cell_length_b   13.24106400
_cell_length_c   13.74903600
_cell_angle_alpha   90.00000000
_cell_angle_beta   90.00000000
_cell_angle_gamma   90.00000000
_symmetry_Int_Tables_number   1
_chemical_formula_structural   Cu(NiC5)3
_chemical_formula_sum   'Cu4 Ni12 C60'
_cell_volume   1080.39535293
_cell_formula_units_Z   4
loop_
 _symmetry_equiv_pos_site_id
 _symmetry_equiv_pos_as_xyz
  1  'x, y, z'
loop_
 _atom_site_type_symbol
 _atom_site_label
 _atom_site_symmetry_multiplicity
 _atom_site_fract_x
 _atom_site_fract_y
 _atom_site_fract_z
 _atom_site_occupancy
  Ni  Ni0  1  0.41878900  0.12552800  0.75000000  1
  Ni  Ni1  1  0.08917200  0.13848800  0.51380400  1
  Ni  Ni2  1  0.08917200  0.13848800  0.98619600  1
  Ni  Ni3  1  0.58917200  0.36151200  0.48619600  1
  Ni  Ni4  1  0.58917200  0.36151200  0.01380400  1
  Ni  Ni5  1  0.91878900  0.37447200  0.25000000  1
  Ni  Ni6  1  0.08121100  0.62552800  0.75000000  1
  Ni  Ni7  1  0.41082800  0.63848800  0.98619600  1
  Ni  Ni8  1  0.41082800  0.63848800  0.51380400  1
  Ni  Ni9  1  0.91082800  0.86151200  0.01380400  1
  Ni  Ni10  1  0.91082800  0.86151200  0.48619600  1
  Ni  Ni11  1  0.58121100  0.87447200  0.25000000  1
  Cu  Cu12  1  0.09094100  0.04193200  0.25000000  1
  Cu  Cu13  1  0.59094200  0.45806800  0.75000000  1
  Cu  Cu14  1  0.40905800  0.54193200  0.25000000  1
  Cu  Cu15  1  0.90905800  0.95806800  0.75000000  1
  C  C16  1  0.59172100  0.09935500  0.10533700  1
  C  C17  1  0.59172100  0.09935500  0.39466300  1
  C  C18  1  0.91690400  0.24565800  0.75000000  1
  C  C19  1  0.41690400  0.25434200  0.25000000  1
  C  C20  1  0.09172100  0.40064500  0.60533700  1
  C  C21  1  0.09172100  0.40064500  0.89466300  1
  C  C22  1  0.90827900  0.59935500  0.10533700  1
  C  C23  1  0.90827900  0.59935500  0.39466300  1
  C  C24  1  0.58309600  0.74565800  0.75000000  1
  C  C25  1  0.08309600  0.75434200  0.25000000  1
  C  C26  1  0.40827900  0.90064500  0.89466300  1
  C  C27  1  0.40827900  0.90064500  0.60533700  1
  C  C28  1  0.61339400  0.06964000  0.55938100  1
  C  C29  1  0.61339400  0.06964000  0.94061900  1
  C  C30  1  0.11339400  0.43036000  0.05938100  1
  C  C31  1  0.11339400  0.43036000  0.44061900  1
  C  C32  1  0.88660600  0.56964000  0.94061900  1
  C  C33  1  0.88660600  0.56964000  0.55938100  1
  C  C34  1  0.38660600  0.93036000  0.05938100  1
  C  C35  1  0.38660600  0.93036000  0.44061900  1
  C  C36  1  0.37160800  0.03037900  0.13197300  1
  C  C37  1  0.37160800  0.03037900  0.36802700  1
  C  C38  1  0.82996400  0.04658800  0.13259600  1
  C  C39  1  0.82996400  0.04658800  0.36740400  1
  C  C40  1  0.92871200  0.12419300  0.75000000  1
  C  C41  1  0.59129900  0.12930300  0.51398300  1
  C  C42  1  0.59129900  0.12930300  0.98601700  1
  C  C43  1  0.16822000  0.20545800  0.25000000  1
  C  C44  1  0.56630100  0.21441700  0.15346400  1
  C  C45  1  0.56630100  0.21441700  0.34653600  1
  C  C46  1  0.06630100  0.28558300  0.65346400  1
  C  C47  1  0.06630100  0.28558300  0.84653600  1
  C  C48  1  0.66822000  0.29454200  0.75000000  1
  C  C49  1  0.09129900  0.37069700  0.48601700  1
  C  C50  1  0.09129900  0.37069700  0.01398300  1
  C  C51  1  0.42871200  0.37580700  0.25000000  1
  C  C52  1  0.32996400  0.45341200  0.63259600  1
  C  C53  1  0.32996400  0.45341200  0.86740400  1
  C  C54  1  0.87160800  0.46962100  0.63197300  1
  C  C55  1  0.87160800  0.46962100  0.86802700  1
  C  C56  1  0.12839200  0.53037900  0.13197300  1
  C  C57  1  0.12839200  0.53037900  0.36802700  1
  C  C58  1  0.67003600  0.54658800  0.13259600  1
  C  C59  1  0.67003600  0.54658800  0.36740400  1
  C  C60  1  0.57128800  0.62419300  0.75000000  1
  C  C61  1  0.90870100  0.62930300  0.98601700  1
  C  C62  1  0.90870100  0.62930300  0.51398300  1
  C  C63  1  0.33178000  0.70545800  0.25000000  1
  C  C64  1  0.93369900  0.71441700  0.15346400  1
  C  C65  1  0.93369900  0.71441700  0.34653600  1
  C  C66  1  0.43369900  0.78558300  0.65346400  1
  C  C67  1  0.43369900  0.78558300  0.84653600  1
  C  C68  1  0.83178000  0.79454200  0.75000000  1
  C  C69  1  0.40870100  0.87069700  0.01398300  1
  C  C70  1  0.40870100  0.87069700  0.48601700  1
  C  C71  1  0.07128800  0.87580700  0.25000000  1
  C  C72  1  0.17003600  0.95341200  0.63259600  1
  C  C73  1  0.17003600  0.95341200  0.86740400  1
  C  C74  1  0.62839200  0.96962100  0.63197300  1
  C  C75  1  0.62839200  0.96962100  0.86802700  1
