# generated using pymatgen
data_Cu14Ni2C15
_symmetry_space_group_name_H-M   'P 1'
_cell_length_a   12.36752000
_cell_length_b   6.82013900
_cell_length_c   10.44080119
_cell_angle_alpha   70.75027018
_cell_angle_beta   90.00000000
_cell_angle_gamma   90.00000000
_symmetry_Int_Tables_number   1
_chemical_formula_structural   Cu14Ni2C15
_chemical_formula_sum   'Cu28 Ni4 C30'
_cell_volume   831.42549106
_cell_formula_units_Z   2
loop_
 _symmetry_equiv_pos_site_id
 _symmetry_equiv_pos_as_xyz
  1  'x, y, z'
loop_
 _atom_site_type_symbol
 _atom_site_label
 _atom_site_symmetry_multiplicity
 _atom_site_fract_x
 _atom_site_fract_y
 _atom_site_fract_z
 _atom_site_occupancy
  C  C0  1  0.14482400  0.68147400  0.60876400  1
  C  C1  1  0.64482400  0.31852600  0.89123600  1
  C  C2  1  0.85517600  0.31852600  0.39123600  1
  C  C3  1  0.35517600  0.68147400  0.10876400  1
  C  C4  1  0.50000000  0.00000000  0.50000000  1
  C  C5  1  0.00000000  0.00000000  0.00000000  1
  C  C6  1  0.40690900  0.69456300  0.63715800  1
  C  C7  1  0.90690900  0.30543700  0.86284200  1
  C  C8  1  0.59309100  0.30543700  0.36284200  1
  C  C9  1  0.09309100  0.69456300  0.13715800  1
  C  C10  1  0.37516900  0.89138200  0.71756400  1
  C  C11  1  0.87516900  0.10861800  0.78243600  1
  C  C12  1  0.62483100  0.10861800  0.28243600  1
  C  C13  1  0.12483100  0.89138200  0.21756400  1
  C  C14  1  0.57179900  0.98013500  0.18655400  1
  C  C15  1  0.07179900  0.01986500  0.31344600  1
  C  C16  1  0.42820100  0.01986500  0.81344600  1
  C  C17  1  0.92820100  0.98013500  0.68655400  1
  C  C18  1  0.21551900  0.06773000  0.31615800  1
  C  C19  1  0.71551900  0.93227000  0.18384200  1
  C  C20  1  0.78448100  0.93227000  0.68384200  1
  C  C21  1  0.28448100  0.06773000  0.81615800  1
  C  C22  1  0.56370400  0.68983900  0.40071300  1
  C  C23  1  0.06370400  0.31016100  0.09928700  1
  C  C24  1  0.43629600  0.31016100  0.59928700  1
  C  C25  1  0.93629600  0.68983900  0.90071300  1
  C  C26  1  0.63142800  0.67737800  0.52917300  1
  C  C27  1  0.13142800  0.32262200  0.97082700  1
  C  C28  1  0.36857200  0.32262200  0.47082700  1
  C  C29  1  0.86857200  0.67737800  0.02917300  1
  Ni  Ni30  1  0.32688300  0.32545700  0.87773600  1
  Ni  Ni31  1  0.82688300  0.67454300  0.62226400  1
  Ni  Ni32  1  0.67311700  0.67454300  0.12226400  1
  Ni  Ni33  1  0.17311700  0.32545700  0.37773600  1
  Cu  Cu34  1  0.26191000  0.49059500  0.90205700  1
  Cu  Cu35  1  0.76191000  0.50940500  0.59794300  1
  Cu  Cu36  1  0.73809000  0.50940500  0.09794300  1
  Cu  Cu37  1  0.23809000  0.49059500  0.40205700  1
  Cu  Cu38  1  0.38342700  0.19196900  0.99890000  1
  Cu  Cu39  1  0.88342700  0.80803100  0.50110000  1
  Cu  Cu40  1  0.61657300  0.80803100  0.00110000  1
  Cu  Cu41  1  0.11657300  0.19196900  0.49890000  1
  Cu  Cu42  1  0.40398500  0.40252200  0.76165500  1
  Cu  Cu43  1  0.90398500  0.59747800  0.73834500  1
  Cu  Cu44  1  0.59601500  0.59747800  0.23834500  1
  Cu  Cu45  1  0.09601500  0.40252200  0.26165500  1
  Cu  Cu46  1  0.36665100  0.93234700  0.81079200  1
  Cu  Cu47  1  0.86665100  0.06765300  0.68920800  1
  Cu  Cu48  1  0.63334900  0.06765300  0.18920800  1
  Cu  Cu49  1  0.13334900  0.93234700  0.31079200  1
  Cu  Cu50  1  0.38730500  0.84234400  0.60390000  1
  Cu  Cu51  1  0.88730500  0.15765600  0.89610000  1
  Cu  Cu52  1  0.61269500  0.15765600  0.39610000  1
  Cu  Cu53  1  0.11269500  0.84234400  0.10390000  1
  Cu  Cu54  1  0.26144100  0.19365700  0.33323200  1
  Cu  Cu55  1  0.76144100  0.80634300  0.16676800  1
  Cu  Cu56  1  0.73855900  0.80634300  0.66676800  1
  Cu  Cu57  1  0.23855900  0.19365700  0.83323200  1
  Cu  Cu58  1  0.55954500  0.71825000  0.48710900  1
  Cu  Cu59  1  0.05954500  0.28175000  0.01289100  1
  Cu  Cu60  1  0.44045500  0.28175000  0.51289100  1
  Cu  Cu61  1  0.94045500  0.71825000  0.98710900  1
