# generated using pymatgen
data_Cu7NiC4
_symmetry_space_group_name_H-M   'P 1'
_cell_length_a   5.27609377
_cell_length_b   18.30290504
_cell_length_c   6.81522006
_cell_angle_alpha   89.89858952
_cell_angle_beta   89.80347433
_cell_angle_gamma   88.30105227
_symmetry_Int_Tables_number   1
_chemical_formula_structural   Cu7NiC4
_chemical_formula_sum   'Cu28 Ni4 C16'
_cell_volume   657.83700475
_cell_formula_units_Z   4
loop_
 _symmetry_equiv_pos_site_id
 _symmetry_equiv_pos_as_xyz
  1  'x, y, z'
loop_
 _atom_site_type_symbol
 _atom_site_label
 _atom_site_symmetry_multiplicity
 _atom_site_fract_x
 _atom_site_fract_y
 _atom_site_fract_z
 _atom_site_occupancy
  C  C0  1  0.22848300  0.10391500  0.99513500  1
  C  C1  1  0.22971000  0.60380400  0.99557000  1
  C  C2  1  0.23089000  0.10469900  0.50348400  1
  C  C3  1  0.23221900  0.60408300  0.50459000  1
  C  C4  1  0.77115900  0.39662500  0.49509500  1
  C  C5  1  0.76850000  0.89574600  0.49494900  1
  C  C6  1  0.76700900  0.39674100  0.00587700  1
  C  C7  1  0.77027400  0.89573400  0.00455200  1
  C  C8  1  0.77389100  0.67930000  0.75018600  1
  C  C9  1  0.22282200  0.32104500  0.24920000  1
  C  C10  1  0.77055700  0.17927100  0.74925600  1
  C  C11  1  0.22713500  0.82054200  0.24977800  1
  Ni  Ni12  1  0.72692100  0.04083700  0.74954100  1
  Ni  Ni13  1  0.72784100  0.54076600  0.75017200  1
  Ni  Ni14  1  0.27344300  0.45910400  0.25077300  1
  Ni  Ni15  1  0.27194400  0.95914500  0.24969500  1
  C  C16  1  0.72543000  0.21129500  0.24975900  1
  C  C17  1  0.72642700  0.71144400  0.25017100  1
  C  C18  1  0.27414500  0.28855300  0.75022700  1
  C  C19  1  0.27438800  0.78829600  0.74967500  1
  Cu  Cu20  1  0.30712700  0.02721700  0.24996500  1
  Cu  Cu21  1  0.31222200  0.52701500  0.25040900  1
  Cu  Cu22  1  0.69144800  0.47274400  0.75009000  1
  Cu  Cu23  1  0.69438500  0.97264600  0.74972200  1
  Cu  Cu24  1  0.95035400  0.07015200  0.74957800  1
  Cu  Cu25  1  0.95256500  0.56906000  0.75000500  1
  Cu  Cu26  1  0.04778200  0.43151000  0.24877900  1
  Cu  Cu27  1  0.04772400  0.93049400  0.24945800  1
  Cu  Cu28  1  0.53432400  0.08911300  0.74931400  1
  Cu  Cu29  1  0.53726300  0.58975800  0.75047700  1
  Cu  Cu30  1  0.46305400  0.40958800  0.25338200  1
  Cu  Cu31  1  0.46318400  0.91032400  0.24960000  1
  Cu  Cu32  1  0.16626700  0.21368900  0.75003000  1
  Cu  Cu33  1  0.16721300  0.71317100  0.74974800  1
  Cu  Cu34  1  0.83432800  0.28637400  0.24705700  1
  Cu  Cu35  1  0.83338400  0.78656300  0.25003600  1
  Cu  Cu36  1  0.44099400  0.21919900  0.25424200  1
  Cu  Cu37  1  0.44112400  0.71887600  0.25069500  1
  Cu  Cu38  1  0.55959500  0.28091700  0.75040400  1
  Cu  Cu39  1  0.55960900  0.78083900  0.74931300  1
  Cu  Cu40  1  0.80976700  0.17027200  0.07244400  1
  Cu  Cu41  1  0.81395600  0.67092400  0.07288300  1
  Cu  Cu42  1  0.81534000  0.17103800  0.42680200  1
  Cu  Cu43  1  0.81365100  0.67066200  0.42705700  1
  Cu  Cu44  1  0.18888400  0.32981800  0.57339600  1
  Cu  Cu45  1  0.18734900  0.82905500  0.57271700  1
  Cu  Cu46  1  0.18713800  0.32924200  0.92773200  1
  Cu  Cu47  1  0.18678100  0.82879500  0.92697900  1
