# generated using pymatgen
data_Cu3Ni2C15
_symmetry_space_group_name_H-M   'P 1'
_cell_length_a   5.12440192
_cell_length_b   10.23932367
_cell_length_c   7.78886446
_cell_angle_alpha   108.57744080
_cell_angle_beta   76.41164084
_cell_angle_gamma   80.85967148
_symmetry_Int_Tables_number   1
_chemical_formula_structural   Cu3Ni2C15
_chemical_formula_sum   'Cu6 Ni4 C30'
_cell_volume   364.23187972
_cell_formula_units_Z   2
loop_
 _symmetry_equiv_pos_site_id
 _symmetry_equiv_pos_as_xyz
  1  'x, y, z'
loop_
 _atom_site_type_symbol
 _atom_site_label
 _atom_site_symmetry_multiplicity
 _atom_site_fract_x
 _atom_site_fract_y
 _atom_site_fract_z
 _atom_site_occupancy
  C  C0  1  0.00000300  0.50000400  0.49998300  1
  C  C1  1  0.00003200  0.00000600  0.50005100  1
  C  C2  1  0.50345600  0.60498800  0.41406100  1
  C  C3  1  0.50101800  0.10548200  0.41411200  1
  C  C4  1  0.49661300  0.39500700  0.58593400  1
  C  C5  1  0.49896400  0.89453100  0.58592800  1
  C  C6  1  0.50998100  0.69525200  0.78820300  1
  C  C7  1  0.50931400  0.19479600  0.78723700  1
  C  C8  1  0.49001800  0.30477900  0.21182500  1
  C  C9  1  0.49078300  0.80520100  0.21279200  1
  Ni  Ni10  1  0.00065300  0.79598600  0.69581300  1
  Ni  Ni11  1  0.99697400  0.29926200  0.69581800  1
  Ni  Ni12  1  0.99892700  0.20388900  0.30432500  1
  Ni  Ni13  1  0.00329900  0.70065900  0.30386900  1
  Cu  Cu14  1  0.50005000  0.50001600  0.99997300  1
  Cu  Cu15  1  0.00738100  0.60108900  0.89105300  1
  Cu  Cu16  1  0.99263600  0.39892300  0.10904900  1
  Cu  Cu17  1  0.49997500  0.00002000  0.00001700  1
  Cu  Cu18  1  0.00736800  0.09923600  0.88899600  1
  Cu  Cu19  1  0.99268400  0.90078400  0.11098900  1
  C  C20  1  0.23169900  0.90243400  0.86053700  1
  C  C21  1  0.22991500  0.40352600  0.85960100  1
  C  C22  1  0.76817000  0.09753900  0.13946000  1
  C  C23  1  0.77018400  0.59651900  0.14038900  1
  C  C24  1  0.75981300  0.80304100  0.94942500  1
  C  C25  1  0.75966200  0.30206800  0.94772700  1
  C  C26  1  0.24003700  0.19695000  0.05063600  1
  C  C27  1  0.24051200  0.69797300  0.05221800  1
  C  C28  1  0.76972800  0.70351300  0.54731900  1
  C  C29  1  0.76883700  0.20418200  0.54700200  1
  C  C30  1  0.23023300  0.29644800  0.45254700  1
  C  C31  1  0.23106800  0.79583100  0.45310000  1
  C  C32  1  0.25614600  0.50451800  0.23126000  1
  C  C33  1  0.25665200  0.00549500  0.23101500  1
  C  C34  1  0.74396100  0.49546100  0.76872900  1
  C  C35  1  0.74327700  0.99455700  0.76899400  1
  C  C36  1  0.22620400  0.60659800  0.66722800  1
  C  C37  1  0.22463200  0.10658700  0.66748000  1
  C  C38  1  0.77363500  0.39344800  0.33285300  1
  C  C39  1  0.77550700  0.89340300  0.33245100  1
