# generated using pymatgen
data_CuNiC6
_symmetry_space_group_name_H-M   'P 1'
_cell_length_a   5.89911728
_cell_length_b   5.89911728
_cell_length_c   9.52037695
_cell_angle_alpha   89.27704702
_cell_angle_beta   89.27704702
_cell_angle_gamma   60.04386413
_symmetry_Int_Tables_number   1
_chemical_formula_structural   CuNiC6
_chemical_formula_sum   'Cu3 Ni3 C18'
_cell_volume   287.01494286
_cell_formula_units_Z   3
loop_
 _symmetry_equiv_pos_site_id
 _symmetry_equiv_pos_as_xyz
  1  'x, y, z'
loop_
 _atom_site_type_symbol
 _atom_site_label
 _atom_site_symmetry_multiplicity
 _atom_site_fract_x
 _atom_site_fract_y
 _atom_site_fract_z
 _atom_site_occupancy
  Ni  Ni0  1  0.83977100  0.83977100  0.28732500  1
  Ni  Ni1  1  0.67046900  0.17188300  0.78749300  1
  Ni  Ni2  1  0.17188300  0.67046900  0.78749300  1
  Cu  Cu3  1  0.17218500  0.17218500  0.78667200  1
  Cu  Cu4  1  0.83312700  0.34044000  0.28761600  1
  Cu  Cu5  1  0.34044000  0.83312700  0.28761600  1
  C  C6  1  0.33023500  0.33023500  0.50741500  1
  C  C7  1  0.66593600  0.66593600  0.01066400  1
  C  C8  1  0.67348700  0.16102500  0.39386800  1
  C  C9  1  0.47873500  0.47873500  0.66590600  1
  C  C10  1  0.32985200  0.32985200  0.89378700  1
  C  C11  1  0.00410700  0.00410700  0.68871400  1
  C  C12  1  0.00497900  0.00497900  0.18844500  1
  C  C13  1  0.16102500  0.67348700  0.39386800  1
  C  C14  1  0.47405000  0.03900600  0.66896900  1
  C  C15  1  0.03900600  0.47405000  0.66896900  1
  C  C16  1  0.83423300  0.83423300  0.89259200  1
  C  C17  1  0.15875100  0.15875100  0.39363900  1
  C  C18  1  0.96030100  0.51523000  0.16906700  1
  C  C19  1  0.51523000  0.96030100  0.16906700  1
  C  C20  1  0.66206800  0.66206800  0.39157500  1
  C  C21  1  0.83522700  0.32624800  0.89460700  1
  C  C22  1  0.51882800  0.51882800  0.17431300  1
  C  C23  1  0.32624800  0.83522700  0.89460700  1
