# generated using pymatgen
data_CuNi2C3
_symmetry_space_group_name_H-M   'P 1'
_cell_length_a   4.88985800
_cell_length_b   5.62695200
_cell_length_c   8.56331800
_cell_angle_alpha   90.00000000
_cell_angle_beta   90.00000000
_cell_angle_gamma   90.00000000
_symmetry_Int_Tables_number   1
_chemical_formula_structural   CuNi2C3
_chemical_formula_sum   'Cu4 Ni8 C12'
_cell_volume   235.61966268
_cell_formula_units_Z   4
loop_
 _symmetry_equiv_pos_site_id
 _symmetry_equiv_pos_as_xyz
  1  'x, y, z'
loop_
 _atom_site_type_symbol
 _atom_site_label
 _atom_site_symmetry_multiplicity
 _atom_site_fract_x
 _atom_site_fract_y
 _atom_site_fract_z
 _atom_site_occupancy
  C  C0  1  0.70194300  0.12750400  0.42289300  1
  C  C1  1  0.70194300  0.12750400  0.07710700  1
  C  C2  1  0.20194300  0.37249600  0.57710700  1
  C  C3  1  0.20194300  0.37249600  0.92289300  1
  C  C4  1  0.79805700  0.62750400  0.07710700  1
  C  C5  1  0.79805700  0.62750400  0.42289300  1
  C  C6  1  0.29805700  0.87249600  0.57710700  1
  C  C7  1  0.29805700  0.87249600  0.92289300  1
  C  C8  1  0.74583900  0.12638500  0.75000000  1
  C  C9  1  0.24583900  0.37361500  0.25000000  1
  C  C10  1  0.75416100  0.62638500  0.75000000  1
  C  C11  1  0.25416100  0.87361500  0.25000000  1
  Ni  Ni12  1  0.27712400  0.12432900  0.09619200  1
  Ni  Ni13  1  0.27712400  0.12432900  0.40380800  1
  Ni  Ni14  1  0.77712400  0.37567100  0.90380800  1
  Ni  Ni15  1  0.77712400  0.37567100  0.59619200  1
  Ni  Ni16  1  0.22287600  0.62432900  0.09619200  1
  Ni  Ni17  1  0.22287600  0.62432900  0.40380800  1
  Ni  Ni18  1  0.72287600  0.87567100  0.59619200  1
  Ni  Ni19  1  0.72287600  0.87567100  0.90380800  1
  Cu  Cu20  1  0.26261600  0.13411200  0.75000000  1
  Cu  Cu21  1  0.76261600  0.36588800  0.25000000  1
  Cu  Cu22  1  0.23738400  0.63411200  0.75000000  1
  Cu  Cu23  1  0.73738400  0.86588800  0.25000000  1
