# generated using pymatgen
data_Cu2(NiC5)5
_symmetry_space_group_name_H-M   'P 1'
_cell_length_a   11.61217800
_cell_length_b   5.07810400
_cell_length_c   5.13037609
_cell_angle_alpha   70.57506887
_cell_angle_beta   90.00000000
_cell_angle_gamma   90.00000000
_symmetry_Int_Tables_number   1
_chemical_formula_structural   Cu2(NiC5)5
_chemical_formula_sum   'Cu2 Ni5 C25'
_cell_volume   285.30679036
_cell_formula_units_Z   1
loop_
 _symmetry_equiv_pos_site_id
 _symmetry_equiv_pos_as_xyz
  1  'x, y, z'
loop_
 _atom_site_type_symbol
 _atom_site_label
 _atom_site_symmetry_multiplicity
 _atom_site_fract_x
 _atom_site_fract_y
 _atom_site_fract_z
 _atom_site_occupancy
  C  C0  1  0.38421400  0.00000000  0.00000000  1
  C  C1  1  0.12492400  0.00000000  0.00000000  1
  C  C2  1  0.25796100  0.50000000  0.00000000  1
  C  C3  1  0.87507600  0.00000000  0.00000000  1
  C  C4  1  0.00000000  0.50000000  0.00000000  1
  C  C5  1  0.61578600  0.00000000  0.00000000  1
  C  C6  1  0.74203900  0.50000000  0.00000000  1
  C  C7  1  0.50000000  0.00000000  0.50000000  1
  C  C8  1  0.50000000  0.50000000  0.00000000  1
  Ni  Ni9  1  0.26107700  0.00000000  0.50000000  1
  Ni  Ni10  1  0.00000000  0.00000000  0.50000000  1
  Ni  Ni11  1  0.12948100  0.50000000  0.50000000  1
  Ni  Ni12  1  0.73892300  0.00000000  0.50000000  1
  Ni  Ni13  1  0.87051900  0.50000000  0.50000000  1
  Cu  Cu14  1  0.38310500  0.50000000  0.50000000  1
  Cu  Cu15  1  0.61689500  0.50000000  0.50000000  1
  C  C16  1  0.37498400  0.72041600  0.71028400  1
  C  C17  1  0.12765200  0.75784000  0.73116600  1
  C  C18  1  0.26691400  0.72954700  0.27849300  1
  C  C19  1  0.00000000  0.74226300  0.26675800  1
  C  C20  1  0.26691400  0.27045300  0.72150700  1
  C  C21  1  0.87234800  0.75784000  0.73116600  1
  C  C22  1  0.37498400  0.27958400  0.28971600  1
  C  C23  1  0.00000000  0.25773700  0.73324200  1
  C  C24  1  0.62501600  0.72041600  0.71028400  1
  C  C25  1  0.73308600  0.72954700  0.27849300  1
  C  C26  1  0.12765200  0.24216000  0.26883400  1
  C  C27  1  0.73308600  0.27045300  0.72150700  1
  C  C28  1  0.87234800  0.24216000  0.26883400  1
  C  C29  1  0.50000000  0.70655700  0.28851900  1
  C  C30  1  0.62501600  0.27958400  0.28971600  1
  C  C31  1  0.50000000  0.29344300  0.71148100  1
