# generated using pymatgen
data_CuNi3C10
_symmetry_space_group_name_H-M   'P 1'
_cell_length_a   8.44214800
_cell_length_b   8.44214800
_cell_length_c   8.44214800
_cell_angle_alpha   90.00000000
_cell_angle_beta   90.00000000
_cell_angle_gamma   90.00000000
_symmetry_Int_Tables_number   1
_chemical_formula_structural   CuNi3C10
_chemical_formula_sum   'Cu4 Ni12 C40'
_cell_volume   601.67073015
_cell_formula_units_Z   4
loop_
 _symmetry_equiv_pos_site_id
 _symmetry_equiv_pos_as_xyz
  1  'x, y, z'
loop_
 _atom_site_type_symbol
 _atom_site_label
 _atom_site_symmetry_multiplicity
 _atom_site_fract_x
 _atom_site_fract_y
 _atom_site_fract_z
 _atom_site_occupancy
  C  C0  1  0.00261500  0.00261500  0.00261500  1
  C  C1  1  0.24738500  0.24738500  0.24738500  1
  C  C2  1  0.25261500  0.75261500  0.74738500  1
  C  C3  1  0.49738500  0.99738500  0.50261500  1
  C  C4  1  0.50261500  0.49738500  0.99738500  1
  C  C5  1  0.74738500  0.25261500  0.75261500  1
  C  C6  1  0.75261500  0.74738500  0.25261500  1
  C  C7  1  0.99738500  0.50261500  0.49738500  1
  Ni  Ni8  1  0.12505700  0.12494300  0.62500000  1
  Ni  Ni9  1  0.12500000  0.37494300  0.87505700  1
  Ni  Ni10  1  0.12494300  0.62500000  0.12505700  1
  Ni  Ni11  1  0.37505700  0.37500000  0.62505700  1
  Ni  Ni12  1  0.37500000  0.62505700  0.37505700  1
  Ni  Ni13  1  0.37494300  0.87505700  0.12500000  1
  Ni  Ni14  1  0.62505700  0.37505700  0.37500000  1
  Ni  Ni15  1  0.62500000  0.12505700  0.12494300  1
  Ni  Ni16  1  0.62494300  0.87500000  0.87494300  1
  Ni  Ni17  1  0.87505700  0.12500000  0.37494300  1
  Ni  Ni18  1  0.87500000  0.87494300  0.62494300  1
  Ni  Ni19  1  0.87494300  0.62494300  0.87500000  1
  Cu  Cu20  1  0.12500000  0.87500000  0.37500000  1
  Cu  Cu21  1  0.37500000  0.12500000  0.87500000  1
  Cu  Cu22  1  0.62500000  0.62500000  0.62500000  1
  Cu  Cu23  1  0.87500000  0.37500000  0.12500000  1
  C  C24  1  0.11118800  0.11415500  0.38819500  1
  C  C25  1  0.11180500  0.88881200  0.61415500  1
  C  C26  1  0.11295100  0.61295100  0.88704900  1
  C  C27  1  0.13584500  0.13881200  0.86180500  1
  C  C28  1  0.11415500  0.38819500  0.11118800  1
  C  C29  1  0.13704900  0.36295100  0.63704900  1
  C  C30  1  0.13819500  0.63584500  0.36118800  1
  C  C31  1  0.13881200  0.86180500  0.13584500  1
  C  C32  1  0.36118800  0.13819500  0.63584500  1
  C  C33  1  0.36180500  0.36415500  0.86118800  1
  C  C34  1  0.36295100  0.63704900  0.13704900  1
  C  C35  1  0.38584500  0.61180500  0.61118800  1
  C  C36  1  0.36415500  0.86118800  0.36180500  1
  C  C37  1  0.38704900  0.38704900  0.38704900  1
  C  C38  1  0.38819500  0.11118800  0.11415500  1
  C  C39  1  0.38881200  0.88584500  0.88819500  1
  C  C40  1  0.61118800  0.38584500  0.61180500  1
  C  C41  1  0.61180500  0.61118800  0.38584500  1
  C  C42  1  0.61295100  0.88704900  0.11295100  1
  C  C43  1  0.63584500  0.36118800  0.13819500  1
  C  C44  1  0.61415500  0.11180500  0.88881200  1
  C  C45  1  0.63704900  0.13704900  0.36295100  1
  C  C46  1  0.63819500  0.86415500  0.63881200  1
  C  C47  1  0.63881200  0.63819500  0.86415500  1
  C  C48  1  0.86118800  0.36180500  0.36415500  1
  C  C49  1  0.86180500  0.13584500  0.13881200  1
  C  C50  1  0.86295100  0.86295100  0.86295100  1
  C  C51  1  0.88584500  0.88819500  0.38881200  1
  C  C52  1  0.86415500  0.63881200  0.63819500  1
  C  C53  1  0.88704900  0.11295100  0.61295100  1
  C  C54  1  0.88819500  0.38881200  0.88584500  1
  C  C55  1  0.88881200  0.61415500  0.11180500  1
