# generated using pymatgen
data_Cu(Ni2C5)3
_symmetry_space_group_name_H-M   'P 1'
_cell_length_a   13.30549300
_cell_length_b   17.88502200
_cell_length_c   24.99120893
_cell_angle_alpha   74.06550782
_cell_angle_beta   90.00000000
_cell_angle_gamma   90.00000000
_symmetry_Int_Tables_number   1
_chemical_formula_structural   Cu(Ni2C5)3
_chemical_formula_sum   'Cu4 Ni24 C60'
_cell_volume   5718.62245819
_cell_formula_units_Z   4
loop_
 _symmetry_equiv_pos_site_id
 _symmetry_equiv_pos_as_xyz
  1  'x, y, z'
loop_
 _atom_site_type_symbol
 _atom_site_label
 _atom_site_symmetry_multiplicity
 _atom_site_fract_x
 _atom_site_fract_y
 _atom_site_fract_z
 _atom_site_occupancy
  Ni  Ni0  1  0.62679100  0.24418700  0.88525900  1
  Ni  Ni1  1  0.12243800  0.23910800  0.88208200  1
  Ni  Ni2  1  0.87484600  0.60473700  0.95067300  1
  Ni  Ni3  1  0.37552300  0.60796000  0.96724500  1
  Ni  Ni4  1  0.38007300  0.99309800  0.90933400  1
  Ni  Ni5  1  0.86846600  0.98360700  0.91393100  1
  Ni  Ni6  1  0.36846600  0.51639300  0.58606900  1
  Ni  Ni7  1  0.88007300  0.50690200  0.59066600  1
  Ni  Ni8  1  0.87552300  0.89204000  0.53275500  1
  Ni  Ni9  1  0.37484600  0.89526300  0.54932700  1
  Ni  Ni10  1  0.62243800  0.26089200  0.61791800  1
  Ni  Ni11  1  0.12679100  0.25581300  0.61474100  1
  Ni  Ni12  1  0.87320900  0.74418700  0.38525900  1
  Ni  Ni13  1  0.37756200  0.73910800  0.38208200  1
  Ni  Ni14  1  0.62515400  0.10473700  0.45067300  1
  Ni  Ni15  1  0.12447700  0.10796000  0.46724500  1
  Ni  Ni16  1  0.11992700  0.49309800  0.40933400  1
  Ni  Ni17  1  0.63153400  0.48360700  0.41393100  1
  Ni  Ni18  1  0.13153400  0.01639300  0.08606900  1
  Ni  Ni19  1  0.61992700  0.00690200  0.09066600  1
  Ni  Ni20  1  0.62447700  0.39204000  0.03275500  1
  Ni  Ni21  1  0.12515400  0.39526300  0.04932700  1
  Ni  Ni22  1  0.87756200  0.76089200  0.11791800  1
  Ni  Ni23  1  0.37320900  0.75581300  0.11474100  1
  Cu  Cu24  1  0.12595900  0.58472700  0.78327000  1
  Cu  Cu25  1  0.62595900  0.91527300  0.71673000  1
  Cu  Cu26  1  0.37404100  0.08472700  0.28327000  1
  Cu  Cu27  1  0.87404100  0.41527300  0.21673000  1
  C  C28  1  0.63229500  0.59327400  0.00262600  1
  C  C29  1  0.87498300  0.18304300  0.88424700  1
  C  C30  1  0.37389400  0.19181500  0.88575400  1
  C  C31  1  0.11773700  0.59185800  0.99647100  1
  C  C32  1  0.36830400  0.79808000  0.97023700  1
  C  C33  1  0.88377400  0.78582100  0.97485100  1
  C  C34  1  0.11945100  0.43936700  0.87295200  1
  C  C35  1  0.63422900  0.42992300  0.89050100  1
  C  C36  1  0.12607100  0.26352600  0.74664400  1
  C  C37  1  0.96661200  0.67872200  0.81901400  1
  C  C38  1  0.28877000  0.66317000  0.82930400  1
  C  C39  1  0.62520800  0.02453800  0.94333600  1
  C  C40  1  0.12376100  0.02641000  0.93657900  1
  C  C41  1  0.46595800  0.94502400  0.79365500  1
  C  C42  1  0.77976300  0.92541300  0.80246100  1
  C  C43  1  0.27976300  0.57458700  0.69753900  1
  C  C44  1  0.96595800  0.55497600  0.70634500  1
  C  C45  1  0.62376100  0.47359000  0.56342100  1
  C  C46  1  0.12520800  0.47546200  0.55666400  1
  C  C47  1  0.78877000  0.83683000  0.67069600  1
  C  C48  1  0.46661200  0.82127800  0.68098600  1
  C  C49  1  0.62607100  0.23647400  0.75335600  1
  C  C50  1  0.13422900  0.07007700  0.60949900  1
  C  C51  1  0.61945100  0.06063300  0.62704800  1
  C  C52  1  0.38377400  0.71417900  0.52514900  1
  C  C53  1  0.86830400  0.70192000  0.52976300  1
  C  C54  1  0.61773700  0.90814200  0.50352900  1
  C  C55  1  0.87389400  0.30818500  0.61424600  1
  C  C56  1  0.37498300  0.31695700  0.61575300  1
  C  C57  1  0.13229500  0.90672600  0.49737400  1
  C  C58  1  0.86770500  0.09327400  0.50262600  1
  C  C59  1  0.62501700  0.68304300  0.38424700  1
  C  C60  1  0.12610600  0.69181500  0.38575400  1
  C  C61  1  0.38226300  0.09185800  0.49647100  1
  C  C62  1  0.13169600  0.29808000  0.47023700  1
  C  C63  1  0.61622600  0.28582100  0.47485100  1
  C  C64  1  0.38054900  0.93936700  0.37295200  1
  C  C65  1  0.86577100  0.92992300  0.39050100  1
  C  C66  1  0.37392900  0.76352600  0.24664400  1
  C  C67  1  0.53338800  0.17872200  0.31901400  1
  C  C68  1  0.21123000  0.16317000  0.32930400  1
  C  C69  1  0.87479200  0.52453800  0.44333600  1
  C  C70  1  0.37623900  0.52641000  0.43657900  1
  C  C71  1  0.03404200  0.44502400  0.29365500  1
  C  C72  1  0.72023700  0.42541300  0.30246100  1
  C  C73  1  0.22023700  0.07458700  0.19753900  1
  C  C74  1  0.53404200  0.05497600  0.20634500  1
  C  C75  1  0.87623900  0.97359000  0.06342100  1
  C  C76  1  0.37479200  0.97546200  0.05666400  1
  C  C77  1  0.71123000  0.33683000  0.17069600  1
  C  C78  1  0.03338800  0.32127800  0.18098600  1
  C  C79  1  0.87392900  0.73647400  0.25335600  1
  C  C80  1  0.36577100  0.57007700  0.10949900  1
  C  C81  1  0.88054900  0.56063300  0.12704800  1
  C  C82  1  0.11622600  0.21417900  0.02514900  1
  C  C83  1  0.63169600  0.20192000  0.02976300  1
  C  C84  1  0.88226300  0.40814200  0.00352900  1
  C  C85  1  0.62610600  0.80818500  0.11424600  1
  C  C86  1  0.12501700  0.81695700  0.11575300  1
  C  C87  1  0.36770500  0.40672600  0.99737400  1
