# generated using pymatgen
data_Cu3Ni3C17
_symmetry_space_group_name_H-M   'P 1'
_cell_length_a   8.36509200
_cell_length_b   8.36509200
_cell_length_c   8.36509200
_cell_angle_alpha   90.00000000
_cell_angle_beta   90.00000000
_cell_angle_gamma   90.00000000
_symmetry_Int_Tables_number   1
_chemical_formula_structural   Cu3Ni3C17
_chemical_formula_sum   'Cu6 Ni6 C34'
_cell_volume   585.34533995
_cell_formula_units_Z   2
loop_
 _symmetry_equiv_pos_site_id
 _symmetry_equiv_pos_as_xyz
  1  'x, y, z'
loop_
 _atom_site_type_symbol
 _atom_site_label
 _atom_site_symmetry_multiplicity
 _atom_site_fract_x
 _atom_site_fract_y
 _atom_site_fract_z
 _atom_site_occupancy
  Ni  Ni0  1  0.50000000  0.25000000  0.00000000  1
  Ni  Ni1  1  0.75000000  0.00000000  0.50000000  1
  Ni  Ni2  1  0.00000000  0.50000000  0.25000000  1
  Ni  Ni3  1  0.00000000  0.50000000  0.75000000  1
  Ni  Ni4  1  0.50000000  0.75000000  0.00000000  1
  Ni  Ni5  1  0.25000000  0.00000000  0.50000000  1
  C  C6  1  0.17542100  0.17542100  0.17542100  1
  C  C7  1  0.32457900  0.67542100  0.32457900  1
  C  C8  1  0.17542100  0.82457900  0.82457900  1
  C  C9  1  0.82457900  0.17542100  0.82457900  1
  C  C10  1  0.32457900  0.32457900  0.67542100  1
  C  C11  1  0.67542100  0.32457900  0.32457900  1
  C  C12  1  0.67542100  0.67542100  0.67542100  1
  C  C13  1  0.82457900  0.82457900  0.17542100  1
  Cu  Cu14  1  0.50000000  0.00000000  0.75000000  1
  Cu  Cu15  1  0.00000000  0.75000000  0.50000000  1
  Cu  Cu16  1  0.00000000  0.25000000  0.50000000  1
  Cu  Cu17  1  0.50000000  0.00000000  0.25000000  1
  Cu  Cu18  1  0.25000000  0.50000000  0.00000000  1
  Cu  Cu19  1  0.75000000  0.50000000  0.00000000  1
  C  C20  1  0.00000000  0.00000000  0.00000000  1
  C  C21  1  0.50000000  0.50000000  0.50000000  1
  C  C22  1  0.35607300  0.35960800  0.91408600  1
  C  C23  1  0.85607300  0.41408600  0.85960800  1
  C  C24  1  0.35960800  0.08591400  0.64392700  1
  C  C25  1  0.64039200  0.08591400  0.35607300  1
  C  C26  1  0.64039200  0.91408600  0.64392700  1
  C  C27  1  0.08591400  0.64392700  0.35960800  1
  C  C28  1  0.85960800  0.14392700  0.58591400  1
  C  C29  1  0.85607300  0.58591400  0.14039200  1
  C  C30  1  0.08591400  0.35607300  0.64039200  1
  C  C31  1  0.14392700  0.58591400  0.85960800  1
  C  C32  1  0.58591400  0.14039200  0.85607300  1
  C  C33  1  0.64392700  0.64039200  0.91408600  1
  C  C34  1  0.91408600  0.35607300  0.35960800  1
  C  C35  1  0.35607300  0.64039200  0.08591400  1
  C  C36  1  0.41408600  0.14039200  0.14392700  1
  C  C37  1  0.14039200  0.85607300  0.58591400  1
  C  C38  1  0.64392700  0.35960800  0.08591400  1
  C  C39  1  0.14039200  0.14392700  0.41408600  1
  C  C40  1  0.58591400  0.85960800  0.14392700  1
  C  C41  1  0.14392700  0.41408600  0.14039200  1
  C  C42  1  0.41408600  0.85960800  0.85607300  1
  C  C43  1  0.91408600  0.64392700  0.64039200  1
  C  C44  1  0.85960800  0.85607300  0.41408600  1
  C  C45  1  0.35960800  0.91408600  0.35607300  1
