# generated using pymatgen
data_Cu3NiC10
_symmetry_space_group_name_H-M   'P 1'
_cell_length_a   5.70615012
_cell_length_b   5.70615012
_cell_length_c   9.13963100
_cell_angle_alpha   90.00000000
_cell_angle_beta   90.00000000
_cell_angle_gamma   120.00000143
_symmetry_Int_Tables_number   1
_chemical_formula_structural   Cu3NiC10
_chemical_formula_sum   'Cu6 Ni2 C20'
_cell_volume   257.71854700
_cell_formula_units_Z   2
loop_
 _symmetry_equiv_pos_site_id
 _symmetry_equiv_pos_as_xyz
  1  'x, y, z'
loop_
 _atom_site_type_symbol
 _atom_site_label
 _atom_site_symmetry_multiplicity
 _atom_site_fract_x
 _atom_site_fract_y
 _atom_site_fract_z
 _atom_site_occupancy
  C  C0  1  0.33333300  0.66666700  0.89417200  1
  C  C1  1  0.00000000  0.00000000  0.99839300  1
  C  C2  1  0.00000000  0.00000000  0.49839300  1
  C  C3  1  0.66666700  0.33333300  0.39417200  1
  Ni  Ni4  1  0.33333300  0.66666700  0.49801800  1
  Ni  Ni5  1  0.66666700  0.33333300  0.99801800  1
  Cu  Cu6  1  0.17143000  0.82857000  0.21518900  1
  Cu  Cu7  1  0.17143000  0.34286000  0.21518900  1
  Cu  Cu8  1  0.65714000  0.82857000  0.21518900  1
  Cu  Cu9  1  0.34286000  0.17143000  0.71518900  1
  Cu  Cu10  1  0.82857000  0.65714000  0.71518900  1
  Cu  Cu11  1  0.82857000  0.17143000  0.71518900  1
  C  C12  1  0.17139200  0.82860800  0.59520800  1
  C  C13  1  0.04357200  0.52178600  0.33850800  1
  C  C14  1  0.33333300  0.66666700  0.10888200  1
  C  C15  1  0.00000000  0.00000000  0.30773400  1
  C  C16  1  0.00000000  0.00000000  0.80773400  1
  C  C17  1  0.17139200  0.34278300  0.59520800  1
  C  C18  1  0.47821400  0.95642800  0.33850800  1
  C  C19  1  0.47821400  0.52178600  0.33850800  1
  C  C20  1  0.34278300  0.17139200  0.09520800  1
  C  C21  1  0.65721700  0.82860800  0.59520800  1
  C  C22  1  0.52178600  0.47821400  0.83850800  1
  C  C23  1  0.52178600  0.04357200  0.83850800  1
  C  C24  1  0.66666700  0.33333300  0.60888200  1
  C  C25  1  0.82860800  0.65721700  0.09520800  1
  C  C26  1  0.95642800  0.47821400  0.83850800  1
  C  C27  1  0.82860800  0.17139200  0.09520800  1
