# generated using pymatgen
data_Cu3Ni2C5
_symmetry_space_group_name_H-M   'P 1'
_cell_length_a   2.94037486
_cell_length_b   10.59643018
_cell_length_c   5.88074830
_cell_angle_alpha   97.97515337
_cell_angle_beta   90.00000000
_cell_angle_gamma   82.02484663
_symmetry_Int_Tables_number   1
_chemical_formula_structural   Cu3Ni2C5
_chemical_formula_sum   'Cu6 Ni4 C10'
_cell_volume   179.66753397
_cell_formula_units_Z   2
loop_
 _symmetry_equiv_pos_site_id
 _symmetry_equiv_pos_as_xyz
  1  'x, y, z'
loop_
 _atom_site_type_symbol
 _atom_site_label
 _atom_site_symmetry_multiplicity
 _atom_site_fract_x
 _atom_site_fract_y
 _atom_site_fract_z
 _atom_site_occupancy
  C  C0  1  0.20000000  0.60000000  0.40000000  1
  C  C1  1  0.20000000  0.60000000  0.90000000  1
  C  C2  1  0.79876600  0.40246800  0.60061700  1
  C  C3  1  0.79876600  0.40246800  0.10061700  1
  C  C4  1  0.60123400  0.79753200  0.69938300  1
  C  C5  1  0.60123400  0.79753200  0.19938300  1
  C  C6  1  0.99967900  0.00064200  0.50016100  1
  C  C7  1  0.40032100  0.19935800  0.79983900  1
  C  C8  1  0.99967900  0.00064200  0.00016100  1
  C  C9  1  0.40032100  0.19935800  0.29983900  1
  Ni  Ni10  1  0.50175600  0.99648800  0.74912200  1
  Ni  Ni11  1  0.50175600  0.99648800  0.24912200  1
  Ni  Ni12  1  0.89824400  0.20351200  0.55087800  1
  Ni  Ni13  1  0.89824400  0.20351200  0.05087800  1
  Cu  Cu14  1  0.70000000  0.60000000  0.65000000  1
  Cu  Cu15  1  0.70000000  0.60000000  0.15000000  1
  Cu  Cu16  1  0.29598600  0.40802900  0.35200700  1
  Cu  Cu17  1  0.29598600  0.40802900  0.85200700  1
  Cu  Cu18  1  0.10401400  0.79197100  0.44799300  1
  Cu  Cu19  1  0.10401400  0.79197100  0.94799300  1
