# generated using pymatgen
data_Cu(NiC5)2
_symmetry_space_group_name_H-M   'P 1'
_cell_length_a   8.29301600
_cell_length_b   11.40078500
_cell_length_c   26.24112700
_cell_angle_alpha   90.00000000
_cell_angle_beta   90.00000000
_cell_angle_gamma   90.00000000
_symmetry_Int_Tables_number   1
_chemical_formula_structural   Cu(NiC5)2
_chemical_formula_sum   'Cu12 Ni24 C120'
_cell_volume   2481.01701138
_cell_formula_units_Z   12
loop_
 _symmetry_equiv_pos_site_id
 _symmetry_equiv_pos_as_xyz
  1  'x, y, z'
loop_
 _atom_site_type_symbol
 _atom_site_label
 _atom_site_symmetry_multiplicity
 _atom_site_fract_x
 _atom_site_fract_y
 _atom_site_fract_z
 _atom_site_occupancy
  C  C0  1  0.25000000  0.76925400  0.10485400  1
  C  C1  1  0.25000000  0.89322600  0.18786000  1
  C  C2  1  0.75000000  0.39322600  0.31214000  1
  C  C3  1  0.75000000  0.26925400  0.39514600  1
  C  C4  1  0.25000000  0.73074600  0.60485400  1
  C  C5  1  0.25000000  0.60677400  0.68786000  1
  C  C6  1  0.75000000  0.10677400  0.81214000  1
  C  C7  1  0.75000000  0.23074600  0.89514600  1
  C  C8  1  0.25000000  0.78314100  0.00694000  1
  C  C9  1  0.15040400  0.89180100  0.03576000  1
  C  C10  1  0.34959600  0.89180100  0.03576000  1
  C  C11  1  0.08370600  0.62484000  0.05125700  1
  C  C12  1  0.41629400  0.62484000  0.05125700  1
  C  C13  1  0.53147600  0.69347800  0.09357000  1
  C  C14  1  0.96852400  0.69347800  0.09357000  1
  C  C15  1  0.41340800  0.58527000  0.11181700  1
  C  C16  1  0.08659200  0.58527000  0.11181700  1
  C  C17  1  0.50517600  0.87747100  0.13397400  1
  C  C18  1  0.99482400  0.87747100  0.13397400  1
  C  C19  1  0.15063400  0.08799000  0.16673200  1
  C  C20  1  0.34936600  0.08799000  0.16673200  1
  C  C21  1  0.25000000  0.65989600  0.19592400  1
  C  C22  1  0.25000000  0.10460200  0.22206400  1
  C  C23  1  0.61208900  0.34176100  0.22750400  1
  C  C24  1  0.88791100  0.34176100  0.22750400  1
  C  C25  1  0.51372500  0.83043700  0.22426000  1
  C  C26  1  0.98627500  0.83043700  0.22426000  1
  C  C27  1  0.02942800  0.96102800  0.24895600  1
  C  C28  1  0.47057200  0.96102800  0.24895600  1
  C  C29  1  0.52942800  0.46102800  0.25104400  1
  C  C30  1  0.97057200  0.46102800  0.25104400  1
  C  C31  1  0.01372500  0.33043700  0.27574000  1
  C  C32  1  0.48627500  0.33043700  0.27574000  1
  C  C33  1  0.11208900  0.84176100  0.27249600  1
  C  C34  1  0.38791100  0.84176100  0.27249600  1
  C  C35  1  0.75000000  0.60460200  0.27793600  1
  C  C36  1  0.75000000  0.15989600  0.30407600  1
  C  C37  1  0.65063400  0.58799000  0.33326800  1
  C  C38  1  0.84936600  0.58799000  0.33326800  1
  C  C39  1  0.00517600  0.37747100  0.36602600  1
  C  C40  1  0.49482400  0.37747100  0.36602600  1
  C  C41  1  0.58659200  0.08527000  0.38818300  1
  C  C42  1  0.91340800  0.08527000  0.38818300  1
  C  C43  1  0.03147600  0.19347800  0.40643000  1
  C  C44  1  0.46852400  0.19347800  0.40643000  1
  C  C45  1  0.58370600  0.12484000  0.44874300  1
  C  C46  1  0.91629400  0.12484000  0.44874300  1
  C  C47  1  0.65040400  0.39180100  0.46424000  1
  C  C48  1  0.84959600  0.39180100  0.46424000  1
  C  C49  1  0.75000000  0.28314100  0.49306000  1
  C  C50  1  0.25000000  0.71685900  0.50694000  1
  C  C51  1  0.15040400  0.60819900  0.53576000  1
  C  C52  1  0.34959600  0.60819900  0.53576000  1
  C  C53  1  0.08370600  0.87516000  0.55125700  1
  C  C54  1  0.41629400  0.87516000  0.55125700  1
  C  C55  1  0.53147600  0.80652200  0.59357000  1
  C  C56  1  0.96852400  0.80652200  0.59357000  1
  C  C57  1  0.08659200  0.91473000  0.61181700  1
  C  C58  1  0.41340800  0.91473000  0.61181700  1
  C  C59  1  0.50517600  0.62252900  0.63397400  1
  C  C60  1  0.99482400  0.62252900  0.63397400  1
  C  C61  1  0.15063400  0.41201000  0.66673200  1
  C  C62  1  0.34936600  0.41201000  0.66673200  1
  C  C63  1  0.25000000  0.84010400  0.69592400  1
  C  C64  1  0.25000000  0.39539800  0.72206400  1
  C  C65  1  0.61208900  0.15823900  0.72750400  1
  C  C66  1  0.88791100  0.15823900  0.72750400  1
  C  C67  1  0.51372500  0.66956300  0.72426000  1
  C  C68  1  0.98627500  0.66956300  0.72426000  1
  C  C69  1  0.02942800  0.53897200  0.74895600  1
  C  C70  1  0.47057200  0.53897200  0.74895600  1
  C  C71  1  0.52942800  0.03897200  0.75104400  1
  C  C72  1  0.97057200  0.03897200  0.75104400  1
  C  C73  1  0.01372500  0.16956300  0.77574000  1
  C  C74  1  0.48627500  0.16956300  0.77574000  1
  C  C75  1  0.11208900  0.65823900  0.77249600  1
  C  C76  1  0.38791100  0.65823900  0.77249600  1
  C  C77  1  0.75000000  0.89539800  0.77793600  1
  C  C78  1  0.75000000  0.34010400  0.80407600  1
  C  C79  1  0.65063400  0.91201000  0.83326800  1
  C  C80  1  0.84936600  0.91201000  0.83326800  1
  C  C81  1  0.00517600  0.12252900  0.86602600  1
  C  C82  1  0.49482400  0.12252900  0.86602600  1
  C  C83  1  0.58659200  0.41473000  0.88818300  1
  C  C84  1  0.91340800  0.41473000  0.88818300  1
  C  C85  1  0.03147600  0.30652200  0.90643000  1
  C  C86  1  0.46852400  0.30652200  0.90643000  1
  C  C87  1  0.58370600  0.37516000  0.94874300  1
  C  C88  1  0.91629400  0.37516000  0.94874300  1
  C  C89  1  0.65040400  0.10819900  0.96424000  1
  C  C90  1  0.84959600  0.10819900  0.96424000  1
  C  C91  1  0.75000000  0.21685900  0.99306000  1
  C  C92  1  0.75000000  0.67997600  0.18862800  1
  C  C93  1  0.25000000  0.17997600  0.31137200  1
  C  C94  1  0.75000000  0.82002400  0.68862800  1
  C  C95  1  0.25000000  0.32002400  0.81137200  1
  C  C96  1  0.75000000  0.88165900  0.03705000  1
  C  C97  1  0.75000000  0.45442000  0.03764500  1
  C  C98  1  0.25000000  0.25666900  0.05724300  1
  C  C99  1  0.75000000  0.27338600  0.11540500  1
  C  C100  1  0.25000000  0.38743600  0.15464400  1
  C  C101  1  0.75000000  0.08334100  0.19356500  1
  C  C102  1  0.25000000  0.58334100  0.30643500  1
  C  C103  1  0.75000000  0.88743600  0.34535600  1
  C  C104  1  0.25000000  0.77338600  0.38459500  1
  C  C105  1  0.75000000  0.75666900  0.44275700  1
  C  C106  1  0.25000000  0.95442000  0.46235500  1
  C  C107  1  0.25000000  0.38165900  0.46295000  1
  C  C108  1  0.75000000  0.61834100  0.53705000  1
  C  C109  1  0.75000000  0.04558000  0.53764500  1
  C  C110  1  0.25000000  0.24333100  0.55724300  1
  C  C111  1  0.75000000  0.22661400  0.61540500  1
  C  C112  1  0.25000000  0.11256400  0.65464400  1
  C  C113  1  0.75000000  0.41665900  0.69356500  1
  C  C114  1  0.25000000  0.91665900  0.80643500  1
  C  C115  1  0.75000000  0.61256400  0.84535600  1
  C  C116  1  0.25000000  0.72661400  0.88459500  1
  C  C117  1  0.75000000  0.74333100  0.94275700  1
  C  C118  1  0.25000000  0.54558000  0.96235500  1
  C  C119  1  0.25000000  0.11834100  0.96295000  1
  Ni  Ni120  1  0.25000000  0.83889000  0.03764500  1
  Ni  Ni121  1  0.41996300  0.65662300  0.08790800  1
  Ni  Ni122  1  0.08003700  0.65662300  0.08790800  1
  Ni  Ni123  1  0.25000000  0.06256000  0.18703400  1
  Ni  Ni124  1  0.07796300  0.88152600  0.23912100  1
  Ni  Ni125  1  0.42203700  0.88152600  0.23912100  1
  Ni  Ni126  1  0.57796300  0.38152600  0.26087900  1
  Ni  Ni127  1  0.92203700  0.38152600  0.26087900  1
  Ni  Ni128  1  0.75000000  0.56256000  0.31296600  1
  Ni  Ni129  1  0.58003700  0.15662300  0.41209100  1
  Ni  Ni130  1  0.91996300  0.15662300  0.41209100  1
  Ni  Ni131  1  0.75000000  0.33889000  0.46235500  1
  Ni  Ni132  1  0.25000000  0.66111000  0.53764500  1
  Ni  Ni133  1  0.08003700  0.84337700  0.58790800  1
  Ni  Ni134  1  0.41996300  0.84337700  0.58790800  1
  Ni  Ni135  1  0.25000000  0.43744000  0.68703400  1
  Ni  Ni136  1  0.07796300  0.61847400  0.73912100  1
  Ni  Ni137  1  0.42203700  0.61847400  0.73912100  1
  Ni  Ni138  1  0.57796300  0.11847400  0.76087900  1
  Ni  Ni139  1  0.92203700  0.11847400  0.76087900  1
  Ni  Ni140  1  0.75000000  0.93744000  0.81296600  1
  Ni  Ni141  1  0.58003700  0.34337700  0.91209200  1
  Ni  Ni142  1  0.91996300  0.34337700  0.91209200  1
  Ni  Ni143  1  0.75000000  0.16111000  0.96235500  1
  Cu  Cu144  1  0.10840500  0.89567800  0.12835600  1
  Cu  Cu145  1  0.39159500  0.89567800  0.12835600  1
  Cu  Cu146  1  0.25000000  0.73001200  0.17490900  1
  Cu  Cu147  1  0.75000000  0.23001200  0.32509100  1
  Cu  Cu148  1  0.60840500  0.39567800  0.37164400  1
  Cu  Cu149  1  0.89159500  0.39567800  0.37164400  1
  Cu  Cu150  1  0.10840500  0.60432200  0.62835600  1
  Cu  Cu151  1  0.39159500  0.60432200  0.62835600  1
  Cu  Cu152  1  0.25000000  0.76998800  0.67490900  1
  Cu  Cu153  1  0.75000000  0.26998800  0.82509100  1
  Cu  Cu154  1  0.60840500  0.10432200  0.87164400  1
  Cu  Cu155  1  0.89159500  0.10432200  0.87164400  1
