# generated using pymatgen
data_CuNi7C68
_symmetry_space_group_name_H-M   'P 1'
_cell_length_a   8.54867800
_cell_length_b   8.82444709
_cell_length_c   12.06812581
_cell_angle_alpha   90.32846245
_cell_angle_beta   90.19678759
_cell_angle_gamma   90.55371856
_symmetry_Int_Tables_number   1
_chemical_formula_structural   CuNi7C68
_chemical_formula_sum   'Cu1 Ni7 C68'
_cell_volume   910.32449387
_cell_formula_units_Z   1
loop_
 _symmetry_equiv_pos_site_id
 _symmetry_equiv_pos_as_xyz
  1  'x, y, z'
loop_
 _atom_site_type_symbol
 _atom_site_label
 _atom_site_symmetry_multiplicity
 _atom_site_fract_x
 _atom_site_fract_y
 _atom_site_fract_z
 _atom_site_occupancy
  C  C0  1  0.21586900  0.72262600  0.18179500  1
  C  C1  1  0.21931800  0.77820700  0.81804400  1
  C  C2  1  0.28066300  0.22448300  0.31824500  1
  C  C3  1  0.28149800  0.27715800  0.68129700  1
  C  C4  1  0.71644400  0.72731300  0.31621200  1
  C  C5  1  0.71520900  0.78132900  0.68061800  1
  C  C6  1  0.78161300  0.22323000  0.18263900  1
  C  C7  1  0.78441500  0.27932900  0.82236200  1
  Ni  Ni8  1  0.25039900  0.96346700  0.61501400  1
  Ni  Ni9  1  0.25056400  0.53753500  0.38741200  1
  Ni  Ni10  1  0.25133600  0.03675400  0.11303800  1
  Ni  Ni11  1  0.25302700  0.46228200  0.88752900  1
  Ni  Ni12  1  0.74916700  0.53782500  0.11250800  1
  Ni  Ni13  1  0.75006000  0.96450400  0.88642800  1
  Ni  Ni14  1  0.74815300  0.03550700  0.38609500  1
  Cu  Cu15  1  0.75569000  0.46247100  0.61197900  1
  C  C16  1  0.03540700  0.24724400  0.49713600  1
  C  C17  1  0.10488000  0.39574300  0.14425300  1
  C  C18  1  0.10692700  0.10561500  0.85411800  1
  C  C19  1  0.39675700  0.60240600  0.65049200  1
  C  C20  1  0.39334300  0.89750800  0.35308700  1
  C  C21  1  0.46632400  0.74950400  0.00071700  1
  C  C22  1  0.53403200  0.25167300  0.00103300  1
  C  C23  1  0.60268400  0.39706700  0.35384400  1
  C  C24  1  0.60549000  0.10700800  0.64696600  1
  C  C25  1  0.89833800  0.60581000  0.84939700  1
  C  C26  1  0.89424200  0.89642600  0.14512800  1
  C  C27  1  0.96766100  0.74580500  0.49912900  1
  C  C28  1  0.06166500  0.63735800  0.42685800  1
  C  C29  1  0.05963500  0.85005000  0.57726900  1
  C  C30  1  0.07704800  0.89825200  0.15553600  1
  C  C31  1  0.07965200  0.60137100  0.83807300  1
  C  C32  1  0.13371200  0.17059900  0.58526400  1
  C  C33  1  0.13820400  0.33516900  0.41658900  1
  C  C34  1  0.15333100  0.43603300  0.02559000  1
  C  C35  1  0.15649600  0.06177500  0.97149000  1
  C  C36  1  0.15678300  0.23313400  0.17771700  1
  C  C37  1  0.16034300  0.26859500  0.82183500  1
  C  C38  1  0.17820500  0.51474200  0.22273100  1
  C  C39  1  0.17815700  0.98646200  0.77419400  1
  C  C40  1  0.32177700  0.01867600  0.27356600  1
  C  C41  1  0.32718600  0.47985500  0.72984100  1
  C  C42  1  0.35095200  0.76187400  0.68517800  1
  C  C43  1  0.34084100  0.73752600  0.31935500  1
  C  C44  1  0.34644800  0.55853800  0.53400400  1
  C  C45  1  0.34332400  0.94110400  0.47045600  1
  C  C46  1  0.35754400  0.83751100  0.08233100  1
  C  C47  1  0.35491700  0.65955500  0.91997900  1
  C  C48  1  0.42471800  0.10849800  0.65838800  1
  C  C49  1  0.42150700  0.39883800  0.34811100  1
  C  C50  1  0.43872300  0.14305400  0.07506700  1
  C  C51  1  0.43917800  0.35788400  0.92547300  1
  C  C52  1  0.56025000  0.64288800  0.07434700  1
  C  C53  1  0.55861700  0.85586500  0.92553500  1
  C  C54  1  0.58099100  0.59185800  0.65784900  1
  C  C55  1  0.57502300  0.90088100  0.34298200  1
  C  C56  1  0.63946900  0.33906500  0.08450800  1
  C  C57  1  0.63999400  0.16831900  0.91910500  1
  C  C58  1  0.65451800  0.06226400  0.53113700  1
  C  C59  1  0.65463800  0.43130900  0.47885800  1
  C  C60  1  0.65566700  0.23930700  0.32086300  1
  C  C61  1  0.66425900  0.27213900  0.67689600  1
  C  C62  1  0.67524600  0.52167800  0.28400200  1
  C  C63  1  0.67770800  0.99024100  0.72773000  1
  C  C64  1  0.82421900  0.01540200  0.22491500  1
  C  C65  1  0.82945500  0.48314900  0.76449000  1
  C  C66  1  0.84266700  0.73455000  0.17798500  1
  C  C67  1  0.84425000  0.76304500  0.81446200  1
  C  C68  1  0.84472800  0.55787800  0.96258100  1
  C  C69  1  0.84627900  0.93709900  0.02720900  1
  C  C70  1  0.85449900  0.64944900  0.57942700  1
  C  C71  1  0.85382200  0.82764700  0.42354100  1
  C  C72  1  0.92587500  0.10446100  0.84349000  1
  C  C73  1  0.92318900  0.39891000  0.15443900  1
  C  C74  1  0.93629900  0.13884700  0.42706600  1
  C  C75  1  0.92848000  0.36146800  0.56517400  1
