# generated using pymatgen
data_Cu(NiC8)3
_symmetry_space_group_name_H-M   'P 1'
_cell_length_a   6.22609100
_cell_length_b   4.79138600
_cell_length_c   10.47440075
_cell_angle_alpha   89.02815044
_cell_angle_beta   90.00000000
_cell_angle_gamma   90.00000000
_symmetry_Int_Tables_number   1
_chemical_formula_structural   Cu(NiC8)3
_chemical_formula_sum   'Cu1 Ni3 C24'
_cell_volume   312.42323966
_cell_formula_units_Z   1
loop_
 _symmetry_equiv_pos_site_id
 _symmetry_equiv_pos_as_xyz
  1  'x, y, z'
loop_
 _atom_site_type_symbol
 _atom_site_label
 _atom_site_symmetry_multiplicity
 _atom_site_fract_x
 _atom_site_fract_y
 _atom_site_fract_z
 _atom_site_occupancy
  C  C0  1  0.24934500  0.00299300  0.99852100  1
  C  C1  1  0.75065500  0.00299300  0.99852100  1
  C  C2  1  0.75122100  0.49962100  0.50106800  1
  C  C3  1  0.24877900  0.49962100  0.50106800  1
  Ni  Ni4  1  0.00000000  0.02971600  0.28084200  1
  Ni  Ni5  1  0.00000000  0.46980700  0.78206200  1
  Ni  Ni6  1  0.50000000  0.52933200  0.21850300  1
  Cu  Cu7  1  0.50000000  0.95177700  0.71595200  1
  C  C8  1  0.50000000  0.08591700  0.41003100  1
  C  C9  1  0.50000000  0.41133700  0.90483200  1
  C  C10  1  0.00000000  0.59227200  0.09239200  1
  C  C11  1  0.00000000  0.91187800  0.59186900  1
  C  C12  1  0.50000000  0.19673800  0.54927000  1
  C  C13  1  0.30099500  0.22282000  0.34126300  1
  C  C14  1  0.69900500  0.22282000  0.34126300  1
  C  C15  1  0.00000000  0.23324200  0.59410200  1
  C  C16  1  0.00000000  0.27063900  0.09757500  1
  C  C17  1  0.29848300  0.28153700  0.83936700  1
  C  C18  1  0.70151700  0.28153700  0.83936700  1
  C  C19  1  0.50000000  0.29590900  0.04490400  1
  C  C20  1  0.00000000  0.71600900  0.95428400  1
  C  C21  1  0.80059100  0.72281300  0.16162700  1
  C  C22  1  0.19940900  0.72281300  0.16162700  1
  C  C23  1  0.50000000  0.73486600  0.89598900  1
  C  C24  1  0.50000000  0.76485600  0.40476000  1
  C  C25  1  0.80219400  0.77780400  0.66206900  1
  C  C26  1  0.19780600  0.77780400  0.66206900  1
  C  C27  1  0.00000000  0.79053000  0.45480300  1
