# generated using pymatgen
data_Cu3NiC4
_symmetry_space_group_name_H-M   'P 1'
_cell_length_a   8.13646600
_cell_length_b   8.18131100
_cell_length_c   9.38100200
_cell_angle_alpha   90.00000000
_cell_angle_beta   90.00000000
_cell_angle_gamma   90.00000000
_symmetry_Int_Tables_number   1
_chemical_formula_structural   Cu3NiC4
_chemical_formula_sum   'Cu24 Ni8 C32'
_cell_volume   624.46477351
_cell_formula_units_Z   8
loop_
 _symmetry_equiv_pos_site_id
 _symmetry_equiv_pos_as_xyz
  1  'x, y, z'
loop_
 _atom_site_type_symbol
 _atom_site_label
 _atom_site_symmetry_multiplicity
 _atom_site_fract_x
 _atom_site_fract_y
 _atom_site_fract_z
 _atom_site_occupancy
  C  C0  1  0.64535000  0.40739000  0.42982400  1
  C  C1  1  0.85465000  0.90739000  0.57017600  1
  C  C2  1  0.14535000  0.59261000  0.07017600  1
  C  C3  1  0.35465000  0.09261000  0.92982400  1
  C  C4  1  0.35465000  0.59261000  0.57017600  1
  C  C5  1  0.14535000  0.09261000  0.42982400  1
  C  C6  1  0.85465000  0.40739000  0.92982400  1
  C  C7  1  0.64535000  0.90739000  0.07017600  1
  C  C8  1  0.74993200  0.57117300  0.36711000  1
  C  C9  1  0.75006800  0.07117300  0.63289000  1
  C  C10  1  0.24993200  0.42882700  0.13289000  1
  C  C11  1  0.25006800  0.92882700  0.86711000  1
  C  C12  1  0.25006800  0.42882700  0.63289000  1
  C  C13  1  0.24993200  0.92882700  0.36711000  1
  C  C14  1  0.75006800  0.57117300  0.86711000  1
  C  C15  1  0.74993200  0.07117300  0.13289000  1
  C  C16  1  0.80570300  0.48585100  0.52409400  1
  C  C17  1  0.69429700  0.98585100  0.47590600  1
  C  C18  1  0.30570300  0.51414900  0.97590600  1
  C  C19  1  0.19429700  0.01414900  0.02409400  1
  C  C20  1  0.19429700  0.51414900  0.47590600  1
  C  C21  1  0.30570300  0.01414900  0.52409400  1
  C  C22  1  0.69429700  0.48585100  0.02409400  1
  C  C23  1  0.80570300  0.98585100  0.97590600  1
  C  C24  1  0.90739400  0.33215600  0.32934000  1
  C  C25  1  0.59260600  0.83215600  0.67066000  1
  C  C26  1  0.40739400  0.66784400  0.17066000  1
  C  C27  1  0.09260600  0.16784400  0.82934000  1
  C  C28  1  0.09260600  0.66784400  0.67066000  1
  C  C29  1  0.40739400  0.16784400  0.32934000  1
  C  C30  1  0.59260600  0.33215600  0.82934000  1
  C  C31  1  0.90739400  0.83215600  0.17066000  1
  Ni  Ni32  1  0.76044500  0.46180800  0.42239500  1
  Ni  Ni33  1  0.73955500  0.96180800  0.57760500  1
  Ni  Ni34  1  0.26044500  0.53819200  0.07760500  1
  Ni  Ni35  1  0.23955500  0.03819200  0.92239500  1
  Ni  Ni36  1  0.23955500  0.53819200  0.57760500  1
  Ni  Ni37  1  0.26044500  0.03819200  0.42239500  1
  Ni  Ni38  1  0.73955500  0.46180800  0.92239500  1
  Ni  Ni39  1  0.76044500  0.96180800  0.07760500  1
  Cu  Cu40  1  0.04822600  0.44124400  0.32250400  1
  Cu  Cu41  1  0.45177400  0.94124400  0.67749600  1
  Cu  Cu42  1  0.54822600  0.55875600  0.17749600  1
  Cu  Cu43  1  0.95177400  0.05875600  0.82250400  1
  Cu  Cu44  1  0.95177400  0.55875600  0.67749600  1
  Cu  Cu45  1  0.54822600  0.05875600  0.32250400  1
  Cu  Cu46  1  0.45177400  0.44124400  0.82250400  1
  Cu  Cu47  1  0.04822600  0.94124400  0.17749600  1
  Cu  Cu48  1  0.92488500  0.19427300  0.42553300  1
  Cu  Cu49  1  0.57511500  0.69427300  0.57446700  1
  Cu  Cu50  1  0.42488500  0.80572700  0.07446700  1
  Cu  Cu51  1  0.07511500  0.30572700  0.92553300  1
  Cu  Cu52  1  0.07511500  0.80572700  0.57446700  1
  Cu  Cu53  1  0.42488500  0.30572700  0.42553300  1
  Cu  Cu54  1  0.57511500  0.19427300  0.92553300  1
  Cu  Cu55  1  0.92488500  0.69427300  0.07446700  1
  Cu  Cu56  1  0.82570600  0.29850000  0.19530100  1
  Cu  Cu57  1  0.67429400  0.79850000  0.80469900  1
  Cu  Cu58  1  0.32570600  0.70150000  0.30469900  1
  Cu  Cu59  1  0.17429400  0.20150000  0.69530100  1
  Cu  Cu60  1  0.17429400  0.70150000  0.80469900  1
  Cu  Cu61  1  0.32570600  0.20150000  0.19530100  1
  Cu  Cu62  1  0.67429400  0.29850000  0.69530100  1
  Cu  Cu63  1  0.82570600  0.79850000  0.30469900  1
