# generated using pymatgen
data_Cu2Ni2C13
_symmetry_space_group_name_H-M   'P 1'
_cell_length_a   7.21165600
_cell_length_b   7.63863100
_cell_length_c   13.22770600
_cell_angle_alpha   90.00000000
_cell_angle_beta   90.00000000
_cell_angle_gamma   90.00000000
_symmetry_Int_Tables_number   1
_chemical_formula_structural   Cu2Ni2C13
_chemical_formula_sum   'Cu8 Ni8 C52'
_cell_volume   728.67700928
_cell_formula_units_Z   4
loop_
 _symmetry_equiv_pos_site_id
 _symmetry_equiv_pos_as_xyz
  1  'x, y, z'
loop_
 _atom_site_type_symbol
 _atom_site_label
 _atom_site_symmetry_multiplicity
 _atom_site_fract_x
 _atom_site_fract_y
 _atom_site_fract_z
 _atom_site_occupancy
  C  C0  1  0.10365700  0.61001500  0.95176100  1
  C  C1  1  0.60365700  0.88998500  0.04823900  1
  C  C2  1  0.89634300  0.11001500  0.54823900  1
  C  C3  1  0.39634300  0.38998500  0.45176100  1
  C  C4  1  0.08098900  0.63362900  0.08045000  1
  C  C5  1  0.58098900  0.86637100  0.91955000  1
  C  C6  1  0.91901100  0.13362900  0.41955000  1
  C  C7  1  0.41901100  0.36637100  0.58045000  1
  C  C8  1  0.01545800  0.79374400  0.00166700  1
  C  C9  1  0.51545800  0.70625600  0.99833300  1
  C  C10  1  0.98454200  0.29374400  0.49833300  1
  C  C11  1  0.48454200  0.20625600  0.50166700  1
  C  C12  1  0.88747400  0.60317300  0.00806200  1
  C  C13  1  0.38747400  0.89682700  0.99193800  1
  C  C14  1  0.11252600  0.10317300  0.49193800  1
  C  C15  1  0.61252600  0.39682700  0.50806200  1
  C  C16  1  0.66274400  0.29994500  0.24924900  1
  C  C17  1  0.16274400  0.20005500  0.75075100  1
  C  C18  1  0.33725600  0.79994500  0.25075100  1
  C  C19  1  0.83725600  0.70005500  0.74924900  1
  C  C20  1  0.62267400  0.51240700  0.28241000  1
  C  C21  1  0.12267400  0.98759300  0.71759000  1
  C  C22  1  0.37732600  0.01240700  0.21759000  1
  C  C23  1  0.87732600  0.48759300  0.78241000  1
  C  C24  1  0.60774700  0.44710400  0.15673600  1
  C  C25  1  0.10774700  0.05289600  0.84326400  1
  C  C26  1  0.39225300  0.94710400  0.34326400  1
  C  C27  1  0.89225300  0.55289600  0.65673600  1
  C  C28  1  0.44622300  0.38526700  0.24169300  1
  C  C29  1  0.94622300  0.11473300  0.75830700  1
  C  C30  1  0.55377700  0.88526700  0.25830700  1
  C  C31  1  0.05377700  0.61473300  0.74169300  1
  Ni  Ni32  1  0.16669400  0.20409600  0.04048000  1
  Ni  Ni33  1  0.66669400  0.29590400  0.95952000  1
  Ni  Ni34  1  0.83330600  0.70409600  0.45952000  1
  Ni  Ni35  1  0.33330600  0.79590400  0.54048000  1
  Ni  Ni36  1  0.92809900  0.00679000  0.21112800  1
  Ni  Ni37  1  0.42809900  0.49321000  0.78887200  1
  Ni  Ni38  1  0.07190100  0.50679000  0.28887200  1
  Ni  Ni39  1  0.57190100  0.99321000  0.71112800  1
  Cu  Cu40  1  0.01956200  0.65862300  0.00969400  1
  Cu  Cu41  1  0.51956200  0.84137700  0.99030600  1
  Cu  Cu42  1  0.98043800  0.15862300  0.49030600  1
  Cu  Cu43  1  0.48043800  0.34137700  0.50969400  1
  Cu  Cu44  1  0.58544100  0.41188300  0.23205400  1
  Cu  Cu45  1  0.08544100  0.08811700  0.76794600  1
  Cu  Cu46  1  0.41455900  0.91188300  0.26794600  1
  Cu  Cu47  1  0.91455900  0.58811700  0.73205400  1
  C  C48  1  0.33953100  0.17206000  0.12384100  1
  C  C49  1  0.83953100  0.32794000  0.87615900  1
  C  C50  1  0.66046900  0.67206000  0.37615900  1
  C  C51  1  0.16046900  0.82794000  0.62384100  1
  C  C52  1  0.14765700  0.00807700  0.97875200  1
  C  C53  1  0.64765700  0.49192300  0.02124800  1
  C  C54  1  0.85234300  0.50807700  0.52124800  1
  C  C55  1  0.35234300  0.99192300  0.47875200  1
  C  C56  1  0.95620000  0.20175800  0.12316000  1
  C  C57  1  0.45620000  0.29824200  0.87684000  1
  C  C58  1  0.04380000  0.70175800  0.37684000  1
  C  C59  1  0.54380000  0.79824200  0.62316000  1
  C  C60  1  0.80582100  0.11563700  0.30112200  1
  C  C61  1  0.30582100  0.38436300  0.69887800  1
  C  C62  1  0.19417900  0.61563700  0.19887800  1
  C  C63  1  0.69417900  0.88436300  0.80112200  1
  C  C64  1  0.77301900  0.88555700  0.14767400  1
  C  C65  1  0.27301900  0.61444300  0.85232600  1
  C  C66  1  0.22698100  0.38555700  0.35232600  1
  C  C67  1  0.72698100  0.11444300  0.64767400  1
