# generated using pymatgen
data_Cu4NiC5
_symmetry_space_group_name_H-M   'P 1'
_cell_length_a   7.36741212
_cell_length_b   7.36741212
_cell_length_c   7.79317400
_cell_angle_alpha   90.00000000
_cell_angle_beta   90.00000000
_cell_angle_gamma   117.41382298
_symmetry_Int_Tables_number   1
_chemical_formula_structural   Cu4NiC5
_chemical_formula_sum   'Cu8 Ni2 C10'
_cell_volume   375.50233416
_cell_formula_units_Z   2
loop_
 _symmetry_equiv_pos_site_id
 _symmetry_equiv_pos_as_xyz
  1  'x, y, z'
loop_
 _atom_site_type_symbol
 _atom_site_label
 _atom_site_symmetry_multiplicity
 _atom_site_fract_x
 _atom_site_fract_y
 _atom_site_fract_z
 _atom_site_occupancy
  C  C0  1  0.11934600  0.23915500  0.30459900  1
  C  C1  1  0.23915500  0.11934600  0.80459900  1
  C  C2  1  0.16240300  0.42047400  0.01684500  1
  C  C3  1  0.42047400  0.16240300  0.51684500  1
  C  C4  1  0.85800500  0.14199500  0.69952800  1
  C  C5  1  0.14199500  0.85800500  0.19952800  1
  C  C6  1  0.83759700  0.57952600  0.51684500  1
  C  C7  1  0.57952600  0.83759700  0.01684500  1
  C  C8  1  0.88065400  0.76084500  0.80459900  1
  C  C9  1  0.76084500  0.88065400  0.30459900  1
  Ni  Ni10  1  0.66806000  0.33194000  0.08509800  1
  Ni  Ni11  1  0.33194000  0.66806000  0.58509800  1
  Cu  Cu12  1  0.00623200  0.50098900  0.77178400  1
  Cu  Cu13  1  0.50098900  0.00623200  0.27178400  1
  Cu  Cu14  1  0.97756400  0.02243600  0.03084300  1
  Cu  Cu15  1  0.02243600  0.97756400  0.53084300  1
  Cu  Cu16  1  0.52181000  0.47819000  0.71377400  1
  Cu  Cu17  1  0.47819000  0.52181000  0.21377400  1
  Cu  Cu18  1  0.99376800  0.49901100  0.27178400  1
  Cu  Cu19  1  0.49901100  0.99376800  0.77178400  1
