# generated using pymatgen
data_Cu7NiC5
_symmetry_space_group_name_H-M   'P 1'
_cell_length_a   6.46071100
_cell_length_b   5.22291800
_cell_length_c   9.07712992
_cell_angle_alpha   87.86978676
_cell_angle_beta   90.00000000
_cell_angle_gamma   90.00000000
_symmetry_Int_Tables_number   1
_chemical_formula_structural   Cu7NiC5
_chemical_formula_sum   'Cu14 Ni2 C10'
_cell_volume   306.08485584
_cell_formula_units_Z   2
loop_
 _symmetry_equiv_pos_site_id
 _symmetry_equiv_pos_as_xyz
  1  'x, y, z'
loop_
 _atom_site_type_symbol
 _atom_site_label
 _atom_site_symmetry_multiplicity
 _atom_site_fract_x
 _atom_site_fract_y
 _atom_site_fract_z
 _atom_site_occupancy
  C  C0  1  0.75000000  0.23149900  0.91267700  1
  C  C1  1  0.98810800  0.74750700  0.72807500  1
  C  C2  1  0.51189200  0.74750700  0.72807500  1
  C  C3  1  0.48810800  0.25249300  0.27192500  1
  C  C4  1  0.01189200  0.25249300  0.27192500  1
  C  C5  1  0.25000000  0.76850100  0.08732300  1
  C  C6  1  0.75000000  0.29437300  0.56974400  1
  C  C7  1  0.25000000  0.70562700  0.43025600  1
  C  C8  1  0.25000000  0.21625500  0.65531100  1
  C  C9  1  0.75000000  0.78374500  0.34468900  1
  Ni  Ni10  1  0.25000000  0.28259800  0.93828500  1
  Ni  Ni11  1  0.75000000  0.71740200  0.06171500  1
  Cu  Cu12  1  0.75000000  0.73385700  0.91984100  1
  Cu  Cu13  1  0.25000000  0.07067300  0.86530200  1
  Cu  Cu14  1  0.25000000  0.49846300  0.86566700  1
  Cu  Cu15  1  0.94582600  0.23109500  0.68362400  1
  Cu  Cu16  1  0.55417400  0.23109500  0.68362400  1
  Cu  Cu17  1  0.75000000  0.60898500  0.53387700  1
  Cu  Cu18  1  0.25000000  0.85982200  0.57997400  1
  Cu  Cu19  1  0.75000000  0.14017800  0.42002600  1
  Cu  Cu20  1  0.25000000  0.39101500  0.46612300  1
  Cu  Cu21  1  0.44582600  0.76890500  0.31637600  1
  Cu  Cu22  1  0.05417400  0.76890500  0.31637600  1
  Cu  Cu23  1  0.75000000  0.50153700  0.13433300  1
  Cu  Cu24  1  0.75000000  0.92932700  0.13469800  1
  Cu  Cu25  1  0.25000000  0.26614300  0.08015900  1
