# generated using pymatgen
data_Cu4NiC12
_symmetry_space_group_name_H-M   'P 1'
_cell_length_a   7.75540900
_cell_length_b   11.15924700
_cell_length_c   11.20958933
_cell_angle_alpha   68.47034399
_cell_angle_beta   90.00000000
_cell_angle_gamma   90.00000000
_symmetry_Int_Tables_number   1
_chemical_formula_structural   Cu4NiC12
_chemical_formula_sum   'Cu16 Ni4 C48'
_cell_volume   902.44052065
_cell_formula_units_Z   4
loop_
 _symmetry_equiv_pos_site_id
 _symmetry_equiv_pos_as_xyz
  1  'x, y, z'
loop_
 _atom_site_type_symbol
 _atom_site_label
 _atom_site_symmetry_multiplicity
 _atom_site_fract_x
 _atom_site_fract_y
 _atom_site_fract_z
 _atom_site_occupancy
  C  C0  1  0.75000000  0.90991300  0.38846900  1
  C  C1  1  0.75000000  0.97275600  0.10482400  1
  C  C2  1  0.75000000  0.62779000  0.87740100  1
  C  C3  1  0.75000000  0.62569300  0.45747800  1
  C  C4  1  0.25000000  0.37430700  0.54252200  1
  C  C5  1  0.25000000  0.37221000  0.12259900  1
  C  C6  1  0.25000000  0.02724400  0.89517600  1
  C  C7  1  0.25000000  0.09008700  0.61153100  1
  Ni  Ni8  1  0.98845700  0.78853100  0.27775400  1
  Ni  Ni9  1  0.51154300  0.78853100  0.27775400  1
  Ni  Ni10  1  0.48845700  0.21146900  0.72224600  1
  Ni  Ni11  1  0.01154300  0.21146900  0.72224600  1
  Cu  Cu12  1  0.95004000  0.91081800  0.74007800  1
  Cu  Cu13  1  0.54996000  0.91081800  0.74007800  1
  Cu  Cu14  1  0.04681500  0.74080300  0.58837800  1
  Cu  Cu15  1  0.45318500  0.74080300  0.58837800  1
  Cu  Cu16  1  0.44859500  0.75753300  0.00787700  1
  Cu  Cu17  1  0.05140500  0.75753300  0.00787700  1
  Cu  Cu18  1  0.44697100  0.47019200  0.77616100  1
  Cu  Cu19  1  0.05302900  0.47019200  0.77616100  1
  Cu  Cu20  1  0.94697100  0.52980800  0.22383900  1
  Cu  Cu21  1  0.55302900  0.52980800  0.22383900  1
  Cu  Cu22  1  0.94859500  0.24246700  0.99212300  1
  Cu  Cu23  1  0.55140500  0.24246700  0.99212300  1
  Cu  Cu24  1  0.95318500  0.25919700  0.41162200  1
  Cu  Cu25  1  0.54681500  0.25919700  0.41162200  1
  Cu  Cu26  1  0.45004000  0.08918200  0.25992200  1
  Cu  Cu27  1  0.04996000  0.08918200  0.25992200  1
  C  C28  1  0.75000000  0.95470500  0.69751800  1
  C  C29  1  0.94007000  0.77929800  0.87431100  1
  C  C30  1  0.55993000  0.77929800  0.87431100  1
  C  C31  1  0.25000000  0.80745500  0.96142400  1
  C  C32  1  0.46319900  0.86910000  0.62733100  1
  C  C33  1  0.03680100  0.86910000  0.62733100  1
  C  C34  1  0.93649200  0.97619600  0.24295200  1
  C  C35  1  0.56350800  0.97619600  0.24295200  1
  C  C36  1  0.25000000  0.71393300  0.56392700  1
  C  C37  1  0.93067600  0.75869400  0.46417000  1
  C  C38  1  0.56932400  0.75869400  0.46417000  1
  C  C39  1  0.96890900  0.83505400  0.08933600  1
  C  C40  1  0.53109100  0.83505400  0.08933600  1
  C  C41  1  0.52668000  0.61839100  0.71517200  1
  C  C42  1  0.97332000  0.61839100  0.71517200  1
  C  C43  1  0.25000000  0.47806500  0.82765400  1
  C  C44  1  0.94209200  0.40034400  0.91100500  1
  C  C45  1  0.55790800  0.40034400  0.91100500  1
  C  C46  1  0.95906600  0.60046500  0.32545600  1
  C  C47  1  0.54093400  0.60046500  0.32545600  1
  C  C48  1  0.45906600  0.39953500  0.67454400  1
  C  C49  1  0.04093400  0.39953500  0.67454400  1
  C  C50  1  0.44209200  0.59965600  0.08899500  1
  C  C51  1  0.05790800  0.59965600  0.08899500  1
  C  C52  1  0.75000000  0.52193500  0.17234600  1
  C  C53  1  0.47332000  0.38160900  0.28482800  1
  C  C54  1  0.02668000  0.38160900  0.28482800  1
  C  C55  1  0.03109100  0.16494600  0.91066400  1
  C  C56  1  0.46890900  0.16494600  0.91066400  1
  C  C57  1  0.43067600  0.24130600  0.53583000  1
  C  C58  1  0.06932400  0.24130600  0.53583000  1
  C  C59  1  0.75000000  0.28606700  0.43607300  1
  C  C60  1  0.43649200  0.02380400  0.75704800  1
  C  C61  1  0.06350800  0.02380400  0.75704800  1
  C  C62  1  0.96319900  0.13090000  0.37266900  1
  C  C63  1  0.53680100  0.13090000  0.37266900  1
  C  C64  1  0.75000000  0.19254500  0.03857600  1
  C  C65  1  0.44007000  0.22070200  0.12568900  1
  C  C66  1  0.05993000  0.22070200  0.12568900  1
  C  C67  1  0.25000000  0.04529500  0.30248200  1
