# generated using pymatgen
data_CuNiC3
_symmetry_space_group_name_H-M   'P 1'
_cell_length_a   9.87516384
_cell_length_b   9.87516384
_cell_length_c   7.52287632
_cell_angle_alpha   69.58645687
_cell_angle_beta   69.58645687
_cell_angle_gamma   97.11015195
_symmetry_Int_Tables_number   1
_chemical_formula_structural   CuNiC3
_chemical_formula_sum   'Cu10 Ni10 C30'
_cell_volume   618.70442942
_cell_formula_units_Z   10
loop_
 _symmetry_equiv_pos_site_id
 _symmetry_equiv_pos_as_xyz
  1  'x, y, z'
loop_
 _atom_site_type_symbol
 _atom_site_label
 _atom_site_symmetry_multiplicity
 _atom_site_fract_x
 _atom_site_fract_y
 _atom_site_fract_z
 _atom_site_occupancy
  C  C0  1  0.00000000  0.50000000  0.50000000  1
  C  C1  1  0.50000000  0.00000000  0.50000000  1
  C  C2  1  0.89133900  0.10866100  0.50000000  1
  C  C3  1  0.10866100  0.89133900  0.50000000  1
  Ni  Ni4  1  0.04362100  0.04362100  0.14324600  1
  Ni  Ni5  1  0.95637900  0.95637900  0.85675400  1
  Ni  Ni6  1  0.79743400  0.21650600  0.81325500  1
  Ni  Ni7  1  0.21650600  0.79743400  0.81325500  1
  Ni  Ni8  1  0.20256600  0.78349400  0.18674500  1
  Ni  Ni9  1  0.78349400  0.20256600  0.18674500  1
  Ni  Ni10  1  0.67816200  0.24332500  0.72629500  1
  Ni  Ni11  1  0.24332500  0.67816200  0.72629500  1
  Ni  Ni12  1  0.32183800  0.75667500  0.27370500  1
  Ni  Ni13  1  0.75667500  0.32183800  0.27370500  1
  C  C14  1  0.26317500  0.26317500  0.99676400  1
  C  C15  1  0.73682500  0.73682500  0.00323600  1
  Cu  Cu16  1  0.41973100  0.41973100  0.81089400  1
  Cu  Cu17  1  0.58026900  0.58026900  0.18910600  1
  Cu  Cu18  1  0.13034800  0.33170600  0.82892500  1
  Cu  Cu19  1  0.33170600  0.13034800  0.82892500  1
  Cu  Cu20  1  0.86965200  0.66829400  0.17107500  1
  Cu  Cu21  1  0.66829400  0.86965200  0.17107500  1
  Cu  Cu22  1  0.18089700  0.38745900  0.17258800  1
  Cu  Cu23  1  0.38745900  0.18089700  0.17258800  1
  Cu  Cu24  1  0.81910300  0.61254100  0.82741200  1
  Cu  Cu25  1  0.61254100  0.81910300  0.82741200  1
  C  C26  1  0.08878900  0.08878900  0.21389800  1
  C  C27  1  0.91121100  0.91121100  0.78610200  1
  C  C28  1  0.52265800  0.52265800  0.68902100  1
  C  C29  1  0.47734200  0.47734200  0.31097900  1
  C  C30  1  0.01795200  0.23821400  0.86016900  1
  C  C31  1  0.23821400  0.01795200  0.86016900  1
  C  C32  1  0.98204800  0.76178600  0.13983100  1
  C  C33  1  0.76178600  0.98204800  0.13983100  1
  C  C34  1  0.16754000  0.46548700  0.69707400  1
  C  C35  1  0.46548700  0.16754000  0.69707400  1
  C  C36  1  0.83246000  0.53451300  0.30292600  1
  C  C37  1  0.53451300  0.83246000  0.30292600  1
  C  C38  1  0.09988500  0.32166600  0.36582700  1
  C  C39  1  0.32166600  0.09988500  0.36582700  1
  C  C40  1  0.90011500  0.67833400  0.63417300  1
  C  C41  1  0.67833400  0.90011500  0.63417300  1
  C  C42  1  0.21470700  0.52695900  0.08090500  1
  C  C43  1  0.52695900  0.21470700  0.08090500  1
  C  C44  1  0.78529300  0.47304100  0.91909500  1
  C  C45  1  0.47304100  0.78529300  0.91909500  1
  C  C46  1  0.78513200  0.24817000  0.68303500  1
  C  C47  1  0.24817000  0.78513200  0.68303500  1
  C  C48  1  0.21486800  0.75183000  0.31696500  1
  C  C49  1  0.75183000  0.21486800  0.31696500  1
