# generated using pymatgen
data_Cu2Ni2C9
_symmetry_space_group_name_H-M   'P 1'
_cell_length_a   6.99836900
_cell_length_b   12.80576700
_cell_length_c   14.24909800
_cell_angle_alpha   90.00000000
_cell_angle_beta   90.00000000
_cell_angle_gamma   90.00000000
_symmetry_Int_Tables_number   1
_chemical_formula_structural   Cu2Ni2C9
_chemical_formula_sum   'Cu16 Ni16 C72'
_cell_volume   1276.99679304
_cell_formula_units_Z   8
loop_
 _symmetry_equiv_pos_site_id
 _symmetry_equiv_pos_as_xyz
  1  'x, y, z'
loop_
 _atom_site_type_symbol
 _atom_site_label
 _atom_site_symmetry_multiplicity
 _atom_site_fract_x
 _atom_site_fract_y
 _atom_site_fract_z
 _atom_site_occupancy
  C  C0  1  0.65174300  0.43659600  0.31220800  1
  C  C1  1  0.84825700  0.93659600  0.68779200  1
  C  C2  1  0.15174300  0.56340400  0.18779200  1
  C  C3  1  0.34825700  0.06340400  0.81220800  1
  C  C4  1  0.34825700  0.56340400  0.68779200  1
  C  C5  1  0.15174300  0.06340400  0.31220800  1
  C  C6  1  0.84825700  0.43659600  0.81220800  1
  C  C7  1  0.65174300  0.93659600  0.18779200  1
  Ni  Ni8  1  0.67122300  0.17232100  0.47657700  1
  Ni  Ni9  1  0.82877700  0.67232100  0.52342300  1
  Ni  Ni10  1  0.17122300  0.82767900  0.02342300  1
  Ni  Ni11  1  0.32877700  0.32767900  0.97657700  1
  Ni  Ni12  1  0.32877700  0.82767900  0.52342300  1
  Ni  Ni13  1  0.17122300  0.32767900  0.47657700  1
  Ni  Ni14  1  0.82877700  0.17232100  0.97657700  1
  Ni  Ni15  1  0.67122300  0.67232100  0.02342300  1
  Ni  Ni16  1  0.58140100  0.32244100  0.11867400  1
  Ni  Ni17  1  0.91859900  0.82244100  0.88132600  1
  Ni  Ni18  1  0.08140100  0.67755900  0.38132600  1
  Ni  Ni19  1  0.41859900  0.17755900  0.61867400  1
  Ni  Ni20  1  0.41859900  0.67755900  0.88132600  1
  Ni  Ni21  1  0.08140100  0.17755900  0.11867400  1
  Ni  Ni22  1  0.91859900  0.32244100  0.61867400  1
  Ni  Ni23  1  0.58140100  0.82244100  0.38132600  1
  Cu  Cu24  1  0.66216400  0.14001400  0.32606800  1
  Cu  Cu25  1  0.83783600  0.64001400  0.67393200  1
  Cu  Cu26  1  0.16216400  0.85998600  0.17393200  1
  Cu  Cu27  1  0.33783600  0.35998600  0.82606800  1
  Cu  Cu28  1  0.33783600  0.85998600  0.67393200  1
  Cu  Cu29  1  0.16216400  0.35998600  0.32606800  1
  Cu  Cu30  1  0.83783600  0.14001400  0.82606800  1
  Cu  Cu31  1  0.66216400  0.64001400  0.17393200  1
  Cu  Cu32  1  0.86457600  0.35644300  0.06534100  1
  Cu  Cu33  1  0.63542400  0.85644300  0.93465900  1
  Cu  Cu34  1  0.36457600  0.64355700  0.43465900  1
  Cu  Cu35  1  0.13542400  0.14355700  0.56534100  1
  Cu  Cu36  1  0.13542400  0.64355700  0.93465900  1
  Cu  Cu37  1  0.36457600  0.14355700  0.06534100  1
  Cu  Cu38  1  0.63542400  0.35644300  0.56534100  1
  Cu  Cu39  1  0.86457600  0.85644300  0.43465900  1
  C  C40  1  0.62900400  0.25018300  0.30888600  1
  C  C41  1  0.87099600  0.75018300  0.69111400  1
  C  C42  1  0.12900400  0.74981700  0.19111400  1
  C  C43  1  0.37099600  0.24981700  0.80888600  1
  C  C44  1  0.37099600  0.74981700  0.69111400  1
  C  C45  1  0.12900400  0.24981700  0.30888600  1
  C  C46  1  0.87099600  0.25018300  0.80888600  1
  C  C47  1  0.62900400  0.75018300  0.19111400  1
  C  C48  1  0.98882500  0.42399700  0.31562800  1
  C  C49  1  0.51117500  0.92399700  0.68437200  1
  C  C50  1  0.48882500  0.57600300  0.18437200  1
  C  C51  1  0.01117500  0.07600300  0.81562800  1
  C  C52  1  0.01117500  0.57600300  0.68437200  1
  C  C53  1  0.48882500  0.07600300  0.31562800  1
  C  C54  1  0.51117500  0.42399700  0.81562800  1
  C  C55  1  0.98882500  0.92399700  0.18437200  1
  C  C56  1  0.81503500  0.09257400  0.26811300  1
  C  C57  1  0.68496500  0.59257400  0.73188700  1
  C  C58  1  0.31503500  0.90742600  0.23188700  1
  C  C59  1  0.18496500  0.40742600  0.76811300  1
  C  C60  1  0.18496500  0.90742600  0.73188700  1
  C  C61  1  0.31503500  0.40742600  0.26811300  1
  C  C62  1  0.68496500  0.09257400  0.76811300  1
  C  C63  1  0.81503500  0.59257400  0.23188700  1
  C  C64  1  0.73979900  0.12672300  0.42860300  1
  C  C65  1  0.76020100  0.62672300  0.57139700  1
  C  C66  1  0.23979900  0.87327700  0.07139700  1
  C  C67  1  0.26020100  0.37327700  0.92860300  1
  C  C68  1  0.26020100  0.87327700  0.57139700  1
  C  C69  1  0.23979900  0.37327700  0.42860300  1
  C  C70  1  0.76020100  0.12672300  0.92860300  1
  C  C71  1  0.73979900  0.62672300  0.07139700  1
  C  C72  1  0.69300700  0.36743000  0.13946800  1
  C  C73  1  0.80699300  0.86743000  0.86053200  1
  C  C74  1  0.19300700  0.63257000  0.36053200  1
  C  C75  1  0.30699300  0.13257000  0.63946800  1
  C  C76  1  0.30699300  0.63257000  0.86053200  1
  C  C77  1  0.19300700  0.13257000  0.13946800  1
  C  C78  1  0.80699300  0.36743000  0.63946800  1
  C  C79  1  0.69300700  0.86743000  0.36053200  1
  C  C80  1  0.51557900  0.08121100  0.10637600  1
  C  C81  1  0.98442100  0.58121100  0.89362400  1
  C  C82  1  0.01557900  0.91878900  0.39362400  1
  C  C83  1  0.48442100  0.41878900  0.60637600  1
  C  C84  1  0.48442100  0.91878900  0.89362400  1
  C  C85  1  0.01557900  0.41878900  0.10637600  1
  C  C86  1  0.98442100  0.08121100  0.60637600  1
  C  C87  1  0.51557900  0.58121100  0.39362400  1
  C  C88  1  0.70867200  0.39192600  0.47523900  1
  C  C89  1  0.79132800  0.89192600  0.52476100  1
  C  C90  1  0.20867200  0.60807400  0.02476100  1
  C  C91  1  0.29132800  0.10807400  0.97523900  1
  C  C92  1  0.29132800  0.60807400  0.52476100  1
  C  C93  1  0.20867200  0.10807400  0.47523900  1
  C  C94  1  0.79132800  0.39192600  0.97523900  1
  C  C95  1  0.70867200  0.89192600  0.02476100  1
  C  C96  1  0.91424600  0.24356900  0.06160000  1
  C  C97  1  0.58575400  0.74356900  0.93840000  1
  C  C98  1  0.41424600  0.75643100  0.43840000  1
  C  C99  1  0.08575400  0.25643100  0.56160000  1
  C  C100  1  0.08575400  0.75643100  0.93840000  1
  C  C101  1  0.41424600  0.25643100  0.06160000  1
  C  C102  1  0.58575400  0.24356900  0.56160000  1
  C  C103  1  0.91424600  0.74356900  0.43840000  1
