# generated using pymatgen
data_Cu3Ni5C
_symmetry_space_group_name_H-M   'P 1'
_cell_length_a   6.90271700
_cell_length_b   10.40192700
_cell_length_c   13.59602100
_cell_angle_alpha   90.00000000
_cell_angle_beta   90.00000000
_cell_angle_gamma   90.00000000
_symmetry_Int_Tables_number   1
_chemical_formula_structural   Cu3Ni5C
_chemical_formula_sum   'Cu12 Ni20 C4'
_cell_volume   976.21549496
_cell_formula_units_Z   4
loop_
 _symmetry_equiv_pos_site_id
 _symmetry_equiv_pos_as_xyz
  1  'x, y, z'
loop_
 _atom_site_type_symbol
 _atom_site_label
 _atom_site_symmetry_multiplicity
 _atom_site_fract_x
 _atom_site_fract_y
 _atom_site_fract_z
 _atom_site_occupancy
  C  C0  1  0.64908000  0.25000000  0.58960400  1
  C  C1  1  0.85092000  0.25000000  0.08960400  1
  C  C2  1  0.35092000  0.75000000  0.41039600  1
  C  C3  1  0.14908000  0.75000000  0.91039600  1
  Ni  Ni4  1  0.68393800  0.48375100  0.60793300  1
  Ni  Ni5  1  0.81606200  0.01624900  0.10793300  1
  Ni  Ni6  1  0.31606200  0.98375100  0.39206700  1
  Ni  Ni7  1  0.18393800  0.51624900  0.89206700  1
  Ni  Ni8  1  0.31606200  0.51624900  0.39206700  1
  Ni  Ni9  1  0.18393800  0.98375100  0.89206700  1
  Ni  Ni10  1  0.68393800  0.01624900  0.60793300  1
  Ni  Ni11  1  0.81606200  0.48375100  0.10793300  1
  Ni  Ni12  1  0.96069700  0.25000000  0.50547500  1
  Ni  Ni13  1  0.53930300  0.25000000  0.00547500  1
  Ni  Ni14  1  0.03930300  0.75000000  0.49452500  1
  Ni  Ni15  1  0.46069700  0.75000000  0.99452500  1
  Ni  Ni16  1  0.90711800  0.25000000  0.76029700  1
  Ni  Ni17  1  0.59288200  0.25000000  0.26029700  1
  Ni  Ni18  1  0.09288200  0.75000000  0.23970300  1
  Ni  Ni19  1  0.40711800  0.75000000  0.73970300  1
  Ni  Ni20  1  0.42066900  0.25000000  0.72570800  1
  Ni  Ni21  1  0.07933100  0.25000000  0.22570800  1
  Ni  Ni22  1  0.57933100  0.75000000  0.27429200  1
  Ni  Ni23  1  0.92066900  0.75000000  0.77429200  1
  Cu  Cu24  1  0.15105300  0.50095100  0.64572700  1
  Cu  Cu25  1  0.34894700  0.99904900  0.14572700  1
  Cu  Cu26  1  0.84894700  0.00095100  0.35427300  1
  Cu  Cu27  1  0.65105300  0.49904900  0.85427300  1
  Cu  Cu28  1  0.84894700  0.49904900  0.35427300  1
  Cu  Cu29  1  0.65105300  0.00095100  0.85427300  1
  Cu  Cu30  1  0.15105300  0.99904900  0.64572700  1
  Cu  Cu31  1  0.34894700  0.50095100  0.14572700  1
  Cu  Cu32  1  0.51099900  0.25000000  0.49359300  1
  Cu  Cu33  1  0.98900100  0.25000000  0.99359300  1
  Cu  Cu34  1  0.48900100  0.75000000  0.50640700  1
  Cu  Cu35  1  0.01099900  0.75000000  0.00640700  1
