# generated using pymatgen
data_CuNiC4
_symmetry_space_group_name_H-M   'P 1'
_cell_length_a   14.43269120
_cell_length_b   14.43269120
_cell_length_c   14.43269201
_cell_angle_alpha   114.46724342
_cell_angle_beta   114.46724342
_cell_angle_gamma   114.46724355
_symmetry_Int_Tables_number   1
_chemical_formula_structural   CuNiC4
_chemical_formula_sum   'Cu6 Ni6 C24'
_cell_volume   1761.45526704
_cell_formula_units_Z   6
loop_
 _symmetry_equiv_pos_site_id
 _symmetry_equiv_pos_as_xyz
  1  'x, y, z'
loop_
 _atom_site_type_symbol
 _atom_site_label
 _atom_site_symmetry_multiplicity
 _atom_site_fract_x
 _atom_site_fract_y
 _atom_site_fract_z
 _atom_site_occupancy
  Ni  Ni0  1  0.85716200  0.28416100  0.10812600  1
  Ni  Ni1  1  0.78416100  0.35716200  0.60812600  1
  Ni  Ni2  1  0.28416100  0.10812600  0.85716200  1
  Ni  Ni3  1  0.60812600  0.78416100  0.35716200  1
  Ni  Ni4  1  0.35716200  0.60812600  0.78416100  1
  Ni  Ni5  1  0.10812600  0.85716200  0.28416100  1
  Cu  Cu6  1  0.91646500  0.09450200  0.32986700  1
  Cu  Cu7  1  0.59450200  0.41646500  0.82986700  1
  Cu  Cu8  1  0.82986700  0.59450200  0.41646500  1
  Cu  Cu9  1  0.09450200  0.32986700  0.91646500  1
  Cu  Cu10  1  0.41646500  0.82986700  0.59450200  1
  Cu  Cu11  1  0.32986700  0.91646500  0.09450200  1
  C  C12  1  0.90882500  0.07842200  0.10170300  1
  C  C13  1  0.88454400  0.15430400  0.57325900  1
  C  C14  1  0.75166400  0.09149900  0.77334500  1
  C  C15  1  0.99534100  0.39295100  0.46378700  1
  C  C16  1  0.89295100  0.49534100  0.96378700  1
  C  C17  1  0.59149900  0.25166400  0.27334500  1
  C  C18  1  0.65430400  0.38454400  0.07325900  1
  C  C19  1  0.38454400  0.07325900  0.65430400  1
  C  C20  1  0.57842200  0.40882500  0.60170300  1
  C  C21  1  0.96378700  0.89295100  0.49534100  1
  C  C22  1  0.60170300  0.57842200  0.40882500  1
  C  C23  1  0.77334500  0.75166400  0.09149900  1
  C  C24  1  0.25166400  0.27334500  0.59149900  1
  C  C25  1  0.07842200  0.10170300  0.90882500  1
  C  C26  1  0.39295100  0.46378700  0.99534100  1
  C  C27  1  0.40882500  0.60170300  0.57842200  1
  C  C28  1  0.57325900  0.88454400  0.15430400  1
  C  C29  1  0.27334500  0.59149900  0.25166400  1
  C  C30  1  0.15430400  0.57325900  0.88454400  1
  C  C31  1  0.49534100  0.96378700  0.89295100  1
  C  C32  1  0.46378700  0.99534100  0.39295100  1
  C  C33  1  0.07325900  0.65430400  0.38454400  1
  C  C34  1  0.09149900  0.77334500  0.75166400  1
  C  C35  1  0.10170300  0.90882500  0.07842200  1
