# generated using pymatgen
data_Cu12Ni6C37
_symmetry_space_group_name_H-M   'P 1'
_cell_length_a   11.73884527
_cell_length_b   11.73884527
_cell_length_c   11.96691500
_cell_angle_alpha   90.00000000
_cell_angle_beta   90.00000000
_cell_angle_gamma   119.99999587
_symmetry_Int_Tables_number   1
_chemical_formula_structural   Cu12Ni6C37
_chemical_formula_sum   'Cu24 Ni12 C74'
_cell_volume   1428.11641893
_cell_formula_units_Z   2
loop_
 _symmetry_equiv_pos_site_id
 _symmetry_equiv_pos_as_xyz
  1  'x, y, z'
loop_
 _atom_site_type_symbol
 _atom_site_label
 _atom_site_symmetry_multiplicity
 _atom_site_fract_x
 _atom_site_fract_y
 _atom_site_fract_z
 _atom_site_occupancy
  C  C0  1  0.43194000  0.86896900  0.25000000  1
  C  C1  1  0.43702900  0.56806000  0.25000000  1
  C  C2  1  0.13103100  0.56297100  0.25000000  1
  C  C3  1  0.56806000  0.13103100  0.75000000  1
  C  C4  1  0.56297100  0.43194000  0.75000000  1
  C  C5  1  0.86896900  0.43702900  0.75000000  1
  C  C6  1  0.72580600  0.84450600  0.25000000  1
  C  C7  1  0.11870000  0.27419400  0.25000000  1
  C  C8  1  0.15549400  0.88130000  0.25000000  1
  C  C9  1  0.27419400  0.15549400  0.75000000  1
  C  C10  1  0.88130000  0.72580600  0.75000000  1
  C  C11  1  0.84450600  0.11870000  0.75000000  1
  C  C12  1  0.00000000  0.00000000  0.50000000  1
  C  C13  1  0.00000000  0.00000000  0.00000000  1
  Ni  Ni14  1  0.25026500  0.50127800  0.00598900  1
  Ni  Ni15  1  0.25101300  0.74973500  0.00598900  1
  Ni  Ni16  1  0.49872200  0.74898700  0.00598900  1
  Ni  Ni17  1  0.74973500  0.49872200  0.50598900  1
  Ni  Ni18  1  0.74898700  0.25026500  0.50598900  1
  Ni  Ni19  1  0.50127800  0.25101300  0.50598900  1
  Ni  Ni20  1  0.74973500  0.49872200  0.99401100  1
  Ni  Ni21  1  0.74898700  0.25026500  0.99401100  1
  Ni  Ni22  1  0.50127800  0.25101300  0.99401100  1
  Ni  Ni23  1  0.25026500  0.50127800  0.49401100  1
  Ni  Ni24  1  0.25101300  0.74973500  0.49401100  1
  Ni  Ni25  1  0.49872200  0.74898700  0.49401100  1
  Cu  Cu26  1  0.69793300  0.60176700  0.31511400  1
  Cu  Cu27  1  0.90383400  0.30206700  0.31511400  1
  Cu  Cu28  1  0.39823300  0.09616600  0.31511400  1
  Cu  Cu29  1  0.30206700  0.39823300  0.81511400  1
  Cu  Cu30  1  0.09616600  0.69793300  0.81511400  1
  Cu  Cu31  1  0.60176700  0.90383400  0.81511400  1
  Cu  Cu32  1  0.30206700  0.39823300  0.68488600  1
  Cu  Cu33  1  0.09616600  0.69793300  0.68488600  1
  Cu  Cu34  1  0.60176700  0.90383400  0.68488600  1
  Cu  Cu35  1  0.69793300  0.60176700  0.18488600  1
  Cu  Cu36  1  0.90383400  0.30206700  0.18488600  1
  Cu  Cu37  1  0.39823300  0.09616600  0.18488600  1
  Cu  Cu38  1  0.84843300  0.77644800  0.42599200  1
  Cu  Cu39  1  0.92801500  0.15156700  0.42599200  1
  Cu  Cu40  1  0.22355200  0.07198500  0.42599200  1
  Cu  Cu41  1  0.15156700  0.22355200  0.92599200  1
  Cu  Cu42  1  0.07198500  0.84843300  0.92599200  1
  Cu  Cu43  1  0.77644800  0.92801500  0.92599200  1
  Cu  Cu44  1  0.15156700  0.22355200  0.57400800  1
  Cu  Cu45  1  0.07198500  0.84843300  0.57400800  1
  Cu  Cu46  1  0.77644800  0.92801500  0.57400800  1
  Cu  Cu47  1  0.84843300  0.77644800  0.07400800  1
  Cu  Cu48  1  0.92801500  0.15156700  0.07400800  1
  Cu  Cu49  1  0.22355200  0.07198500  0.07400800  1
  C  C50  1  0.23771100  0.76021300  0.36976000  1
  C  C51  1  0.52250300  0.76228900  0.36976000  1
  C  C52  1  0.23978700  0.47749700  0.36976000  1
  C  C53  1  0.76228900  0.23978700  0.86976000  1
  C  C54  1  0.47749700  0.23771100  0.86976000  1
  C  C55  1  0.76021300  0.52250300  0.86976000  1
  C  C56  1  0.76228900  0.23978700  0.63024000  1
  C  C57  1  0.47749700  0.23771100  0.63024000  1
  C  C58  1  0.76021300  0.52250300  0.63024000  1
  C  C59  1  0.23771100  0.76021300  0.13024000  1
  C  C60  1  0.52250300  0.76228900  0.13024000  1
  C  C61  1  0.23978700  0.47749700  0.13024000  1
  C  C62  1  0.18978700  0.59482700  0.97312900  1
  C  C63  1  0.40503900  0.81021300  0.97312900  1
  C  C64  1  0.40517300  0.59496100  0.97312900  1
  C  C65  1  0.81021300  0.40517300  0.47312900  1
  C  C66  1  0.59496100  0.18978700  0.47312900  1
  C  C67  1  0.59482700  0.40503900  0.47312900  1
  C  C68  1  0.81021300  0.40517300  0.02687100  1
  C  C69  1  0.59496100  0.18978700  0.02687100  1
  C  C70  1  0.59482700  0.40503900  0.02687100  1
  C  C71  1  0.18978700  0.59482700  0.52687100  1
  C  C72  1  0.40503900  0.81021300  0.52687100  1
  C  C73  1  0.40517300  0.59496100  0.52687100  1
  C  C74  1  0.19396000  0.38765300  0.92622600  1
  C  C75  1  0.19369300  0.80604000  0.92622600  1
  C  C76  1  0.61234700  0.80630700  0.92622600  1
  C  C77  1  0.80604000  0.61234700  0.42622600  1
  C  C78  1  0.80630700  0.19396000  0.42622600  1
  C  C79  1  0.38765300  0.19369300  0.42622600  1
  C  C80  1  0.80604000  0.61234700  0.07377400  1
  C  C81  1  0.80630700  0.19396000  0.07377400  1
  C  C82  1  0.38765300  0.19369300  0.07377400  1
  C  C83  1  0.19396000  0.38765300  0.57377400  1
  C  C84  1  0.19369300  0.80604000  0.57377400  1
  C  C85  1  0.61234700  0.80630700  0.57377400  1
  C  C86  1  0.86375000  0.86573100  0.40515900  1
  C  C87  1  0.00198100  0.13625000  0.40515900  1
  C  C88  1  0.13426900  0.99801900  0.40515900  1
  C  C89  1  0.13625000  0.13426900  0.90515900  1
  C  C90  1  0.99801900  0.86375000  0.90515900  1
  C  C91  1  0.86573100  0.00198100  0.90515900  1
  C  C92  1  0.13625000  0.13426900  0.59484100  1
  C  C93  1  0.99801900  0.86375000  0.59484100  1
  C  C94  1  0.86573100  0.00198100  0.59484100  1
  C  C95  1  0.86375000  0.86573100  0.09484100  1
  C  C96  1  0.00198100  0.13625000  0.09484100  1
  C  C97  1  0.13426900  0.99801900  0.09484100  1
  C  C98  1  0.65445700  0.61589600  0.25000000  1
  C  C99  1  0.96143900  0.34554300  0.25000000  1
  C  C100  1  0.38410400  0.03856100  0.25000000  1
  C  C101  1  0.34554300  0.38410400  0.75000000  1
  C  C102  1  0.03856100  0.65445700  0.75000000  1
  C  C103  1  0.61589600  0.96143900  0.75000000  1
  C  C104  1  0.97139100  0.64952000  0.25000000  1
  C  C105  1  0.67812900  0.02860900  0.25000000  1
  C  C106  1  0.35048000  0.32187100  0.25000000  1
  C  C107  1  0.02860900  0.35048000  0.75000000  1
  C  C108  1  0.32187100  0.97139100  0.75000000  1
  C  C109  1  0.64952000  0.67812900  0.75000000  1
