# generated using pymatgen
data_Cu2Ni3C31
_symmetry_space_group_name_H-M   'P 1'
_cell_length_a   8.45865203
_cell_length_b   8.45865203
_cell_length_c   8.45865208
_cell_angle_alpha   61.71215832
_cell_angle_beta   61.71215832
_cell_angle_gamma   61.71216293
_symmetry_Int_Tables_number   1
_chemical_formula_structural   Cu2Ni3C31
_chemical_formula_sum   'Cu2 Ni3 C31'
_cell_volume   444.36839143
_cell_formula_units_Z   1
loop_
 _symmetry_equiv_pos_site_id
 _symmetry_equiv_pos_as_xyz
  1  'x, y, z'
loop_
 _atom_site_type_symbol
 _atom_site_label
 _atom_site_symmetry_multiplicity
 _atom_site_fract_x
 _atom_site_fract_y
 _atom_site_fract_z
 _atom_site_occupancy
  C  C0  1  0.85297400  0.85297400  0.85297400  1
  Ni  Ni1  1  0.14656400  0.14656400  0.14656400  1
  Ni  Ni2  1  0.35393500  0.35393500  0.35393500  1
  Ni  Ni3  1  0.64560200  0.64560200  0.64560200  1
  Cu  Cu4  1  0.99972400  0.99972400  0.99972400  1
  Cu  Cu5  1  0.50121900  0.50121900  0.50121900  1
  C  C6  1  0.55057200  0.25083200  0.94941200  1
  C  C7  1  0.94941200  0.55057200  0.25083200  1
  C  C8  1  0.25083200  0.94941200  0.55057200  1
  C  C9  1  0.74976400  0.04946900  0.44969300  1
  C  C10  1  0.04946900  0.44969300  0.74976400  1
  C  C11  1  0.44969300  0.74976400  0.04946900  1
  C  C12  1  0.32030200  0.09865600  0.51862800  1
  C  C13  1  0.51862800  0.32030200  0.09865600  1
  C  C14  1  0.90651800  0.06483100  0.24801800  1
  C  C15  1  0.09865600  0.51862800  0.32030200  1
  C  C16  1  0.82841200  0.98868700  0.61101300  1
  C  C17  1  0.60156500  0.24937800  0.44596200  1
  C  C18  1  0.06483100  0.24801800  0.90651800  1
  C  C19  1  0.24937800  0.44596200  0.60156500  1
  C  C20  1  0.39627300  0.17778500  0.98994000  1
  C  C21  1  0.44596200  0.60156500  0.24937800  1
  C  C22  1  0.75458100  0.09052100  0.93090500  1
  C  C23  1  0.98994000  0.39627300  0.17778500  1
  C  C24  1  0.98868700  0.61101300  0.82841200  1
  C  C25  1  0.24801800  0.90651800  0.06483100  1
  C  C26  1  0.56794300  0.40149100  0.74514500  1
  C  C27  1  0.61101300  0.82841200  0.98868700  1
  C  C28  1  0.74514500  0.56794300  0.40149100  1
  C  C29  1  0.93090500  0.75458100  0.09052100  1
  C  C30  1  0.40149100  0.74514500  0.56794300  1
  C  C31  1  0.17778500  0.98994000  0.39627300  1
  C  C32  1  0.89782400  0.48737400  0.67848800  1
  C  C33  1  0.09052100  0.93090500  0.75458100  1
  C  C34  1  0.48737400  0.67848800  0.89782400  1
  C  C35  1  0.67848800  0.89782400  0.48737400  1
