# generated using pymatgen
data_CuNi3C31
_symmetry_space_group_name_H-M   'P 1'
_cell_length_a   8.62865384
_cell_length_b   8.62865384
_cell_length_c   8.62865402
_cell_angle_alpha   60.21527787
_cell_angle_beta   60.21527787
_cell_angle_gamma   60.21528107
_symmetry_Int_Tables_number   1
_chemical_formula_structural   CuNi3C31
_chemical_formula_sum   'Cu1 Ni3 C31'
_cell_volume   456.48432220
_cell_formula_units_Z   1
loop_
 _symmetry_equiv_pos_site_id
 _symmetry_equiv_pos_as_xyz
  1  'x, y, z'
loop_
 _atom_site_type_symbol
 _atom_site_label
 _atom_site_symmetry_multiplicity
 _atom_site_fract_x
 _atom_site_fract_y
 _atom_site_fract_z
 _atom_site_occupancy
  Ni  Ni0  1  0.13497900  0.13497900  0.13497900  1
  Ni  Ni1  1  0.35373200  0.35373200  0.35373200  1
  Ni  Ni2  1  0.86458200  0.86458200  0.86458200  1
  C  C3  1  0.50016600  0.50016600  0.50016600  1
  Cu  Cu4  1  0.64436200  0.64436200  0.64436200  1
  C  C5  1  0.74733100  0.04019000  0.46750100  1
  C  C6  1  0.95606700  0.53504200  0.25277100  1
  C  C7  1  0.53504200  0.25277100  0.95606700  1
  C  C8  1  0.46750100  0.74733100  0.04019000  1
  C  C9  1  0.04019000  0.46750100  0.74733100  1
  C  C10  1  0.25277100  0.95606700  0.53504200  1
  C  C11  1  0.91160600  0.06321300  0.27765100  1
  C  C12  1  0.80029300  0.00028500  0.63182300  1
  C  C13  1  0.72373300  0.08884900  0.93866100  1
  C  C14  1  0.88202200  0.49762400  0.69072800  1
  C  C15  1  0.58110000  0.23460200  0.44817100  1
  C  C16  1  0.76376500  0.55414800  0.41984100  1
  C  C17  1  0.93866100  0.72373300  0.08884900  1
  C  C18  1  0.20094900  0.99760100  0.36977900  1
  C  C19  1  0.49601600  0.31119300  0.11962100  1
  C  C20  1  0.36977900  0.20094900  0.99760100  1
  C  C21  1  0.31119300  0.11962100  0.49601600  1
  C  C22  1  0.55414800  0.41984100  0.76376500  1
  C  C23  1  0.44817100  0.58110000  0.23460200  1
  C  C24  1  0.69072800  0.88202200  0.49762400  1
  C  C25  1  0.63182300  0.80029300  0.00028500  1
  C  C26  1  0.49762400  0.69072800  0.88202200  1
  C  C27  1  0.06321300  0.27765100  0.91160600  1
  C  C28  1  0.23460200  0.44817100  0.58110000  1
  C  C29  1  0.41984100  0.76376500  0.55414800  1
  C  C30  1  0.11962100  0.49601600  0.31119300  1
  C  C31  1  0.99760100  0.36977900  0.20094900  1
  C  C32  1  0.00028500  0.63182300  0.80029300  1
  C  C33  1  0.27765100  0.91160600  0.06321300  1
  C  C34  1  0.08884900  0.93866100  0.72373300  1
