# generated using pymatgen
data_CuNi7C4
_symmetry_space_group_name_H-M   'P 1'
_cell_length_a   4.62336900
_cell_length_b   5.51324700
_cell_length_c   10.09285147
_cell_angle_alpha   84.35374776
_cell_angle_beta   90.00000000
_cell_angle_gamma   90.00000000
_symmetry_Int_Tables_number   1
_chemical_formula_structural   CuNi7C4
_chemical_formula_sum   'Cu2 Ni14 C8'
_cell_volume   256.01634599
_cell_formula_units_Z   2
loop_
 _symmetry_equiv_pos_site_id
 _symmetry_equiv_pos_as_xyz
  1  'x, y, z'
loop_
 _atom_site_type_symbol
 _atom_site_label
 _atom_site_symmetry_multiplicity
 _atom_site_fract_x
 _atom_site_fract_y
 _atom_site_fract_z
 _atom_site_occupancy
  C  C0  1  0.75286400  0.24079400  0.74894400  1
  C  C1  1  0.76921100  0.76117700  0.24658600  1
  C  C2  1  0.76437300  0.49627700  0.00738300  1
  C  C3  1  0.74235600  0.00062900  0.49825700  1
  C  C4  1  0.24713600  0.24079400  0.24894400  1
  C  C5  1  0.23562700  0.49627700  0.50738300  1
  C  C6  1  0.23078900  0.76117700  0.74658600  1
  C  C7  1  0.25764400  0.00062900  0.99825700  1
  Ni  Ni8  1  0.05981700  0.23358600  0.42250600  1
  Ni  Ni9  1  0.05025400  0.47930300  0.67971000  1
  Ni  Ni10  1  0.05873500  0.73431700  0.92351700  1
  Ni  Ni11  1  0.06605400  0.97837700  0.16611900  1
  Ni  Ni12  1  0.94974600  0.47930300  0.17971000  1
  Ni  Ni13  1  0.94126500  0.73431700  0.42351700  1
  Ni  Ni14  1  0.94018300  0.23358600  0.92250600  1
  Ni  Ni15  1  0.93394600  0.97837700  0.66611900  1
  Ni  Ni16  1  0.56278400  0.76282500  0.07805600  1
  Ni  Ni17  1  0.55338400  0.26836200  0.57435500  1
  Ni  Ni18  1  0.55933800  0.02002800  0.32710100  1
  Ni  Ni19  1  0.44066200  0.02002800  0.82710100  1
  Ni  Ni20  1  0.44661600  0.26836200  0.07435500  1
  Ni  Ni21  1  0.43721600  0.76282500  0.57805600  1
  Cu  Cu22  1  0.55151100  0.52432600  0.82746500  1
  Cu  Cu23  1  0.44848900  0.52432600  0.32746500  1
