# generated using pymatgen
data_Cu9NiC25
_symmetry_space_group_name_H-M   'P 1'
_cell_length_a   5.87694826
_cell_length_b   6.05119558
_cell_length_c   24.44071306
_cell_angle_alpha   89.18143844
_cell_angle_beta   95.54409360
_cell_angle_gamma   120.15124847
_symmetry_Int_Tables_number   1
_chemical_formula_structural   Cu9NiC25
_chemical_formula_sum   'Cu18 Ni2 C50'
_cell_volume   747.46926694
_cell_formula_units_Z   2
loop_
 _symmetry_equiv_pos_site_id
 _symmetry_equiv_pos_as_xyz
  1  'x, y, z'
loop_
 _atom_site_type_symbol
 _atom_site_label
 _atom_site_symmetry_multiplicity
 _atom_site_fract_x
 _atom_site_fract_y
 _atom_site_fract_z
 _atom_site_occupancy
  C  C0  1  0.98860500  0.00078800  0.99767500  1
  C  C1  1  0.71154100  0.35397000  0.05168600  1
  C  C2  1  0.50558700  0.75784300  0.25167300  1
  C  C3  1  0.79494000  0.39458100  0.19974000  1
  C  C4  1  0.60895100  0.78845500  0.40071700  1
  C  C5  1  0.29342600  0.13538200  0.44754300  1
  C  C6  1  0.10083500  0.55646100  0.65042300  1
  C  C7  1  0.40622900  0.21242400  0.59974100  1
  C  C8  1  0.18654100  0.58990000  0.79764400  1
  C  C9  1  0.90526200  0.96035700  0.85224800  1
  Ni  Ni10  1  0.25567800  0.88215900  0.12619100  1
  Ni  Ni11  1  0.75582500  0.89595100  0.62185800  1
  Cu  Cu12  1  0.35072200  0.67629700  0.02506100  1
  Cu  Cu13  1  0.25002600  0.37663100  0.12445000  1
  Cu  Cu14  1  0.05892000  0.77081900  0.32635900  1
  Cu  Cu15  1  0.75132500  0.87814800  0.12472900  1
  Cu  Cu16  1  0.14506400  0.08064400  0.22581400  1
  Cu  Cu17  1  0.05700700  0.27199300  0.32528700  1
  Cu  Cu18  1  0.55312000  0.26844900  0.32516600  1
  Cu  Cu19  1  0.34809300  0.67228600  0.52439500  1
  Cu  Cu20  1  0.84839000  0.67014100  0.52361200  1
  Cu  Cu21  1  0.95134900  0.45095200  0.42438000  1
  Cu  Cu22  1  0.64408400  0.57235800  0.72361600  1
  Cu  Cu23  1  0.14493100  0.06899400  0.72440200  1
  Cu  Cu24  1  0.44553200  0.97968900  0.92482100  1
  Cu  Cu25  1  0.85010500  0.17536200  0.52362300  1
  Cu  Cu26  1  0.44717500  0.48071900  0.92457600  1
  Cu  Cu27  1  0.64121000  0.06860600  0.72454000  1
  Cu  Cu28  1  0.54686600  0.27522500  0.82467900  1
  Cu  Cu29  1  0.94708100  0.48306400  0.92455700  1
  C  C30  1  0.09509400  0.54842800  0.07817100  1
  C  C31  1  0.54621800  0.00090800  0.07958600  1
  C  C32  1  0.34766700  0.94266200  0.28253500  1
  C  C33  1  0.55217300  0.55495700  0.08107500  1
  C  C34  1  0.45622300  0.75349300  0.16949800  1
  C  C35  1  0.04434200  0.99603800  0.07992400  1
  C  C36  1  0.22163900  0.57867700  0.37453800  1
  C  C37  1  0.40670400  0.20638400  0.17200700  1
  C  C38  1  0.95618000  0.76035400  0.17267600  1
  C  C39  1  0.88887300  0.96090900  0.27886300  1
  C  C40  1  0.33120200  0.39687700  0.27692100  1
  C  C41  1  0.12670700  0.76671300  0.47327500  1
  C  C42  1  0.12181000  0.31749700  0.47505300  1
  C  C43  1  0.03986100  0.52312100  0.56579100  1
  C  C44  1  0.24622600  0.12771900  0.36701900  1
  C  C45  1  0.94494400  0.20114500  0.16575600  1
  C  C46  1  0.77386400  0.58867600  0.37398800  1
  C  C47  1  0.86364200  0.41479600  0.28374300  1
  C  C48  1  0.65975700  0.82562000  0.48407000  1
  C  C49  1  0.02711400  0.03798900  0.57492300  1
  C  C50  1  0.78374000  0.15090900  0.37549900  1
  C  C51  1  0.34419300  0.93951300  0.76720700  1
  C  C52  1  0.57240100  0.57351300  0.57610000  1
  C  C53  1  0.67850400  0.31150700  0.47434300  1
  C  C54  1  0.48761400  0.75255500  0.67916800  1
  C  C55  1  0.84790500  0.94471700  0.76817200  1
  C  C56  1  0.93707800  0.75479400  0.67812000  1
  C  C57  1  0.24474600  0.65775700  0.88050300  1
  C  C58  1  0.58089300  0.03167600  0.57605200  1
  C  C59  1  0.44106700  0.19705500  0.68090500  1
  C  C60  1  0.35030200  0.38852400  0.76949400  1
  C  C61  1  0.15036300  0.80260200  0.96923200  1
  C  C62  1  0.80048700  0.39005900  0.76884800  1
  C  C63  1  0.60274800  0.81284600  0.97051700  1
  C  C64  1  0.15018300  0.35547100  0.96753700  1
  C  C65  1  0.29051100  0.14786000  0.87854700  1
  C  C66  1  0.93774700  0.19363900  0.67870000  1
  C  C67  1  0.74432100  0.60932200  0.88183500  1
  C  C68  1  0.74102200  0.16026400  0.87838100  1
  C  C69  1  0.64830900  0.30272200  0.96824400  1
