# generated using pymatgen
data_Cu12NiC15
_symmetry_space_group_name_H-M   'P 1'
_cell_length_a   22.94113300
_cell_length_b   7.33744800
_cell_length_c   9.55327379
_cell_angle_alpha   81.78813695
_cell_angle_beta   90.00000000
_cell_angle_gamma   90.00000000
_symmetry_Int_Tables_number   1
_chemical_formula_structural   Cu12NiC15
_chemical_formula_sum   'Cu48 Ni4 C60'
_cell_volume   1591.60823132
_cell_formula_units_Z   4
loop_
 _symmetry_equiv_pos_site_id
 _symmetry_equiv_pos_as_xyz
  1  'x, y, z'
loop_
 _atom_site_type_symbol
 _atom_site_label
 _atom_site_symmetry_multiplicity
 _atom_site_fract_x
 _atom_site_fract_y
 _atom_site_fract_z
 _atom_site_occupancy
  C  C0  1  0.60295200  0.73476400  0.29703000  1
  C  C1  1  0.10295200  0.26523600  0.20297000  1
  C  C2  1  0.39704800  0.26523600  0.70297000  1
  C  C3  1  0.89704800  0.73476400  0.79703000  1
  C  C4  1  0.35743700  0.15865600  0.96068700  1
  C  C5  1  0.85743700  0.84134400  0.53931300  1
  C  C6  1  0.64256300  0.84134400  0.03931300  1
  C  C7  1  0.14256300  0.15865600  0.46068700  1
  C  C8  1  0.60400500  0.83777100  0.86805100  1
  C  C9  1  0.10400500  0.16222900  0.63194900  1
  C  C10  1  0.39599500  0.16222900  0.13194900  1
  C  C11  1  0.89599500  0.83777100  0.36805100  1
  C  C12  1  0.63117800  0.98177000  0.75073200  1
  C  C13  1  0.13117800  0.01823000  0.74926800  1
  C  C14  1  0.36882200  0.01823000  0.24926800  1
  C  C15  1  0.86882200  0.98177000  0.25073200  1
  C  C16  1  0.48682200  0.43476000  0.86057900  1
  C  C17  1  0.98682200  0.56524000  0.63942100  1
  C  C18  1  0.51317800  0.56524000  0.13942100  1
  C  C19  1  0.01317800  0.43476000  0.36057900  1
  C  C20  1  0.61352100  0.54587300  0.91433300  1
  C  C21  1  0.11352100  0.45412700  0.58566700  1
  C  C22  1  0.38647900  0.45412700  0.08566700  1
  C  C23  1  0.88647900  0.54587300  0.41433300  1
  C  C24  1  0.61632900  0.33437800  0.96350500  1
  C  C25  1  0.11632900  0.66562200  0.53649500  1
  C  C26  1  0.38367100  0.66562200  0.03649500  1
  C  C27  1  0.88367100  0.33437800  0.46350500  1
  C  C28  1  0.45478700  0.60874700  0.20615000  1
  C  C29  1  0.95478700  0.39125300  0.29385000  1
  C  C30  1  0.54521300  0.39125300  0.79385000  1
  C  C31  1  0.04521300  0.60874700  0.70615000  1
  C  C32  1  0.34482600  0.86076800  0.81968100  1
  C  C33  1  0.84482600  0.13923200  0.68031900  1
  C  C34  1  0.65517400  0.13923200  0.18031900  1
  C  C35  1  0.15517400  0.86076800  0.31968100  1
  C  C36  1  0.69265700  0.45585800  0.75624700  1
  C  C37  1  0.19265700  0.54414200  0.74375300  1
  C  C38  1  0.30734300  0.54414200  0.24375300  1
  C  C39  1  0.80734300  0.45585800  0.25624700  1
  C  C40  1  0.80447900  0.40290100  0.67578300  1
  C  C41  1  0.30447900  0.59709900  0.82421700  1
  C  C42  1  0.19552100  0.59709900  0.32421700  1
  C  C43  1  0.69552100  0.40290100  0.17578300  1
  C  C44  1  0.68418700  0.06854900  0.44450400  1
  C  C45  1  0.18418700  0.93145100  0.05549600  1
  C  C46  1  0.31581300  0.93145100  0.55549600  1
  C  C47  1  0.81581300  0.06854900  0.94450400  1
  C  C48  1  0.71810400  0.75966800  0.54126800  1
  C  C49  1  0.21810400  0.24033200  0.95873200  1
  C  C50  1  0.28189600  0.24033200  0.45873200  1
  C  C51  1  0.78189600  0.75966800  0.04126800  1
  C  C52  1  0.75392500  0.86095600  0.44319500  1
  C  C53  1  0.25392500  0.13904400  0.05680500  1
  C  C54  1  0.24607500  0.13904400  0.55680500  1
  C  C55  1  0.74607500  0.86095600  0.94319500  1
  C  C56  1  0.57203700  0.22536700  0.28703400  1
  C  C57  1  0.07203700  0.77463300  0.21296600  1
  C  C58  1  0.42796300  0.77463300  0.71296600  1
  C  C59  1  0.92796300  0.22536700  0.78703400  1
  Ni  Ni60  1  0.73493200  0.40998900  0.77545400  1
  Ni  Ni61  1  0.23493200  0.59001100  0.72454600  1
  Ni  Ni62  1  0.26506800  0.59001100  0.22454600  1
  Ni  Ni63  1  0.76506800  0.40998900  0.27545400  1
  Cu  Cu64  1  0.88713100  0.86121100  0.26482600  1
  Cu  Cu65  1  0.38713100  0.13878900  0.23517400  1
  Cu  Cu66  1  0.11286900  0.13878900  0.73517400  1
  Cu  Cu67  1  0.61286900  0.86121100  0.76482600  1
  Cu  Cu68  1  0.79005500  0.97251100  0.53090400  1
  Cu  Cu69  1  0.29005500  0.02748900  0.96909600  1
  Cu  Cu70  1  0.20994500  0.02748900  0.46909600  1
  Cu  Cu71  1  0.70994500  0.97251100  0.03090400  1
  Cu  Cu72  1  0.70117100  0.00279600  0.37181500  1
  Cu  Cu73  1  0.20117100  0.99720400  0.12818500  1
  Cu  Cu74  1  0.29882900  0.99720400  0.62818500  1
  Cu  Cu75  1  0.79882900  0.00279600  0.87181500  1
  Cu  Cu76  1  0.73703200  0.43972400  0.37843900  1
  Cu  Cu77  1  0.23703200  0.56027600  0.12156100  1
  Cu  Cu78  1  0.26296800  0.56027600  0.62156100  1
  Cu  Cu79  1  0.76296800  0.43972400  0.87843900  1
  Cu  Cu80  1  0.60219600  0.38123900  0.34390400  1
  Cu  Cu81  1  0.10219600  0.61876100  0.15609600  1
  Cu  Cu82  1  0.39780400  0.61876100  0.65609600  1
  Cu  Cu83  1  0.89780400  0.38123900  0.84390400  1
  Cu  Cu84  1  0.49771200  0.61325100  0.22177700  1
  Cu  Cu85  1  0.99771200  0.38674900  0.27822300  1
  Cu  Cu86  1  0.50228800  0.38674900  0.77822300  1
  Cu  Cu87  1  0.00228800  0.61325100  0.72177700  1
  Cu  Cu88  1  0.61676500  0.18899900  0.14625100  1
  Cu  Cu89  1  0.11676500  0.81100100  0.35374900  1
  Cu  Cu90  1  0.38323500  0.81100100  0.85374900  1
  Cu  Cu91  1  0.88323500  0.18899900  0.64625100  1
  Cu  Cu92  1  0.58150900  0.05099700  0.38864200  1
  Cu  Cu93  1  0.08150900  0.94900300  0.11135800  1
  Cu  Cu94  1  0.41849100  0.94900300  0.61135800  1
  Cu  Cu95  1  0.91849100  0.05099700  0.88864200  1
  Cu  Cu96  1  0.73657700  0.37223200  0.15605000  1
  Cu  Cu97  1  0.23657700  0.62776800  0.34395000  1
  Cu  Cu98  1  0.26342300  0.62776800  0.84395000  1
  Cu  Cu99  1  0.76342300  0.37223200  0.65605000  1
  Cu  Cu100  1  0.68903100  0.65923200  0.32475900  1
  Cu  Cu101  1  0.18903100  0.34076800  0.17524100  1
  Cu  Cu102  1  0.31096900  0.34076800  0.67524100  1
  Cu  Cu103  1  0.81096900  0.65923200  0.82475900  1
  Cu  Cu104  1  0.61449600  0.42703800  0.87746700  1
  Cu  Cu105  1  0.11449600  0.57296200  0.62253300  1
  Cu  Cu106  1  0.38550400  0.57296200  0.12253300  1
  Cu  Cu107  1  0.88550400  0.42703800  0.37746700  1
  Cu  Cu108  1  0.60734700  0.76314300  0.05704300  1
  Cu  Cu109  1  0.10734700  0.23685700  0.44295700  1
  Cu  Cu110  1  0.39265300  0.23685700  0.94295700  1
  Cu  Cu111  1  0.89265300  0.76314300  0.55704300  1
