# generated using pymatgen
data_Cu6NiC29
_symmetry_space_group_name_H-M   'P 1'
_cell_length_a   8.63390838
_cell_length_b   8.65474370
_cell_length_c   8.65474342
_cell_angle_alpha   59.99999809
_cell_angle_beta   59.92014024
_cell_angle_gamma   59.92014266
_symmetry_Int_Tables_number   1
_chemical_formula_structural   Cu6NiC29
_chemical_formula_sum   'Cu6 Ni1 C29'
_cell_volume   456.74685342
_cell_formula_units_Z   1
loop_
 _symmetry_equiv_pos_site_id
 _symmetry_equiv_pos_as_xyz
  1  'x, y, z'
loop_
 _atom_site_type_symbol
 _atom_site_label
 _atom_site_symmetry_multiplicity
 _atom_site_fract_x
 _atom_site_fract_y
 _atom_site_fract_z
 _atom_site_occupancy
  C  C0  1  0.01216800  0.99594400  0.99594400  1
  C  C1  1  0.49601100  0.50133000  0.50133000  1
  C  C2  1  0.06675500  0.64441500  0.64441500  1
  C  C3  1  0.43541300  0.85486200  0.85486200  1
  C  C4  1  0.93127800  0.35624000  0.35624000  1
  Ni  Ni5  1  0.56921800  0.14359400  0.14359400  1
  Cu  Cu6  1  0.24473900  0.25388600  0.54579200  1
  Cu  Cu7  1  0.24473900  0.95558400  0.25388600  1
  Cu  Cu8  1  0.24473900  0.54579200  0.95558400  1
  Cu  Cu9  1  0.74812700  0.46032500  0.04474400  1
  Cu  Cu10  1  0.74812700  0.04474400  0.74680500  1
  Cu  Cu11  1  0.74812700  0.74680500  0.46032500  1
  C  C12  1  0.07222200  0.11301800  0.31770200  1
  C  C13  1  0.07222200  0.49705800  0.11301800  1
  C  C14  1  0.07222200  0.31770200  0.49705800  1
  C  C15  1  0.23165500  0.08741100  0.73589300  1
  C  C16  1  0.43502500  0.18923500  0.38606600  1
  C  C17  1  0.26896200  0.41252100  0.55769500  1
  C  C18  1  0.23165500  0.94504100  0.08741100  1
  C  C19  1  0.26896200  0.76082200  0.41252100  1
  C  C20  1  0.56706100  0.61044400  0.00669400  1
  C  C21  1  0.26896200  0.55769500  0.76082200  1
  C  C22  1  0.76768600  0.25646100  0.06080100  1
  C  C23  1  0.56706100  0.00669400  0.81580100  1
  C  C24  1  0.43502500  0.98967400  0.18923500  1
  C  C25  1  0.23165500  0.73589300  0.94504100  1
  C  C26  1  0.73050500  0.43525800  0.24235200  1
  C  C27  1  0.43502500  0.38606600  0.98967400  1
  C  C28  1  0.73050500  0.24235200  0.59188400  1
  C  C29  1  0.76768600  0.06080100  0.91505200  1
  C  C30  1  0.73050500  0.59188400  0.43525800  1
  C  C31  1  0.56706100  0.81580100  0.61044400  1
  C  C32  1  0.76768600  0.91505200  0.25646100  1
  C  C33  1  0.93040100  0.69202100  0.49022900  1
  C  C34  1  0.93040100  0.49022900  0.88734900  1
  C  C35  1  0.93040100  0.88734900  0.69202100  1
