# generated using pymatgen
data_CuNiC
_symmetry_space_group_name_H-M   'P 1'
_cell_length_a   4.71399400
_cell_length_b   6.22460700
_cell_length_c   9.98217608
_cell_angle_alpha   72.00472579
_cell_angle_beta   90.00000000
_cell_angle_gamma   90.00000000
_symmetry_Int_Tables_number   1
_chemical_formula_structural   CuNiC
_chemical_formula_sum   'Cu8 Ni8 C8'
_cell_volume   278.57629067
_cell_formula_units_Z   8
loop_
 _symmetry_equiv_pos_site_id
 _symmetry_equiv_pos_as_xyz
  1  'x, y, z'
loop_
 _atom_site_type_symbol
 _atom_site_label
 _atom_site_symmetry_multiplicity
 _atom_site_fract_x
 _atom_site_fract_y
 _atom_site_fract_z
 _atom_site_occupancy
  C  C0  1  0.52896400  0.04903000  0.64242400  1
  C  C1  1  0.50431700  0.31604800  0.12547500  1
  C  C2  1  0.46336700  0.57641000  0.60829700  1
  C  C3  1  0.50392000  0.80637700  0.12414300  1
  C  C4  1  0.96336700  0.42359000  0.39170300  1
  C  C5  1  0.00431700  0.68395200  0.87452500  1
  C  C6  1  0.00392000  0.19362300  0.87585700  1
  C  C7  1  0.02896400  0.95097000  0.35757600  1
  Ni  Ni8  1  0.17806200  0.64455700  0.46325800  1
  Ni  Ni9  1  0.19059200  0.38683400  0.96932700  1
  Ni  Ni10  1  0.31938900  0.01250400  0.21377500  1
  Ni  Ni11  1  0.31106600  0.76499100  0.71947600  1
  Ni  Ni12  1  0.67806200  0.35544300  0.53674200  1
  Ni  Ni13  1  0.69059200  0.61316600  0.03067300  1
  Ni  Ni14  1  0.81938900  0.98749600  0.78622500  1
  Ni  Ni15  1  0.81106600  0.23500900  0.28052400  1
  Cu  Cu16  1  0.20877200  0.13417400  0.47942500  1
  Cu  Cu17  1  0.20522800  0.88971100  0.97611500  1
  Cu  Cu18  1  0.29468700  0.26370700  0.72577700  1
  Cu  Cu19  1  0.29163600  0.51224600  0.22962600  1
  Cu  Cu20  1  0.70522800  0.11028900  0.02388500  1
  Cu  Cu21  1  0.70877200  0.86582600  0.52057500  1
  Cu  Cu22  1  0.79468700  0.73629300  0.27422300  1
  Cu  Cu23  1  0.79163600  0.48775400  0.77037400  1
