# generated using pymatgen
data_Cu7NiC4
_symmetry_space_group_name_H-M   'P 1'
_cell_length_a   7.52310467
_cell_length_b   7.52310467
_cell_length_c   6.89984200
_cell_angle_alpha   90.00000000
_cell_angle_beta   90.00000000
_cell_angle_gamma   129.77602413
_symmetry_Int_Tables_number   1
_chemical_formula_structural   Cu7NiC4
_chemical_formula_sum   'Cu14 Ni2 C8'
_cell_volume   300.12779985
_cell_formula_units_Z   2
loop_
 _symmetry_equiv_pos_site_id
 _symmetry_equiv_pos_as_xyz
  1  'x, y, z'
loop_
 _atom_site_type_symbol
 _atom_site_label
 _atom_site_symmetry_multiplicity
 _atom_site_fract_x
 _atom_site_fract_y
 _atom_site_fract_z
 _atom_site_occupancy
  C  C0  1  0.52504000  0.01470200  0.00000000  1
  C  C1  1  0.98529800  0.47496000  0.00000000  1
  C  C2  1  0.74741600  0.25258400  0.50000000  1
  C  C3  1  0.24530000  0.75470000  0.50000000  1
  C  C4  1  0.49654700  0.50345300  0.00000000  1
  C  C5  1  0.99513600  0.00486400  0.00000000  1
  C  C6  1  0.73437900  0.72266900  0.50000000  1
  C  C7  1  0.27733100  0.26562100  0.50000000  1
  Ni  Ni8  1  0.84858000  0.15142000  0.00000000  1
  Ni  Ni9  1  0.60014900  0.39985100  0.50000000  1
  Cu  Cu10  1  0.34692600  0.65307400  0.00000000  1
  Cu  Cu11  1  0.49513100  0.99456900  0.29328300  1
  Cu  Cu12  1  0.00543100  0.50486900  0.29328300  1
  Cu  Cu13  1  0.49513100  0.99456900  0.70671700  1
  Cu  Cu14  1  0.74693800  0.74670600  0.20644000  1
  Cu  Cu15  1  0.25329400  0.25306200  0.20644000  1
  Cu  Cu16  1  0.00543100  0.50486900  0.70671700  1
  Cu  Cu17  1  0.64564200  0.35435800  0.00000000  1
  Cu  Cu18  1  0.15432900  0.84567100  0.00000000  1
  Cu  Cu19  1  0.39531000  0.60469000  0.50000000  1
  Cu  Cu20  1  0.90514600  0.09485400  0.50000000  1
  Cu  Cu21  1  0.09587900  0.90412100  0.50000000  1
  Cu  Cu22  1  0.74693800  0.74670600  0.79356000  1
  Cu  Cu23  1  0.25329400  0.25306200  0.79356000  1
