# generated using pymatgen
data_CuNi3C
_symmetry_space_group_name_H-M   'P 1'
_cell_length_a   8.58380800
_cell_length_b   8.58380800
_cell_length_c   8.58380800
_cell_angle_alpha   90.00000000
_cell_angle_beta   90.00000000
_cell_angle_gamma   90.00000000
_symmetry_Int_Tables_number   1
_chemical_formula_structural   CuNi3C
_chemical_formula_sum   'Cu8 Ni24 C8'
_cell_volume   632.47007906
_cell_formula_units_Z   8
loop_
 _symmetry_equiv_pos_site_id
 _symmetry_equiv_pos_as_xyz
  1  'x, y, z'
loop_
 _atom_site_type_symbol
 _atom_site_label
 _atom_site_symmetry_multiplicity
 _atom_site_fract_x
 _atom_site_fract_y
 _atom_site_fract_z
 _atom_site_occupancy
  Ni  Ni0  1  0.16391500  0.17963100  0.72174000  1
  Ni  Ni1  1  0.16391500  0.32036900  0.22174000  1
  Ni  Ni2  1  0.17963100  0.72174000  0.16391500  1
  Ni  Ni3  1  0.17963100  0.77826000  0.66391500  1
  Ni  Ni4  1  0.22174000  0.16391500  0.32036900  1
  Ni  Ni5  1  0.22174000  0.33608500  0.82036900  1
  Ni  Ni6  1  0.27826000  0.66391500  0.32036900  1
  Ni  Ni7  1  0.27826000  0.83608500  0.82036900  1
  Ni  Ni8  1  0.32036900  0.22174000  0.16391500  1
  Ni  Ni9  1  0.32036900  0.27826000  0.66391500  1
  Ni  Ni10  1  0.33608500  0.82036900  0.22174000  1
  Ni  Ni11  1  0.33608500  0.67963100  0.72174000  1
  Ni  Ni12  1  0.66391500  0.17963100  0.77826000  1
  Ni  Ni13  1  0.66391500  0.32036900  0.27826000  1
  Ni  Ni14  1  0.67963100  0.72174000  0.33608500  1
  Ni  Ni15  1  0.67963100  0.77826000  0.83608500  1
  Ni  Ni16  1  0.72174000  0.16391500  0.17963100  1
  Ni  Ni17  1  0.72174000  0.33608500  0.67963100  1
  Ni  Ni18  1  0.77826000  0.66391500  0.17963100  1
  Ni  Ni19  1  0.77826000  0.83608500  0.67963100  1
  Ni  Ni20  1  0.82036900  0.22174000  0.33608500  1
  Ni  Ni21  1  0.82036900  0.27826000  0.83608500  1
  Ni  Ni22  1  0.83608500  0.67963100  0.77826000  1
  Ni  Ni23  1  0.83608500  0.82036900  0.27826000  1
  Cu  Cu24  1  0.24091400  0.75908600  0.25908600  1
  Cu  Cu25  1  0.24091400  0.74091400  0.75908600  1
  Cu  Cu26  1  0.25908600  0.25908600  0.25908600  1
  Cu  Cu27  1  0.25908600  0.24091400  0.75908600  1
  Cu  Cu28  1  0.74091400  0.74091400  0.74091400  1
  Cu  Cu29  1  0.74091400  0.75908600  0.24091400  1
  Cu  Cu30  1  0.75908600  0.24091400  0.74091400  1
  Cu  Cu31  1  0.75908600  0.25908600  0.24091400  1
  C  C32  1  0.07530600  0.92469400  0.42469400  1
  C  C33  1  0.07530600  0.57530600  0.92469400  1
  C  C34  1  0.42469400  0.07530600  0.92469400  1
  C  C35  1  0.42469400  0.42469400  0.42469400  1
  C  C36  1  0.57530600  0.57530600  0.57530600  1
  C  C37  1  0.57530600  0.92469400  0.07530600  1
  C  C38  1  0.92469400  0.07530600  0.57530600  1
  C  C39  1  0.92469400  0.42469400  0.07530600  1
