# generated using pymatgen
data_CuNi2C5
_symmetry_space_group_name_H-M   'P 1'
_cell_length_a   4.81478900
_cell_length_b   8.89514900
_cell_length_c   14.02434316
_cell_angle_alpha   59.37771530
_cell_angle_beta   90.00000000
_cell_angle_gamma   90.00000000
_symmetry_Int_Tables_number   1
_chemical_formula_structural   CuNi2C5
_chemical_formula_sum   'Cu4 Ni8 C20'
_cell_volume   516.87566390
_cell_formula_units_Z   4
loop_
 _symmetry_equiv_pos_site_id
 _symmetry_equiv_pos_as_xyz
  1  'x, y, z'
loop_
 _atom_site_type_symbol
 _atom_site_label
 _atom_site_symmetry_multiplicity
 _atom_site_fract_x
 _atom_site_fract_y
 _atom_site_fract_z
 _atom_site_occupancy
  Ni  Ni0  1  0.08693600  0.30292300  0.84888700  1
  Ni  Ni1  1  0.14074800  0.71697400  0.33951700  1
  Ni  Ni2  1  0.58693600  0.69707700  0.65111300  1
  Ni  Ni3  1  0.35925200  0.71697400  0.83951700  1
  Ni  Ni4  1  0.64074800  0.28302600  0.16048300  1
  Ni  Ni5  1  0.41306400  0.30292300  0.34888700  1
  Ni  Ni6  1  0.85925200  0.28302600  0.66048300  1
  Ni  Ni7  1  0.91306400  0.69707700  0.15111300  1
  Cu  Cu8  1  0.19628000  0.91829700  0.14675900  1
  Cu  Cu9  1  0.69628000  0.08170300  0.35324100  1
  Cu  Cu10  1  0.30372000  0.91829700  0.64675900  1
  Cu  Cu11  1  0.80372000  0.08170300  0.85324100  1
  C  C12  1  0.10177400  0.80194700  0.20100400  1
  C  C13  1  0.39822600  0.80194700  0.70100400  1
  C  C14  1  0.60177400  0.19805300  0.29899600  1
  C  C15  1  0.89822600  0.19805300  0.79899600  1
  C  C16  1  0.25048200  0.13695500  0.94703200  1
  C  C17  1  0.47483500  0.73815800  0.34257000  1
  C  C18  1  0.86054900  0.31483600  0.93001900  1
  C  C19  1  0.36054900  0.68516400  0.56998100  1
  C  C20  1  0.06931600  0.88949800  0.34566700  1
  C  C21  1  0.56931600  0.11050200  0.15433300  1
  C  C22  1  0.75048200  0.86304500  0.55296800  1
  C  C23  1  0.97483500  0.26184200  0.15743000  1
  C  C24  1  0.02516500  0.73815800  0.84257000  1
  C  C25  1  0.24951800  0.13695500  0.44703200  1
  C  C26  1  0.43068400  0.88949800  0.84566700  1
  C  C27  1  0.93068400  0.11050200  0.65433300  1
  C  C28  1  0.63945100  0.31483600  0.43001900  1
  C  C29  1  0.13945100  0.68516400  0.06998100  1
  C  C30  1  0.52516500  0.26184200  0.65743000  1
  C  C31  1  0.74951800  0.86304500  0.05296800  1
