# generated using pymatgen
data_Cu2NiC4
_symmetry_space_group_name_H-M   'P 1'
_cell_length_a   3.33597000
_cell_length_b   10.54470300
_cell_length_c   10.70013800
_cell_angle_alpha   90.00000000
_cell_angle_beta   90.00000000
_cell_angle_gamma   90.00000000
_symmetry_Int_Tables_number   1
_chemical_formula_structural   Cu2NiC4
_chemical_formula_sum   'Cu8 Ni4 C16'
_cell_volume   376.39675208
_cell_formula_units_Z   4
loop_
 _symmetry_equiv_pos_site_id
 _symmetry_equiv_pos_as_xyz
  1  'x, y, z'
loop_
 _atom_site_type_symbol
 _atom_site_label
 _atom_site_symmetry_multiplicity
 _atom_site_fract_x
 _atom_site_fract_y
 _atom_site_fract_z
 _atom_site_occupancy
  Ni  Ni0  1  0.75000000  0.13148400  0.58402400  1
  Ni  Ni1  1  0.25000000  0.36851600  0.08402400  1
  Ni  Ni2  1  0.75000000  0.63148400  0.91597600  1
  Ni  Ni3  1  0.25000000  0.86851600  0.41597600  1
  Cu  Cu4  1  0.75000000  0.13777200  0.28474100  1
  Cu  Cu5  1  0.75000000  0.11223000  0.91782500  1
  Cu  Cu6  1  0.25000000  0.38777000  0.41782500  1
  Cu  Cu7  1  0.25000000  0.36222800  0.78474100  1
  Cu  Cu8  1  0.75000000  0.63777200  0.21525900  1
  Cu  Cu9  1  0.75000000  0.61223000  0.58217500  1
  Cu  Cu10  1  0.25000000  0.88777000  0.08217500  1
  Cu  Cu11  1  0.25000000  0.86222800  0.71525900  1
  C  C12  1  0.75000000  0.02374100  0.11246200  1
  C  C13  1  0.75000000  0.95961800  0.62623200  1
  C  C14  1  0.25000000  0.27244900  0.24240400  1
  C  C15  1  0.75000000  0.25994800  0.45994900  1
  C  C16  1  0.25000000  0.24005200  0.95994900  1
  C  C17  1  0.75000000  0.22755100  0.74240400  1
  C  C18  1  0.25000000  0.54038200  0.12623200  1
  C  C19  1  0.25000000  0.47625900  0.61246200  1
  C  C20  1  0.75000000  0.52374100  0.38753800  1
  C  C21  1  0.75000000  0.45961800  0.87376800  1
  C  C22  1  0.25000000  0.77244900  0.25759600  1
  C  C23  1  0.75000000  0.75994800  0.04005100  1
  C  C24  1  0.25000000  0.74005200  0.54005100  1
  C  C25  1  0.75000000  0.72755100  0.75759600  1
  C  C26  1  0.25000000  0.04038200  0.37376800  1
  C  C27  1  0.25000000  0.97625900  0.88753800  1
