# generated using pymatgen
data_Cu7NiC3
_symmetry_space_group_name_H-M   'P 1'
_cell_length_a   6.43428200
_cell_length_b   5.29649800
_cell_length_c   9.06159994
_cell_angle_alpha   87.65369238
_cell_angle_beta   90.00000000
_cell_angle_gamma   90.00000000
_symmetry_Int_Tables_number   1
_chemical_formula_structural   Cu7NiC3
_chemical_formula_sum   'Cu14 Ni2 C6'
_cell_volume   308.55283267
_cell_formula_units_Z   2
loop_
 _symmetry_equiv_pos_site_id
 _symmetry_equiv_pos_as_xyz
  1  'x, y, z'
loop_
 _atom_site_type_symbol
 _atom_site_label
 _atom_site_symmetry_multiplicity
 _atom_site_fract_x
 _atom_site_fract_y
 _atom_site_fract_z
 _atom_site_occupancy
  C  C0  1  0.51488800  0.76164000  0.77894900  1
  C  C1  1  0.01488800  0.23836000  0.22105100  1
  C  C2  1  0.24059700  0.22054700  0.65982900  1
  C  C3  1  0.74059700  0.77945300  0.34017100  1
  Ni  Ni4  1  0.25771300  0.27580100  0.92175700  1
  Ni  Ni5  1  0.75771300  0.72419900  0.07824300  1
  C  C6  1  0.74528700  0.27672900  0.57183000  1
  C  C7  1  0.24528700  0.72327100  0.42817000  1
  Cu  Cu8  1  0.75683900  0.69323600  0.94465800  1
  Cu  Cu9  1  0.25507800  0.05337800  0.85785700  1
  Cu  Cu10  1  0.25877700  0.46303200  0.81723500  1
  Cu  Cu11  1  0.92576400  0.21723900  0.66719300  1
  Cu  Cu12  1  0.56025500  0.19729400  0.66062600  1
  Cu  Cu13  1  0.25453600  0.86119100  0.56735600  1
  Cu  Cu14  1  0.73241600  0.55453300  0.53558200  1
  Cu  Cu15  1  0.23241600  0.44546700  0.46441800  1
  Cu  Cu16  1  0.75453600  0.13880900  0.43264400  1
  Cu  Cu17  1  0.06025500  0.80270600  0.33937400  1
  Cu  Cu18  1  0.42576400  0.78276100  0.33280700  1
  Cu  Cu19  1  0.75877700  0.53696800  0.18276500  1
  Cu  Cu20  1  0.75507800  0.94662200  0.14214300  1
  Cu  Cu21  1  0.25683900  0.30676400  0.05534200  1
