# generated using pymatgen
data_Cu2Ni4C7
_symmetry_space_group_name_H-M   'P 1'
_cell_length_a   11.26686400
_cell_length_b   7.58007700
_cell_length_c   18.97922593
_cell_angle_alpha   87.17524510
_cell_angle_beta   90.00000000
_cell_angle_gamma   90.00000000
_symmetry_Int_Tables_number   1
_chemical_formula_structural   Cu2Ni4C7
_chemical_formula_sum   'Cu12 Ni24 C42'
_cell_volume   1618.92656566
_cell_formula_units_Z   6
loop_
 _symmetry_equiv_pos_site_id
 _symmetry_equiv_pos_as_xyz
  1  'x, y, z'
loop_
 _atom_site_type_symbol
 _atom_site_label
 _atom_site_symmetry_multiplicity
 _atom_site_fract_x
 _atom_site_fract_y
 _atom_site_fract_z
 _atom_site_occupancy
  Ni  Ni0  1  0.60450700  0.15157800  0.09268300  1
  Ni  Ni1  1  0.24957800  0.08316000  0.08758800  1
  Ni  Ni2  1  0.89549300  0.65157800  0.09268300  1
  Ni  Ni3  1  0.25042200  0.58316000  0.08758800  1
  Ni  Ni4  1  0.06942300  0.32810000  0.24990000  1
  Ni  Ni5  1  0.72419400  0.46961300  0.25802600  1
  Ni  Ni6  1  0.43057700  0.82810000  0.24990000  1
  Ni  Ni7  1  0.77580600  0.96961300  0.25802600  1
  Ni  Ni8  1  0.21729200  0.98980800  0.41545200  1
  Ni  Ni9  1  0.56864700  0.17483000  0.41989200  1
  Ni  Ni10  1  0.28270800  0.48980800  0.41545200  1
  Ni  Ni11  1  0.93135300  0.67483000  0.41989200  1
  Ni  Ni12  1  0.06864700  0.32517000  0.58010800  1
  Ni  Ni13  1  0.71729200  0.51019200  0.58454800  1
  Ni  Ni14  1  0.43135300  0.82517000  0.58010800  1
  Ni  Ni15  1  0.78270800  0.01019200  0.58454800  1
  Ni  Ni16  1  0.22419400  0.03038700  0.74197400  1
  Ni  Ni17  1  0.56942300  0.17190000  0.75010000  1
  Ni  Ni18  1  0.27580600  0.53038700  0.74197400  1
  Ni  Ni19  1  0.93057700  0.67190000  0.75010000  1
  Ni  Ni20  1  0.74957800  0.41684000  0.91241200  1
  Ni  Ni21  1  0.10450700  0.34842200  0.90731700  1
  Ni  Ni22  1  0.75042200  0.91684000  0.91241200  1
  Ni  Ni23  1  0.39549300  0.84842200  0.90731700  1
  Cu  Cu24  1  0.92947500  0.17245900  0.08670500  1
  Cu  Cu25  1  0.57052500  0.67245900  0.08670500  1
  Cu  Cu26  1  0.42525500  0.31815600  0.24065600  1
  Cu  Cu27  1  0.07474500  0.81815600  0.24065600  1
  Cu  Cu28  1  0.92300200  0.18144800  0.41716300  1
  Cu  Cu29  1  0.57699800  0.68144800  0.41716300  1
  Cu  Cu30  1  0.42300200  0.31855200  0.58283700  1
  Cu  Cu31  1  0.07699800  0.81855200  0.58283700  1
  Cu  Cu32  1  0.92525500  0.18184400  0.75934400  1
  Cu  Cu33  1  0.57474500  0.68184400  0.75934400  1
  Cu  Cu34  1  0.42947500  0.32754100  0.91329500  1
  Cu  Cu35  1  0.07052500  0.82754100  0.91329500  1
  C  C36  1  0.81183600  0.15042300  0.99901500  1
  C  C37  1  0.68816400  0.65042300  0.99901500  1
  C  C38  1  0.05911800  0.37999400  0.08285300  1
  C  C39  1  0.44088200  0.87999400  0.08285300  1
  C  C40  1  0.80453400  0.26457900  0.15806500  1
  C  C41  1  0.48064400  0.44609100  0.14048500  1
  C  C42  1  0.69546600  0.76457900  0.15806500  1
  C  C43  1  0.01935600  0.94609100  0.14048500  1
  C  C44  1  0.27086200  0.14366600  0.23440900  1
  C  C45  1  0.55414900  0.11736400  0.23363400  1
  C  C46  1  0.22913800  0.64366600  0.23440900  1
  C  C47  1  0.94585100  0.61736400  0.23363400  1
  C  C48  1  0.49087100  0.46369200  0.33228200  1
  C  C49  1  0.76788500  0.21183100  0.35104100  1
  C  C50  1  0.00912900  0.96369200  0.33228200  1
  C  C51  1  0.73211500  0.71183100  0.35104100  1
  C  C52  1  0.06166100  0.37092000  0.38881600  1
  C  C53  1  0.43833900  0.87092000  0.38881600  1
  C  C54  1  0.33280200  0.19602800  0.49199000  1
  C  C55  1  0.83280200  0.30397200  0.50801000  1
  C  C56  1  0.50000000  0.50000000  0.50000000  1
  C  C57  1  0.16719800  0.69602800  0.49199000  1
  C  C58  1  0.66719800  0.80397200  0.50801000  1
  C  C59  1  0.00000000  0.00000000  0.50000000  1
  C  C60  1  0.56166100  0.12908000  0.61118400  1
  C  C61  1  0.93833900  0.62908000  0.61118400  1
  C  C62  1  0.26788500  0.28816900  0.64895900  1
  C  C63  1  0.99087100  0.03630800  0.66771800  1
  C  C64  1  0.23211500  0.78816900  0.64895900  1
  C  C65  1  0.50912900  0.53630800  0.66771800  1
  C  C66  1  0.05414900  0.38263600  0.76636600  1
  C  C67  1  0.77086200  0.35633400  0.76559100  1
  C  C68  1  0.44585100  0.88263600  0.76636600  1
  C  C69  1  0.72913800  0.85633400  0.76559100  1
  C  C70  1  0.98064400  0.05390900  0.85951500  1
  C  C71  1  0.30453400  0.23542100  0.84193500  1
  C  C72  1  0.51935600  0.55390900  0.85951500  1
  C  C73  1  0.19546600  0.73542100  0.84193500  1
  C  C74  1  0.55911800  0.12000600  0.91714700  1
  C  C75  1  0.94088200  0.62000600  0.91714700  1
  C  C76  1  0.31183600  0.34957700  0.00098500  1
  C  C77  1  0.18816400  0.84957700  0.00098500  1
