# generated using pymatgen
data_Cu10Ni34C35
_symmetry_space_group_name_H-M   'P 1'
_cell_length_a   13.51721595
_cell_length_b   13.51721595
_cell_length_c   13.51721577
_cell_angle_alpha   40.88008405
_cell_angle_beta   40.88008405
_cell_angle_gamma   40.88008659
_symmetry_Int_Tables_number   1
_chemical_formula_structural   Cu10Ni34C35
_chemical_formula_sum   'Cu10 Ni34 C35'
_cell_volume   954.84131180
_cell_formula_units_Z   1
loop_
 _symmetry_equiv_pos_site_id
 _symmetry_equiv_pos_as_xyz
  1  'x, y, z'
loop_
 _atom_site_type_symbol
 _atom_site_label
 _atom_site_symmetry_multiplicity
 _atom_site_fract_x
 _atom_site_fract_y
 _atom_site_fract_z
 _atom_site_occupancy
  C  C0  1  0.00000000  0.00000000  0.00000000  1
  C  C1  1  0.41984200  0.70369600  0.83716800  1
  C  C2  1  0.83716800  0.41984200  0.70369600  1
  C  C3  1  0.70369600  0.83716800  0.41984200  1
  C  C4  1  0.58015800  0.29630400  0.16283200  1
  C  C5  1  0.16283200  0.58015800  0.29630400  1
  C  C6  1  0.29630400  0.16283200  0.58015800  1
  C  C7  1  0.37097900  0.80083700  0.54305200  1
  C  C8  1  0.54305200  0.37097900  0.80083700  1
  C  C9  1  0.80083700  0.54305200  0.37097900  1
  C  C10  1  0.62902100  0.19916300  0.45694800  1
  C  C11  1  0.45694800  0.62902100  0.19916300  1
  C  C12  1  0.19916300  0.45694800  0.62902100  1
  C  C13  1  0.88321400  0.88321400  0.88321400  1
  C  C14  1  0.11678600  0.11678600  0.11678600  1
  C  C15  1  0.14268200  0.62661200  0.01273000  1
  C  C16  1  0.01273000  0.14268200  0.62661200  1
  C  C17  1  0.62661200  0.01273000  0.14268200  1
  C  C18  1  0.85731800  0.37338800  0.98727000  1
  C  C19  1  0.98727000  0.85731800  0.37338800  1
  C  C20  1  0.37338800  0.98727000  0.85731800  1
  C  C21  1  0.26838700  0.26838700  0.26838700  1
  C  C22  1  0.73161300  0.73161300  0.73161300  1
  C  C23  1  0.23484300  0.80131000  0.45523000  1
  C  C24  1  0.45523000  0.23484300  0.80131000  1
  C  C25  1  0.80131000  0.45523000  0.23484300  1
  C  C26  1  0.76515700  0.19869000  0.54477000  1
  C  C27  1  0.54477000  0.76515700  0.19869000  1
  C  C28  1  0.19869000  0.54477000  0.76515700  1
  C  C29  1  0.23928100  0.98040900  0.30238900  1
  C  C30  1  0.30238900  0.23928100  0.98040900  1
  C  C31  1  0.98040900  0.30238900  0.23928100  1
  C  C32  1  0.76071900  0.01959100  0.69761100  1
  C  C33  1  0.69761100  0.76071900  0.01959100  1
  C  C34  1  0.01959100  0.69761100  0.76071900  1
  Ni  Ni35  1  0.84013000  0.84013000  0.84013000  1
  Ni  Ni36  1  0.15987000  0.15987000  0.15987000  1
  Ni  Ni37  1  0.02596500  0.95850200  0.71729500  1
  Ni  Ni38  1  0.71729500  0.02596500  0.95850200  1
  Ni  Ni39  1  0.95850200  0.71729500  0.02596500  1
  Ni  Ni40  1  0.97403500  0.04149800  0.28270500  1
  Ni  Ni41  1  0.28270500  0.97403500  0.04149800  1
  Ni  Ni42  1  0.04149800  0.28270500  0.97403500  1
  Ni  Ni43  1  0.17282900  0.14449400  0.43887000  1
  Ni  Ni44  1  0.43887000  0.17282900  0.14449400  1
  Ni  Ni45  1  0.14449400  0.43887000  0.17282900  1
  Ni  Ni46  1  0.82717100  0.85550600  0.56113000  1
  Ni  Ni47  1  0.56113000  0.82717100  0.85550600  1
  Ni  Ni48  1  0.85550600  0.56113000  0.82717100  1
  Ni  Ni49  1  0.30013500  0.61558200  0.83663600  1
  Ni  Ni50  1  0.83663600  0.30013500  0.61558200  1
  Ni  Ni51  1  0.61558200  0.83663600  0.30013500  1
  Ni  Ni52  1  0.69986500  0.38441800  0.16336400  1
  Ni  Ni53  1  0.16336400  0.69986500  0.38441800  1
  Ni  Ni54  1  0.38441800  0.16336400  0.69986500  1
  Ni  Ni55  1  0.31185800  0.31185800  0.31185800  1
  Ni  Ni56  1  0.68814200  0.68814200  0.68814200  1
  Ni  Ni57  1  0.04671000  0.14322100  0.71886800  1
  Ni  Ni58  1  0.71886800  0.04671000  0.14322100  1
  Ni  Ni59  1  0.14322100  0.71886800  0.04671000  1
  Ni  Ni60  1  0.95329000  0.85677900  0.28113200  1
  Ni  Ni61  1  0.28113200  0.95329000  0.85677900  1
  Ni  Ni62  1  0.85677900  0.28113200  0.95329000  1
  Ni  Ni63  1  0.29777600  0.86573300  0.37658100  1
  Ni  Ni64  1  0.37658100  0.29777600  0.86573300  1
  Ni  Ni65  1  0.86573300  0.37658100  0.29777600  1
  Ni  Ni66  1  0.70222400  0.13426700  0.62341900  1
  Ni  Ni67  1  0.62341900  0.70222400  0.13426700  1
  Ni  Ni68  1  0.13426700  0.62341900  0.70222400  1
  Cu  Cu69  1  0.40749200  0.92279500  0.57819800  1
  Cu  Cu70  1  0.57819800  0.40749200  0.92279500  1
  Cu  Cu71  1  0.92279500  0.57819800  0.40749200  1
  Cu  Cu72  1  0.59250800  0.07720500  0.42180200  1
  Cu  Cu73  1  0.42180200  0.59250800  0.07720500  1
  Cu  Cu74  1  0.07720500  0.42180200  0.59250800  1
  Cu  Cu75  1  0.61463900  0.61463900  0.61463900  1
  Cu  Cu76  1  0.38536100  0.38536100  0.38536100  1
  Cu  Cu77  1  0.54368300  0.54368300  0.54368300  1
  Cu  Cu78  1  0.45631700  0.45631700  0.45631700  1
