# generated using pymatgen
data_Cu3Ni3C22
_symmetry_space_group_name_H-M   'P 1'
_cell_length_a   6.01696765
_cell_length_b   6.01696765
_cell_length_c   9.82577389
_cell_angle_alpha   89.47628110
_cell_angle_beta   89.47628110
_cell_angle_gamma   59.92445729
_symmetry_Int_Tables_number   1
_chemical_formula_structural   Cu3Ni3C22
_chemical_formula_sum   'Cu3 Ni3 C22'
_cell_volume   307.82045856
_cell_formula_units_Z   1
loop_
 _symmetry_equiv_pos_site_id
 _symmetry_equiv_pos_as_xyz
  1  'x, y, z'
loop_
 _atom_site_type_symbol
 _atom_site_label
 _atom_site_symmetry_multiplicity
 _atom_site_fract_x
 _atom_site_fract_y
 _atom_site_fract_z
 _atom_site_occupancy
  C  C0  1  0.66600900  0.66600900  0.09177900  1
  C  C1  1  0.00046900  0.00046900  0.01049000  1
  C  C2  1  0.00112900  0.00112900  0.50955800  1
  C  C3  1  0.33280500  0.33280500  0.59475800  1
  Ni  Ni4  1  0.33977900  0.83095700  0.78658200  1
  Ni  Ni5  1  0.83095700  0.33977900  0.78658200  1
  Ni  Ni6  1  0.17119700  0.17119700  0.28629200  1
  Cu  Cu7  1  0.83202300  0.83202300  0.78589800  1
  Cu  Cu8  1  0.17056000  0.66276400  0.28574900  1
  Cu  Cu9  1  0.66276400  0.17056000  0.28574900  1
  C  C10  1  0.66755000  0.66755000  0.51450600  1
  C  C11  1  0.33381000  0.33381000  0.01284600  1
  C  C12  1  0.32441800  0.83733200  0.40255600  1
  C  C13  1  0.51650300  0.51650300  0.66482300  1
  C  C14  1  0.66825800  0.66825800  0.88984900  1
  C  C15  1  0.99966800  0.99966800  0.69349300  1
  C  C16  1  0.00079400  0.00079400  0.19471400  1
  C  C17  1  0.83733200  0.32441800  0.40255600  1
  C  C18  1  0.51429900  0.96466200  0.65807900  1
  C  C19  1  0.96466200  0.51429900  0.65807900  1
  C  C20  1  0.15863700  0.15863700  0.90190900  1
  C  C21  1  0.83692500  0.83692500  0.40612900  1
  C  C22  1  0.03466400  0.48047800  0.15869200  1
  C  C23  1  0.48047800  0.03466400  0.15869200  1
  C  C24  1  0.33514800  0.33514800  0.39061000  1
  C  C25  1  0.15992200  0.67778000  0.90447800  1
  C  C26  1  0.48127800  0.48127800  0.15226700  1
  C  C27  1  0.67778000  0.15992200  0.90447800  1
