# generated using pymatgen
data_Cu(NiC4)3
_symmetry_space_group_name_H-M   'P 1'
_cell_length_a   6.00948516
_cell_length_b   6.00948516
_cell_length_c   6.00948489
_cell_angle_alpha   60.53831348
_cell_angle_beta   60.53831348
_cell_angle_gamma   60.53831916
_symmetry_Int_Tables_number   1
_chemical_formula_structural   Cu(NiC4)3
_chemical_formula_sum   'Cu1 Ni3 C12'
_cell_volume   155.32707542
_cell_formula_units_Z   1
loop_
 _symmetry_equiv_pos_site_id
 _symmetry_equiv_pos_as_xyz
  1  'x, y, z'
loop_
 _atom_site_type_symbol
 _atom_site_label
 _atom_site_symmetry_multiplicity
 _atom_site_fract_x
 _atom_site_fract_y
 _atom_site_fract_z
 _atom_site_occupancy
  C  C0  1  0.50000000  0.50000000  0.50000000  1
  C  C1  1  0.00000000  0.00000000  0.50000000  1
  C  C2  1  0.00000000  0.50000000  0.00000000  1
  C  C3  1  0.50000000  0.00000000  0.00000000  1
  Ni  Ni4  1  0.50000000  0.50000000  0.00000000  1
  Ni  Ni5  1  0.50000000  0.00000000  0.50000000  1
  Ni  Ni6  1  0.00000000  0.50000000  0.50000000  1
  Cu  Cu7  1  0.00000000  0.00000000  0.00000000  1
  C  C8  1  0.73852500  0.73852500  0.73852500  1
  C  C9  1  0.23130600  0.23130600  0.77472100  1
  C  C10  1  0.23130600  0.77472100  0.23130600  1
  C  C11  1  0.26147500  0.26147500  0.26147500  1
  C  C12  1  0.77472100  0.23130600  0.23130600  1
  C  C13  1  0.76869400  0.76869400  0.22527900  1
  C  C14  1  0.76869400  0.22527900  0.76869400  1
  C  C15  1  0.22527900  0.76869400  0.76869400  1
