# generated using pymatgen
data_Cu2Ni3C19
_symmetry_space_group_name_H-M   'P 1'
_cell_length_a   5.72445584
_cell_length_b   5.72445584
_cell_length_c   9.42607332
_cell_angle_alpha   89.09105801
_cell_angle_beta   89.09105801
_cell_angle_gamma   60.17720873
_symmetry_Int_Tables_number   1
_chemical_formula_structural   Cu2Ni3C19
_chemical_formula_sum   'Cu2 Ni3 C19'
_cell_volume   267.93509622
_cell_formula_units_Z   1
loop_
 _symmetry_equiv_pos_site_id
 _symmetry_equiv_pos_as_xyz
  1  'x, y, z'
loop_
 _atom_site_type_symbol
 _atom_site_label
 _atom_site_symmetry_multiplicity
 _atom_site_fract_x
 _atom_site_fract_y
 _atom_site_fract_z
 _atom_site_occupancy
  C  C0  1  0.16741200  0.16741200  0.21540500  1
  C  C1  1  0.33514200  0.83207000  0.71484500  1
  C  C2  1  0.83207000  0.33514200  0.71484500  1
  Ni  Ni3  1  0.16717500  0.66494200  0.21148000  1
  Ni  Ni4  1  0.66494200  0.16717500  0.21148000  1
  Ni  Ni5  1  0.83266400  0.83266400  0.71055100  1
  Cu  Cu6  1  0.33426400  0.33426400  0.48999800  1
  Cu  Cu7  1  0.66783600  0.66783600  0.99221500  1
  C  C8  1  0.15570400  0.68221000  0.60690500  1
  C  C9  1  0.48260900  0.48260900  0.32191000  1
  C  C10  1  0.33485800  0.33485800  0.10959200  1
  C  C11  1  0.99715500  0.99715500  0.31383000  1
  C  C12  1  0.99751700  0.99751700  0.81461000  1
  C  C13  1  0.68221000  0.15570400  0.60690500  1
  C  C14  1  0.03277300  0.48765300  0.32853200  1
  C  C15  1  0.48765300  0.03277300  0.32853200  1
  C  C16  1  0.84237500  0.84237500  0.11153300  1
  C  C17  1  0.15855600  0.15855600  0.60353900  1
  C  C18  1  0.52141700  0.96720300  0.82737300  1
  C  C19  1  0.96720300  0.52141700  0.82737300  1
  C  C20  1  0.66740900  0.66740900  0.60898300  1
  C  C21  1  0.31556900  0.83945500  0.10635400  1
  C  C22  1  0.51529400  0.51529400  0.83231600  1
  C  C23  1  0.83945500  0.31556900  0.10635400  1
