# generated using pymatgen
data_CuNi3C13
_symmetry_space_group_name_H-M   'P 1'
_cell_length_a   8.48384300
_cell_length_b   8.48384300
_cell_length_c   8.48384300
_cell_angle_alpha   90.00000000
_cell_angle_beta   90.00000000
_cell_angle_gamma   90.00000000
_symmetry_Int_Tables_number   1
_chemical_formula_structural   CuNi3C13
_chemical_formula_sum   'Cu4 Ni12 C52'
_cell_volume   610.62962277
_cell_formula_units_Z   4
loop_
 _symmetry_equiv_pos_site_id
 _symmetry_equiv_pos_as_xyz
  1  'x, y, z'
loop_
 _atom_site_type_symbol
 _atom_site_label
 _atom_site_symmetry_multiplicity
 _atom_site_fract_x
 _atom_site_fract_y
 _atom_site_fract_z
 _atom_site_occupancy
  C  C0  1  0.63857900  0.87500000  0.88857900  1
  C  C1  1  0.62500000  0.11142100  0.13857900  1
  C  C2  1  0.61142100  0.36142100  0.37500000  1
  C  C3  1  0.80676300  0.30676300  0.19323700  1
  C  C4  1  0.69323700  0.69323700  0.69323700  1
  C  C5  1  0.88857900  0.63857900  0.87500000  1
  C  C6  1  0.87500000  0.88857900  0.63857900  1
  C  C7  1  0.86142100  0.12500000  0.38857900  1
  C  C8  1  0.05676300  0.94323700  0.44323700  1
  C  C9  1  0.94323700  0.44323700  0.05676300  1
  C  C10  1  0.13857900  0.62500000  0.11142100  1
  C  C11  1  0.12500000  0.38857900  0.86142100  1
  C  C12  1  0.11142100  0.13857900  0.62500000  1
  C  C13  1  0.30676300  0.19323700  0.80676300  1
  C  C14  1  0.19323700  0.80676300  0.30676300  1
  C  C15  1  0.38857900  0.86142100  0.12500000  1
  C  C16  1  0.37500000  0.61142100  0.36142100  1
  C  C17  1  0.36142100  0.37500000  0.61142100  1
  C  C18  1  0.55676300  0.55676300  0.55676300  1
  C  C19  1  0.44323700  0.05676300  0.94323700  1
  Ni  Ni20  1  0.62500000  0.87272300  0.37727700  1
  Ni  Ni21  1  0.62727700  0.62272300  0.12500000  1
  Ni  Ni22  1  0.62272300  0.12500000  0.62727700  1
  Ni  Ni23  1  0.87727700  0.87500000  0.12727700  1
  Ni  Ni24  1  0.87500000  0.12727700  0.87727700  1
  Ni  Ni25  1  0.87272300  0.37727700  0.62500000  1
  Ni  Ni26  1  0.12727700  0.87727700  0.87500000  1
  Ni  Ni27  1  0.12500000  0.62727700  0.62272300  1
  Ni  Ni28  1  0.12272300  0.37500000  0.37272300  1
  Ni  Ni29  1  0.37272300  0.12272300  0.37500000  1
  Ni  Ni30  1  0.37727700  0.62500000  0.87272300  1
  Ni  Ni31  1  0.37500000  0.37272300  0.12272300  1
  Cu  Cu32  1  0.62500000  0.37500000  0.87500000  1
  Cu  Cu33  1  0.87500000  0.62500000  0.37500000  1
  Cu  Cu34  1  0.12500000  0.12500000  0.12500000  1
  Cu  Cu35  1  0.37500000  0.87500000  0.62500000  1
  C  C36  1  0.61664200  0.62588800  0.88557700  1
  C  C37  1  0.61442300  0.38335800  0.12588800  1
  C  C38  1  0.61637100  0.11637100  0.38362900  1
  C  C39  1  0.62588800  0.88557700  0.61664200  1
  C  C40  1  0.62411200  0.63335800  0.36442300  1
  C  C41  1  0.63335800  0.36442300  0.62411200  1
  C  C42  1  0.63362900  0.86637100  0.13362900  1
  C  C43  1  0.63557700  0.12411200  0.86664200  1
  C  C44  1  0.86664200  0.63557700  0.12411200  1
  C  C45  1  0.86442300  0.87588800  0.36664200  1
  C  C46  1  0.86637100  0.13362900  0.63362900  1
  C  C47  1  0.87588800  0.36664200  0.86442300  1
  C  C48  1  0.87411200  0.11442300  0.11664200  1
  C  C49  1  0.88362900  0.88362900  0.88362900  1
  C  C50  1  0.88335800  0.37411200  0.38557700  1
  C  C51  1  0.88557700  0.61664200  0.62588800  1
  C  C52  1  0.11664200  0.87411200  0.11442300  1
  C  C53  1  0.11442300  0.11664200  0.87411200  1
  C  C54  1  0.11637100  0.38362900  0.61637100  1
  C  C55  1  0.12588800  0.61442300  0.38335800  1
  C  C56  1  0.12411200  0.86664200  0.63557700  1
  C  C57  1  0.13335800  0.13557700  0.37588800  1
  C  C58  1  0.13362900  0.63362900  0.86637100  1
  C  C59  1  0.13557700  0.37588800  0.13335800  1
  C  C60  1  0.36664200  0.86442300  0.87588800  1
  C  C61  1  0.36442300  0.62411200  0.63335800  1
  C  C62  1  0.36637100  0.36637100  0.36637100  1
  C  C63  1  0.37588800  0.13335800  0.13557700  1
  C  C64  1  0.37411200  0.38557700  0.88335800  1
  C  C65  1  0.38335800  0.12588800  0.61442300  1
  C  C66  1  0.38362900  0.61637100  0.11637100  1
  C  C67  1  0.38557700  0.88335800  0.37411200  1
