# generated using pymatgen
data_CuNi5C12
_symmetry_space_group_name_H-M   'P 1'
_cell_length_a   5.06899170
_cell_length_b   5.08133009
_cell_length_c   9.66626272
_cell_angle_alpha   90.07043847
_cell_angle_beta   90.14121659
_cell_angle_gamma   60.08028958
_symmetry_Int_Tables_number   1
_chemical_formula_structural   CuNi5C12
_chemical_formula_sum   'Cu1 Ni5 C12'
_cell_volume   215.79316957
_cell_formula_units_Z   1
loop_
 _symmetry_equiv_pos_site_id
 _symmetry_equiv_pos_as_xyz
  1  'x, y, z'
loop_
 _atom_site_type_symbol
 _atom_site_label
 _atom_site_symmetry_multiplicity
 _atom_site_fract_x
 _atom_site_fract_y
 _atom_site_fract_z
 _atom_site_occupancy
  Ni  Ni0  1  0.16660100  0.66679800  0.50000000  1
  Ni  Ni1  1  0.66693200  0.66613700  0.00000000  1
  Ni  Ni2  1  0.33306800  0.33386300  0.00000000  1
  Ni  Ni3  1  0.83339900  0.33320200  0.50000000  1
  Ni  Ni4  1  0.50000000  0.00000000  0.50000000  1
  Cu  Cu5  1  0.00000000  0.00000000  0.00000000  1
  C  C6  1  0.00041800  0.66301500  0.09990500  1
  C  C7  1  0.33656700  0.66301500  0.90009500  1
  C  C8  1  0.16644200  0.33337200  0.40069500  1
  C  C9  1  0.49981400  0.66662800  0.40069500  1
  C  C10  1  0.50018600  0.33337200  0.59930500  1
  C  C11  1  0.16701400  0.00000000  0.59920200  1
  C  C12  1  0.83355800  0.66662800  0.59930500  1
  C  C13  1  0.66343300  0.33698500  0.09990500  1
  C  C14  1  0.33357900  0.00000000  0.09875400  1
  C  C15  1  0.99958200  0.33698500  0.90009500  1
  C  C16  1  0.66642000  0.00000000  0.90124600  1
  C  C17  1  0.83298600  0.00000000  0.40079800  1
