# generated using pymatgen
data_Cu3NiC11
_symmetry_space_group_name_H-M   'P 1'
_cell_length_a   7.42524600
_cell_length_b   10.97962600
_cell_length_c   23.91112000
_cell_angle_alpha   90.00000000
_cell_angle_beta   90.00000000
_cell_angle_gamma   90.00000000
_symmetry_Int_Tables_number   1
_chemical_formula_structural   Cu3NiC11
_chemical_formula_sum   'Cu24 Ni8 C88'
_cell_volume   1949.38810834
_cell_formula_units_Z   8
loop_
 _symmetry_equiv_pos_site_id
 _symmetry_equiv_pos_as_xyz
  1  'x, y, z'
loop_
 _atom_site_type_symbol
 _atom_site_label
 _atom_site_symmetry_multiplicity
 _atom_site_fract_x
 _atom_site_fract_y
 _atom_site_fract_z
 _atom_site_occupancy
  C  C0  1  0.06112600  0.46168500  0.09070600  1
  C  C1  1  0.06112600  0.03831500  0.59070600  1
  C  C2  1  0.43887400  0.96168500  0.09070600  1
  C  C3  1  0.43887400  0.53831500  0.59070600  1
  C  C4  1  0.56112600  0.03831500  0.90929400  1
  C  C5  1  0.56112600  0.46168500  0.40929400  1
  C  C6  1  0.93887400  0.53831500  0.90929400  1
  C  C7  1  0.93887400  0.96168500  0.40929400  1
  Ni  Ni8  1  0.18211500  0.34365300  0.29096200  1
  Ni  Ni9  1  0.18211500  0.15634700  0.79096200  1
  Ni  Ni10  1  0.31788500  0.84365300  0.29096200  1
  Ni  Ni11  1  0.31788500  0.65634700  0.79096200  1
  Ni  Ni12  1  0.68211500  0.34365300  0.20903800  1
  Ni  Ni13  1  0.68211500  0.15634700  0.70903800  1
  Ni  Ni14  1  0.81788500  0.65634700  0.70903800  1
  Ni  Ni15  1  0.81788500  0.84365300  0.20903800  1
  Cu  Cu16  1  0.03701400  0.79277200  0.14344300  1
  Cu  Cu17  1  0.03701400  0.70722800  0.64344300  1
  Cu  Cu18  1  0.06339300  0.61856500  0.38054200  1
  Cu  Cu19  1  0.06339300  0.88143500  0.88054200  1
  Cu  Cu20  1  0.19481700  0.17569800  0.00635000  1
  Cu  Cu21  1  0.19481700  0.32430200  0.50635000  1
  Cu  Cu22  1  0.30518300  0.67569800  0.00635000  1
  Cu  Cu23  1  0.30518300  0.82430200  0.50635000  1
  Cu  Cu24  1  0.43660700  0.11856500  0.38054200  1
  Cu  Cu25  1  0.43660700  0.38143500  0.88054200  1
  Cu  Cu26  1  0.46298600  0.29277200  0.14344300  1
  Cu  Cu27  1  0.46298600  0.20722800  0.64344300  1
  Cu  Cu28  1  0.53701400  0.79277200  0.35655700  1
  Cu  Cu29  1  0.53701400  0.70722800  0.85655700  1
  Cu  Cu30  1  0.56339300  0.61856500  0.11945800  1
  Cu  Cu31  1  0.56339300  0.88143500  0.61945800  1
  Cu  Cu32  1  0.69481700  0.17569800  0.49365000  1
  Cu  Cu33  1  0.69481700  0.32430200  0.99365000  1
  Cu  Cu34  1  0.80518300  0.67569800  0.49365000  1
  Cu  Cu35  1  0.80518300  0.82430200  0.99365000  1
  Cu  Cu36  1  0.93660700  0.11856500  0.11945800  1
  Cu  Cu37  1  0.93660700  0.38143500  0.61945800  1
  Cu  Cu38  1  0.96298600  0.20722800  0.85655700  1
  Cu  Cu39  1  0.96298600  0.29277200  0.35655700  1
  C  C40  1  0.11064300  0.97455800  0.28672600  1
  C  C41  1  0.11064300  0.52544200  0.78672600  1
  C  C42  1  0.09967300  0.64455500  0.14624700  1
  C  C43  1  0.09967300  0.85544500  0.64624700  1
  C  C44  1  0.06652800  0.30126700  0.28706300  1
  C  C45  1  0.06652800  0.19873300  0.78706300  1
  C  C46  1  0.10608500  0.59751400  0.00579200  1
  C  C47  1  0.10608500  0.90248600  0.50579200  1
  C  C48  1  0.10662200  0.07469500  0.06449600  1
  C  C49  1  0.10662200  0.42530500  0.56449600  1
  C  C50  1  0.11408700  0.76416900  0.39828700  1
  C  C51  1  0.11408700  0.73583100  0.89828700  1
  C  C52  1  0.22648800  0.87540500  0.15704100  1
  C  C53  1  0.22648800  0.62459500  0.65704100  1
  C  C54  1  0.23979300  0.53431700  0.40195500  1
  C  C55  1  0.23979300  0.96568300  0.90195500  1
  C  C56  1  0.30221900  0.56050500  0.26800700  1
  C  C57  1  0.30221900  0.93949500  0.76800700  1
  C  C58  1  0.24819600  0.30513200  0.03994600  1
  C  C59  1  0.24819600  0.19486800  0.53994600  1
  C  C60  1  0.25180400  0.80513200  0.03994600  1
  C  C61  1  0.25180400  0.69486800  0.53994600  1
  C  C62  1  0.19778100  0.06050500  0.26800700  1
  C  C63  1  0.19778100  0.43949500  0.76800700  1
  C  C64  1  0.26020700  0.03431700  0.40195500  1
  C  C65  1  0.26020700  0.46568300  0.90195500  1
  C  C66  1  0.27351200  0.37540500  0.15704100  1
  C  C67  1  0.27351200  0.12459500  0.65704100  1
  C  C68  1  0.38591300  0.26416900  0.39828700  1
  C  C69  1  0.38591300  0.23583100  0.89828700  1
  C  C70  1  0.39337800  0.57469500  0.06449600  1
  C  C71  1  0.39337800  0.92530500  0.56449600  1
  C  C72  1  0.39391500  0.09751400  0.00579200  1
  C  C73  1  0.39391500  0.40248600  0.50579200  1
  C  C74  1  0.43347200  0.80126700  0.28706300  1
  C  C75  1  0.43347200  0.69873300  0.78706300  1
  C  C76  1  0.40032700  0.14455500  0.14624700  1
  C  C77  1  0.40032700  0.35544500  0.64624700  1
  C  C78  1  0.38935700  0.47455800  0.28672600  1
  C  C79  1  0.38935700  0.02544200  0.78672600  1
  C  C80  1  0.61064300  0.52544200  0.71327400  1
  C  C81  1  0.61064300  0.97455800  0.21327400  1
  C  C82  1  0.59967300  0.64455500  0.35375300  1
  C  C83  1  0.59967300  0.85544500  0.85375300  1
  C  C84  1  0.56652800  0.30126700  0.21293700  1
  C  C85  1  0.56652800  0.19873300  0.71293700  1
  C  C86  1  0.60608500  0.59751400  0.49420800  1
  C  C87  1  0.60608500  0.90248600  0.99420800  1
  C  C88  1  0.60662200  0.42530500  0.93550400  1
  C  C89  1  0.60662200  0.07469500  0.43550400  1
  C  C90  1  0.61408700  0.76416900  0.10171300  1
  C  C91  1  0.61408700  0.73583100  0.60171300  1
  C  C92  1  0.72648800  0.62459500  0.84295900  1
  C  C93  1  0.72648800  0.87540500  0.34295900  1
  C  C94  1  0.73979300  0.53431700  0.09804500  1
  C  C95  1  0.73979300  0.96568300  0.59804500  1
  C  C96  1  0.80221900  0.56050500  0.23199300  1
  C  C97  1  0.80221900  0.93949500  0.73199300  1
  C  C98  1  0.74819600  0.30513200  0.46005400  1
  C  C99  1  0.74819600  0.19486800  0.96005400  1
  C  C100  1  0.75180400  0.80513200  0.46005400  1
  C  C101  1  0.75180400  0.69486800  0.96005400  1
  C  C102  1  0.69778100  0.06050500  0.23199300  1
  C  C103  1  0.69778100  0.43949500  0.73199300  1
  C  C104  1  0.76020700  0.03431700  0.09804500  1
  C  C105  1  0.76020700  0.46568300  0.59804500  1
  C  C106  1  0.77351200  0.12459500  0.84295900  1
  C  C107  1  0.77351200  0.37540500  0.34295900  1
  C  C108  1  0.88591300  0.26416900  0.10171300  1
  C  C109  1  0.88591300  0.23583100  0.60171300  1
  C  C110  1  0.89337800  0.57469500  0.43550400  1
  C  C111  1  0.89337800  0.92530500  0.93550400  1
  C  C112  1  0.89391500  0.09751400  0.49420800  1
  C  C113  1  0.89391500  0.40248600  0.99420800  1
  C  C114  1  0.93347200  0.80126700  0.21293700  1
  C  C115  1  0.93347200  0.69873300  0.71293700  1
  C  C116  1  0.90032700  0.14455500  0.35375300  1
  C  C117  1  0.90032700  0.35544500  0.85375300  1
  C  C118  1  0.88935700  0.47455800  0.21327400  1
  C  C119  1  0.88935700  0.02544200  0.71327400  1
