# generated using pymatgen
data_Cu2NiC7
_symmetry_space_group_name_H-M   'P 1'
_cell_length_a   5.27506200
_cell_length_b   14.20953300
_cell_length_c   14.46321042
_cell_angle_alpha   73.25707940
_cell_angle_beta   90.00000000
_cell_angle_gamma   90.00000000
_symmetry_Int_Tables_number   1
_chemical_formula_structural   Cu2NiC7
_chemical_formula_sum   'Cu16 Ni8 C56'
_cell_volume   1038.14824268
_cell_formula_units_Z   8
loop_
 _symmetry_equiv_pos_site_id
 _symmetry_equiv_pos_as_xyz
  1  'x, y, z'
loop_
 _atom_site_type_symbol
 _atom_site_label
 _atom_site_symmetry_multiplicity
 _atom_site_fract_x
 _atom_site_fract_y
 _atom_site_fract_z
 _atom_site_occupancy
  C  C0  1  0.21863300  0.15394900  0.08379900  1
  C  C1  1  0.85701700  0.16186500  0.62054600  1
  C  C2  1  0.35701700  0.33813500  0.37945400  1
  C  C3  1  0.71863300  0.34605100  0.91620100  1
  C  C4  1  0.28136700  0.65394900  0.08379900  1
  C  C5  1  0.64298300  0.66186500  0.62054600  1
  C  C6  1  0.14298300  0.83813500  0.37945400  1
  C  C7  1  0.78136700  0.84605100  0.91620100  1
  Ni  Ni8  1  0.31325300  0.11303500  0.44699900  1
  Ni  Ni9  1  0.67380000  0.09861900  0.94630200  1
  Ni  Ni10  1  0.17380000  0.40138100  0.05369800  1
  Ni  Ni11  1  0.81325300  0.38696500  0.55300100  1
  Ni  Ni12  1  0.18674700  0.61303500  0.44699900  1
  Ni  Ni13  1  0.82620000  0.59861900  0.94630200  1
  Ni  Ni14  1  0.32620000  0.90138100  0.05369800  1
  Ni  Ni15  1  0.68674700  0.88696500  0.55300100  1
  Cu  Cu16  1  0.71706400  0.00642500  0.35841100  1
  Cu  Cu17  1  0.26332400  0.00027800  0.85112700  1
  Cu  Cu18  1  0.82536300  0.21343200  0.34124300  1
  Cu  Cu19  1  0.65856700  0.29735000  0.13671400  1
  Cu  Cu20  1  0.15856700  0.20265000  0.86328600  1
  Cu  Cu21  1  0.32536300  0.28656800  0.65875700  1
  Cu  Cu22  1  0.76332400  0.49972200  0.14887300  1
  Cu  Cu23  1  0.78293600  0.50642500  0.35841100  1
  Cu  Cu24  1  0.21706400  0.49357500  0.64158900  1
  Cu  Cu25  1  0.23667600  0.50027800  0.85112700  1
  Cu  Cu26  1  0.67463700  0.71343200  0.34124300  1
  Cu  Cu27  1  0.84143300  0.79735000  0.13671400  1
  Cu  Cu28  1  0.34143300  0.70265000  0.86328600  1
  Cu  Cu29  1  0.17463700  0.78656800  0.65875700  1
  Cu  Cu30  1  0.73667600  0.99972200  0.14887300  1
  Cu  Cu31  1  0.28293600  0.99357500  0.64158900  1
  C  C32  1  0.87646100  0.07876000  0.07242500  1
  C  C33  1  0.80339800  0.02167100  0.24810700  1
  C  C34  1  0.43681400  0.02080000  0.36502700  1
  C  C35  1  0.87985400  0.09618300  0.37654600  1
  C  C36  1  0.15602900  0.08623200  0.57993900  1
  C  C37  1  0.54379800  0.01292400  0.86289100  1
  C  C38  1  0.82580500  0.23241000  0.22515900  1
  C  C39  1  0.40340600  0.25310500  0.13218200  1
  C  C40  1  0.05007000  0.26209800  0.36980400  1
  C  C41  1  0.56485500  0.22919600  0.37577000  1
  C  C42  1  0.11080400  0.10311400  0.83176100  1
  C  C43  1  0.83162600  0.31875900  0.04988400  1
  C  C44  1  0.33162600  0.18124100  0.95011600  1
  C  C45  1  0.61080400  0.39688600  0.16823900  1
  C  C46  1  0.06485500  0.27080400  0.62423000  1
  C  C47  1  0.55007000  0.23790200  0.63019600  1
  C  C48  1  0.90340600  0.24689500  0.86781800  1
  C  C49  1  0.32580500  0.26759000  0.77484100  1
  C  C50  1  0.04379800  0.48707600  0.13710900  1
  C  C51  1  0.65602900  0.41376800  0.42006100  1
  C  C52  1  0.62353900  0.57876000  0.07242500  1
  C  C53  1  0.37985400  0.40381700  0.62345400  1
  C  C54  1  0.69660200  0.52167100  0.24810700  1
  C  C55  1  0.93681400  0.47920000  0.63497300  1
  C  C56  1  0.06318600  0.52080000  0.36502700  1
  C  C57  1  0.30339800  0.47832900  0.75189300  1
  C  C58  1  0.62014600  0.59618300  0.37654600  1
  C  C59  1  0.37646100  0.42124000  0.92757500  1
  C  C60  1  0.34397100  0.58623200  0.57993900  1
  C  C61  1  0.95620200  0.51292400  0.86289100  1
  C  C62  1  0.67419500  0.73241000  0.22515900  1
  C  C63  1  0.09659400  0.75310500  0.13218200  1
  C  C64  1  0.44993000  0.76209800  0.36980400  1
  C  C65  1  0.93514500  0.72919600  0.37577000  1
  C  C66  1  0.38919600  0.60311400  0.83176100  1
  C  C67  1  0.66837400  0.81875900  0.04988400  1
  C  C68  1  0.16837400  0.68124100  0.95011600  1
  C  C69  1  0.88919600  0.89688600  0.16823900  1
  C  C70  1  0.43514500  0.77080400  0.62423000  1
  C  C71  1  0.94993000  0.73790200  0.63019600  1
  C  C72  1  0.59659400  0.74689500  0.86781800  1
  C  C73  1  0.17419500  0.76759000  0.77484100  1
  C  C74  1  0.45620200  0.98707600  0.13710900  1
  C  C75  1  0.84397100  0.91376800  0.42006100  1
  C  C76  1  0.12014600  0.90381700  0.62345400  1
  C  C77  1  0.56318600  0.97920000  0.63497300  1
  C  C78  1  0.19660200  0.97832900  0.75189300  1
  C  C79  1  0.12353900  0.92124000  0.92757500  1
