# generated using pymatgen
data_CuNiC6
_symmetry_space_group_name_H-M   'P 1'
_cell_length_a   7.71970200
_cell_length_b   4.97207000
_cell_length_c   9.58514563
_cell_angle_alpha   88.32950766
_cell_angle_beta   90.00000000
_cell_angle_gamma   90.00000000
_symmetry_Int_Tables_number   1
_chemical_formula_structural   CuNiC6
_chemical_formula_sum   'Cu4 Ni4 C24'
_cell_volume   367.74931624
_cell_formula_units_Z   4
loop_
 _symmetry_equiv_pos_site_id
 _symmetry_equiv_pos_as_xyz
  1  'x, y, z'
loop_
 _atom_site_type_symbol
 _atom_site_label
 _atom_site_symmetry_multiplicity
 _atom_site_fract_x
 _atom_site_fract_y
 _atom_site_fract_z
 _atom_site_occupancy
  C  C0  1  0.61655300  0.00789500  0.82939500  1
  C  C1  1  0.11655300  0.99210500  0.67060500  1
  C  C2  1  0.38344700  0.99210500  0.17060500  1
  C  C3  1  0.88344700  0.00789500  0.32939500  1
  Ni  Ni4  1  0.75484600  0.53071100  0.58655500  1
  Ni  Ni5  1  0.25484600  0.46928900  0.91344500  1
  Ni  Ni6  1  0.24515400  0.46928900  0.41344500  1
  Ni  Ni7  1  0.74515400  0.53071100  0.08655500  1
  Cu  Cu8  1  0.90621700  0.43820700  0.82850100  1
  Cu  Cu9  1  0.40621700  0.56179300  0.67149900  1
  Cu  Cu10  1  0.09378300  0.56179300  0.17149900  1
  Cu  Cu11  1  0.59378300  0.43820700  0.32850100  1
  C  C12  1  0.89665500  0.76251000  0.54778400  1
  C  C13  1  0.39665500  0.23749000  0.95221600  1
  C  C14  1  0.10334500  0.23749000  0.45221600  1
  C  C15  1  0.60334500  0.76251000  0.04778400  1
  C  C16  1  0.79484900  0.35776400  0.94818600  1
  C  C17  1  0.29484900  0.64223600  0.55181400  1
  C  C18  1  0.20515100  0.64223600  0.05181400  1
  C  C19  1  0.70515100  0.35776400  0.44818600  1
  C  C20  1  0.83110300  0.30531500  0.70295700  1
  C  C21  1  0.33110300  0.69468500  0.79704300  1
  C  C22  1  0.16889700  0.69468500  0.29704300  1
  C  C23  1  0.66889700  0.30531500  0.20295700  1
  C  C24  1  0.58129300  0.67330500  0.65159500  1
  C  C25  1  0.08129300  0.32669500  0.84840500  1
  C  C26  1  0.41870700  0.32669500  0.34840500  1
  C  C27  1  0.91870700  0.67330500  0.15159500  1
  C  C28  1  0.90190900  0.73191200  0.80216300  1
  C  C29  1  0.40190900  0.26808800  0.69783700  1
  C  C30  1  0.09809100  0.26808800  0.19783700  1
  C  C31  1  0.59809100  0.73191200  0.30216300  1
