# generated using pymatgen
data_CuNi15C32
_symmetry_space_group_name_H-M   'P 1'
_cell_length_a   10.06606900
_cell_length_b   11.45919709
_cell_length_c   11.64583967
_cell_angle_alpha   118.31574928
_cell_angle_beta   91.67799221
_cell_angle_gamma   92.23549411
_symmetry_Int_Tables_number   1
_chemical_formula_structural   CuNi15C32
_chemical_formula_sum   'Cu2 Ni30 C64'
_cell_volume   1179.95774720
_cell_formula_units_Z   2
loop_
 _symmetry_equiv_pos_site_id
 _symmetry_equiv_pos_as_xyz
  1  'x, y, z'
loop_
 _atom_site_type_symbol
 _atom_site_label
 _atom_site_symmetry_multiplicity
 _atom_site_fract_x
 _atom_site_fract_y
 _atom_site_fract_z
 _atom_site_occupancy
  C  C0  1  0.29014700  0.61318800  0.63443400  1
  C  C1  1  0.70985300  0.38681200  0.36556600  1
  C  C2  1  0.41693200  0.68641000  0.44696400  1
  C  C3  1  0.58306800  0.31359000  0.55303600  1
  C  C4  1  0.31922000  0.36610200  0.55660500  1
  C  C5  1  0.68078000  0.63389800  0.44339500  1
  C  C6  1  0.26510900  0.47719900  0.38604000  1
  C  C7  1  0.73489100  0.52280100  0.61396000  1
  C  C8  1  0.50824300  0.50550300  0.72727600  1
  C  C9  1  0.49175700  0.49449700  0.27272400  1
  C  C10  1  0.54239000  0.67978600  0.64424000  1
  C  C11  1  0.45761000  0.32021400  0.35576000  1
  C  C12  1  0.70239100  0.88495600  0.82822800  1
  C  C13  1  0.29760900  0.11504400  0.17177200  1
  C  C14  1  0.54855400  0.87798100  0.89552500  1
  C  C15  1  0.45144600  0.12201900  0.10447500  1
  C  C16  1  0.58020900  0.08875200  0.88222900  1
  C  C17  1  0.41979100  0.91124800  0.11777100  1
  C  C18  1  0.59525500  0.99881000  0.71105500  1
  C  C19  1  0.40474500  0.00119000  0.28894500  1
  C  C20  1  0.44208600  0.99218100  0.77895200  1
  C  C21  1  0.55791400  0.00781900  0.22104800  1
  C  C22  1  0.93867000  0.99874200  0.21687800  1
  C  C23  1  0.06133000  0.00125800  0.78312200  1
  C  C24  1  0.88023800  0.88714600  0.05127500  1
  C  C25  1  0.11976200  0.11285400  0.94872500  1
  C  C26  1  0.78445100  0.90088400  0.18474800  1
  C  C27  1  0.21554900  0.09911600  0.81525200  1
  C  C28  1  0.94086100  0.58747300  0.07455600  1
  C  C29  1  0.05913900  0.41252700  0.92544400  1
  C  C30  1  0.78591200  0.66570100  0.10313100  1
  C  C31  1  0.21408800  0.33429900  0.89686900  1
  C  C32  1  0.88181700  0.65171400  0.96930300  1
  C  C33  1  0.11818300  0.34828600  0.03069700  1
  C  C34  1  0.01972100  0.73514800  0.29403800  1
  C  C35  1  0.98027900  0.26485200  0.70596200  1
  C  C36  1  0.01945100  0.91198400  0.35476000  1
  C  C37  1  0.98054900  0.08801600  0.64524000  1
  C  C38  1  0.86467000  0.81492600  0.32350900  1
  C  C39  1  0.13533000  0.18507400  0.67649100  1
  C  C40  1  0.14697200  0.71692000  0.11637000  1
  C  C41  1  0.85302800  0.28308000  0.88363000  1
  C  C42  1  0.08640800  0.78189500  0.01175600  1
  C  C43  1  0.91359200  0.21810500  0.98824400  1
  C  C44  1  0.14519900  0.89323400  0.17755300  1
  C  C45  1  0.85480100  0.10676600  0.82244700  1
  Ni  Ni46  1  0.25782700  0.76146600  0.77483700  1
  Ni  Ni47  1  0.74217300  0.23853400  0.22516300  1
  Ni  Ni48  1  0.35599200  0.84379100  0.49606900  1
  Ni  Ni49  1  0.64400800  0.15620900  0.50393100  1
  Ni  Ni50  1  0.21571000  0.21947100  0.47215900  1
  Ni  Ni51  1  0.78429000  0.78052900  0.52784100  1
  Ni  Ni52  1  0.14683100  0.35151200  0.28011500  1
  Ni  Ni53  1  0.85316900  0.64848800  0.71988500  1
  Ni  Ni54  1  0.47770900  0.59919700  0.89377500  1
  Ni  Ni55  1  0.52229100  0.40080300  0.10622500  1
  Ni  Ni56  1  0.21095100  0.48849900  0.68052900  1
  Ni  Ni57  1  0.78904900  0.51150100  0.31947100  1
  Ni  Ni58  1  0.16263600  0.60905700  0.50767000  1
  Ni  Ni59  1  0.83736400  0.39094300  0.49233000  1
  Ni  Ni60  1  0.56913000  0.67177500  0.32666900  1
  Ni  Ni61  1  0.43087000  0.32822500  0.67333100  1
  Ni  Ni62  1  0.31258900  0.56958000  0.28648100  1
  Ni  Ni63  1  0.68741100  0.43042000  0.71351900  1
  Ni  Ni64  1  0.59393900  0.87866700  0.81127800  1
  Ni  Ni65  1  0.40606100  0.12133300  0.18872200  1
  Ni  Ni66  1  0.55044200  0.99511700  0.79413900  1
  Ni  Ni67  1  0.44955800  0.00488300  0.20586100  1
  Ni  Ni68  1  0.88456900  0.90412700  0.15201000  1
  Ni  Ni69  1  0.11543100  0.09587300  0.84799000  1
  Ni  Ni70  1  0.88584900  0.66484600  0.06856600  1
  Ni  Ni71  1  0.11415100  0.33515400  0.93143400  1
  Ni  Ni72  1  0.96618100  0.81599400  0.29323400  1
  Ni  Ni73  1  0.03381900  0.18400600  0.70676600  1
  Ni  Ni74  1  0.09506700  0.79672000  0.11161900  1
  Ni  Ni75  1  0.90493300  0.20328000  0.88838100  1
  Cu  Cu76  1  0.95784900  0.79542500  0.15644700  1
  Cu  Cu77  1  0.04215100  0.20457500  0.84355300  1
  C  C78  1  0.23663300  0.85771800  0.87013700  1
  C  C79  1  0.76336700  0.14228200  0.12986300  1
  C  C80  1  0.30938500  0.94370600  0.51881700  1
  C  C81  1  0.69061500  0.05629400  0.48118300  1
  C  C82  1  0.14769500  0.12257600  0.41169100  1
  C  C83  1  0.85230500  0.87742400  0.58830900  1
  C  C84  1  0.07194200  0.26455700  0.20931900  1
  C  C85  1  0.92805800  0.73544300  0.79068100  1
  C  C86  1  0.45253200  0.65819600  0.00290200  1
  C  C87  1  0.54746800  0.34180400  0.99709800  1
  C  C88  1  0.13196500  0.49363000  0.75650900  1
  C  C89  1  0.86803500  0.50637000  0.24349100  1
  C  C90  1  0.06617900  0.66580900  0.50947000  1
  C  C91  1  0.93382100  0.33419100  0.49053000  1
  C  C92  1  0.59232700  0.73763700  0.27419600  1
  C  C93  1  0.40767300  0.26236300  0.72580400  1
  C  C94  1  0.24696100  0.58548700  0.20782300  1
  C  C95  1  0.75303900  0.41451300  0.79217700  1
