# generated using pymatgen
data_Cu2Ni4C3
_symmetry_space_group_name_H-M   'P 1'
_cell_length_a   4.67975000
_cell_length_b   4.67975000
_cell_length_c   9.13208900
_cell_angle_alpha   90.00000000
_cell_angle_beta   90.00000000
_cell_angle_gamma   90.00000000
_symmetry_Int_Tables_number   1
_chemical_formula_structural   Cu2Ni4C3
_chemical_formula_sum   'Cu4 Ni8 C6'
_cell_volume   199.99329760
_cell_formula_units_Z   2
loop_
 _symmetry_equiv_pos_site_id
 _symmetry_equiv_pos_as_xyz
  1  'x, y, z'
loop_
 _atom_site_type_symbol
 _atom_site_label
 _atom_site_symmetry_multiplicity
 _atom_site_fract_x
 _atom_site_fract_y
 _atom_site_fract_z
 _atom_site_occupancy
  C  C0  1  0.50000000  0.50000000  0.68101700  1
  C  C1  1  0.50000000  0.50000000  0.00000000  1
  C  C2  1  0.50000000  0.50000000  0.31898300  1
  C  C3  1  0.00000000  0.00000000  0.81898300  1
  C  C4  1  0.00000000  0.00000000  0.50000000  1
  C  C5  1  0.00000000  0.00000000  0.18101700  1
  Ni  Ni6  1  0.69374900  0.30625100  0.84389900  1
  Ni  Ni7  1  0.69374900  0.30625100  0.15610100  1
  Ni  Ni8  1  0.80625100  0.80625100  0.65610100  1
  Ni  Ni9  1  0.80625100  0.80625100  0.34389900  1
  Ni  Ni10  1  0.19374900  0.19374900  0.65610100  1
  Ni  Ni11  1  0.19374900  0.19374900  0.34389900  1
  Ni  Ni12  1  0.30625100  0.69374900  0.84389900  1
  Ni  Ni13  1  0.30625100  0.69374900  0.15610100  1
  Cu  Cu14  1  0.68858800  0.31141200  0.50000000  1
  Cu  Cu15  1  0.81141200  0.81141200  0.00000000  1
  Cu  Cu16  1  0.18858800  0.18858800  0.00000000  1
  Cu  Cu17  1  0.31141200  0.68858800  0.50000000  1
