# generated using pymatgen
data_CuNiC12
_symmetry_space_group_name_H-M   'P 1'
_cell_length_a   4.75783323
_cell_length_b   10.20036283
_cell_length_c   6.14400600
_cell_angle_alpha   90.00009254
_cell_angle_beta   90.00022068
_cell_angle_gamma   89.01027830
_symmetry_Int_Tables_number   1
_chemical_formula_structural   CuNiC12
_chemical_formula_sum   'Cu2 Ni2 C24'
_cell_volume   298.13411139
_cell_formula_units_Z   2
loop_
 _symmetry_equiv_pos_site_id
 _symmetry_equiv_pos_as_xyz
  1  'x, y, z'
loop_
 _atom_site_type_symbol
 _atom_site_label
 _atom_site_symmetry_multiplicity
 _atom_site_fract_x
 _atom_site_fract_y
 _atom_site_fract_z
 _atom_site_occupancy
  C  C0  1  0.00003300  0.00006200  0.99997400  1
  C  C1  1  0.00003300  0.00006100  0.50002500  1
  C  C2  1  0.50000200  0.49995500  0.99998500  1
  C  C3  1  0.50000200  0.49995500  0.50001500  1
  Ni  Ni4  1  0.45798200  0.22047400  0.74999900  1
  Ni  Ni5  1  0.54205300  0.77952700  0.24999300  1
  Cu  Cu6  1  0.98126900  0.27953100  0.25000000  1
  Cu  Cu7  1  0.01855000  0.72043600  0.75000600  1
  C  C8  1  0.41648000  0.09489100  0.24999800  1
  C  C9  1  0.58355800  0.90516700  0.75000000  1
  C  C10  1  0.91660100  0.40755400  0.75000100  1
  C  C11  1  0.08336800  0.59238400  0.25000100  1
  C  C12  1  0.69398500  0.04831300  0.75000300  1
  C  C13  1  0.30616600  0.95176600  0.24999900  1
  C  C14  1  0.73949200  0.10049000  0.24999800  1
  C  C15  1  0.26054900  0.89961400  0.74999900  1
  C  C16  1  0.24216000  0.40140000  0.75000600  1
  C  C17  1  0.75783400  0.59854800  0.25000000  1
  C  C18  1  0.20435500  0.44943800  0.24999900  1
  C  C19  1  0.79556800  0.55046100  0.74999700  1
  C  C20  1  0.27191100  0.16487400  0.05163900  1
  C  C21  1  0.27191400  0.16487500  0.44835700  1
  C  C22  1  0.72811000  0.83519200  0.55164700  1
  C  C23  1  0.72811100  0.83519000  0.94835400  1
  C  C24  1  0.78793400  0.33885300  0.54510500  1
  C  C25  1  0.78793800  0.33885500  0.95489800  1
  C  C26  1  0.21202200  0.66106800  0.04509400  1
  C  C27  1  0.21202500  0.66106700  0.45490800  1
