# generated using pymatgen
data_Cu4NiC7
_symmetry_space_group_name_H-M   'P 1'
_cell_length_a   7.88476800
_cell_length_b   7.66301400
_cell_length_c   9.26787476
_cell_angle_alpha   67.00699909
_cell_angle_beta   90.00000000
_cell_angle_gamma   90.00000000
_symmetry_Int_Tables_number   1
_chemical_formula_structural   Cu4NiC7
_chemical_formula_sum   'Cu16 Ni4 C28'
_cell_volume   515.48649640
_cell_formula_units_Z   4
loop_
 _symmetry_equiv_pos_site_id
 _symmetry_equiv_pos_as_xyz
  1  'x, y, z'
loop_
 _atom_site_type_symbol
 _atom_site_label
 _atom_site_symmetry_multiplicity
 _atom_site_fract_x
 _atom_site_fract_y
 _atom_site_fract_z
 _atom_site_occupancy
  C  C0  1  0.68913900  0.60357200  0.95133800  1
  C  C1  1  0.18913900  0.39642800  0.54866200  1
  C  C2  1  0.31086100  0.39642800  0.04866200  1
  C  C3  1  0.81086100  0.60357200  0.45133800  1
  Ni  Ni4  1  0.49906000  0.53923400  0.68551300  1
  Ni  Ni5  1  0.99906000  0.46076600  0.81448700  1
  Ni  Ni6  1  0.50094000  0.46076600  0.31448700  1
  Ni  Ni7  1  0.00094000  0.53923400  0.18551300  1
  Cu  Cu8  1  0.77789200  0.99520900  0.18153500  1
  Cu  Cu9  1  0.27789200  0.00479100  0.31846500  1
  Cu  Cu10  1  0.22210800  0.00479100  0.81846500  1
  Cu  Cu11  1  0.72210800  0.99520900  0.68153500  1
  Cu  Cu12  1  0.76477000  0.17857900  0.02258100  1
  Cu  Cu13  1  0.26477000  0.82142100  0.47741900  1
  Cu  Cu14  1  0.23523000  0.82142100  0.97741900  1
  Cu  Cu15  1  0.73523000  0.17857900  0.52258100  1
  Cu  Cu16  1  0.67141900  0.93126500  0.96303400  1
  Cu  Cu17  1  0.17141900  0.06873500  0.53696600  1
  Cu  Cu18  1  0.32858100  0.06873500  0.03696600  1
  Cu  Cu19  1  0.82858100  0.93126500  0.46303400  1
  Cu  Cu20  1  0.49420200  0.90110300  0.89077900  1
  Cu  Cu21  1  0.99420200  0.09889700  0.60922100  1
  Cu  Cu22  1  0.50579800  0.09889700  0.10922100  1
  Cu  Cu23  1  0.00579800  0.90110300  0.39077900  1
  C  C24  1  0.48790100  0.56502200  0.84165500  1
  C  C25  1  0.98790100  0.43497800  0.65834500  1
  C  C26  1  0.51209900  0.43497800  0.15834500  1
  C  C27  1  0.01209900  0.56502200  0.34165500  1
  C  C28  1  0.33025700  0.58174200  0.59719100  1
  C  C29  1  0.83025700  0.41825800  0.90280900  1
  C  C30  1  0.66974300  0.41825800  0.40280900  1
  C  C31  1  0.16974300  0.58174200  0.09719100  1
  C  C32  1  0.64885400  0.64722500  0.58945800  1
  C  C33  1  0.14885400  0.35277500  0.91054200  1
  C  C34  1  0.35114600  0.35277500  0.41054200  1
  C  C35  1  0.85114600  0.64722500  0.08945800  1
  C  C36  1  0.71178800  0.05398300  0.08396100  1
  C  C37  1  0.21178800  0.94601700  0.41603900  1
  C  C38  1  0.28821200  0.94601700  0.91603900  1
  C  C39  1  0.78821200  0.05398300  0.58396100  1
  C  C40  1  0.62018500  0.88034100  0.88843400  1
  C  C41  1  0.12018500  0.11965900  0.61156600  1
  C  C42  1  0.37981500  0.11965900  0.11156600  1
  C  C43  1  0.87981500  0.88034100  0.38843400  1
  C  C44  1  0.53179700  0.31866800  0.73273900  1
  C  C45  1  0.03179700  0.68133200  0.76726100  1
  C  C46  1  0.46820300  0.68133200  0.26726100  1
  C  C47  1  0.96820300  0.31866800  0.23273900  1
