# generated using pymatgen
data_Cu2NiC8
_symmetry_space_group_name_H-M   'P 1'
_cell_length_a   9.13502600
_cell_length_b   9.33391000
_cell_length_c   13.80475100
_cell_angle_alpha   90.00000000
_cell_angle_beta   90.00000000
_cell_angle_gamma   90.00000000
_symmetry_Int_Tables_number   1
_chemical_formula_structural   Cu2NiC8
_chemical_formula_sum   'Cu16 Ni8 C64'
_cell_volume   1177.06914178
_cell_formula_units_Z   8
loop_
 _symmetry_equiv_pos_site_id
 _symmetry_equiv_pos_as_xyz
  1  'x, y, z'
loop_
 _atom_site_type_symbol
 _atom_site_label
 _atom_site_symmetry_multiplicity
 _atom_site_fract_x
 _atom_site_fract_y
 _atom_site_fract_z
 _atom_site_occupancy
  Ni  Ni0  1  0.89718000  0.85981800  0.12569100  1
  Ni  Ni1  1  0.60282000  0.85981800  0.62569100  1
  Ni  Ni2  1  0.39718000  0.64018200  0.12569100  1
  Ni  Ni3  1  0.10282000  0.64018200  0.62569100  1
  Ni  Ni4  1  0.89718000  0.35981800  0.37430900  1
  Ni  Ni5  1  0.60282000  0.35981800  0.87430900  1
  Ni  Ni6  1  0.39718000  0.14018200  0.37430900  1
  Ni  Ni7  1  0.10282000  0.14018200  0.87430900  1
  Cu  Cu8  1  0.93336900  0.92616600  0.72309300  1
  Cu  Cu9  1  0.56663100  0.92616600  0.22309300  1
  Cu  Cu10  1  0.06663100  0.57383400  0.22309300  1
  Cu  Cu11  1  0.43336900  0.57383400  0.72309300  1
  Cu  Cu12  1  0.56663100  0.42616600  0.27690700  1
  Cu  Cu13  1  0.93336900  0.42616600  0.77690700  1
  Cu  Cu14  1  0.43336900  0.07383400  0.77690700  1
  Cu  Cu15  1  0.06663100  0.07383400  0.27690700  1
  Cu  Cu16  1  0.31125900  0.83841900  0.48718900  1
  Cu  Cu17  1  0.18874100  0.83841900  0.98718900  1
  Cu  Cu18  1  0.81125900  0.66158100  0.48718900  1
  Cu  Cu19  1  0.68874100  0.66158100  0.98718900  1
  Cu  Cu20  1  0.31125900  0.33841900  0.01281100  1
  Cu  Cu21  1  0.18874100  0.33841900  0.51281100  1
  Cu  Cu22  1  0.81125900  0.16158100  0.01281100  1
  Cu  Cu23  1  0.68874100  0.16158100  0.51281100  1
  C  C24  1  0.30252600  0.99937400  0.47587200  1
  C  C25  1  0.19747400  0.99937400  0.97587200  1
  C  C26  1  0.00554900  0.98433400  0.35025000  1
  C  C27  1  0.49445100  0.98433400  0.85025000  1
  C  C28  1  0.53289900  0.97651100  0.32600500  1
  C  C29  1  0.96710100  0.97651100  0.82600500  1
  C  C30  1  0.76699400  0.91869100  0.72381800  1
  C  C31  1  0.73300600  0.91869100  0.22381800  1
  C  C32  1  0.27066700  0.81167300  0.08179800  1
  C  C33  1  0.22933300  0.81167300  0.58179800  1
  C  C34  1  0.03090200  0.80014400  0.01039900  1
  C  C35  1  0.46909800  0.80014400  0.51039900  1
  C  C36  1  0.98738100  0.77211600  0.72164700  1
  C  C37  1  0.51261900  0.77211600  0.22164700  1
  C  C38  1  0.25894600  0.75998300  0.40579500  1
  C  C39  1  0.24105400  0.75998300  0.90579500  1
  C  C40  1  0.75894600  0.74001700  0.40579500  1
  C  C41  1  0.74105400  0.74001700  0.90579500  1
  C  C42  1  0.01261900  0.72788400  0.22164700  1
  C  C43  1  0.48738100  0.72788400  0.72164700  1
  C  C44  1  0.96909800  0.69985600  0.51039900  1
  C  C45  1  0.53090200  0.69985600  0.01039900  1
  C  C46  1  0.77066700  0.68832700  0.08179800  1
  C  C47  1  0.72933300  0.68832700  0.58179800  1
  C  C48  1  0.23300600  0.58130900  0.22381800  1
  C  C49  1  0.26699400  0.58130900  0.72381800  1
  C  C50  1  0.46710100  0.52348900  0.82600500  1
  C  C51  1  0.03289900  0.52348900  0.32600500  1
  C  C52  1  0.50554900  0.51566600  0.35025000  1
  C  C53  1  0.99445100  0.51566600  0.85025000  1
  C  C54  1  0.80252600  0.50062600  0.47587200  1
  C  C55  1  0.69747400  0.50062600  0.97587200  1
  C  C56  1  0.30252600  0.49937400  0.02412800  1
  C  C57  1  0.19747400  0.49937400  0.52412800  1
  C  C58  1  0.49445100  0.48433400  0.64975000  1
  C  C59  1  0.00554900  0.48433400  0.14975000  1
  C  C60  1  0.53289900  0.47651100  0.17399500  1
  C  C61  1  0.96710100  0.47651100  0.67399500  1
  C  C62  1  0.73300600  0.41869100  0.27618200  1
  C  C63  1  0.76699400  0.41869100  0.77618200  1
  C  C64  1  0.27066700  0.31167300  0.41820200  1
  C  C65  1  0.22933300  0.31167300  0.91820200  1
  C  C66  1  0.46909800  0.30014400  0.98960100  1
  C  C67  1  0.03090200  0.30014400  0.48960100  1
  C  C68  1  0.51261900  0.27211600  0.27835300  1
  C  C69  1  0.98738100  0.27211600  0.77835300  1
  C  C70  1  0.25894600  0.25998300  0.09420500  1
  C  C71  1  0.24105400  0.25998300  0.59420500  1
  C  C72  1  0.75894600  0.24001700  0.09420500  1
  C  C73  1  0.74105400  0.24001700  0.59420500  1
  C  C74  1  0.48738100  0.22788400  0.77835300  1
  C  C75  1  0.01261900  0.22788400  0.27835300  1
  C  C76  1  0.53090200  0.19985600  0.48960100  1
  C  C77  1  0.96909800  0.19985600  0.98960100  1
  C  C78  1  0.77066700  0.18832700  0.41820200  1
  C  C79  1  0.72933300  0.18832700  0.91820200  1
  C  C80  1  0.26699400  0.08130900  0.77618200  1
  C  C81  1  0.23300600  0.08130900  0.27618200  1
  C  C82  1  0.46710100  0.02348900  0.67399500  1
  C  C83  1  0.03289900  0.02348900  0.17399500  1
  C  C84  1  0.99445100  0.01566600  0.64975000  1
  C  C85  1  0.50554900  0.01566600  0.14975000  1
  C  C86  1  0.80252600  0.00062600  0.02412800  1
  C  C87  1  0.69747400  0.00062600  0.52412800  1
