# generated using pymatgen
data_Cu24Ni6C17
_symmetry_space_group_name_H-M   'P 1'
_cell_length_a   10.04166900
_cell_length_b   7.64740200
_cell_length_c   14.64258638
_cell_angle_alpha   82.49307757
_cell_angle_beta   90.00000000
_cell_angle_gamma   90.00000000
_symmetry_Int_Tables_number   1
_chemical_formula_structural   Cu24Ni6C17
_chemical_formula_sum   'Cu48 Ni12 C34'
_cell_volume   1114.80593384
_cell_formula_units_Z   2
loop_
 _symmetry_equiv_pos_site_id
 _symmetry_equiv_pos_as_xyz
  1  'x, y, z'
loop_
 _atom_site_type_symbol
 _atom_site_label
 _atom_site_symmetry_multiplicity
 _atom_site_fract_x
 _atom_site_fract_y
 _atom_site_fract_z
 _atom_site_occupancy
  C  C0  1  0.42969000  0.14377300  0.42308500  1
  C  C1  1  0.07031000  0.14377300  0.42308500  1
  C  C2  1  0.75000000  0.13140200  0.46470300  1
  C  C3  1  0.94024600  0.18969200  0.24100100  1
  C  C4  1  0.55975400  0.18969200  0.24100100  1
  C  C5  1  0.42814600  0.30964500  0.76172200  1
  C  C6  1  0.07185400  0.30964500  0.76172200  1
  C  C7  1  0.75000000  0.30004400  0.80024300  1
  C  C8  1  0.92365000  0.53048800  0.90657500  1
  C  C9  1  0.42365000  0.46951200  0.09342500  1
  C  C10  1  0.92776200  0.35576100  0.57406100  1
  C  C11  1  0.57223800  0.35576100  0.57406100  1
  C  C12  1  0.75000000  0.46165500  0.13049100  1
  C  C13  1  0.07635000  0.46951200  0.09342500  1
  C  C14  1  0.57635000  0.53048800  0.90657500  1
  C  C15  1  0.25000000  0.36318800  0.53644400  1
  C  C16  1  0.25000000  0.53834500  0.86950900  1
  C  C17  1  0.75000000  0.63681200  0.46355600  1
  C  C18  1  0.07223800  0.64423900  0.42593900  1
  C  C19  1  0.42776200  0.64423900  0.42593900  1
  C  C20  1  0.25000000  0.69995600  0.19975700  1
  C  C21  1  0.92814600  0.69035500  0.23827800  1
  C  C22  1  0.05975400  0.81030800  0.75899900  1
  C  C23  1  0.44024600  0.81030800  0.75899900  1
  C  C24  1  0.57185400  0.69035500  0.23827800  1
  C  C25  1  0.92969000  0.85622700  0.57691500  1
  C  C26  1  0.75000000  0.97307700  0.13048200  1
  C  C27  1  0.92362900  0.01634600  0.90657000  1
  C  C28  1  0.07637100  0.98365400  0.09343000  1
  C  C29  1  0.42362900  0.98365400  0.09343000  1
  C  C30  1  0.57031000  0.85622700  0.57691500  1
  C  C31  1  0.25000000  0.86859800  0.53529700  1
  C  C32  1  0.25000000  0.02692300  0.86951800  1
  C  C33  1  0.57637100  0.01634600  0.90657000  1
  Ni  Ni34  1  0.75000000  0.20547500  0.17789600  1
  Ni  Ni35  1  0.25000000  0.12919100  0.48920800  1
  Ni  Ni36  1  0.25000000  0.29520400  0.81937200  1
  Ni  Ni37  1  0.75000000  0.37314900  0.51328800  1
  Ni  Ni38  1  0.75000000  0.51766900  0.85508000  1
  Ni  Ni39  1  0.25000000  0.48233100  0.14492000  1
  Ni  Ni40  1  0.75000000  0.70479600  0.18062800  1
  Ni  Ni41  1  0.25000000  0.79452500  0.82210400  1
  Ni  Ni42  1  0.25000000  0.62685100  0.48671200  1
  Ni  Ni43  1  0.75000000  0.87080900  0.51079200  1
  Ni  Ni44  1  0.75000000  0.05488100  0.85504900  1
  Ni  Ni45  1  0.25000000  0.94511900  0.14495100  1
  Cu  Cu46  1  0.56716600  0.11454800  0.54257000  1
  Cu  Cu47  1  0.10889100  0.17445500  0.30392400  1
  Cu  Cu48  1  0.87831400  0.15856500  0.36634300  1
  Cu  Cu49  1  0.93283400  0.11454800  0.54257000  1
  Cu  Cu50  1  0.62168600  0.15856500  0.36634300  1
  Cu  Cu51  1  0.04942000  0.22034600  0.11834700  1
  Cu  Cu52  1  0.55975400  0.28207800  0.87187400  1
  Cu  Cu53  1  0.39110900  0.17445500  0.30392400  1
  Cu  Cu54  1  0.45058000  0.22034600  0.11834700  1
  Cu  Cu55  1  0.94024600  0.28207800  0.87187400  1
  Cu  Cu56  1  0.88194800  0.32595200  0.69776300  1
  Cu  Cu57  1  0.61805200  0.32595200  0.69776300  1
  Cu  Cu58  1  0.43531600  0.55291200  0.79182800  1
  Cu  Cu59  1  0.38024900  0.50433700  0.96793200  1
  Cu  Cu60  1  0.38134700  0.34124900  0.63499100  1
  Cu  Cu61  1  0.93531600  0.44708800  0.20817200  1
  Cu  Cu62  1  0.11865300  0.34124900  0.63499100  1
  Cu  Cu63  1  0.43534000  0.38522200  0.45976600  1
  Cu  Cu64  1  0.06466000  0.38522200  0.45976600  1
  Cu  Cu65  1  0.56468400  0.44708800  0.20817200  1
  Cu  Cu66  1  0.11975100  0.50433700  0.96793200  1
  Cu  Cu67  1  0.88024900  0.49566300  0.03206800  1
  Cu  Cu68  1  0.61975100  0.49566300  0.03206800  1
  Cu  Cu69  1  0.06468400  0.55291200  0.79182800  1
  Cu  Cu70  1  0.95058000  0.77965400  0.88165300  1
  Cu  Cu71  1  0.89110900  0.82554500  0.69607600  1
  Cu  Cu72  1  0.88134700  0.65875100  0.36500900  1
  Cu  Cu73  1  0.05975400  0.71792200  0.12812600  1
  Cu  Cu74  1  0.11805200  0.67404800  0.30223700  1
  Cu  Cu75  1  0.38194800  0.67404800  0.30223700  1
  Cu  Cu76  1  0.54942000  0.77965400  0.88165300  1
  Cu  Cu77  1  0.60889100  0.82554500  0.69607600  1
  Cu  Cu78  1  0.93534000  0.61477800  0.54023400  1
  Cu  Cu79  1  0.61865300  0.65875100  0.36500900  1
  Cu  Cu80  1  0.56466000  0.61477800  0.54023400  1
  Cu  Cu81  1  0.44024600  0.71792200  0.12812600  1
  Cu  Cu82  1  0.88025000  0.98842900  0.03207500  1
  Cu  Cu83  1  0.11975000  0.01157100  0.96792500  1
  Cu  Cu84  1  0.12168600  0.84143500  0.63365700  1
  Cu  Cu85  1  0.93535500  0.94866400  0.20825000  1
  Cu  Cu86  1  0.06464500  0.05133600  0.79175000  1
  Cu  Cu87  1  0.06716600  0.88545200  0.45743000  1
  Cu  Cu88  1  0.56464500  0.94866400  0.20825000  1
  Cu  Cu89  1  0.61975000  0.98842900  0.03207500  1
  Cu  Cu90  1  0.43535500  0.05133600  0.79175000  1
  Cu  Cu91  1  0.37831400  0.84143500  0.63365700  1
  Cu  Cu92  1  0.38025000  0.01157100  0.96792500  1
  Cu  Cu93  1  0.43283400  0.88545200  0.45743000  1
