# generated using pymatgen
data_Cu3(Ni12C13)2
_symmetry_space_group_name_H-M   'P 1'
_cell_length_a   14.82618000
_cell_length_b   6.55127700
_cell_length_c   11.36695964
_cell_angle_alpha   80.18725017
_cell_angle_beta   90.00000000
_cell_angle_gamma   90.00000000
_symmetry_Int_Tables_number   1
_chemical_formula_structural   Cu3(Ni12C13)2
_chemical_formula_sum   'Cu6 Ni48 C52'
_cell_volume   1087.92481796
_cell_formula_units_Z   2
loop_
 _symmetry_equiv_pos_site_id
 _symmetry_equiv_pos_as_xyz
  1  'x, y, z'
loop_
 _atom_site_type_symbol
 _atom_site_label
 _atom_site_symmetry_multiplicity
 _atom_site_fract_x
 _atom_site_fract_y
 _atom_site_fract_z
 _atom_site_occupancy
  C  C0  1  0.25000000  0.21163700  0.59021300  1
  C  C1  1  0.75000000  0.78836300  0.40978700  1
  C  C2  1  0.50000000  0.00000000  0.00000000  1
  C  C3  1  0.00000000  0.00000000  0.00000000  1
  C  C4  1  0.25000000  0.44932900  0.21745400  1
  C  C5  1  0.75000000  0.55067100  0.78254600  1
  Ni  Ni6  1  0.25000000  0.87947600  0.39873200  1
  Ni  Ni7  1  0.75000000  0.12052400  0.60126800  1
  Ni  Ni8  1  0.25000000  0.74629800  0.52670400  1
  Ni  Ni9  1  0.75000000  0.25370200  0.47329600  1
  Ni  Ni10  1  0.25000000  0.88095400  0.81672000  1
  Ni  Ni11  1  0.75000000  0.11904600  0.18328000  1
  Ni  Ni12  1  0.25000000  0.07246300  0.88075700  1
  Ni  Ni13  1  0.75000000  0.92753700  0.11924300  1
  Ni  Ni14  1  0.45402300  0.16740600  0.55399600  1
  Ni  Ni15  1  0.95402300  0.83259400  0.44600400  1
  Ni  Ni16  1  0.54597700  0.83259400  0.44600400  1
  Ni  Ni17  1  0.04597700  0.16740600  0.55399600  1
  Ni  Ni18  1  0.44839500  0.93637400  0.61992300  1
  Ni  Ni19  1  0.94839500  0.06362600  0.38007700  1
  Ni  Ni20  1  0.55160500  0.06362600  0.38007700  1
  Ni  Ni21  1  0.05160500  0.93637400  0.61992300  1
  Ni  Ni22  1  0.33088600  0.54383000  0.73040300  1
  Ni  Ni23  1  0.83088600  0.45617000  0.26959700  1
  Ni  Ni24  1  0.66911400  0.45617000  0.26959700  1
  Ni  Ni25  1  0.16911400  0.54383000  0.73040300  1
  Ni  Ni26  1  0.40850000  0.56458000  0.63327200  1
  Ni  Ni27  1  0.90850000  0.43542000  0.36672800  1
  Ni  Ni28  1  0.59150000  0.43542000  0.36672800  1
  Ni  Ni29  1  0.09150000  0.56458000  0.63327200  1
  Ni  Ni30  1  0.41784000  0.65097600  0.94833900  1
  Ni  Ni31  1  0.91784000  0.34902400  0.05166100  1
  Ni  Ni32  1  0.58216000  0.34902400  0.05166100  1
  Ni  Ni33  1  0.08216000  0.65097600  0.94833900  1
  Ni  Ni34  1  0.50551800  0.67677900  0.86604000  1
  Ni  Ni35  1  0.00551800  0.32322100  0.13396000  1
  Ni  Ni36  1  0.49448200  0.32322100  0.13396000  1
  Ni  Ni37  1  0.99448200  0.67677900  0.86604000  1
  Ni  Ni38  1  0.47757300  0.68025000  0.19141700  1
  Ni  Ni39  1  0.97757300  0.31975000  0.80858300  1
  Ni  Ni40  1  0.52242700  0.31975000  0.80858300  1
  Ni  Ni41  1  0.02242700  0.68025000  0.19141700  1
  Ni  Ni42  1  0.53260300  0.85539800  0.24107800  1
  Ni  Ni43  1  0.03260300  0.14460200  0.75892200  1
  Ni  Ni44  1  0.46739700  0.14460200  0.75892200  1
  Ni  Ni45  1  0.96739700  0.85539800  0.24107800  1
  Ni  Ni46  1  0.33469400  0.00540500  0.10136000  1
  Ni  Ni47  1  0.83469400  0.99459500  0.89864000  1
  Ni  Ni48  1  0.66530600  0.99459500  0.89864000  1
  Ni  Ni49  1  0.16530600  0.00540500  0.10136000  1
  Ni  Ni50  1  0.35302900  0.20922000  0.01299300  1
  Ni  Ni51  1  0.85302900  0.79078000  0.98700700  1
  Ni  Ni52  1  0.64697100  0.79078000  0.98700700  1
  Ni  Ni53  1  0.14697100  0.20922000  0.01299300  1
  Cu  Cu54  1  0.25000000  0.54020500  0.95524700  1
  Cu  Cu55  1  0.75000000  0.45979500  0.04475300  1
  Cu  Cu56  1  0.41865600  0.36420400  0.34901300  1
  Cu  Cu57  1  0.91865600  0.63579600  0.65098700  1
  Cu  Cu58  1  0.58134400  0.63579600  0.65098700  1
  Cu  Cu59  1  0.08134400  0.36420400  0.34901300  1
  C  C60  1  0.25000000  0.72650800  0.22313800  1
  C  C61  1  0.75000000  0.27349200  0.77686200  1
  C  C62  1  0.25000000  0.17334000  0.20878800  1
  C  C63  1  0.75000000  0.82666000  0.79121200  1
  C  C64  1  0.32449700  0.50371600  0.01808500  1
  C  C65  1  0.82449700  0.49628400  0.98191500  1
  C  C66  1  0.67550300  0.49628400  0.98191500  1
  C  C67  1  0.17550300  0.50371600  0.01808500  1
  C  C68  1  0.25000000  0.60626800  0.84377000  1
  C  C69  1  0.75000000  0.39373200  0.15623000  1
  C  C70  1  0.41925300  0.43260600  0.23307200  1
  C  C71  1  0.91925300  0.56739400  0.76692800  1
  C  C72  1  0.58074700  0.56739400  0.76692800  1
  C  C73  1  0.08074700  0.43260600  0.23307200  1
  C  C74  1  0.33899700  0.36491700  0.39799800  1
  C  C75  1  0.83899700  0.63508300  0.60200200  1
  C  C76  1  0.66100300  0.63508300  0.60200200  1
  C  C77  1  0.16100300  0.36491700  0.39799800  1
  C  C78  1  0.48881400  0.30166900  0.40879400  1
  C  C79  1  0.98881400  0.69833100  0.59120600  1
  C  C80  1  0.51118600  0.69833100  0.59120600  1
  C  C81  1  0.01118600  0.30166900  0.40879400  1
  C  C82  1  0.25000000  0.88871100  0.48352200  1
  C  C83  1  0.75000000  0.11128900  0.51647800  1
  C  C84  1  0.25000000  0.03423900  0.80188100  1
  C  C85  1  0.75000000  0.96576100  0.19811900  1
  C  C86  1  0.42908900  0.07807500  0.62649400  1
  C  C87  1  0.92908900  0.92192500  0.37350600  1
  C  C88  1  0.57091100  0.92192500  0.37350600  1
  C  C89  1  0.07091100  0.07807500  0.62649400  1
  C  C90  1  0.34934300  0.49894400  0.65573800  1
  C  C91  1  0.84934300  0.50105600  0.34426200  1
  C  C92  1  0.65065700  0.50105600  0.34426200  1
  C  C93  1  0.15065700  0.49894400  0.65573800  1
  C  C94  1  0.46793200  0.74622300  0.91908600  1
  C  C95  1  0.96793200  0.25377700  0.08091400  1
  C  C96  1  0.53206800  0.25377700  0.08091400  1
  C  C97  1  0.03206800  0.74622300  0.91908600  1
  C  C98  1  0.50544300  0.81743000  0.16744700  1
  C  C99  1  0.00544300  0.18257000  0.83255300  1
  C  C100  1  0.49455700  0.18257000  0.83255300  1
  C  C101  1  0.99455700  0.81743000  0.16744700  1
  C  C102  1  0.36012600  0.05765600  0.02257700  1
  C  C103  1  0.86012600  0.94234400  0.97742300  1
  C  C104  1  0.63987400  0.94234400  0.97742300  1
  C  C105  1  0.13987400  0.05765600  0.02257700  1
