# generated using pymatgen
data_Cu3Ni3C22
_symmetry_space_group_name_H-M   'P 1'
_cell_length_a   5.90161096
_cell_length_b   5.90161096
_cell_length_c   9.54883008
_cell_angle_alpha   89.75855853
_cell_angle_beta   89.75855853
_cell_angle_gamma   60.03404934
_symmetry_Int_Tables_number   1
_chemical_formula_structural   Cu3Ni3C22
_chemical_formula_sum   'Cu3 Ni3 C22'
_cell_volume   288.11489705
_cell_formula_units_Z   1
loop_
 _symmetry_equiv_pos_site_id
 _symmetry_equiv_pos_as_xyz
  1  'x, y, z'
loop_
 _atom_site_type_symbol
 _atom_site_label
 _atom_site_symmetry_multiplicity
 _atom_site_fract_x
 _atom_site_fract_y
 _atom_site_fract_z
 _atom_site_occupancy
  C  C0  1  0.67071500  0.67071500  0.10612200  1
  C  C1  1  0.99832300  0.99832300  0.00612900  1
  C  C2  1  0.99742100  0.99742100  0.50490200  1
  C  C3  1  0.33581300  0.33581300  0.60909700  1
  C  C4  1  0.66589600  0.66589600  0.50356300  1
  C  C5  1  0.33095900  0.33095900  0.00226300  1
  Ni  Ni6  1  0.18030600  0.64685900  0.28277900  1
  Ni  Ni7  1  0.82547900  0.82547900  0.77980400  1
  Ni  Ni8  1  0.64685900  0.18030600  0.28277900  1
  Cu  Cu9  1  0.34046600  0.82850900  0.78584900  1
  Cu  Cu10  1  0.82850900  0.34046600  0.78584900  1
  Cu  Cu11  1  0.16801700  0.16801700  0.28698200  1
  C  C12  1  0.33534100  0.82853400  0.40500100  1
  C  C13  1  0.52174100  0.52174100  0.65977900  1
  C  C14  1  0.67572600  0.67572600  0.89455200  1
  C  C15  1  0.99291100  0.99291100  0.69361600  1
  C  C16  1  0.99474200  0.99474200  0.19500600  1
  C  C17  1  0.82853400  0.33534100  0.40500100  1
  C  C18  1  0.52359400  0.96119000  0.65764200  1
  C  C19  1  0.96119000  0.52359400  0.65764200  1
  C  C20  1  0.16681900  0.16681900  0.90505100  1
  C  C21  1  0.82904500  0.82904500  0.40464100  1
  C  C22  1  0.04331000  0.48024000  0.15890600  1
  C  C23  1  0.48024000  0.04331000  0.15890600  1
  C  C24  1  0.33433700  0.33433700  0.39922200  1
  C  C25  1  0.16659700  0.66207700  0.90403500  1
  C  C26  1  0.48418700  0.48418700  0.15281700  1
  C  C27  1  0.66207700  0.16659700  0.90403500  1
