# generated using pymatgen
data_Cu6Ni6C19
_symmetry_space_group_name_H-M   'P 1'
_cell_length_a   11.03128540
_cell_length_b   11.03128540
_cell_length_c   8.95050136
_cell_angle_alpha   81.80919746
_cell_angle_beta   81.80919746
_cell_angle_gamma   89.21781876
_symmetry_Int_Tables_number   1
_chemical_formula_structural   Cu6Ni6C19
_chemical_formula_sum   'Cu12 Ni12 C38'
_cell_volume   1067.04744802
_cell_formula_units_Z   2
loop_
 _symmetry_equiv_pos_site_id
 _symmetry_equiv_pos_as_xyz
  1  'x, y, z'
loop_
 _atom_site_type_symbol
 _atom_site_label
 _atom_site_symmetry_multiplicity
 _atom_site_fract_x
 _atom_site_fract_y
 _atom_site_fract_z
 _atom_site_occupancy
  C  C0  1  0.00000000  0.50000000  0.00000000  1
  C  C1  1  0.50000000  0.00000000  0.50000000  1
  C  C2  1  0.89810200  0.72441700  0.96954600  1
  C  C3  1  0.61906100  0.94333100  0.74336600  1
  C  C4  1  0.72441700  0.89810200  0.46954600  1
  C  C5  1  0.87428300  0.65834600  0.82319500  1
  C  C6  1  0.94333100  0.61906100  0.24336600  1
  C  C7  1  0.65834600  0.87428300  0.32319500  1
  C  C8  1  0.94532700  0.47526400  0.72198400  1
  C  C9  1  0.47526400  0.94532700  0.22198400  1
  C  C10  1  0.91539500  0.34424300  0.83246400  1
  C  C11  1  0.27917800  0.99244800  0.67499100  1
  C  C12  1  0.45048000  0.80302000  0.71512500  1
  C  C13  1  0.51712900  0.75400500  0.55879700  1
  C  C14  1  0.34424300  0.91539500  0.33246400  1
  C  C15  1  0.99244800  0.27917800  0.17499100  1
  C  C16  1  0.80302000  0.45048000  0.21512500  1
  C  C17  1  0.37037000  0.78953700  0.57665600  1
  C  C18  1  0.75400500  0.51712900  0.05879700  1
  C  C19  1  0.78953700  0.37037000  0.07665600  1
  C  C20  1  0.21046300  0.62963000  0.92334400  1
  C  C21  1  0.24599500  0.48287100  0.94120300  1
  C  C22  1  0.62963000  0.21046300  0.42334400  1
  C  C23  1  0.19698000  0.54952000  0.78487500  1
  C  C24  1  0.00755200  0.72082200  0.82500900  1
  C  C25  1  0.65575700  0.08460500  0.66753600  1
  C  C26  1  0.48287100  0.24599500  0.44120300  1
  C  C27  1  0.54952000  0.19698000  0.28487500  1
  C  C28  1  0.72082200  0.00755200  0.32500900  1
  C  C29  1  0.08460500  0.65575700  0.16753600  1
  C  C30  1  0.52473600  0.05467300  0.77801600  1
  C  C31  1  0.05467300  0.52473600  0.27801600  1
  C  C32  1  0.34165400  0.12571700  0.67680500  1
  C  C33  1  0.05666900  0.38093900  0.75663400  1
  C  C34  1  0.12571700  0.34165400  0.17680500  1
  C  C35  1  0.27558300  0.10189800  0.53045400  1
  C  C36  1  0.38093900  0.05666900  0.25663400  1
  C  C37  1  0.10189800  0.27558300  0.03045400  1
  Ni  Ni38  1  0.74768600  0.60196500  0.54945700  1
  Ni  Ni39  1  0.60196500  0.74768600  0.04945700  1
  Ni  Ni40  1  0.23790200  0.87151000  0.99766600  1
  Ni  Ni41  1  0.87151000  0.23790200  0.49766600  1
  Ni  Ni42  1  0.56927300  0.43072700  0.75000000  1
  Ni  Ni43  1  0.00000000  0.00000000  0.50000000  1
  Ni  Ni44  1  0.43072700  0.56927300  0.25000000  1
  Ni  Ni45  1  0.12849000  0.76209800  0.50233400  1
  Ni  Ni46  1  0.00000000  0.00000000  0.00000000  1
  Ni  Ni47  1  0.76209800  0.12849000  0.00233400  1
  Ni  Ni48  1  0.39803500  0.25231400  0.95054300  1
  Ni  Ni49  1  0.25231400  0.39803500  0.45054300  1
  Cu  Cu50  1  0.93806700  0.67019200  0.89299500  1
  Cu  Cu51  1  0.67019200  0.93806700  0.39299500  1
  Cu  Cu52  1  0.97700500  0.41586100  0.80630800  1
  Cu  Cu53  1  0.41586100  0.97700500  0.30630800  1
  Cu  Cu54  1  0.45433700  0.81524000  0.59871600  1
  Cu  Cu55  1  0.81524000  0.45433700  0.09871600  1
  Cu  Cu56  1  0.18476000  0.54566300  0.90128400  1
  Cu  Cu57  1  0.54566300  0.18476000  0.40128400  1
  Cu  Cu58  1  0.58413900  0.02299500  0.69369200  1
  Cu  Cu59  1  0.02299500  0.58413900  0.19369200  1
  Cu  Cu60  1  0.32980800  0.06193300  0.60700500  1
  Cu  Cu61  1  0.06193300  0.32980800  0.10700500  1
