# generated using pymatgen
data_CuNiC3
_symmetry_space_group_name_H-M   'P 1'
_cell_length_a   9.27883058
_cell_length_b   9.27883058
_cell_length_c   10.71297893
_cell_angle_alpha   54.73001847
_cell_angle_beta   54.73001847
_cell_angle_gamma   70.52466032
_symmetry_Int_Tables_number   1
_chemical_formula_structural   CuNiC3
_chemical_formula_sum   'Cu8 Ni8 C24'
_cell_volume   614.81652640
_cell_formula_units_Z   8
loop_
 _symmetry_equiv_pos_site_id
 _symmetry_equiv_pos_as_xyz
  1  'x, y, z'
loop_
 _atom_site_type_symbol
 _atom_site_label
 _atom_site_symmetry_multiplicity
 _atom_site_fract_x
 _atom_site_fract_y
 _atom_site_fract_z
 _atom_site_occupancy
  Ni  Ni0  1  0.50116700  0.50120100  0.74981500  1
  Ni  Ni1  1  0.53038400  0.03112700  0.96965000  1
  Ni  Ni2  1  0.96887300  0.46961600  0.03035000  1
  Ni  Ni3  1  0.28088700  0.71911300  0.50000000  1
  Ni  Ni4  1  0.78171600  0.21828400  0.50000000  1
  Ni  Ni5  1  0.99731600  0.99830600  0.25000400  1
  Ni  Ni6  1  0.49879900  0.49883300  0.25018500  1
  Ni  Ni7  1  0.00169400  0.00268400  0.74999600  1
  Cu  Cu8  1  0.24834300  0.24891600  0.78210900  1
  Cu  Cu9  1  0.25112400  0.25161100  0.28237200  1
  Cu  Cu10  1  0.75108400  0.75165700  0.21789100  1
  Cu  Cu11  1  0.21791500  0.78208500  0.00000000  1
  Cu  Cu12  1  0.71722900  0.28277100  0.00000000  1
  Cu  Cu13  1  0.03151000  0.53206600  0.46786700  1
  Cu  Cu14  1  0.46793400  0.96849000  0.53213300  1
  Cu  Cu15  1  0.74838900  0.74887600  0.71762800  1
  C  C16  1  0.72916300  0.47494500  0.29093300  1
  C  C17  1  0.52505500  0.27083700  0.70906700  1
  C  C18  1  0.77429300  0.48710200  0.71942600  1
  C  C19  1  0.26877200  0.98720800  0.01923200  1
  C  C20  1  0.99158100  0.27460600  0.51901500  1
  C  C21  1  0.49150100  0.76913400  0.22014300  1
  C  C22  1  0.77055900  0.03065900  0.99489100  1
  C  C23  1  0.96934100  0.22944100  0.00510900  1
  C  C24  1  0.04702300  0.23862800  0.23829000  1
  C  C25  1  0.25397500  0.45357400  0.52479900  1
  C  C26  1  0.54642600  0.74602500  0.47520100  1
  C  C27  1  0.76137200  0.95297700  0.76171000  1
  C  C28  1  0.95831500  0.75451900  0.26218700  1
  C  C29  1  0.45820700  0.26182000  0.02399300  1
  C  C30  1  0.24548100  0.04168500  0.73781300  1
  C  C31  1  0.73818000  0.54179300  0.97600700  1
  C  C32  1  0.23192600  0.97431500  0.50659400  1
  C  C33  1  0.02568500  0.76807400  0.49340600  1
  C  C34  1  0.01279200  0.73122800  0.98076800  1
  C  C35  1  0.51289800  0.22570700  0.28057400  1
  C  C36  1  0.72539400  0.00841900  0.48098500  1
  C  C37  1  0.23086600  0.50849900  0.77985700  1
  C  C38  1  0.26809200  0.53123800  0.20740700  1
  C  C39  1  0.46876200  0.73190800  0.79259300  1
