# generated using pymatgen
data_Cu2Ni5C18
_symmetry_space_group_name_H-M   'P 1'
_cell_length_a   23.62362675
_cell_length_b   23.62362675
_cell_length_c   23.62362643
_cell_angle_alpha   12.69822128
_cell_angle_beta   12.69822128
_cell_angle_gamma   12.69822138
_symmetry_Int_Tables_number   1
_chemical_formula_structural   Cu2Ni5C18
_chemical_formula_sum   'Cu4 Ni10 C36'
_cell_volume   553.93978706
_cell_formula_units_Z   2
loop_
 _symmetry_equiv_pos_site_id
 _symmetry_equiv_pos_as_xyz
  1  'x, y, z'
loop_
 _atom_site_type_symbol
 _atom_site_label
 _atom_site_symmetry_multiplicity
 _atom_site_fract_x
 _atom_site_fract_y
 _atom_site_fract_z
 _atom_site_occupancy
  C  C0  1  0.85729400  0.85729400  0.85729400  1
  C  C1  1  0.65823800  0.65823800  0.65823800  1
  C  C2  1  0.15684500  0.15684500  0.15684500  1
  C  C3  1  0.05836000  0.05836000  0.05836000  1
  C  C4  1  0.45787900  0.45787900  0.45787900  1
  C  C5  1  0.25816300  0.25816300  0.25816300  1
  Ni  Ni6  1  0.00097600  0.00097600  0.00097600  1
  Ni  Ni7  1  0.60080400  0.60080400  0.60080400  1
  Ni  Ni8  1  0.90162700  0.90162700  0.90162700  1
  Ni  Ni9  1  0.70202200  0.70202200  0.70202200  1
  Ni  Ni10  1  0.50102200  0.50102200  0.50102200  1
  Ni  Ni11  1  0.80127700  0.80127700  0.80127700  1
  Ni  Ni12  1  0.30184700  0.30184700  0.30184700  1
  Ni  Ni13  1  0.10221800  0.10221800  0.10221800  1
  Ni  Ni14  1  0.20068000  0.20068000  0.20068000  1
  Ni  Ni15  1  0.40116900  0.40116900  0.40116900  1
  Cu  Cu16  1  0.75227500  0.75227500  0.75227500  1
  Cu  Cu17  1  0.55178600  0.55178600  0.55178600  1
  Cu  Cu18  1  0.95206800  0.95206800  0.95206800  1
  Cu  Cu19  1  0.35213800  0.35213800  0.35213800  1
  C  C20  1  0.46253400  0.22574500  0.85761200  1
  C  C21  1  0.62530400  0.25140800  0.87151300  1
  C  C22  1  0.13134300  0.35836700  0.75789800  1
  C  C23  1  0.33103800  0.55770800  0.95797200  1
  C  C24  1  0.15765500  0.55846500  0.92986500  1
  C  C25  1  0.95797200  0.35816500  0.73103500  1
  C  C26  1  0.35816500  0.73103500  0.95797200  1
  C  C27  1  0.15694800  0.52887600  0.76132200  1
  C  C28  1  0.25140800  0.87151300  0.62530400  1
  C  C29  1  0.05155900  0.67208700  0.42551000  1
  C  C30  1  0.45109700  0.07150100  0.82723500  1
  C  C31  1  0.07150100  0.82723500  0.45109700  1
  C  C32  1  0.27186100  0.02525600  0.65166000  1
  C  C33  1  0.22574500  0.85761200  0.46253400  1
  C  C34  1  0.42551000  0.05155900  0.67208700  1
  C  C35  1  0.73103500  0.95797200  0.35816500  1
  C  C36  1  0.92986500  0.15765500  0.55846500  1
  C  C37  1  0.55770800  0.95797200  0.33103800  1
  C  C38  1  0.76132200  0.15694800  0.52887600  1
  C  C39  1  0.95797200  0.33103800  0.55770800  1
  C  C40  1  0.75789800  0.13134300  0.35836700  1
  C  C41  1  0.55846500  0.92986500  0.15765500  1
  C  C42  1  0.65166000  0.27186100  0.02525600  1
  C  C43  1  0.85761200  0.46253400  0.22574500  1
  C  C44  1  0.67208700  0.42551000  0.05155900  1
  C  C45  1  0.87151300  0.62530400  0.25140800  1
  C  C46  1  0.02525600  0.65166000  0.27186100  1
  C  C47  1  0.82723500  0.45109700  0.07150100  1
  C  C48  1  0.52887600  0.76132200  0.15694800  1
  C  C49  1  0.35836700  0.75789800  0.13134300  1
