# generated using pymatgen
data_Cu16Ni2C11
_symmetry_space_group_name_H-M   'P 1'
_cell_length_a   7.26666864
_cell_length_b   7.26666864
_cell_length_c   10.41016124
_cell_angle_alpha   88.21788095
_cell_angle_beta   88.21788095
_cell_angle_gamma   90.05854120
_symmetry_Int_Tables_number   1
_chemical_formula_structural   Cu16Ni2C11
_chemical_formula_sum   'Cu32 Ni4 C22'
_cell_volume   549.17035227
_cell_formula_units_Z   2
loop_
 _symmetry_equiv_pos_site_id
 _symmetry_equiv_pos_as_xyz
  1  'x, y, z'
loop_
 _atom_site_type_symbol
 _atom_site_label
 _atom_site_symmetry_multiplicity
 _atom_site_fract_x
 _atom_site_fract_y
 _atom_site_fract_z
 _atom_site_occupancy
  C  C0  1  0.26583000  0.73417000  0.75000000  1
  C  C1  1  0.73417000  0.26583000  0.25000000  1
  Ni  Ni2  1  0.77902200  0.74952600  0.50980500  1
  Ni  Ni3  1  0.74952600  0.77902200  0.00980500  1
  Ni  Ni4  1  0.25047400  0.22097800  0.99019500  1
  Ni  Ni5  1  0.22097800  0.25047400  0.49019500  1
  Cu  Cu6  1  0.95495100  0.93443100  0.69623400  1
  Cu  Cu7  1  0.93443100  0.95495100  0.19623400  1
  Cu  Cu8  1  0.75084200  0.94625700  0.93674500  1
  Cu  Cu9  1  0.94625700  0.75084200  0.43674500  1
  Cu  Cu10  1  0.95153500  0.54048600  0.69529200  1
  Cu  Cu11  1  0.57331100  0.93841700  0.69367600  1
  Cu  Cu12  1  0.54048600  0.95153500  0.19529200  1
  Cu  Cu13  1  0.93841700  0.57331100  0.19367600  1
  Cu  Cu14  1  0.75744200  0.64107600  0.91727400  1
  Cu  Cu15  1  0.64107600  0.75744200  0.41727400  1
  Cu  Cu16  1  0.36155100  0.73255700  0.99629400  1
  Cu  Cu17  1  0.57515600  0.54105000  0.69285500  1
  Cu  Cu18  1  0.26032400  0.86124000  0.50514400  1
  Cu  Cu19  1  0.73255700  0.36155100  0.49629400  1
  Cu  Cu20  1  0.54105000  0.57515600  0.19285500  1
  Cu  Cu21  1  0.86124000  0.26032400  0.00514400  1
  Cu  Cu22  1  0.13876000  0.73967600  0.99485600  1
  Cu  Cu23  1  0.45895000  0.42484400  0.80714500  1
  Cu  Cu24  1  0.26744300  0.63844900  0.50370600  1
  Cu  Cu25  1  0.73967600  0.13876000  0.49485600  1
  Cu  Cu26  1  0.42484400  0.45895000  0.30714500  1
  Cu  Cu27  1  0.63844900  0.26744300  0.00370600  1
  Cu  Cu28  1  0.35892400  0.24255800  0.58272600  1
  Cu  Cu29  1  0.24255800  0.35892400  0.08272600  1
  Cu  Cu30  1  0.06158300  0.42668900  0.80632400  1
  Cu  Cu31  1  0.45951400  0.04846500  0.80470800  1
  Cu  Cu32  1  0.42668900  0.06158300  0.30632400  1
  Cu  Cu33  1  0.04846500  0.45951400  0.30470800  1
  Cu  Cu34  1  0.05374300  0.24915800  0.56325500  1
  Cu  Cu35  1  0.24915800  0.05374300  0.06325500  1
  Cu  Cu36  1  0.06556900  0.04504900  0.80376600  1
  Cu  Cu37  1  0.04504900  0.06556900  0.30376600  1
  C  C38  1  0.77019700  0.92463500  0.58865500  1
  C  C39  1  0.92463500  0.77019700  0.08865500  1
  C  C40  1  0.46937700  0.93273000  0.75763600  1
  C  C41  1  0.93273000  0.46937700  0.25763600  1
  C  C42  1  0.76493300  0.56614000  0.58698400  1
  C  C43  1  0.56614000  0.76493300  0.08698400  1
  C  C44  1  0.29791200  0.74831200  0.55278300  1
  C  C45  1  0.46382100  0.53617900  0.75000000  1
  C  C46  1  0.06511900  0.93488100  0.75000000  1
  C  C47  1  0.74831200  0.29791200  0.05278300  1
  C  C48  1  0.25168800  0.70208800  0.94721700  1
  C  C49  1  0.93488100  0.06511900  0.25000000  1
  C  C50  1  0.53617900  0.46382100  0.25000000  1
  C  C51  1  0.70208800  0.25168800  0.44721700  1
  C  C52  1  0.43386000  0.23506700  0.91301600  1
  C  C53  1  0.23506700  0.43386000  0.41301600  1
  C  C54  1  0.06727000  0.53062300  0.74236400  1
  C  C55  1  0.53062300  0.06727000  0.24236400  1
  C  C56  1  0.07536500  0.22980300  0.91134500  1
  C  C57  1  0.22980300  0.07536500  0.41134500  1
