# generated using pymatgen
data_CuNiC
_symmetry_space_group_name_H-M   'P 1'
_cell_length_a   6.20021082
_cell_length_b   5.95984038
_cell_length_c   5.19421182
_cell_angle_alpha   67.13520294
_cell_angle_beta   62.33808761
_cell_angle_gamma   50.52670945
_symmetry_Int_Tables_number   1
_chemical_formula_structural   CuNiC
_chemical_formula_sum   'Cu4 Ni4 C4'
_cell_volume   129.99556788
_cell_formula_units_Z   4
loop_
 _symmetry_equiv_pos_site_id
 _symmetry_equiv_pos_as_xyz
  1  'x, y, z'
loop_
 _atom_site_type_symbol
 _atom_site_label
 _atom_site_symmetry_multiplicity
 _atom_site_fract_x
 _atom_site_fract_y
 _atom_site_fract_z
 _atom_site_occupancy
  C  C0  1  0.20235500  0.79764500  0.20235500  1
  C  C1  1  0.45235500  0.04764500  0.45235500  1
  C  C2  1  0.79764500  0.20235500  0.79764500  1
  C  C3  1  0.04764500  0.45235500  0.04764500  1
  Ni  Ni4  1  0.86435800  0.86435800  0.13564200  1
  Ni  Ni5  1  0.13564200  0.13564200  0.86435800  1
  Ni  Ni6  1  0.11435800  0.11435800  0.38564200  1
  Ni  Ni7  1  0.38564200  0.38564200  0.11435800  1
  Cu  Cu8  1  0.12500000  0.62500000  0.62500000  1
  Cu  Cu9  1  0.62500000  0.62500000  0.62500000  1
  Cu  Cu10  1  0.62500000  0.12500000  0.62500000  1
  Cu  Cu11  1  0.62500000  0.62500000  0.12500000  1
