# generated using pymatgen
data_Cu2NiC7
_symmetry_space_group_name_H-M   'P 1'
_cell_length_a   5.30970100
_cell_length_b   8.83854500
_cell_length_c   18.24426200
_cell_angle_alpha   90.00000000
_cell_angle_beta   90.00000000
_cell_angle_gamma   90.00000000
_symmetry_Int_Tables_number   1
_chemical_formula_structural   Cu2NiC7
_chemical_formula_sum   'Cu16 Ni8 C56'
_cell_volume   856.20378534
_cell_formula_units_Z   8
loop_
 _symmetry_equiv_pos_site_id
 _symmetry_equiv_pos_as_xyz
  1  'x, y, z'
loop_
 _atom_site_type_symbol
 _atom_site_label
 _atom_site_symmetry_multiplicity
 _atom_site_fract_x
 _atom_site_fract_y
 _atom_site_fract_z
 _atom_site_occupancy
  C  C0  1  0.61478900  0.99975600  0.12494800  1
  C  C1  1  0.11478900  0.50024400  0.12494800  1
  C  C2  1  0.11478900  0.00024400  0.37505200  1
  C  C3  1  0.61478900  0.49975600  0.37505200  1
  C  C4  1  0.38521100  0.50024400  0.62494800  1
  C  C5  1  0.88521100  0.99975600  0.62494800  1
  C  C6  1  0.38521100  0.00024400  0.87505200  1
  C  C7  1  0.88521100  0.49975600  0.87505200  1
  Ni  Ni8  1  0.61567000  0.64676600  0.12506900  1
  Ni  Ni9  1  0.11567000  0.85323400  0.12506900  1
  Ni  Ni10  1  0.11567000  0.35323400  0.37493100  1
  Ni  Ni11  1  0.61567000  0.14676600  0.37493100  1
  Ni  Ni12  1  0.38433000  0.85323400  0.62506900  1
  Ni  Ni13  1  0.88433000  0.64676600  0.62506900  1
  Ni  Ni14  1  0.38433000  0.35323400  0.87493100  1
  Ni  Ni15  1  0.88433000  0.14676600  0.87493100  1
  Cu  Cu16  1  0.71689600  0.33745800  0.02512100  1
  Cu  Cu17  1  0.21689600  0.16254200  0.02512100  1
  Cu  Cu18  1  0.44318700  0.33866800  0.22561500  1
  Cu  Cu19  1  0.94318700  0.16133200  0.22561500  1
  Cu  Cu20  1  0.44318700  0.83866800  0.27438500  1
  Cu  Cu21  1  0.94318700  0.66133200  0.27438500  1
  Cu  Cu22  1  0.71689600  0.83745800  0.47487900  1
  Cu  Cu23  1  0.21689600  0.66254200  0.47487900  1
  Cu  Cu24  1  0.78310400  0.33745800  0.52512100  1
  Cu  Cu25  1  0.28310400  0.16254200  0.52512100  1
  Cu  Cu26  1  0.05681300  0.33866800  0.72561500  1
  Cu  Cu27  1  0.55681300  0.16133200  0.72561500  1
  Cu  Cu28  1  0.05681300  0.83866800  0.77438500  1
  Cu  Cu29  1  0.55681300  0.66133200  0.77438500  1
  Cu  Cu30  1  0.78310400  0.83745800  0.97487900  1
  Cu  Cu31  1  0.28310400  0.66254200  0.97487900  1
  C  C32  1  0.43447200  0.28369100  0.05210500  1
  C  C33  1  0.93447200  0.21630900  0.05210500  1
  C  C34  1  0.78843700  0.83343600  0.06586600  1
  C  C35  1  0.28843700  0.66656400  0.06586600  1
  C  C36  1  0.78549100  0.49795900  0.06297800  1
  C  C37  1  0.28549100  0.00204100  0.06297800  1
  C  C38  1  0.44295800  0.83216000  0.18368300  1
  C  C39  1  0.94295800  0.66784000  0.18368300  1
  C  C40  1  0.94936300  0.99306300  0.19129600  1
  C  C41  1  0.44936300  0.50693700  0.19129600  1
  C  C42  1  0.17554500  0.26695100  0.19553500  1
  C  C43  1  0.67554500  0.23304900  0.19553500  1
  C  C44  1  0.17554500  0.76695100  0.30446500  1
  C  C45  1  0.67554500  0.73304900  0.30446500  1
  C  C46  1  0.94936300  0.49306300  0.30870400  1
  C  C47  1  0.44936300  0.00693700  0.30870400  1
  C  C48  1  0.44295800  0.33216000  0.31631700  1
  C  C49  1  0.94295800  0.16784000  0.31631700  1
  C  C50  1  0.78549100  0.99795900  0.43702200  1
  C  C51  1  0.28549100  0.50204100  0.43702200  1
  C  C52  1  0.78843700  0.33343600  0.43413400  1
  C  C53  1  0.28843700  0.16656400  0.43413400  1
  C  C54  1  0.43447200  0.78369100  0.44789500  1
  C  C55  1  0.93447200  0.71630900  0.44789500  1
  C  C56  1  0.06552800  0.28369100  0.55210500  1
  C  C57  1  0.56552800  0.21630900  0.55210500  1
  C  C58  1  0.71156300  0.83343600  0.56586600  1
  C  C59  1  0.21156300  0.66656400  0.56586600  1
  C  C60  1  0.71450900  0.49795900  0.56297800  1
  C  C61  1  0.21450900  0.00204100  0.56297800  1
  C  C62  1  0.05704200  0.83216000  0.68368300  1
  C  C63  1  0.55704200  0.66784000  0.68368300  1
  C  C64  1  0.55063700  0.99306300  0.69129600  1
  C  C65  1  0.05063700  0.50693700  0.69129600  1
  C  C66  1  0.32445500  0.26695100  0.69553500  1
  C  C67  1  0.82445500  0.23304900  0.69553500  1
  C  C68  1  0.32445500  0.76695100  0.80446500  1
  C  C69  1  0.82445500  0.73304900  0.80446500  1
  C  C70  1  0.55063700  0.49306300  0.80870400  1
  C  C71  1  0.05063700  0.00693700  0.80870400  1
  C  C72  1  0.05704200  0.33216000  0.81631700  1
  C  C73  1  0.55704200  0.16784000  0.81631700  1
  C  C74  1  0.71450900  0.99795900  0.93702200  1
  C  C75  1  0.21450900  0.50204100  0.93702200  1
  C  C76  1  0.71156300  0.33343600  0.93413400  1
  C  C77  1  0.21156300  0.16656400  0.93413400  1
  C  C78  1  0.06552800  0.78369100  0.94789500  1
  C  C79  1  0.56552800  0.71630900  0.94789500  1
