# generated using pymatgen
data_CuNiC14
_symmetry_space_group_name_H-M   'P 1'
_cell_length_a   6.50864000
_cell_length_b   10.61612600
_cell_length_c   12.83558900
_cell_angle_alpha   90.00000000
_cell_angle_beta   90.00000000
_cell_angle_gamma   90.00000000
_symmetry_Int_Tables_number   1
_chemical_formula_structural   CuNiC14
_chemical_formula_sum   'Cu4 Ni4 C56'
_cell_volume   886.89481865
_cell_formula_units_Z   4
loop_
 _symmetry_equiv_pos_site_id
 _symmetry_equiv_pos_as_xyz
  1  'x, y, z'
loop_
 _atom_site_type_symbol
 _atom_site_label
 _atom_site_symmetry_multiplicity
 _atom_site_fract_x
 _atom_site_fract_y
 _atom_site_fract_z
 _atom_site_occupancy
  Ni  Ni0  1  0.63571200  0.09971300  0.09128000  1
  Ni  Ni1  1  0.13571200  0.59971300  0.40872000  1
  Ni  Ni2  1  0.86428800  0.09971300  0.59128000  1
  Ni  Ni3  1  0.36428800  0.59971300  0.90872000  1
  Cu  Cu4  1  0.06988700  0.99390100  0.10634700  1
  Cu  Cu5  1  0.56988700  0.49390100  0.39365300  1
  Cu  Cu6  1  0.43011300  0.99390100  0.60634700  1
  Cu  Cu7  1  0.93011300  0.49390100  0.89365300  1
  C  C8  1  0.99829500  0.51291800  0.13367900  1
  C  C9  1  0.74693600  0.76394700  0.24756800  1
  C  C10  1  0.24693600  0.26394700  0.25243200  1
  C  C11  1  0.49829500  0.01291800  0.36632100  1
  C  C12  1  0.50170500  0.51291800  0.63367900  1
  C  C13  1  0.75306400  0.76394700  0.74756800  1
  C  C14  1  0.25306400  0.26394700  0.75243200  1
  C  C15  1  0.00170500  0.01291800  0.86632100  1
  C  C16  1  0.84258200  0.76116500  0.99877300  1
  C  C17  1  0.50130000  0.51226600  0.18343600  1
  C  C18  1  0.00130000  0.01226600  0.31656400  1
  C  C19  1  0.34258200  0.26116500  0.50122700  1
  C  C20  1  0.65741800  0.76116500  0.49877300  1
  C  C21  1  0.99870000  0.51226600  0.68343600  1
  C  C22  1  0.49870000  0.01226600  0.81656400  1
  C  C23  1  0.15741800  0.26116500  0.00122700  1
  C  C24  1  0.97529400  0.63896300  0.00238600  1
  C  C25  1  0.02369600  0.38191300  0.00632900  1
  C  C26  1  0.30050900  0.24875700  0.09775500  1
  C  C27  1  0.70307400  0.77392600  0.09667000  1
  C  C28  1  0.69021300  0.48616700  0.11438300  1
  C  C29  1  0.31183500  0.54009300  0.11577900  1
  C  C30  1  0.04562800  0.38740100  0.22598600  1
  C  C31  1  0.95836500  0.64003400  0.22436300  1
  C  C32  1  0.04437300  0.12242300  0.23772600  1
  C  C33  1  0.96164100  0.90043200  0.23906600  1
  C  C34  1  0.46164100  0.40043200  0.26093400  1
  C  C35  1  0.54437300  0.62242300  0.26227400  1
  C  C36  1  0.45836500  0.14003400  0.27563700  1
  C  C37  1  0.54562800  0.88740100  0.27401400  1
  C  C38  1  0.81183500  0.04009300  0.38422100  1
  C  C39  1  0.19021300  0.98616700  0.38561700  1
  C  C40  1  0.20307400  0.27392600  0.40333000  1
  C  C41  1  0.80050900  0.74875700  0.40224500  1
  C  C42  1  0.52369600  0.88191300  0.49367100  1
  C  C43  1  0.47529400  0.13896300  0.49761400  1
  C  C44  1  0.52470600  0.63896300  0.50238600  1
  C  C45  1  0.47630400  0.38191300  0.50632900  1
  C  C46  1  0.19949100  0.24875700  0.59775500  1
  C  C47  1  0.79692600  0.77392600  0.59667000  1
  C  C48  1  0.80978700  0.48616700  0.61438300  1
  C  C49  1  0.18816500  0.54009300  0.61577900  1
  C  C50  1  0.45437200  0.38740100  0.72598600  1
  C  C51  1  0.54163500  0.64003400  0.72436300  1
  C  C52  1  0.45562700  0.12242300  0.73772600  1
  C  C53  1  0.53835900  0.90043200  0.73906600  1
  C  C54  1  0.03835900  0.40043200  0.76093400  1
  C  C55  1  0.95562700  0.62242300  0.76227400  1
  C  C56  1  0.04163500  0.14003400  0.77563700  1
  C  C57  1  0.95437200  0.88740100  0.77401400  1
  C  C58  1  0.68816500  0.04009300  0.88422100  1
  C  C59  1  0.30978700  0.98616700  0.88561700  1
  C  C60  1  0.29692600  0.27392600  0.90333000  1
  C  C61  1  0.69949100  0.74875700  0.90224500  1
  C  C62  1  0.97630400  0.88191300  0.99367100  1
  C  C63  1  0.02470600  0.13896300  0.99761400  1
