# generated using pymatgen
data_CuNiC15
_symmetry_space_group_name_H-M   'P 1'
_cell_length_a   7.67214700
_cell_length_b   9.85223600
_cell_length_c   13.82056578
_cell_angle_alpha   74.11485124
_cell_angle_beta   90.00000000
_cell_angle_gamma   90.00000000
_symmetry_Int_Tables_number   1
_chemical_formula_structural   CuNiC15
_chemical_formula_sum   'Cu4 Ni4 C60'
_cell_volume   1004.77279012
_cell_formula_units_Z   4
loop_
 _symmetry_equiv_pos_site_id
 _symmetry_equiv_pos_as_xyz
  1  'x, y, z'
loop_
 _atom_site_type_symbol
 _atom_site_label
 _atom_site_symmetry_multiplicity
 _atom_site_fract_x
 _atom_site_fract_y
 _atom_site_fract_z
 _atom_site_occupancy
  Ni  Ni0  1  0.26518700  0.38484600  0.73518900  1
  Ni  Ni1  1  0.26518700  0.11515400  0.26481100  1
  Ni  Ni2  1  0.73481300  0.61515400  0.26481100  1
  Ni  Ni3  1  0.73481300  0.88484600  0.73518900  1
  Cu  Cu4  1  0.23151400  0.73402700  0.73711700  1
  Cu  Cu5  1  0.23151400  0.76597300  0.26288300  1
  Cu  Cu6  1  0.76848600  0.26597300  0.26288300  1
  Cu  Cu7  1  0.76848600  0.23402700  0.73711700  1
  C  C8  1  0.20941600  0.66782100  0.51354800  1
  C  C9  1  0.20941600  0.83217900  0.48645200  1
  C  C10  1  0.79058400  0.33217900  0.48645200  1
  C  C11  1  0.79058400  0.16782100  0.51354800  1
  C  C12  1  0.83963000  0.57241000  0.73186900  1
  C  C13  1  0.83963000  0.92759000  0.26813100  1
  C  C14  1  0.16037000  0.42759000  0.26813100  1
  C  C15  1  0.16037000  0.07241000  0.73186900  1
  C  C16  1  0.63675700  0.56537300  0.72695800  1
  C  C17  1  0.63675700  0.93462700  0.27304200  1
  C  C18  1  0.36324300  0.43462700  0.27304200  1
  C  C19  1  0.36324300  0.06537300  0.72695800  1
  C  C20  1  0.41700600  0.75000000  0.00000000  1
  C  C21  1  0.58299400  0.25000000  0.00000000  1
  C  C22  1  0.01650600  0.75000000  0.00000000  1
  C  C23  1  0.98349400  0.25000000  0.00000000  1
  C  C24  1  0.21654300  0.60366200  0.60660400  1
  C  C25  1  0.21654300  0.89633800  0.39339600  1
  C  C26  1  0.78345700  0.39633800  0.39339600  1
  C  C27  1  0.78345700  0.10366200  0.60660400  1
  C  C28  1  0.20654400  0.61309600  0.44116700  1
  C  C29  1  0.20654400  0.88690400  0.55883300  1
  C  C30  1  0.79345600  0.38690400  0.55883300  1
  C  C31  1  0.79345600  0.11309600  0.44116700  1
  C  C32  1  0.91108400  0.69256000  0.71941600  1
  C  C33  1  0.91108400  0.80744000  0.28058400  1
  C  C34  1  0.08891600  0.30744000  0.28058400  1
  C  C35  1  0.08891600  0.19256000  0.71941600  1
  C  C36  1  0.91757000  0.45503800  0.74720300  1
  C  C37  1  0.91757000  0.04496200  0.25279700  1
  C  C38  1  0.08243000  0.54496200  0.25279700  1
  C  C39  1  0.08243000  0.95503800  0.74720300  1
  C  C40  1  0.57540300  0.44523200  0.72859800  1
  C  C41  1  0.57540300  0.05476800  0.27140200  1
  C  C42  1  0.42459700  0.55476800  0.27140200  1
  C  C43  1  0.42459700  0.94523200  0.72859800  1
  C  C44  1  0.55077000  0.67715700  0.72074700  1
  C  C45  1  0.55077000  0.82284300  0.27925300  1
  C  C46  1  0.44923000  0.32284300  0.27925300  1
  C  C47  1  0.44923000  0.17715700  0.72074700  1
  C  C48  1  0.41613600  0.75306900  0.91451400  1
  C  C49  1  0.41613600  0.74693100  0.08548600  1
  C  C50  1  0.58386400  0.24693100  0.08548600  1
  C  C51  1  0.58386400  0.25306900  0.91451400  1
  C  C52  1  0.02540600  0.72996400  0.91998900  1
  C  C53  1  0.02540600  0.77003600  0.08001100  1
  C  C54  1  0.97459400  0.27003600  0.08001100  1
  C  C55  1  0.97459400  0.22996400  0.91998900  1
  C  C56  1  0.24058000  0.55348200  0.83213700  1
  C  C57  1  0.24058000  0.94651800  0.16786200  1
  C  C58  1  0.75942000  0.44651800  0.16786200  1
  C  C59  1  0.75942000  0.05348200  0.83213700  1
  C  C60  1  0.36596700  0.31252500  0.49980200  1
  C  C61  1  0.36596700  0.18747500  0.50019800  1
  C  C62  1  0.63403300  0.68747500  0.50019800  1
  C  C63  1  0.63403300  0.81252500  0.49980200  1
  C  C64  1  0.74335300  0.57888200  0.02019400  1
  C  C65  1  0.74335300  0.92111800  0.97980600  1
  C  C66  1  0.25664700  0.42111800  0.97980600  1
  C  C67  1  0.25664700  0.07888200  0.02019400  1
