# generated using pymatgen
data_Cu3NiC8
_symmetry_space_group_name_H-M   'P 1'
_cell_length_a   9.06411700
_cell_length_b   5.58556200
_cell_length_c   13.96356766
_cell_angle_alpha   73.05783031
_cell_angle_beta   90.00000000
_cell_angle_gamma   90.00000000
_symmetry_Int_Tables_number   1
_chemical_formula_structural   Cu3NiC8
_chemical_formula_sum   'Cu12 Ni4 C32'
_cell_volume   676.26803937
_cell_formula_units_Z   4
loop_
 _symmetry_equiv_pos_site_id
 _symmetry_equiv_pos_as_xyz
  1  'x, y, z'
loop_
 _atom_site_type_symbol
 _atom_site_label
 _atom_site_symmetry_multiplicity
 _atom_site_fract_x
 _atom_site_fract_y
 _atom_site_fract_z
 _atom_site_occupancy
  C  C0  1  0.89159800  0.69383100  0.09801400  1
  C  C1  1  0.35486400  0.69164000  0.08590400  1
  C  C2  1  0.85486400  0.30836000  0.41409600  1
  C  C3  1  0.39159800  0.30616900  0.40198600  1
  C  C4  1  0.60840200  0.69383100  0.59801400  1
  C  C5  1  0.14513600  0.69164000  0.58590400  1
  C  C6  1  0.64513600  0.30836000  0.91409600  1
  C  C7  1  0.10840200  0.30616900  0.90198600  1
  C  C8  1  0.87349300  0.19108300  0.67205700  1
  C  C9  1  0.37349300  0.80891700  0.82794300  1
  C  C10  1  0.62650700  0.19108300  0.17205700  1
  C  C11  1  0.12650700  0.80891700  0.32794300  1
  Ni  Ni12  1  0.37687200  0.18096900  0.63642800  1
  Ni  Ni13  1  0.87687200  0.81903100  0.86357200  1
  Ni  Ni14  1  0.12312800  0.18096900  0.13642800  1
  Ni  Ni15  1  0.62312800  0.81903100  0.36357200  1
  Cu  Cu16  1  0.38060000  0.41376800  0.58366200  1
  Cu  Cu17  1  0.37241700  0.13643600  0.73365400  1
  Cu  Cu18  1  0.87745500  0.99491200  0.90598100  1
  Cu  Cu19  1  0.11940000  0.41376800  0.08366200  1
  Cu  Cu20  1  0.37745500  0.00508800  0.59401900  1
  Cu  Cu21  1  0.87241700  0.86356400  0.76634600  1
  Cu  Cu22  1  0.12758300  0.13643600  0.23365400  1
  Cu  Cu23  1  0.62254500  0.99491200  0.40598100  1
  Cu  Cu24  1  0.88060000  0.58623200  0.91633800  1
  Cu  Cu25  1  0.12254500  0.00508800  0.09401900  1
  Cu  Cu26  1  0.62758300  0.86356400  0.26634600  1
  Cu  Cu27  1  0.61940000  0.58623200  0.41633800  1
  C  C28  1  0.95153700  0.65538300  0.27194400  1
  C  C29  1  0.27745200  0.67881400  0.26315500  1
  C  C30  1  0.12790700  0.48165300  0.43193100  1
  C  C31  1  0.62790700  0.51834700  0.06806900  1
  C  C32  1  0.51013900  0.92633600  0.91068700  1
  C  C33  1  0.71114700  0.11027400  0.57629400  1
  C  C34  1  0.77745200  0.32118600  0.23684500  1
  C  C35  1  0.45153700  0.34461700  0.22805600  1
  C  C36  1  0.21114700  0.88972600  0.92370600  1
  C  C37  1  0.01013900  0.07366400  0.58931300  1
  C  C38  1  0.98986100  0.92633600  0.41068700  1
  C  C39  1  0.78885300  0.11027400  0.07629400  1
  C  C40  1  0.54846300  0.65538300  0.77194400  1
  C  C41  1  0.22254800  0.67881400  0.76315500  1
  C  C42  1  0.28885300  0.88972600  0.42370600  1
  C  C43  1  0.48986100  0.07366400  0.08931300  1
  C  C44  1  0.37209300  0.48165300  0.93193100  1
  C  C45  1  0.87209300  0.51834700  0.56806900  1
  C  C46  1  0.72254800  0.32118600  0.73684500  1
  C  C47  1  0.04846300  0.34461700  0.72805600  1
