# generated using pymatgen
data_Cu4NiC13
_symmetry_space_group_name_H-M   'P 1'
_cell_length_a   9.08742300
_cell_length_b   10.34686400
_cell_length_c   12.73914507
_cell_angle_alpha   52.68460903
_cell_angle_beta   90.00000000
_cell_angle_gamma   90.00000000
_symmetry_Int_Tables_number   1
_chemical_formula_structural   Cu4NiC13
_chemical_formula_sum   'Cu16 Ni4 C52'
_cell_volume   952.63509535
_cell_formula_units_Z   4
loop_
 _symmetry_equiv_pos_site_id
 _symmetry_equiv_pos_as_xyz
  1  'x, y, z'
loop_
 _atom_site_type_symbol
 _atom_site_label
 _atom_site_symmetry_multiplicity
 _atom_site_fract_x
 _atom_site_fract_y
 _atom_site_fract_z
 _atom_site_occupancy
  C  C0  1  0.94360600  0.32394700  0.99425900  1
  C  C1  1  0.44360600  0.67605300  0.50574100  1
  C  C2  1  0.55639400  0.32394700  0.49425900  1
  C  C3  1  0.05639400  0.67605300  0.00574100  1
  Ni  Ni4  1  0.78756400  0.68686400  0.30952500  1
  Ni  Ni5  1  0.71243600  0.68686400  0.80952500  1
  Ni  Ni6  1  0.28756400  0.31313600  0.19047500  1
  Ni  Ni7  1  0.21243600  0.31313600  0.69047500  1
  Cu  Cu8  1  0.38720000  0.19796500  0.98257400  1
  Cu  Cu9  1  0.59689800  0.39884400  0.75636000  1
  Cu  Cu10  1  0.17131900  0.68550800  0.35590000  1
  Cu  Cu11  1  0.09689800  0.60115600  0.74364000  1
  Cu  Cu12  1  0.88720000  0.80203500  0.51742600  1
  Cu  Cu13  1  0.01071700  0.98904500  0.25330900  1
  Cu  Cu14  1  0.51071700  0.01095500  0.24669100  1
  Cu  Cu15  1  0.32868100  0.68550800  0.85590000  1
  Cu  Cu16  1  0.67131900  0.31449200  0.14410000  1
  Cu  Cu17  1  0.48928300  0.98904500  0.75330900  1
  Cu  Cu18  1  0.98928300  0.01095500  0.74669100  1
  Cu  Cu19  1  0.11280000  0.19796500  0.48257400  1
  Cu  Cu20  1  0.90310200  0.39884400  0.25636000  1
  Cu  Cu21  1  0.82868100  0.31449200  0.64410000  1
  Cu  Cu22  1  0.40310200  0.60115600  0.24364000  1
  Cu  Cu23  1  0.61280000  0.80203500  0.01742600  1
  C  C24  1  0.28959200  0.15135100  0.91554900  1
  C  C25  1  0.71005400  0.28139400  0.75145700  1
  C  C26  1  0.96969900  0.37503700  0.66256800  1
  C  C27  1  0.54181400  0.26941500  0.90393600  1
  C  C28  1  0.47411600  0.45477000  0.65808700  1
  C  C29  1  0.24596200  0.59270700  0.48893000  1
  C  C30  1  0.18540300  0.46918700  0.75649000  1
  C  C31  1  0.83183100  0.69177900  0.48591300  1
  C  C32  1  0.68540300  0.53081300  0.74351000  1
  C  C33  1  0.56105800  0.83777400  0.34228200  1
  C  C34  1  0.89838300  0.93431500  0.19994900  1
  C  C35  1  0.15174900  0.86902300  0.30916300  1
  C  C36  1  0.45028700  0.03325500  0.11721200  1
  C  C37  1  0.97411600  0.54523000  0.84191300  1
  C  C38  1  0.04181400  0.73058500  0.59606400  1
  C  C39  1  0.46969900  0.62496300  0.83743200  1
  C  C40  1  0.95028700  0.96674500  0.38278800  1
  C  C41  1  0.21005400  0.71860600  0.74854300  1
  C  C42  1  0.78959200  0.84864900  0.58445100  1
  C  C43  1  0.65174900  0.13097700  0.19083700  1
  C  C44  1  0.25403800  0.59270700  0.98893000  1
  C  C45  1  0.39838300  0.06568500  0.30005100  1
  C  C46  1  0.06105800  0.16222600  0.15771800  1
  C  C47  1  0.33183100  0.30822100  0.01408700  1
  C  C48  1  0.66816900  0.69177900  0.98591300  1
  C  C49  1  0.93894200  0.83777400  0.84228200  1
  C  C50  1  0.60161700  0.93431500  0.69994900  1
  C  C51  1  0.74596200  0.40729300  0.01107000  1
  C  C52  1  0.34825100  0.86902300  0.80916300  1
  C  C53  1  0.21040800  0.15135100  0.41554900  1
  C  C54  1  0.78994600  0.28139400  0.25145700  1
  C  C55  1  0.04971300  0.03325500  0.61721200  1
  C  C56  1  0.53030100  0.37503700  0.16256800  1
  C  C57  1  0.95818600  0.26941500  0.40393600  1
  C  C58  1  0.02588400  0.45477000  0.15808700  1
  C  C59  1  0.54971300  0.96674500  0.88278800  1
  C  C60  1  0.84825100  0.13097700  0.69083700  1
  C  C61  1  0.10161700  0.06568500  0.80005100  1
  C  C62  1  0.43894200  0.16222600  0.65771800  1
  C  C63  1  0.31459700  0.46918700  0.25649000  1
  C  C64  1  0.16816900  0.30822100  0.51408700  1
  C  C65  1  0.81459700  0.53081300  0.24351000  1
  C  C66  1  0.75403800  0.40729300  0.51107000  1
  C  C67  1  0.52588400  0.54523000  0.34191300  1
  C  C68  1  0.45818600  0.73058500  0.09606400  1
  C  C69  1  0.03030100  0.62496300  0.33743200  1
  C  C70  1  0.28994600  0.71860600  0.24854300  1
  C  C71  1  0.71040800  0.84864900  0.08445100  1
