# generated using pymatgen
data_Cu6Ni2C
_symmetry_space_group_name_H-M   'P 1'
_cell_length_a   7.75324800
_cell_length_b   7.20533600
_cell_length_c   22.91294046
_cell_angle_alpha   80.37030441
_cell_angle_beta   90.00000000
_cell_angle_gamma   90.00000000
_symmetry_Int_Tables_number   1
_chemical_formula_structural   Cu6Ni2C
_chemical_formula_sum   'Cu48 Ni16 C8'
_cell_volume   1261.98960758
_cell_formula_units_Z   8
loop_
 _symmetry_equiv_pos_site_id
 _symmetry_equiv_pos_as_xyz
  1  'x, y, z'
loop_
 _atom_site_type_symbol
 _atom_site_label
 _atom_site_symmetry_multiplicity
 _atom_site_fract_x
 _atom_site_fract_y
 _atom_site_fract_z
 _atom_site_occupancy
  C  C0  1  0.38229900  0.73859600  0.00786100  1
  C  C1  1  0.88229900  0.26140400  0.49213900  1
  C  C2  1  0.61770100  0.26140400  0.99213900  1
  C  C3  1  0.11770100  0.73859600  0.50786100  1
  C  C4  1  0.13030900  0.82854100  0.18104800  1
  C  C5  1  0.63030900  0.17145900  0.31895200  1
  C  C6  1  0.86969100  0.17145900  0.81895200  1
  C  C7  1  0.36969100  0.82854100  0.68104800  1
  Ni  Ni8  1  0.64055700  0.85964600  0.14461300  1
  Ni  Ni9  1  0.14055700  0.14035400  0.35538700  1
  Ni  Ni10  1  0.35944300  0.14035400  0.85538700  1
  Ni  Ni11  1  0.85944300  0.85964600  0.64461300  1
  Ni  Ni12  1  0.89129900  0.77700500  0.99147800  1
  Ni  Ni13  1  0.39129900  0.22299500  0.50852200  1
  Ni  Ni14  1  0.10870100  0.22299500  0.00852200  1
  Ni  Ni15  1  0.60870100  0.77700500  0.49147800  1
  Ni  Ni16  1  0.86605800  0.33825300  0.14650600  1
  Ni  Ni17  1  0.36605800  0.66174700  0.35349400  1
  Ni  Ni18  1  0.13394200  0.66174700  0.85349400  1
  Ni  Ni19  1  0.63394200  0.33825300  0.64650600  1
  Ni  Ni20  1  0.38324000  0.34698000  0.15018600  1
  Ni  Ni21  1  0.88324000  0.65302000  0.34981400  1
  Ni  Ni22  1  0.61676000  0.65302000  0.84981400  1
  Ni  Ni23  1  0.11676000  0.34698000  0.65018600  1
  Cu  Cu24  1  0.82154400  0.02117800  0.15837400  1
  Cu  Cu25  1  0.32154400  0.97882200  0.34162600  1
  Cu  Cu26  1  0.17845600  0.97882200  0.84162600  1
  Cu  Cu27  1  0.67845600  0.02117800  0.65837400  1
  Cu  Cu28  1  0.45290200  0.98985900  0.16201800  1
  Cu  Cu29  1  0.95290200  0.01014100  0.33798200  1
  Cu  Cu30  1  0.54709800  0.01014100  0.83798200  1
  Cu  Cu31  1  0.04709800  0.98985900  0.66201800  1
  Cu  Cu32  1  0.63917600  0.90399500  0.06378600  1
  Cu  Cu33  1  0.13917600  0.09600500  0.43621400  1
  Cu  Cu34  1  0.36082400  0.09600500  0.93621400  1
  Cu  Cu35  1  0.86082400  0.90399500  0.56378600  1
  Cu  Cu36  1  0.86270300  0.01495400  0.95126100  1
  Cu  Cu37  1  0.36270300  0.98504600  0.54873900  1
  Cu  Cu38  1  0.13729700  0.98504600  0.04873900  1
  Cu  Cu39  1  0.63729700  0.01495400  0.45126100  1
  Cu  Cu40  1  0.07806900  0.68894100  0.94907900  1
  Cu  Cu41  1  0.57806900  0.31105900  0.55092100  1
  Cu  Cu42  1  0.92193100  0.31105900  0.05092100  1
  Cu  Cu43  1  0.42193100  0.68894100  0.44907900  1
  Cu  Cu44  1  0.70936900  0.65320900  0.96573400  1
  Cu  Cu45  1  0.20936900  0.34679100  0.53426600  1
  Cu  Cu46  1  0.29063100  0.34679100  0.03426600  1
  Cu  Cu47  1  0.79063100  0.65320900  0.46573400  1
  Cu  Cu48  1  0.90910600  0.58833400  0.12259900  1
  Cu  Cu49  1  0.40910600  0.41166600  0.37740100  1
  Cu  Cu50  1  0.09089400  0.41166600  0.87740100  1
  Cu  Cu51  1  0.59089400  0.58833400  0.62259900  1
  Cu  Cu52  1  0.79142700  0.32890100  0.22039300  1
  Cu  Cu53  1  0.29142700  0.67109900  0.27960700  1
  Cu  Cu54  1  0.20857300  0.67109900  0.77960700  1
  Cu  Cu55  1  0.70857300  0.32890100  0.72039300  1
  Cu  Cu56  1  0.09129700  0.25070400  0.16278300  1
  Cu  Cu57  1  0.59129700  0.74929600  0.33721700  1
  Cu  Cu58  1  0.90870300  0.74929600  0.83721700  1
  Cu  Cu59  1  0.40870300  0.25070400  0.66278300  1
  Cu  Cu60  1  0.37046600  0.60345100  0.13140200  1
  Cu  Cu61  1  0.87046600  0.39654900  0.36859800  1
  Cu  Cu62  1  0.62953400  0.39654900  0.86859800  1
  Cu  Cu63  1  0.12953400  0.60345100  0.63140200  1
  Cu  Cu64  1  0.40547900  0.31731600  0.22872900  1
  Cu  Cu65  1  0.90547900  0.68268400  0.27127100  1
  Cu  Cu66  1  0.59452100  0.68268400  0.77127100  1
  Cu  Cu67  1  0.09452100  0.31731600  0.72872900  1
  Cu  Cu68  1  0.63468100  0.35311200  0.11089200  1
  Cu  Cu69  1  0.13468100  0.64688800  0.38910800  1
  Cu  Cu70  1  0.36531900  0.64688800  0.88910800  1
  Cu  Cu71  1  0.86531900  0.35311200  0.61089200  1
