# generated using pymatgen
data_CuNi7C4
_symmetry_space_group_name_H-M   'P 1'
_cell_length_a   6.67405371
_cell_length_b   6.67405371
_cell_length_c   6.98165352
_cell_angle_alpha   65.61783188
_cell_angle_beta   65.61783188
_cell_angle_gamma   96.05727617
_symmetry_Int_Tables_number   1
_chemical_formula_structural   CuNi7C4
_chemical_formula_sum   'Cu2 Ni14 C8'
_cell_volume   243.29506413
_cell_formula_units_Z   2
loop_
 _symmetry_equiv_pos_site_id
 _symmetry_equiv_pos_as_xyz
  1  'x, y, z'
loop_
 _atom_site_type_symbol
 _atom_site_label
 _atom_site_symmetry_multiplicity
 _atom_site_fract_x
 _atom_site_fract_y
 _atom_site_fract_z
 _atom_site_occupancy
  C  C0  1  0.54105600  0.53618100  0.16286700  1
  C  C1  1  0.94102200  0.44782200  0.85684700  1
  C  C2  1  0.44782200  0.94102200  0.35684700  1
  C  C3  1  0.06576600  0.05736200  0.63845400  1
  C  C4  1  0.94896700  0.43712800  0.35411800  1
  C  C5  1  0.53618100  0.54105600  0.66286700  1
  C  C6  1  0.05736200  0.06576600  0.13845400  1
  C  C7  1  0.43712800  0.94896700  0.85411800  1
  Ni  Ni8  1  0.97550700  0.14611300  0.39108400  1
  Ni  Ni9  1  0.48842500  0.65203200  0.38490700  1
  Ni  Ni10  1  0.85010300  0.52262700  0.11317700  1
  Ni  Ni11  1  0.78984600  0.11882400  0.10788100  1
  Ni  Ni12  1  0.65203200  0.48842500  0.88490700  1
  Ni  Ni13  1  0.38225900  0.20138900  0.39098800  1
  Ni  Ni14  1  0.11882400  0.78984600  0.60788100  1
  Ni  Ni15  1  0.61833400  0.28816600  0.61318700  1
  Ni  Ni16  1  0.20138900  0.38225900  0.89098800  1
  Ni  Ni17  1  0.35148800  0.02686900  0.10745700  1
  Ni  Ni18  1  0.28816600  0.61833400  0.11318700  1
  Ni  Ni19  1  0.14611300  0.97550700  0.89108400  1
  Ni  Ni20  1  0.52262700  0.85010300  0.61317700  1
  Ni  Ni21  1  0.02686900  0.35148800  0.60745700  1
  Cu  Cu22  1  0.71755900  0.89515700  0.87903200  1
  Cu  Cu23  1  0.89515700  0.71755900  0.37903200  1
