# generated using pymatgen
data_Cu8Ni2C15
_symmetry_space_group_name_H-M   'P 1'
_cell_length_a   5.09388700
_cell_length_b   10.76003700
_cell_length_c   19.05636000
_cell_angle_alpha   90.00000000
_cell_angle_beta   90.00000000
_cell_angle_gamma   90.00000000
_symmetry_Int_Tables_number   1
_chemical_formula_structural   Cu8Ni2C15
_chemical_formula_sum   'Cu32 Ni8 C60'
_cell_volume   1044.48695414
_cell_formula_units_Z   4
loop_
 _symmetry_equiv_pos_site_id
 _symmetry_equiv_pos_as_xyz
  1  'x, y, z'
loop_
 _atom_site_type_symbol
 _atom_site_label
 _atom_site_symmetry_multiplicity
 _atom_site_fract_x
 _atom_site_fract_y
 _atom_site_fract_z
 _atom_site_occupancy
  C  C0  1  0.93786700  0.73852300  0.25000000  1
  C  C1  1  0.56213300  0.23852300  0.25000000  1
  C  C2  1  0.06213300  0.26147700  0.75000000  1
  C  C3  1  0.43786700  0.76147700  0.75000000  1
  C  C4  1  0.28501200  0.64214300  0.99852200  1
  C  C5  1  0.21498800  0.14214300  0.50147800  1
  C  C6  1  0.71498800  0.35785700  0.49852200  1
  C  C7  1  0.78501200  0.85785700  0.00147800  1
  C  C8  1  0.71498800  0.35785700  0.00147800  1
  C  C9  1  0.78501200  0.85785700  0.49852200  1
  C  C10  1  0.28501200  0.64214300  0.50147800  1
  C  C11  1  0.21498800  0.14214300  0.99852200  1
  Ni  Ni12  1  0.77345000  0.60290500  0.09343900  1
  Ni  Ni13  1  0.72655000  0.10290500  0.40656100  1
  Ni  Ni14  1  0.22655000  0.39709500  0.59343900  1
  Ni  Ni15  1  0.27345000  0.89709500  0.90656100  1
  Ni  Ni16  1  0.22655000  0.39709500  0.90656100  1
  Ni  Ni17  1  0.27345000  0.89709500  0.59343900  1
  Ni  Ni18  1  0.77345000  0.60290500  0.40656100  1
  Ni  Ni19  1  0.72655000  0.10290500  0.09343900  1
  Cu  Cu20  1  0.37628900  0.61630400  0.20997800  1
  Cu  Cu21  1  0.12371100  0.11630400  0.29002200  1
  Cu  Cu22  1  0.62371100  0.38369600  0.70997800  1
  Cu  Cu23  1  0.87628900  0.88369600  0.79002200  1
  Cu  Cu24  1  0.62371100  0.38369600  0.79002200  1
  Cu  Cu25  1  0.87628900  0.88369600  0.70997800  1
  Cu  Cu26  1  0.37628900  0.61630400  0.29002200  1
  Cu  Cu27  1  0.12371100  0.11630400  0.20997800  1
  Cu  Cu28  1  0.68944000  0.94960600  0.20988100  1
  Cu  Cu29  1  0.81056000  0.44960600  0.29011900  1
  Cu  Cu30  1  0.31056000  0.05039400  0.70988100  1
  Cu  Cu31  1  0.18944000  0.55039400  0.79011900  1
  Cu  Cu32  1  0.31056000  0.05039400  0.79011900  1
  Cu  Cu33  1  0.18944000  0.55039400  0.70988100  1
  Cu  Cu34  1  0.68944000  0.94960600  0.29011900  1
  Cu  Cu35  1  0.81056000  0.44960600  0.20988100  1
  Cu  Cu36  1  0.21174500  0.76091500  0.13489400  1
  Cu  Cu37  1  0.28825500  0.26091500  0.36510600  1
  Cu  Cu38  1  0.78825500  0.23908500  0.63489400  1
  Cu  Cu39  1  0.71174500  0.73908500  0.86510600  1
  Cu  Cu40  1  0.78825500  0.23908500  0.86510600  1
  Cu  Cu41  1  0.71174500  0.73908500  0.63489400  1
  Cu  Cu42  1  0.21174500  0.76091500  0.36510600  1
  Cu  Cu43  1  0.28825500  0.26091500  0.13489400  1
  Cu  Cu44  1  0.05494900  0.88597300  0.13528700  1
  Cu  Cu45  1  0.44505100  0.38597300  0.36471300  1
  Cu  Cu46  1  0.94505100  0.11402700  0.63528700  1
  Cu  Cu47  1  0.55494900  0.61402700  0.86471300  1
  Cu  Cu48  1  0.94505100  0.11402700  0.86471300  1
  Cu  Cu49  1  0.55494900  0.61402700  0.63528700  1
  Cu  Cu50  1  0.05494900  0.88597300  0.36471300  1
  Cu  Cu51  1  0.44505100  0.38597300  0.13528700  1
  C  C52  1  0.25350600  0.60994500  0.25000000  1
  C  C53  1  0.24649400  0.10994500  0.25000000  1
  C  C54  1  0.74649400  0.39005500  0.75000000  1
  C  C55  1  0.75350600  0.89005500  0.75000000  1
  C  C56  1  0.69313200  0.89346200  0.25000000  1
  C  C57  1  0.80686800  0.39346200  0.25000000  1
  C  C58  1  0.30686800  0.10653800  0.75000000  1
  C  C59  1  0.19313200  0.60653800  0.75000000  1
  C  C60  1  0.15449600  0.82807800  0.16580900  1
  C  C61  1  0.34550400  0.32807800  0.33419100  1
  C  C62  1  0.84550400  0.17192200  0.66580900  1
  C  C63  1  0.65449600  0.67192200  0.83419100  1
  C  C64  1  0.84550400  0.17192200  0.83419100  1
  C  C65  1  0.65449600  0.67192200  0.66580900  1
  C  C66  1  0.15449600  0.82807800  0.33419100  1
  C  C67  1  0.34550400  0.32807800  0.16580900  1
  C  C68  1  0.71506200  0.63681900  0.16990300  1
  C  C69  1  0.78493800  0.13681900  0.33009700  1
  C  C70  1  0.28493800  0.36318100  0.66990300  1
  C  C71  1  0.21506200  0.86318100  0.83009700  1
  C  C72  1  0.28493800  0.36318100  0.83009700  1
  C  C73  1  0.21506200  0.86318100  0.66990300  1
  C  C74  1  0.71506200  0.63681900  0.33009700  1
  C  C75  1  0.78493800  0.13681900  0.16990300  1
  C  C76  1  0.07177100  0.60596600  0.07929700  1
  C  C77  1  0.42822900  0.10596600  0.42070300  1
  C  C78  1  0.92822900  0.39403400  0.57929700  1
  C  C79  1  0.57177100  0.89403400  0.92070300  1
  C  C80  1  0.92822900  0.39403400  0.92070300  1
  C  C81  1  0.57177100  0.89403400  0.57929700  1
  C  C82  1  0.07177100  0.60596600  0.42070300  1
  C  C83  1  0.42822900  0.10596600  0.07929700  1
  C  C84  1  0.84671400  0.97203200  0.07832100  1
  C  C85  1  0.65328600  0.47203200  0.42167900  1
  C  C86  1  0.15328600  0.02796800  0.57832100  1
  C  C87  1  0.34671400  0.52796800  0.92167900  1
  C  C88  1  0.15328600  0.02796800  0.92167900  1
  C  C89  1  0.34671400  0.52796800  0.57832100  1
  C  C90  1  0.84671400  0.97203200  0.42167900  1
  C  C91  1  0.65328600  0.47203200  0.07832100  1
  C  C92  1  0.63535100  0.69568200  0.03952300  1
  C  C93  1  0.86464900  0.19568200  0.46047700  1
  C  C94  1  0.36464900  0.30431800  0.53952300  1
  C  C95  1  0.13535100  0.80431800  0.96047700  1
  C  C96  1  0.36464900  0.30431800  0.96047700  1
  C  C97  1  0.13535100  0.80431800  0.53952300  1
  C  C98  1  0.63535100  0.69568200  0.46047700  1
  C  C99  1  0.86464900  0.19568200  0.03952300  1
