# generated using pymatgen
data_CuNiC12
_symmetry_space_group_name_H-M   'P 1'
_cell_length_a   6.13039800
_cell_length_b   10.50630400
_cell_length_c   14.29617649
_cell_angle_alpha   89.92425314
_cell_angle_beta   90.00000000
_cell_angle_gamma   90.00000000
_symmetry_Int_Tables_number   1
_chemical_formula_structural   CuNiC12
_chemical_formula_sum   'Cu6 Ni6 C72'
_cell_volume   920.78482950
_cell_formula_units_Z   6
loop_
 _symmetry_equiv_pos_site_id
 _symmetry_equiv_pos_as_xyz
  1  'x, y, z'
loop_
 _atom_site_type_symbol
 _atom_site_label
 _atom_site_symmetry_multiplicity
 _atom_site_fract_x
 _atom_site_fract_y
 _atom_site_fract_z
 _atom_site_occupancy
  C  C0  1  0.25125700  0.00071100  0.00005900  1
  C  C1  1  0.74874300  0.00071100  0.00005900  1
  C  C2  1  0.25097100  0.49972100  0.16660400  1
  C  C3  1  0.74902900  0.49972100  0.16660400  1
  C  C4  1  0.25086200  0.00016300  0.33339200  1
  C  C5  1  0.74913800  0.00016300  0.33339200  1
  C  C6  1  0.25107700  0.49995500  0.50014300  1
  C  C7  1  0.74892300  0.49995500  0.50014300  1
  C  C8  1  0.25087400  0.00052900  0.66672300  1
  C  C9  1  0.74912600  0.00052900  0.66672300  1
  C  C10  1  0.25127100  0.49981700  0.83324900  1
  C  C11  1  0.74872900  0.49981700  0.83324900  1
  Ni  Ni12  1  0.00000000  0.71839300  0.00827500  1
  Ni  Ni13  1  0.00000000  0.21867000  0.15822300  1
  Ni  Ni14  1  0.50000000  0.78124600  0.17488500  1
  Ni  Ni15  1  0.00000000  0.71872300  0.34183700  1
  Ni  Ni16  1  0.00000000  0.21847700  0.49160100  1
  Ni  Ni17  1  0.00000000  0.71830900  0.67509200  1
  Cu  Cu18  1  0.50000000  0.28150300  0.32439700  1
  Cu  Cu19  1  0.50000000  0.78159000  0.50894800  1
  Cu  Cu20  1  0.50000000  0.28150000  0.65787200  1
  Cu  Cu21  1  0.00000000  0.21833100  0.82545100  1
  Cu  Cu22  1  0.50000000  0.78177700  0.84202000  1
  Cu  Cu23  1  0.50000000  0.28135400  0.99067300  1
  C  C24  1  0.50000000  0.59216300  0.02840900  1
  C  C25  1  0.50000000  0.09441600  0.13735300  1
  C  C26  1  0.00000000  0.90766100  0.19581600  1
  C  C27  1  0.00000000  0.40684700  0.30507500  1
  C  C28  1  0.50000000  0.59265100  0.36311700  1
  C  C29  1  0.50000000  0.09347700  0.47067600  1
  C  C30  1  0.00000000  0.90685300  0.52813100  1
  C  C31  1  0.00000000  0.40570900  0.63898300  1
  C  C32  1  0.50000000  0.59348200  0.69583100  1
  C  C33  1  0.50000000  0.09396900  0.80466100  1
  C  C34  1  0.00000000  0.90783600  0.86100200  1
  C  C35  1  0.00000000  0.40601300  0.97115600  1
  C  C36  1  0.50000000  0.45457300  0.06894800  1
  C  C37  1  0.29866400  0.66159800  0.07324200  1
  C  C38  1  0.70133600  0.66159800  0.07324200  1
  C  C39  1  0.00000000  0.40423100  0.07838800  1
  C  C40  1  0.00000000  0.90464700  0.08793500  1
  C  C41  1  0.29876800  0.16381400  0.09205200  1
  C  C42  1  0.70123200  0.16381400  0.09205200  1
  C  C43  1  0.50000000  0.95684000  0.09638800  1
  C  C44  1  0.00000000  0.04430000  0.23707200  1
  C  C45  1  0.79860800  0.83758300  0.23990200  1
  C  C46  1  0.20139200  0.83758300  0.23990200  1
  C  C47  1  0.50000000  0.09705600  0.24472800  1
  C  C48  1  0.50000000  0.59611100  0.25548400  1
  C  C49  1  0.79718000  0.33660300  0.26172800  1
  C  C50  1  0.20282000  0.33660300  0.26172800  1
  C  C51  1  0.00000000  0.54326900  0.26249300  1
  C  C52  1  0.50000000  0.45492800  0.40333200  1
  C  C53  1  0.29910200  0.66284600  0.40792700  1
  C  C54  1  0.70089800  0.66284600  0.40792700  1
  C  C55  1  0.00000000  0.40488500  0.41263000  1
  C  C56  1  0.00000000  0.90495300  0.42089200  1
  C  C57  1  0.70095300  0.16289500  0.42550600  1
  C  C58  1  0.29904700  0.16289500  0.42550600  1
  C  C59  1  0.50000000  0.95537800  0.43090500  1
  C  C60  1  0.00000000  0.04302500  0.57068300  1
  C  C61  1  0.79710800  0.83629900  0.57165100  1
  C  C62  1  0.20289200  0.83629900  0.57165100  1
  C  C63  1  0.50000000  0.09729100  0.57865300  1
  C  C64  1  0.50000000  0.59754700  0.58825300  1
  C  C65  1  0.20297900  0.33618600  0.59514500  1
  C  C66  1  0.79702100  0.33618600  0.59514500  1
  C  C67  1  0.00000000  0.54236700  0.59709700  1
  C  C68  1  0.50000000  0.45536100  0.73587200  1
  C  C69  1  0.29912700  0.66304200  0.74125300  1
  C  C70  1  0.70087300  0.66304200  0.74125300  1
  C  C71  1  0.00000000  0.40234800  0.74681800  1
  C  C72  1  0.00000000  0.90448500  0.75368100  1
  C  C73  1  0.70268600  0.16368500  0.76006200  1
  C  C74  1  0.29731400  0.16368500  0.76006200  1
  C  C75  1  0.50000000  0.95635400  0.76412600  1
  C  C76  1  0.00000000  0.04492100  0.90235600  1
  C  C77  1  0.79742800  0.83760600  0.90511000  1
  C  C78  1  0.20257200  0.83760600  0.90511000  1
  C  C79  1  0.50000000  0.09723600  0.91222500  1
  C  C80  1  0.50000000  0.59693000  0.92067500  1
  C  C81  1  0.20259800  0.33558700  0.92718500  1
  C  C82  1  0.79740200  0.33558700  0.92718500  1
  C  C83  1  0.00000000  0.54273600  0.92901200  1
