# generated using pymatgen
data_CuNiC
_symmetry_space_group_name_H-M   'P 1'
_cell_length_a   3.09241000
_cell_length_b   9.48813800
_cell_length_c   9.52111433
_cell_angle_alpha   89.45209869
_cell_angle_beta   90.00000000
_cell_angle_gamma   90.00000000
_symmetry_Int_Tables_number   1
_chemical_formula_structural   CuNiC
_chemical_formula_sum   'Cu8 Ni8 C8'
_cell_volume   279.34826885
_cell_formula_units_Z   8
loop_
 _symmetry_equiv_pos_site_id
 _symmetry_equiv_pos_as_xyz
  1  'x, y, z'
loop_
 _atom_site_type_symbol
 _atom_site_label
 _atom_site_symmetry_multiplicity
 _atom_site_fract_x
 _atom_site_fract_y
 _atom_site_fract_z
 _atom_site_occupancy
  C  C0  1  0.00000000  0.98044300  0.99734900  1
  C  C1  1  0.00000000  0.99966700  0.49980000  1
  C  C2  1  0.50000000  0.74384400  0.22296800  1
  C  C3  1  0.50000000  0.77549000  0.74054500  1
  C  C4  1  0.00000000  0.47935700  0.49575300  1
  C  C5  1  0.00000000  0.49950800  0.00196600  1
  C  C6  1  0.50000000  0.24086500  0.27406700  1
  C  C7  1  0.50000000  0.28016200  0.75743000  1
  Ni  Ni8  1  0.50000000  0.90538000  0.89985700  1
  Ni  Ni9  1  0.00000000  0.85013700  0.15625000  1
  Ni  Ni10  1  0.00000000  0.85496100  0.64242300  1
  Ni  Ni11  1  0.50000000  0.59214200  0.09696200  1
  Ni  Ni12  1  0.50000000  0.40156900  0.39936800  1
  Ni  Ni13  1  0.50000000  0.40456000  0.91064400  1
  Ni  Ni14  1  0.00000000  0.34938300  0.65497900  1
  Ni  Ni15  1  0.00000000  0.14353500  0.35554700  1
  Cu  Cu16  1  0.50000000  0.89984900  0.40294300  1
  Cu  Cu17  1  0.00000000  0.65319500  0.35161700  1
  Cu  Cu18  1  0.00000000  0.65735500  0.83522800  1
  Cu  Cu19  1  0.50000000  0.60062900  0.59310100  1
  Cu  Cu20  1  0.00000000  0.33568600  0.15949200  1
  Cu  Cu21  1  0.00000000  0.15393100  0.85188500  1
  Cu  Cu22  1  0.50000000  0.10051200  0.09880100  1
  Cu  Cu23  1  0.50000000  0.09784000  0.60102300  1
