# generated using pymatgen
data_CuNiC6
_symmetry_space_group_name_H-M   'P 1'
_cell_length_a   5.95011500
_cell_length_b   5.95011500
_cell_length_c   9.28943273
_cell_angle_alpha   88.82696840
_cell_angle_beta   88.82696840
_cell_angle_gamma   59.53506762
_symmetry_Int_Tables_number   1
_chemical_formula_structural   CuNiC6
_chemical_formula_sum   'Cu3 Ni3 C18'
_cell_volume   283.39746093
_cell_formula_units_Z   3
loop_
 _symmetry_equiv_pos_site_id
 _symmetry_equiv_pos_as_xyz
  1  'x, y, z'
loop_
 _atom_site_type_symbol
 _atom_site_label
 _atom_site_symmetry_multiplicity
 _atom_site_fract_x
 _atom_site_fract_y
 _atom_site_fract_z
 _atom_site_occupancy
  Ni  Ni0  1  0.82952000  0.82952000  0.21341400  1
  Ni  Ni1  1  0.66230700  0.16655400  0.71187700  1
  Ni  Ni2  1  0.16655400  0.66230700  0.71187700  1
  Cu  Cu3  1  0.82949300  0.33224400  0.20944700  1
  Cu  Cu4  1  0.33224400  0.82949300  0.20944700  1
  Cu  Cu5  1  0.16561500  0.16561500  0.70941700  1
  C  C6  1  0.66678300  0.66678300  0.48983800  1
  C  C7  1  0.33231900  0.33231900  0.99050500  1
  C  C8  1  0.83093100  0.33322900  0.60094400  1
  C  C9  1  0.52141800  0.52141800  0.34369100  1
  C  C10  1  0.67277700  0.67277700  0.10691800  1
  C  C11  1  0.99296500  0.99296500  0.30701000  1
  C  C12  1  0.99270400  0.99270400  0.80773100  1
  C  C13  1  0.33322900  0.83093100  0.60094400  1
  C  C14  1  0.96311800  0.52933800  0.34053800  1
  C  C15  1  0.52933800  0.96311800  0.34053800  1
  C  C16  1  0.16529600  0.16529600  0.09784700  1
  C  C17  1  0.83420700  0.83420700  0.60393900  1
  C  C18  1  0.48993700  0.04124100  0.83950100  1
  C  C19  1  0.04124100  0.48993700  0.83950100  1
  C  C20  1  0.34048400  0.34048400  0.60788900  1
  C  C21  1  0.66278500  0.16433900  0.10020900  1
  C  C22  1  0.48031000  0.48031000  0.83269500  1
  C  C23  1  0.16433900  0.66278500  0.10020900  1
