# generated using pymatgen
data_Cu(NiC)4
_symmetry_space_group_name_H-M   'P 1'
_cell_length_a   4.37137700
_cell_length_b   6.01780300
_cell_length_c   13.95821000
_cell_angle_alpha   90.00000000
_cell_angle_beta   90.00000000
_cell_angle_gamma   90.00000000
_symmetry_Int_Tables_number   1
_chemical_formula_structural   Cu(NiC)4
_chemical_formula_sum   'Cu4 Ni16 C16'
_cell_volume   367.18586743
_cell_formula_units_Z   4
loop_
 _symmetry_equiv_pos_site_id
 _symmetry_equiv_pos_as_xyz
  1  'x, y, z'
loop_
 _atom_site_type_symbol
 _atom_site_label
 _atom_site_symmetry_multiplicity
 _atom_site_fract_x
 _atom_site_fract_y
 _atom_site_fract_z
 _atom_site_occupancy
  C  C0  1  0.59154600  0.52861100  0.61836800  1
  C  C1  1  0.90845400  0.47138900  0.11836800  1
  C  C2  1  0.40845400  0.02861100  0.88163200  1
  C  C3  1  0.09154600  0.97138900  0.38163200  1
  Ni  Ni4  1  0.00507300  0.05659000  0.71638300  1
  Ni  Ni5  1  0.49492700  0.94341000  0.21638300  1
  Ni  Ni6  1  0.99492700  0.55659000  0.78361700  1
  Ni  Ni7  1  0.50507300  0.44341000  0.28361700  1
  Ni  Ni8  1  0.21046500  0.95161000  0.62463400  1
  Ni  Ni9  1  0.28953500  0.04839000  0.12463400  1
  Ni  Ni10  1  0.78953500  0.45161000  0.87536600  1
  Ni  Ni11  1  0.71046500  0.54839000  0.37536600  1
  Ni  Ni12  1  0.82027600  0.94776000  0.62298300  1
  Ni  Ni13  1  0.67972400  0.05224000  0.12298300  1
  Ni  Ni14  1  0.17972400  0.44776000  0.87701700  1
  Ni  Ni15  1  0.32027600  0.55224000  0.37701700  1
  Ni  Ni16  1  0.00746600  0.19738000  0.61206400  1
  Ni  Ni17  1  0.49253400  0.80262000  0.11206400  1
  Ni  Ni18  1  0.99253400  0.69738000  0.88793600  1
  Ni  Ni19  1  0.50746600  0.30262000  0.38793600  1
  Cu  Cu20  1  0.01252600  0.03781500  0.64326100  1
  Cu  Cu21  1  0.48747400  0.96218500  0.14326100  1
  Cu  Cu22  1  0.98747400  0.53781500  0.85673900  1
  Cu  Cu23  1  0.51252600  0.46218500  0.35673900  1
  C  C24  1  0.86730000  0.44856700  0.56686500  1
  C  C25  1  0.63270000  0.55143300  0.06686500  1
  C  C26  1  0.13270000  0.94856700  0.93313500  1
  C  C27  1  0.36730000  0.05143300  0.43313500  1
  C  C28  1  0.43234400  0.38029400  0.68533400  1
  C  C29  1  0.06765600  0.61970600  0.18533400  1
  C  C30  1  0.56765600  0.88029400  0.81466600  1
  C  C31  1  0.93234400  0.11970600  0.31466600  1
  C  C32  1  0.51328500  0.76881200  0.60835100  1
  C  C33  1  0.98671500  0.23118800  0.10835100  1
  C  C34  1  0.48671500  0.26881200  0.89164900  1
  C  C35  1  0.01328500  0.73118800  0.39164900  1
