# generated using pymatgen
data_CuNiC8
_symmetry_space_group_name_H-M   'P 1'
_cell_length_a   5.74839800
_cell_length_b   10.25145400
_cell_length_c   12.88647554
_cell_angle_alpha   69.61822978
_cell_angle_beta   90.00000000
_cell_angle_gamma   90.00000000
_symmetry_Int_Tables_number   1
_chemical_formula_structural   CuNiC8
_chemical_formula_sum   'Cu4 Ni4 C32'
_cell_volume   711.84933894
_cell_formula_units_Z   4
loop_
 _symmetry_equiv_pos_site_id
 _symmetry_equiv_pos_as_xyz
  1  'x, y, z'
loop_
 _atom_site_type_symbol
 _atom_site_label
 _atom_site_symmetry_multiplicity
 _atom_site_fract_x
 _atom_site_fract_y
 _atom_site_fract_z
 _atom_site_occupancy
  C  C0  1  0.25708000  0.34424100  0.86583200  1
  C  C1  1  0.75708000  0.65575900  0.63416800  1
  C  C2  1  0.74292000  0.65575900  0.13416800  1
  C  C3  1  0.24292000  0.34424100  0.36583200  1
  Ni  Ni4  1  0.22710900  0.78085200  0.86271900  1
  Ni  Ni5  1  0.72710900  0.21914800  0.63728100  1
  Ni  Ni6  1  0.77289100  0.21914800  0.13728100  1
  Ni  Ni7  1  0.27289100  0.78085200  0.36271900  1
  Cu  Cu8  1  0.23051700  0.07449200  0.67630800  1
  Cu  Cu9  1  0.73051700  0.92550800  0.82369200  1
  Cu  Cu10  1  0.76948300  0.92550800  0.32369200  1
  Cu  Cu11  1  0.26948300  0.07449200  0.17630800  1
  C  C12  1  0.01481600  0.13376900  0.59575000  1
  C  C13  1  0.51481600  0.86623100  0.90425000  1
  C  C14  1  0.98518400  0.86623100  0.40425000  1
  C  C15  1  0.48518400  0.13376900  0.09575000  1
  C  C16  1  0.44732000  0.12804400  0.59465400  1
  C  C17  1  0.94732000  0.87195600  0.90534600  1
  C  C18  1  0.55268000  0.87195600  0.40534600  1
  C  C19  1  0.05268000  0.12804400  0.09465400  1
  C  C20  1  0.22644000  0.90949400  0.70494000  1
  C  C21  1  0.72644000  0.09050600  0.79506000  1
  C  C22  1  0.77356000  0.09050600  0.29506000  1
  C  C23  1  0.27356000  0.90949400  0.20494000  1
  C  C24  1  0.23504700  0.11112300  0.77790000  1
  C  C25  1  0.73504700  0.88887700  0.72210000  1
  C  C26  1  0.76495300  0.88887700  0.22210000  1
  C  C27  1  0.26495300  0.11112300  0.27790000  1
  C  C28  1  0.26344300  0.66736100  0.51859300  1
  C  C29  1  0.76344300  0.33263900  0.98140700  1
  C  C30  1  0.73655700  0.33263900  0.48140700  1
  C  C31  1  0.23655700  0.66736100  0.01859300  1
  C  C32  1  0.00287400  0.64876200  0.84424100  1
  C  C33  1  0.50287400  0.35123800  0.65575900  1
  C  C34  1  0.99712600  0.35123800  0.15575900  1
  C  C35  1  0.49712600  0.64876200  0.34424100  1
  C  C36  1  0.43446300  0.65390300  0.82603300  1
  C  C37  1  0.93446300  0.34609700  0.67396700  1
  C  C38  1  0.56553700  0.34609700  0.17396700  1
  C  C39  1  0.06553700  0.65390300  0.32603300  1
