# generated using pymatgen
data_CuNiC18
_symmetry_space_group_name_H-M   'P 1'
_cell_length_a   10.31122220
_cell_length_b   10.31122220
_cell_length_c   10.07918476
_cell_angle_alpha   70.83035261
_cell_angle_beta   70.83035261
_cell_angle_gamma   108.97971653
_symmetry_Int_Tables_number   1
_chemical_formula_structural   CuNiC18
_chemical_formula_sum   'Cu4 Ni4 C72'
_cell_volume   835.89920497
_cell_formula_units_Z   4
loop_
 _symmetry_equiv_pos_site_id
 _symmetry_equiv_pos_as_xyz
  1  'x, y, z'
loop_
 _atom_site_type_symbol
 _atom_site_label
 _atom_site_symmetry_multiplicity
 _atom_site_fract_x
 _atom_site_fract_y
 _atom_site_fract_z
 _atom_site_occupancy
  C  C0  1  0.62177300  0.74416200  0.12738300  1
  C  C1  1  0.13685600  0.86314400  0.25000000  1
  C  C2  1  0.24813100  0.87847800  0.88255900  1
  C  C3  1  0.61688900  0.38311100  0.25000000  1
  C  C4  1  0.74416200  0.62177300  0.62738300  1
  C  C5  1  0.12152200  0.75186900  0.61744100  1
  C  C6  1  0.87847800  0.24813100  0.38255900  1
  C  C7  1  0.25583800  0.37822700  0.37261700  1
  C  C8  1  0.38311100  0.61688900  0.75000000  1
  C  C9  1  0.75186900  0.12152200  0.11744100  1
  C  C10  1  0.86314400  0.13685600  0.75000000  1
  C  C11  1  0.37822700  0.25583800  0.87261700  1
  Ni  Ni12  1  0.50000000  0.00000000  0.00000000  1
  Ni  Ni13  1  0.50000000  0.50000000  0.00000000  1
  Ni  Ni14  1  0.00000000  0.50000000  0.50000000  1
  Ni  Ni15  1  0.50000000  0.50000000  0.50000000  1
  Cu  Cu16  1  0.00000000  0.00000000  0.00000000  1
  Cu  Cu17  1  0.00000000  0.00000000  0.50000000  1
  Cu  Cu18  1  0.50000000  0.00000000  0.50000000  1
  Cu  Cu19  1  0.00000000  0.50000000  0.00000000  1
  C  C20  1  0.74864500  0.87753700  0.37590100  1
  C  C21  1  0.62693600  0.87719800  0.74800400  1
  C  C22  1  0.87719800  0.62693600  0.24800400  1
  C  C23  1  0.87753700  0.74864500  0.87590100  1
  C  C24  1  0.37568000  0.75688800  0.37010000  1
  C  C25  1  0.24311200  0.62432000  0.12990000  1
  C  C26  1  0.75688800  0.37568000  0.87010000  1
  C  C27  1  0.12246300  0.25135500  0.12409900  1
  C  C28  1  0.62432000  0.24311200  0.62990000  1
  C  C29  1  0.12280200  0.37306400  0.75199600  1
  C  C30  1  0.37306400  0.12280200  0.25199600  1
  C  C31  1  0.25135500  0.12246300  0.62409900  1
  C  C32  1  0.50666900  0.89609300  0.19589200  1
  C  C33  1  0.89008200  0.89127800  0.40692300  1
  C  C34  1  0.20276500  0.99409400  0.38629300  1
  C  C35  1  0.79213600  0.91571900  0.19888100  1
  C  C36  1  0.61105300  0.90675300  0.89415700  1
  C  C37  1  0.89127800  0.89008200  0.90692300  1
  C  C38  1  0.00590600  0.79723500  0.11370700  1
  C  C39  1  0.70972400  0.59302300  0.28435300  1
  C  C40  1  0.90675300  0.61105300  0.39415700  1
  C  C41  1  0.20651400  0.72166400  0.40714400  1
  C  C42  1  0.59302300  0.70972400  0.78435300  1
  C  C43  1  0.29831100  0.99177000  0.61554500  1
  C  C44  1  0.27833600  0.79348600  0.09285600  1
  C  C45  1  0.91571900  0.79213600  0.69888100  1
  C  C46  1  0.71082700  0.61612200  0.00475500  1
  C  C47  1  0.00823000  0.70168900  0.88445500  1
  C  C48  1  0.61612200  0.71082700  0.50475500  1
  C  C49  1  0.49761300  0.89143900  0.70083700  1
  C  C50  1  0.89143900  0.49761300  0.20083700  1
  C  C51  1  0.40843000  0.62094700  0.37774200  1
  C  C52  1  0.10390800  0.49333100  0.30410800  1
  C  C53  1  0.19699500  0.60868000  0.99780600  1
  C  C54  1  0.62094700  0.40843100  0.87774200  1
  C  C55  1  0.39132000  0.80300500  0.50219400  1
  C  C56  1  0.60868000  0.19699500  0.49780600  1
  C  C57  1  0.37905300  0.59157000  0.12225800  1
  C  C58  1  0.80300500  0.39132000  0.00219400  1
  C  C59  1  0.89609300  0.50666900  0.69589200  1
  C  C60  1  0.59157000  0.37905300  0.62225800  1
  C  C61  1  0.10856100  0.50238700  0.79916300  1
  C  C62  1  0.50238700  0.10856100  0.29916300  1
  C  C63  1  0.38387800  0.28917300  0.49524500  1
  C  C64  1  0.99177000  0.29831100  0.11554500  1
  C  C65  1  0.28917300  0.38387800  0.99524500  1
  C  C66  1  0.08428100  0.20786400  0.30111900  1
  C  C67  1  0.72166400  0.20651400  0.90714400  1
  C  C68  1  0.70168900  0.00823000  0.38445500  1
  C  C69  1  0.40697700  0.29027600  0.21564700  1
  C  C70  1  0.79348600  0.27833600  0.59285600  1
  C  C71  1  0.09324700  0.38894700  0.60584300  1
  C  C72  1  0.29027600  0.40697700  0.71564700  1
  C  C73  1  0.99409400  0.20276500  0.88629300  1
  C  C74  1  0.10872200  0.10991800  0.09307700  1
  C  C75  1  0.38894700  0.09324700  0.10584300  1
  C  C76  1  0.20786400  0.08428100  0.80111900  1
  C  C77  1  0.79723500  0.00590600  0.61370700  1
  C  C78  1  0.10991800  0.10872200  0.59307700  1
  C  C79  1  0.49333100  0.10390800  0.80410800  1
