# generated using pymatgen
data_Cu3NiC10
_symmetry_space_group_name_H-M   'P 1'
_cell_length_a   6.28042100
_cell_length_b   6.89349090
_cell_length_c   7.68205051
_cell_angle_alpha   80.88621256
_cell_angle_beta   88.94293607
_cell_angle_gamma   84.07170153
_symmetry_Int_Tables_number   1
_chemical_formula_structural   Cu3NiC10
_chemical_formula_sum   'Cu6 Ni2 C20'
_cell_volume   326.63123376
_cell_formula_units_Z   2
loop_
 _symmetry_equiv_pos_site_id
 _symmetry_equiv_pos_as_xyz
  1  'x, y, z'
loop_
 _atom_site_type_symbol
 _atom_site_label
 _atom_site_symmetry_multiplicity
 _atom_site_fract_x
 _atom_site_fract_y
 _atom_site_fract_z
 _atom_site_occupancy
  C  C0  1  0.11717100  0.57208000  0.17717400  1
  C  C1  1  0.88282900  0.42792000  0.82282600  1
  Ni  Ni2  1  0.19327800  0.12654000  0.13868800  1
  Ni  Ni3  1  0.80672200  0.87346000  0.86131200  1
  Cu  Cu4  1  0.15845100  0.22400200  0.54281500  1
  Cu  Cu5  1  0.30291600  0.85906700  0.77042700  1
  Cu  Cu6  1  0.37641400  0.41719700  0.79470700  1
  Cu  Cu7  1  0.62358600  0.58280300  0.20529300  1
  Cu  Cu8  1  0.69708400  0.14093300  0.22957300  1
  Cu  Cu9  1  0.84154900  0.77599800  0.45718500  1
  C  C10  1  0.04371100  0.73426000  0.36049100  1
  C  C11  1  0.15869200  0.27671200  0.34268300  1
  C  C12  1  0.11182200  0.87867300  0.89525400  1
  C  C13  1  0.19004100  0.37197800  0.91992500  1
  C  C14  1  0.24613900  0.99076300  0.58166700  1
  C  C15  1  0.35228200  0.32626500  0.61524900  1
  C  C16  1  0.33736000  0.64994100  0.71023100  1
  C  C17  1  0.40218800  0.63336400  0.13956200  1
  C  C18  1  0.49703100  0.07447800  0.16169400  1
  C  C19  1  0.50296900  0.92552200  0.83830600  1
  C  C20  1  0.59781200  0.36663600  0.86043800  1
  C  C21  1  0.66264000  0.35005900  0.28976900  1
  C  C22  1  0.64771800  0.67373500  0.38475100  1
  C  C23  1  0.75386100  0.00923700  0.41833300  1
  C  C24  1  0.80995900  0.62802200  0.08007500  1
  C  C25  1  0.88817800  0.12132700  0.10474600  1
  C  C26  1  0.84130800  0.72328800  0.65731700  1
  C  C27  1  0.95628900  0.26574000  0.63950900  1
