# generated using pymatgen
data_Cu2Ni3C31
_symmetry_space_group_name_H-M   'P 1'
_cell_length_a   8.52993351
_cell_length_b   8.52993351
_cell_length_c   8.52993362
_cell_angle_alpha   61.20196660
_cell_angle_beta   61.20196660
_cell_angle_gamma   61.20195982
_symmetry_Int_Tables_number   1
_chemical_formula_structural   Cu2Ni3C31
_chemical_formula_sum   'Cu2 Ni3 C31'
_cell_volume   450.72118525
_cell_formula_units_Z   1
loop_
 _symmetry_equiv_pos_site_id
 _symmetry_equiv_pos_as_xyz
  1  'x, y, z'
loop_
 _atom_site_type_symbol
 _atom_site_label
 _atom_site_symmetry_multiplicity
 _atom_site_fract_x
 _atom_site_fract_y
 _atom_site_fract_z
 _atom_site_occupancy
  Ni  Ni0  1  0.64532300  0.64532300  0.64532300  1
  Ni  Ni1  1  0.85702200  0.85702200  0.85702200  1
  Ni  Ni2  1  0.35443900  0.35443900  0.35443900  1
  Cu  Cu3  1  0.00264500  0.00264500  0.00264500  1
  Cu  Cu4  1  0.50155700  0.50155700  0.50155700  1
  C  C5  1  0.14647400  0.14647400  0.14647400  1
  C  C6  1  0.54437500  0.95363900  0.24760300  1
  C  C7  1  0.24760300  0.54437500  0.95363900  1
  C  C8  1  0.95363900  0.24760300  0.54437500  1
  C  C9  1  0.04474500  0.74885800  0.45635300  1
  C  C10  1  0.74885800  0.45635300  0.04474500  1
  C  C11  1  0.45635300  0.04474500  0.74885800  1
  C  C12  1  0.31370500  0.49502800  0.11860900  1
  C  C13  1  0.11860900  0.31370500  0.49502800  1
  C  C14  1  0.49502800  0.11860900  0.31370500  1
  C  C15  1  0.74390700  0.94159800  0.09077400  1
  C  C16  1  0.39596000  0.98025100  0.18237600  1
  C  C17  1  0.57133100  0.75852800  0.41021300  1
  C  C18  1  0.09077400  0.74390700  0.94159800  1
  C  C19  1  0.41021300  0.57133100  0.75852800  1
  C  C20  1  0.99819800  0.81621400  0.61859600  1
  C  C21  1  0.75852800  0.41021300  0.57133100  1
  C  C22  1  0.05063400  0.90065200  0.26410400  1
  C  C23  1  0.81621400  0.61859600  0.99819800  1
  C  C24  1  0.18237600  0.39596000  0.98025100  1
  C  C25  1  0.94159800  0.09077400  0.74390700  1
  C  C26  1  0.24014600  0.58765500  0.44502400  1
  C  C27  1  0.98025100  0.18237600  0.39596000  1
  C  C28  1  0.58765500  0.44502400  0.24014600  1
  C  C29  1  0.90065200  0.26410400  0.05063400  1
  C  C30  1  0.44502400  0.24014600  0.58765500  1
  C  C31  1  0.61859600  0.99819800  0.81621400  1
  C  C32  1  0.26410400  0.05063400  0.90065200  1
  C  C33  1  0.51635700  0.88843300  0.66866400  1
  C  C34  1  0.88843300  0.66866400  0.51635700  1
  C  C35  1  0.66866400  0.51635700  0.88843300  1
