# generated using pymatgen
data_Cu3NiC36
_symmetry_space_group_name_H-M   'P 1'
_cell_length_a   8.62738100
_cell_length_b   8.63046495
_cell_length_c   12.73574935
_cell_angle_alpha   105.93532439
_cell_angle_beta   105.99766802
_cell_angle_gamma   94.42999750
_symmetry_Int_Tables_number   1
_chemical_formula_structural   Cu3NiC36
_chemical_formula_sum   'Cu6 Ni2 C72'
_cell_volume   864.45262748
_cell_formula_units_Z   2
loop_
 _symmetry_equiv_pos_site_id
 _symmetry_equiv_pos_as_xyz
  1  'x, y, z'
loop_
 _atom_site_type_symbol
 _atom_site_label
 _atom_site_symmetry_multiplicity
 _atom_site_fract_x
 _atom_site_fract_y
 _atom_site_fract_z
 _atom_site_occupancy
  C  C0  1  0.99437500  0.00180500  0.87429200  1
  C  C1  1  0.99511400  0.00664700  0.37627200  1
  C  C2  1  0.71176900  0.28751300  0.62575100  1
  C  C3  1  0.50074000  0.50006500  0.74937500  1
  C  C4  1  0.71165300  0.28776700  0.12481200  1
  C  C5  1  0.50045800  0.50083500  0.50042100  1
  C  C6  1  0.28526600  0.71058400  0.87378000  1
  C  C7  1  0.49973200  0.49967100  0.25068200  1
  C  C8  1  0.49949900  0.49850900  0.99903000  1
  C  C9  1  0.28956500  0.71251500  0.37656000  1
  C  C10  1  0.00375100  0.99247600  0.62632200  1
  C  C11  1  0.00493000  0.99698300  0.12418900  1
  Ni  Ni12  1  0.94255200  0.62465300  0.93363800  1
  Ni  Ni13  1  0.62530100  0.94279100  0.68384200  1
  Cu  Cu14  1  0.37733900  0.05826300  0.81888300  1
  Cu  Cu15  1  0.37917300  0.05746100  0.32114100  1
  Cu  Cu16  1  0.05802000  0.37885500  0.57082900  1
  Cu  Cu17  1  0.05805400  0.37698000  0.06948400  1
  Cu  Cu18  1  0.94373300  0.61917600  0.43037900  1
  Cu  Cu19  1  0.61930100  0.94333500  0.18008200  1
  C  C20  1  0.71403900  0.28621000  0.87501500  1
  C  C21  1  0.33527500  0.13909800  0.56778400  1
  C  C22  1  0.13932000  0.33549800  0.81821000  1
  C  C23  1  0.71369900  0.28654500  0.37508500  1
  C  C24  1  0.33901600  0.13721100  0.06828300  1
  C  C25  1  0.13713500  0.33851400  0.31791100  1
  C  C26  1  0.86712400  0.66044600  0.68369400  1
  C  C27  1  0.66065600  0.86734800  0.93203500  1
  C  C28  1  0.28808700  0.71606600  0.62545900  1
  C  C29  1  0.86183100  0.66091900  0.18119300  1
  C  C30  1  0.66107500  0.86193100  0.43299100  1
  C  C31  1  0.28496200  0.71255300  0.12501200  1
  C  C32  1  0.33911400  0.01270900  0.95404200  1
  C  C33  1  0.38628700  0.05436900  0.66312900  1
  C  C34  1  0.82752500  0.25651200  0.98287600  1
  C  C35  1  0.33958400  0.01201100  0.45506600  1
  C  C36  1  0.73714400  0.17061000  0.76355100  1
  C  C37  1  0.15904000  0.15112400  0.79898200  1
  C  C38  1  0.53836200  0.26576600  0.88456700  1
  C  C39  1  0.15048900  0.15968900  0.54781300  1
  C  C40  1  0.39870600  0.04927100  0.16295900  1
  C  C41  1  0.82782300  0.25991600  0.48407300  1
  C  C42  1  0.74071400  0.17175500  0.26664200  1
  C  C43  1  0.15715100  0.15498700  0.30306000  1
  C  C44  1  0.45429800  0.29626600  0.60129600  1
  C  C45  1  0.05435100  0.38615200  0.91338600  1
  C  C46  1  0.01298600  0.33925400  0.70477200  1
  C  C47  1  0.74015700  0.46154900  0.86446600  1
  C  C48  1  0.53747000  0.26361600  0.38354400  1
  C  C49  1  0.29653500  0.45479900  0.85177700  1
  C  C50  1  0.15561700  0.15660800  0.05451700  1
  C  C51  1  0.45616200  0.29589900  0.10245800  1
  C  C52  1  0.04955200  0.39813200  0.41268800  1
  C  C53  1  0.70601400  0.54659400  0.64889900  1
  C  C54  1  0.01115100  0.33971800  0.20422300  1
  C  C55  1  0.73700000  0.46242800  0.36569600  1
  C  C56  1  0.26553400  0.53912700  0.63293300  1
  C  C57  1  0.99003000  0.65835800  0.79923400  1
  C  C58  1  0.29550400  0.45574900  0.35184600  1
  C  C59  1  0.95288100  0.59708300  0.58795300  1
  C  C60  1  0.54783800  0.70602700  0.89841500  1
  C  C61  1  0.84476400  0.85683700  0.94634100  1
  C  C62  1  0.70338200  0.54407200  0.14723900  1
  C  C63  1  0.46398000  0.74080500  0.61536800  1
  C  C64  1  0.26388400  0.53745000  0.13513000  1
  C  C65  1  0.98717300  0.66039300  0.29530800  1
  C  C66  1  0.95048400  0.59915600  0.08624100  1
  C  C67  1  0.54313100  0.70377200  0.39796200  1
  C  C68  1  0.85532100  0.84427400  0.69741900  1
  C  C69  1  0.25890700  0.82741300  0.73416900  1
  C  C70  1  0.17171300  0.74239800  0.51670500  1
  C  C71  1  0.59530500  0.95306100  0.83576700  1
  C  C72  1  0.84409300  0.84104300  0.44586500  1
  C  C73  1  0.46085000  0.73722200  0.11594700  1
  C  C74  1  0.84210100  0.84394600  0.19436200  1
  C  C75  1  0.25683400  0.82845200  0.23264800  1
  C  C76  1  0.66296900  0.98696300  0.54843700  1
  C  C77  1  0.17086400  0.73666000  0.01362600  1
  C  C78  1  0.60124200  0.95038700  0.33841700  1
  C  C79  1  0.65543400  0.99039200  0.04575000  1
