# generated using pymatgen
data_CuNiC8
_symmetry_space_group_name_H-M   'P 1'
_cell_length_a   9.61201900
_cell_length_b   5.55731900
_cell_length_c   8.48066474
_cell_angle_alpha   75.20891517
_cell_angle_beta   90.00000000
_cell_angle_gamma   90.00000000
_symmetry_Int_Tables_number   1
_chemical_formula_structural   CuNiC8
_chemical_formula_sum   'Cu4 Ni4 C32'
_cell_volume   438.00073439
_cell_formula_units_Z   4
loop_
 _symmetry_equiv_pos_site_id
 _symmetry_equiv_pos_as_xyz
  1  'x, y, z'
loop_
 _atom_site_type_symbol
 _atom_site_label
 _atom_site_symmetry_multiplicity
 _atom_site_fract_x
 _atom_site_fract_y
 _atom_site_fract_z
 _atom_site_occupancy
  C  C0  1  0.84259500  0.27038000  0.31423900  1
  C  C1  1  0.17003500  0.33610200  0.41371500  1
  C  C2  1  0.65740500  0.77038000  0.31423900  1
  C  C3  1  0.32996500  0.83610200  0.41371500  1
  C  C4  1  0.67003500  0.16389800  0.58628500  1
  C  C5  1  0.34259500  0.22962000  0.68576100  1
  C  C6  1  0.82996500  0.66389800  0.58628500  1
  C  C7  1  0.15740500  0.72962000  0.68576100  1
  C  C8  1  0.13114900  0.20287900  0.01730700  1
  C  C9  1  0.36885100  0.70287900  0.01730700  1
  C  C10  1  0.63114900  0.29712100  0.98269300  1
  C  C11  1  0.86885100  0.79712100  0.98269300  1
  Ni  Ni12  1  0.47826900  0.37267400  0.31433200  1
  Ni  Ni13  1  0.02173100  0.87267400  0.31433200  1
  Ni  Ni14  1  0.97826900  0.12732600  0.68566800  1
  Ni  Ni15  1  0.52173100  0.62732600  0.68566800  1
  Cu  Cu16  1  0.37827000  0.15100100  0.02722400  1
  Cu  Cu17  1  0.12173000  0.65100100  0.02722400  1
  Cu  Cu18  1  0.87827000  0.34899900  0.97277600  1
  Cu  Cu19  1  0.62173000  0.84899900  0.97277600  1
  C  C20  1  0.82169400  0.41687300  0.04923100  1
  C  C21  1  0.67830600  0.91687300  0.04923100  1
  C  C22  1  0.46929700  0.29369000  0.14890200  1
  C  C23  1  0.07357900  0.15144000  0.26987100  1
  C  C24  1  0.03070300  0.79369000  0.14890200  1
  C  C25  1  0.42642100  0.65144000  0.26987100  1
  C  C26  1  0.63283600  0.36982500  0.36691300  1
  C  C27  1  0.38003300  0.20558500  0.43932200  1
  C  C28  1  0.86716400  0.86982500  0.36691300  1
  C  C29  1  0.11996700  0.70558500  0.43932200  1
  C  C30  1  0.88003300  0.29441500  0.56067800  1
  C  C31  1  0.13283600  0.13017500  0.63308700  1
  C  C32  1  0.61996700  0.79441500  0.56067800  1
  C  C33  1  0.36716400  0.63017500  0.63308700  1
  C  C34  1  0.57357900  0.34856000  0.73012900  1
  C  C35  1  0.96929700  0.20631000  0.85109800  1
  C  C36  1  0.92642100  0.84856000  0.73012900  1
  C  C37  1  0.53070300  0.70631000  0.85109800  1
  C  C38  1  0.32169400  0.08312700  0.95076900  1
  C  C39  1  0.17830600  0.58312700  0.95076900  1
