# generated using pymatgen
data_Cu4NiC4
_symmetry_space_group_name_H-M   'P 1'
_cell_length_a   5.18254100
_cell_length_b   10.32920500
_cell_length_c   13.46477600
_cell_angle_alpha   90.00000000
_cell_angle_beta   90.00000000
_cell_angle_gamma   90.00000000
_symmetry_Int_Tables_number   1
_chemical_formula_structural   Cu4NiC4
_chemical_formula_sum   'Cu32 Ni8 C32'
_cell_volume   720.79003898
_cell_formula_units_Z   8
loop_
 _symmetry_equiv_pos_site_id
 _symmetry_equiv_pos_as_xyz
  1  'x, y, z'
loop_
 _atom_site_type_symbol
 _atom_site_label
 _atom_site_symmetry_multiplicity
 _atom_site_fract_x
 _atom_site_fract_y
 _atom_site_fract_z
 _atom_site_occupancy
  C  C0  1  0.03072300  0.75000000  0.00000000  1
  C  C1  1  0.46927700  0.75000000  0.50000000  1
  C  C2  1  0.96927700  0.25000000  0.00000000  1
  C  C3  1  0.53072300  0.25000000  0.50000000  1
  C  C4  1  0.25000000  0.86760600  0.25000000  1
  C  C5  1  0.25000000  0.63239400  0.75000000  1
  C  C6  1  0.75000000  0.13239400  0.75000000  1
  C  C7  1  0.75000000  0.36760600  0.25000000  1
  C  C8  1  0.51035700  0.62890200  0.12555000  1
  C  C9  1  0.51035700  0.87109800  0.87445000  1
  C  C10  1  0.98964300  0.62890200  0.37445000  1
  C  C11  1  0.98964300  0.87109800  0.62555000  1
  C  C12  1  0.48964300  0.37109800  0.87445000  1
  C  C13  1  0.48964300  0.12890200  0.12555000  1
  C  C14  1  0.01035700  0.37109800  0.62555000  1
  C  C15  1  0.01035700  0.12890200  0.37445000  1
  C  C16  1  0.83083500  0.63248400  0.85607200  1
  C  C17  1  0.83083500  0.86751600  0.14392800  1
  C  C18  1  0.66916500  0.63248400  0.64392800  1
  C  C19  1  0.66916500  0.86751600  0.35607200  1
  C  C20  1  0.16916500  0.36751600  0.14392800  1
  C  C21  1  0.16916500  0.13248400  0.85607200  1
  C  C22  1  0.33083500  0.36751600  0.35607200  1
  C  C23  1  0.33083500  0.13248400  0.64392800  1
  C  C24  1  0.04007600  0.53914400  0.89865600  1
  C  C25  1  0.04007600  0.96085600  0.10134400  1
  C  C26  1  0.45992400  0.53914400  0.60134400  1
  C  C27  1  0.45992400  0.96085600  0.39865600  1
  C  C28  1  0.95992400  0.46085600  0.10134400  1
  C  C29  1  0.95992400  0.03914400  0.89865600  1
  C  C30  1  0.54007600  0.46085600  0.39865600  1
  C  C31  1  0.54007600  0.03914400  0.60134400  1
  Ni  Ni32  1  0.01265300  0.62799300  0.87605200  1
  Ni  Ni33  1  0.01265300  0.87200700  0.12394800  1
  Ni  Ni34  1  0.48734700  0.62799300  0.62394800  1
  Ni  Ni35  1  0.48734700  0.87200700  0.37605200  1
  Ni  Ni36  1  0.98734700  0.37200700  0.12394800  1
  Ni  Ni37  1  0.98734700  0.12799300  0.87605200  1
  Ni  Ni38  1  0.51265300  0.37200700  0.37605200  1
  Ni  Ni39  1  0.51265300  0.12799300  0.62394800  1
  Cu  Cu40  1  0.29430200  0.62761600  0.06138700  1
  Cu  Cu41  1  0.29430200  0.87238400  0.93861300  1
  Cu  Cu42  1  0.20569800  0.62761600  0.43861300  1
  Cu  Cu43  1  0.20569800  0.87238400  0.56138700  1
  Cu  Cu44  1  0.70569800  0.37238400  0.93861300  1
  Cu  Cu45  1  0.70569800  0.12761600  0.06138700  1
  Cu  Cu46  1  0.79430200  0.37238400  0.56138700  1
  Cu  Cu47  1  0.79430200  0.12761600  0.43861300  1
  Cu  Cu48  1  0.50974700  0.51510000  0.18408500  1
  Cu  Cu49  1  0.50974700  0.98490000  0.81591500  1
  Cu  Cu50  1  0.99025300  0.51510000  0.31591500  1
  Cu  Cu51  1  0.99025300  0.98490000  0.68408500  1
  Cu  Cu52  1  0.49025300  0.48490000  0.81591500  1
  Cu  Cu53  1  0.49025300  0.01510000  0.18408500  1
  Cu  Cu54  1  0.00974700  0.48490000  0.68408500  1
  Cu  Cu55  1  0.00974700  0.01510000  0.31591500  1
  Cu  Cu56  1  0.74176200  0.63273900  0.06863600  1
  Cu  Cu57  1  0.74176200  0.86726100  0.93136400  1
  Cu  Cu58  1  0.75823800  0.63273900  0.43136400  1
  Cu  Cu59  1  0.75823800  0.86726100  0.56863600  1
  Cu  Cu60  1  0.25823800  0.36726100  0.93136400  1
  Cu  Cu61  1  0.25823800  0.13273900  0.06863600  1
  Cu  Cu62  1  0.24176200  0.36726100  0.56863600  1
  Cu  Cu63  1  0.24176200  0.13273900  0.43136400  1
  Cu  Cu64  1  0.50129000  0.73999400  0.18743700  1
  Cu  Cu65  1  0.50129000  0.76000600  0.81256300  1
  Cu  Cu66  1  0.99871000  0.73999400  0.31256300  1
  Cu  Cu67  1  0.99871000  0.76000600  0.68743700  1
  Cu  Cu68  1  0.49871000  0.26000600  0.81256300  1
  Cu  Cu69  1  0.49871000  0.23999400  0.18743700  1
  Cu  Cu70  1  0.00129000  0.26000600  0.68743700  1
  Cu  Cu71  1  0.00129000  0.23999400  0.31256300  1
