# generated using pymatgen
data_Cu4(NiC3)3
_symmetry_space_group_name_H-M   'P 1'
_cell_length_a   7.45127400
_cell_length_b   9.46458647
_cell_length_c   10.69064850
_cell_angle_alpha   79.59370902
_cell_angle_beta   70.74797223
_cell_angle_gamma   73.24871981
_symmetry_Int_Tables_number   1
_chemical_formula_structural   Cu4(NiC3)3
_chemical_formula_sum   'Cu8 Ni6 C18'
_cell_volume   678.51048224
_cell_formula_units_Z   2
loop_
 _symmetry_equiv_pos_site_id
 _symmetry_equiv_pos_as_xyz
  1  'x, y, z'
loop_
 _atom_site_type_symbol
 _atom_site_label
 _atom_site_symmetry_multiplicity
 _atom_site_fract_x
 _atom_site_fract_y
 _atom_site_fract_z
 _atom_site_occupancy
  Ni  Ni0  1  0.06213400  0.42258400  0.05820300  1
  Ni  Ni1  1  0.38137300  0.18336400  0.22475700  1
  Ni  Ni2  1  0.06992700  0.86408700  0.77220300  1
  Ni  Ni3  1  0.69840300  0.43729600  0.44801700  1
  Ni  Ni4  1  0.86729000  0.17464500  0.94360200  1
  Ni  Ni5  1  0.80677000  0.75826400  0.48976800  1
  Cu  Cu6  1  0.42810800  0.12524800  0.87406300  1
  Cu  Cu7  1  0.18939700  0.85608800  0.07655400  1
  Cu  Cu8  1  0.40163700  0.14652700  0.55496200  1
  Cu  Cu9  1  0.30289100  0.81184800  0.39889000  1
  Cu  Cu10  1  0.54887700  0.51872500  0.84121000  1
  Cu  Cu11  1  0.87815000  0.11153900  0.30389000  1
  Cu  Cu12  1  0.72125100  0.81729900  0.10089800  1
  Cu  Cu13  1  0.07271300  0.47715700  0.69494700  1
  C  C14  1  0.99566400  0.31895700  0.28568400  1
  C  C15  1  0.26530100  0.04193500  0.44500600  1
  C  C16  1  0.19475300  0.07969100  0.77100100  1
  C  C17  1  0.10943900  0.70336600  0.60674600  1
  C  C18  1  0.06572500  0.80935700  0.30376300  1
  C  C19  1  0.03958300  0.69261500  0.99010200  1
  C  C20  1  0.44735000  0.31587700  0.98626000  1
  C  C21  1  0.55972800  0.27368800  0.35623400  1
  C  C22  1  0.39444600  0.34482700  0.70262600  1
  C  C23  1  0.39572600  0.92042700  0.16911500  1
  C  C24  1  0.43504100  0.74661800  0.90208700  1
  C  C25  1  0.73904800  0.98422000  0.89356500  1
  C  C26  1  0.79102900  0.51464500  0.62777900  1
  C  C27  1  0.63233200  0.69070000  0.34794800  1
  C  C28  1  0.13258400  0.13928300  0.04543400  1
  C  C29  1  0.85379100  0.44323400  0.89583300  1
  C  C30  1  0.78343500  0.01716600  0.15356500  1
  C  C31  1  0.70610200  0.01432300  0.52088700  1
