# generated using pymatgen
data_Cu2NiC15
_symmetry_space_group_name_H-M   'P 1'
_cell_length_a   8.63937039
_cell_length_b   8.63937039
_cell_length_c   8.63937038
_cell_angle_alpha   59.98629868
_cell_angle_beta   59.98629868
_cell_angle_gamma   59.98628984
_symmetry_Int_Tables_number   1
_chemical_formula_structural   Cu2NiC15
_chemical_formula_sum   'Cu4 Ni2 C30'
_cell_volume   455.82307896
_cell_formula_units_Z   2
loop_
 _symmetry_equiv_pos_site_id
 _symmetry_equiv_pos_as_xyz
  1  'x, y, z'
loop_
 _atom_site_type_symbol
 _atom_site_label
 _atom_site_symmetry_multiplicity
 _atom_site_fract_x
 _atom_site_fract_y
 _atom_site_fract_z
 _atom_site_occupancy
  Ni  Ni0  1  0.00000000  0.00000000  0.00000000  1
  Ni  Ni1  1  0.50000000  0.50000000  0.50000000  1
  Cu  Cu2  1  0.85617700  0.85617700  0.85617700  1
  Cu  Cu3  1  0.64382300  0.64382300  0.64382300  1
  Cu  Cu4  1  0.35617700  0.35617700  0.35617700  1
  Cu  Cu5  1  0.14382300  0.14382300  0.14382300  1
  C  C6  1  0.54137900  0.95862100  0.25000000  1
  C  C7  1  0.25000000  0.54137900  0.95862100  1
  C  C8  1  0.95862100  0.25000000  0.54137900  1
  C  C9  1  0.04137900  0.75000000  0.45862100  1
  C  C10  1  0.75000000  0.45862100  0.04137900  1
  C  C11  1  0.45862100  0.04137900  0.75000000  1
  C  C12  1  0.49512800  0.88157800  0.69242600  1
  C  C13  1  0.88157800  0.69242600  0.49512800  1
  C  C14  1  0.73571600  0.94093800  0.08575600  1
  C  C15  1  0.69242600  0.49512800  0.88157800  1
  C  C16  1  0.38157800  0.99512800  0.19242600  1
  C  C17  1  0.55906200  0.76428400  0.41424400  1
  C  C18  1  0.08575600  0.73571600  0.94093800  1
  C  C19  1  0.41424400  0.55906200  0.76428400  1
  C  C20  1  0.00487200  0.80757400  0.61842200  1
  C  C21  1  0.76428400  0.41424400  0.55906200  1
  C  C22  1  0.05906200  0.91424400  0.26428400  1
  C  C23  1  0.80757400  0.61842200  0.00487200  1
  C  C24  1  0.19242600  0.38157800  0.99512800  1
  C  C25  1  0.94093800  0.08575600  0.73571600  1
  C  C26  1  0.23571600  0.58575600  0.44093800  1
  C  C27  1  0.99512800  0.19242600  0.38157800  1
  C  C28  1  0.58575600  0.44093800  0.23571600  1
  C  C29  1  0.91424400  0.26428400  0.05906200  1
  C  C30  1  0.44093800  0.23571600  0.58575600  1
  C  C31  1  0.61842200  0.00487200  0.80757400  1
  C  C32  1  0.30757400  0.50487200  0.11842200  1
  C  C33  1  0.26428400  0.05906200  0.91424400  1
  C  C34  1  0.11842200  0.30757400  0.50487200  1
  C  C35  1  0.50487200  0.11842200  0.30757400  1
