# generated using pymatgen
data_Cu3NiC10
_symmetry_space_group_name_H-M   'P 1'
_cell_length_a   5.90781040
_cell_length_b   5.90781040
_cell_length_c   9.55162800
_cell_angle_alpha   90.00000000
_cell_angle_beta   90.00000000
_cell_angle_gamma   120.00000445
_symmetry_Int_Tables_number   1
_chemical_formula_structural   Cu3NiC10
_chemical_formula_sum   'Cu6 Ni2 C20'
_cell_volume   288.70952344
_cell_formula_units_Z   2
loop_
 _symmetry_equiv_pos_site_id
 _symmetry_equiv_pos_as_xyz
  1  'x, y, z'
loop_
 _atom_site_type_symbol
 _atom_site_label
 _atom_site_symmetry_multiplicity
 _atom_site_fract_x
 _atom_site_fract_y
 _atom_site_fract_z
 _atom_site_occupancy
  C  C0  1  0.33333300  0.66666700  0.89676200  1
  C  C1  1  0.00000000  0.00000000  0.99414100  1
  C  C2  1  0.00000000  0.00000000  0.49414100  1
  C  C3  1  0.66666700  0.33333300  0.39676200  1
  Ni  Ni4  1  0.33333300  0.66666700  0.48232200  1
  Ni  Ni5  1  0.66666700  0.33333300  0.98232200  1
  Cu  Cu6  1  0.16933500  0.83066500  0.21208000  1
  Cu  Cu7  1  0.16933500  0.33866900  0.21208000  1
  Cu  Cu8  1  0.66133100  0.83066500  0.21208000  1
  Cu  Cu9  1  0.33866900  0.16933500  0.71208000  1
  Cu  Cu10  1  0.83066500  0.66133100  0.71208000  1
  Cu  Cu11  1  0.83066500  0.16933500  0.71208000  1
  C  C12  1  0.16891300  0.83108700  0.59775800  1
  C  C13  1  0.04174600  0.52087300  0.34687000  1
  C  C14  1  0.33333300  0.66666700  0.10391200  1
  C  C15  1  0.00000000  0.00000000  0.30668000  1
  C  C16  1  0.00000000  0.00000000  0.80668000  1
  C  C17  1  0.16891300  0.33782600  0.59775800  1
  C  C18  1  0.47912700  0.95825400  0.34687000  1
  C  C19  1  0.47912700  0.52087300  0.34687000  1
  C  C20  1  0.33782600  0.16891300  0.09775800  1
  C  C21  1  0.66217400  0.83108700  0.59775800  1
  C  C22  1  0.52087300  0.47912700  0.84687000  1
  C  C23  1  0.52087300  0.04174600  0.84687000  1
  C  C24  1  0.66666700  0.33333300  0.60391200  1
  C  C25  1  0.83108700  0.66217400  0.09775800  1
  C  C26  1  0.95825400  0.47912700  0.84687000  1
  C  C27  1  0.83108700  0.16891300  0.09775800  1
