# generated using pymatgen
data_Cu3NiC17
_symmetry_space_group_name_H-M   'P 1'
_cell_length_a   11.73707245
_cell_length_b   11.73707245
_cell_length_c   11.79853700
_cell_angle_alpha   90.00000000
_cell_angle_beta   90.00000000
_cell_angle_gamma   110.37383458
_symmetry_Int_Tables_number   1
_chemical_formula_structural   Cu3NiC17
_chemical_formula_sum   'Cu12 Ni4 C68'
_cell_volume   1523.67277850
_cell_formula_units_Z   4
loop_
 _symmetry_equiv_pos_site_id
 _symmetry_equiv_pos_as_xyz
  1  'x, y, z'
loop_
 _atom_site_type_symbol
 _atom_site_label
 _atom_site_symmetry_multiplicity
 _atom_site_fract_x
 _atom_site_fract_y
 _atom_site_fract_z
 _atom_site_occupancy
  C  C0  1  0.37895000  0.37895000  0.61437900  1
  C  C1  1  0.62105000  0.62105000  0.38562100  1
  C  C2  1  0.12105000  0.12105000  0.11437900  1
  C  C3  1  0.87895000  0.87895000  0.88562100  1
  C  C4  1  0.81780700  0.77844500  0.72421500  1
  C  C5  1  0.22155500  0.18219300  0.27578500  1
  C  C6  1  0.72155500  0.68219300  0.22421500  1
  C  C7  1  0.31780700  0.27844500  0.77578500  1
  C  C8  1  0.18219300  0.22155500  0.27578500  1
  C  C9  1  0.77844500  0.81780700  0.72421500  1
  C  C10  1  0.27844500  0.31780700  0.77578500  1
  C  C11  1  0.68219300  0.72155500  0.22421500  1
  C  C12  1  0.50820200  0.25212900  0.00921000  1
  C  C13  1  0.74787100  0.49179800  0.99079000  1
  C  C14  1  0.24787100  0.99179800  0.50921000  1
  C  C15  1  0.00820200  0.75212900  0.49079000  1
  C  C16  1  0.49179800  0.74787100  0.99079000  1
  C  C17  1  0.25212900  0.50820200  0.00921000  1
  C  C18  1  0.75212900  0.00820200  0.49079000  1
  C  C19  1  0.99179800  0.24787100  0.50921000  1
  C  C20  1  0.59809600  0.34006700  0.56439500  1
  C  C21  1  0.65993300  0.40190400  0.43560500  1
  C  C22  1  0.15993300  0.90190400  0.06439500  1
  C  C23  1  0.09809600  0.84006700  0.93560500  1
  C  C24  1  0.40190400  0.65993300  0.43560500  1
  C  C25  1  0.34006700  0.59809600  0.56439500  1
  C  C26  1  0.84006700  0.09809600  0.93560500  1
  C  C27  1  0.90190400  0.15993300  0.06439500  1
  C  C28  1  0.30767100  0.96995300  0.91598600  1
  C  C29  1  0.03004700  0.69232900  0.08401400  1
  C  C30  1  0.53004700  0.19232900  0.41598600  1
  C  C31  1  0.80767100  0.46995300  0.58401400  1
  C  C32  1  0.69232900  0.03004700  0.08401400  1
  C  C33  1  0.96995300  0.30767100  0.91598600  1
  C  C34  1  0.46995300  0.80767100  0.58401400  1
  C  C35  1  0.19232900  0.53004700  0.41598600  1
  C  C36  1  0.29350100  0.81607900  0.88428300  1
  C  C37  1  0.18392100  0.70649900  0.11571700  1
  C  C38  1  0.68392100  0.20649900  0.38428300  1
  C  C39  1  0.79350100  0.31607900  0.61571700  1
  C  C40  1  0.70649900  0.18392100  0.11571700  1
  C  C41  1  0.81607900  0.29350100  0.88428300  1
  C  C42  1  0.31607900  0.79350100  0.61571700  1
  C  C43  1  0.20649900  0.68392100  0.38428300  1
  C  C44  1  0.61828500  0.14683900  0.51851500  1
  C  C45  1  0.85316100  0.38171500  0.48148500  1
  C  C46  1  0.35316100  0.88171500  0.01851500  1
  C  C47  1  0.11828500  0.64683900  0.98148500  1
  C  C48  1  0.38171500  0.85316100  0.48148500  1
  C  C49  1  0.14683900  0.61828500  0.51851500  1
  C  C50  1  0.64683900  0.11828500  0.98148500  1
  C  C51  1  0.88171500  0.35316100  0.01851500  1
  C  C52  1  0.28728600  0.87879300  0.95143700  1
  C  C53  1  0.12120700  0.71271400  0.04856300  1
  C  C54  1  0.62120700  0.21271400  0.45143700  1
  C  C55  1  0.78728600  0.37879300  0.54856300  1
  C  C56  1  0.71271400  0.12120700  0.04856300  1
  C  C57  1  0.87879300  0.28728600  0.95143700  1
  C  C58  1  0.37879300  0.78728600  0.54856300  1
  C  C59  1  0.21271400  0.62120700  0.45143700  1
  Ni  Ni60  1  0.66288100  0.33711900  0.50000000  1
  Ni  Ni61  1  0.16288100  0.83711900  0.00000000  1
  Ni  Ni62  1  0.33711900  0.66288100  0.50000000  1
  Ni  Ni63  1  0.83711900  0.16288100  0.00000000  1
  Cu  Cu64  1  0.14687000  0.14687000  0.93076000  1
  Cu  Cu65  1  0.85313000  0.85313000  0.06924000  1
  Cu  Cu66  1  0.35313000  0.35313000  0.43076000  1
  Cu  Cu67  1  0.64687000  0.64687000  0.56924000  1
  Cu  Cu68  1  0.51325400  0.26338700  0.90054100  1
  Cu  Cu69  1  0.73661300  0.48674600  0.09945900  1
  Cu  Cu70  1  0.23661300  0.98674600  0.40054100  1
  Cu  Cu71  1  0.01325400  0.76338700  0.59945900  1
  Cu  Cu72  1  0.48674600  0.73661300  0.09945900  1
  Cu  Cu73  1  0.26338700  0.51325400  0.90054100  1
  Cu  Cu74  1  0.76338700  0.01325400  0.59945900  1
  Cu  Cu75  1  0.98674600  0.23661300  0.40054100  1
  C  C76  1  0.17061600  0.00717800  0.15402400  1
  C  C77  1  0.99282200  0.82938400  0.84597600  1
  C  C78  1  0.49282200  0.32938400  0.65402400  1
  C  C79  1  0.67061600  0.50717800  0.34597600  1
  C  C80  1  0.82938400  0.99282200  0.84597600  1
  C  C81  1  0.00717800  0.17061600  0.15402400  1
  C  C82  1  0.50717800  0.67061600  0.34597600  1
  C  C83  1  0.32938400  0.49282200  0.65402400  1
