# generated using pymatgen
data_Cu2NiC33
_symmetry_space_group_name_H-M   'P 1'
_cell_length_a   8.54407165
_cell_length_b   8.54407165
_cell_length_c   8.54407195
_cell_angle_alpha   60.95782621
_cell_angle_beta   60.95782621
_cell_angle_gamma   60.95781953
_symmetry_Int_Tables_number   1
_chemical_formula_structural   Cu2NiC33
_chemical_formula_sum   'Cu2 Ni1 C33'
_cell_volume   450.55983639
_cell_formula_units_Z   1
loop_
 _symmetry_equiv_pos_site_id
 _symmetry_equiv_pos_as_xyz
  1  'x, y, z'
loop_
 _atom_site_type_symbol
 _atom_site_label
 _atom_site_symmetry_multiplicity
 _atom_site_fract_x
 _atom_site_fract_y
 _atom_site_fract_z
 _atom_site_occupancy
  C  C0  1  0.14329500  0.14329500  0.14329500  1
  C  C1  1  0.35557500  0.35557500  0.35557500  1
  C  C2  1  0.64389100  0.64389100  0.64389100  1
  Ni  Ni3  1  0.85923200  0.85923200  0.85923200  1
  Cu  Cu4  1  0.00015500  0.00015500  0.00015500  1
  Cu  Cu5  1  0.49908100  0.49908100  0.49908100  1
  C  C6  1  0.75026400  0.04237200  0.46064400  1
  C  C7  1  0.04237200  0.46064400  0.75026400  1
  C  C8  1  0.54363700  0.24852400  0.95635900  1
  C  C9  1  0.95635900  0.54363700  0.24852400  1
  C  C10  1  0.24852400  0.95635900  0.54363700  1
  C  C11  1  0.46064400  0.75026400  0.04237200  1
  C  C12  1  0.31514000  0.11601300  0.49921000  1
  C  C13  1  0.49921000  0.31514000  0.11601300  1
  C  C14  1  0.90998100  0.05502500  0.26339100  1
  C  C15  1  0.11601300  0.49921000  0.31514000  1
  C  C16  1  0.81151600  0.00703000  0.61642700  1
  C  C17  1  0.58816300  0.23828000  0.44053400  1
  C  C18  1  0.05502500  0.26339100  0.90998100  1
  C  C19  1  0.23828000  0.44053400  0.58816300  1
  C  C20  1  0.38313300  0.18453700  0.99876500  1
  C  C21  1  0.44053400  0.58816300  0.23828000  1
  C  C22  1  0.73830300  0.09049700  0.94430000  1
  C  C23  1  0.99876500  0.38313300  0.18453700  1
  C  C24  1  0.00703000  0.61642700  0.81151600  1
  C  C25  1  0.26339100  0.90998100  0.05502500  1
  C  C26  1  0.55625900  0.41032200  0.76190700  1
  C  C27  1  0.61642700  0.81151600  0.00703000  1
  C  C28  1  0.76190700  0.55625900  0.41032200  1
  C  C29  1  0.94430000  0.73830300  0.09049700  1
  C  C30  1  0.41032200  0.76190700  0.55625900  1
  C  C31  1  0.18453700  0.99876500  0.38313300  1
  C  C32  1  0.88102500  0.50276000  0.68445000  1
  C  C33  1  0.09049700  0.94430000  0.73830300  1
  C  C34  1  0.50276000  0.68445000  0.88102500  1
  C  C35  1  0.68445000  0.88102500  0.50276000  1
