# generated using pymatgen
data_Cu6NiC2
_symmetry_space_group_name_H-M   'P 1'
_cell_length_a   7.72428200
_cell_length_b   10.43249200
_cell_length_c   12.43486700
_cell_angle_alpha   90.00000000
_cell_angle_beta   90.00000000
_cell_angle_gamma   90.00000000
_symmetry_Int_Tables_number   1
_chemical_formula_structural   Cu6NiC2
_chemical_formula_sum   'Cu48 Ni8 C16'
_cell_volume   1002.04523137
_cell_formula_units_Z   8
loop_
 _symmetry_equiv_pos_site_id
 _symmetry_equiv_pos_as_xyz
  1  'x, y, z'
loop_
 _atom_site_type_symbol
 _atom_site_label
 _atom_site_symmetry_multiplicity
 _atom_site_fract_x
 _atom_site_fract_y
 _atom_site_fract_z
 _atom_site_occupancy
  C  C0  1  0.25268600  0.07532500  0.63921300  1
  C  C1  1  0.24731400  0.57532500  0.86078700  1
  C  C2  1  0.75268600  0.92467500  0.86078700  1
  C  C3  1  0.74731400  0.42467500  0.63921300  1
  C  C4  1  0.74731400  0.92467500  0.36078700  1
  C  C5  1  0.75268600  0.42467500  0.13921300  1
  C  C6  1  0.24731400  0.07532500  0.13921300  1
  C  C7  1  0.25268600  0.57532500  0.36078700  1
  C  C8  1  0.25031000  0.92559500  0.86339700  1
  C  C9  1  0.24969000  0.42559500  0.63660300  1
  C  C10  1  0.75031000  0.07440500  0.63660300  1
  C  C11  1  0.74969000  0.57440500  0.86339700  1
  C  C12  1  0.74969000  0.07440500  0.13660300  1
  C  C13  1  0.75031000  0.57440500  0.36339700  1
  C  C14  1  0.24969000  0.92559500  0.36339700  1
  C  C15  1  0.25031000  0.42559500  0.13660300  1
  Ni  Ni16  1  0.00000000  0.75000000  0.57746600  1
  Ni  Ni17  1  0.50000000  0.25000000  0.92253400  1
  Ni  Ni18  1  0.00000000  0.25000000  0.42253400  1
  Ni  Ni19  1  0.50000000  0.75000000  0.07746600  1
  Ni  Ni20  1  0.50000000  0.75000000  0.60500600  1
  Ni  Ni21  1  0.00000000  0.25000000  0.89499400  1
  Ni  Ni22  1  0.50000000  0.25000000  0.39499400  1
  Ni  Ni23  1  0.00000000  0.75000000  0.10500600  1
  Cu  Cu24  1  0.26968400  0.09805400  0.80434100  1
  Cu  Cu25  1  0.23031600  0.59805400  0.69565900  1
  Cu  Cu26  1  0.76968400  0.90194600  0.69565900  1
  Cu  Cu27  1  0.73031600  0.40194600  0.80434100  1
  Cu  Cu28  1  0.73031600  0.90194600  0.19565900  1
  Cu  Cu29  1  0.76968400  0.40194600  0.30434100  1
  Cu  Cu30  1  0.23031600  0.09805400  0.30434100  1
  Cu  Cu31  1  0.26968400  0.59805400  0.19565900  1
  Cu  Cu32  1  0.48995600  0.90428300  0.85006000  1
  Cu  Cu33  1  0.01004400  0.40428300  0.64994000  1
  Cu  Cu34  1  0.98995600  0.09571700  0.64994000  1
  Cu  Cu35  1  0.51004400  0.59571700  0.85006000  1
  Cu  Cu36  1  0.51004400  0.09571700  0.14994000  1
  Cu  Cu37  1  0.98995600  0.59571700  0.35006000  1
  Cu  Cu38  1  0.01004400  0.90428300  0.35006000  1
  Cu  Cu39  1  0.48995600  0.40428300  0.14994000  1
  Cu  Cu40  1  0.22702400  0.75649100  0.91006500  1
  Cu  Cu41  1  0.27297600  0.25649100  0.58993500  1
  Cu  Cu42  1  0.72702400  0.24350900  0.58993500  1
  Cu  Cu43  1  0.77297600  0.74350900  0.91006500  1
  Cu  Cu44  1  0.77297600  0.24350900  0.08993500  1
  Cu  Cu45  1  0.72702400  0.74350900  0.41006500  1
  Cu  Cu46  1  0.27297600  0.75649100  0.41006500  1
  Cu  Cu47  1  0.22702400  0.25649100  0.08993500  1
  Cu  Cu48  1  0.23009600  0.88182800  0.71251200  1
  Cu  Cu49  1  0.26990400  0.38182800  0.78748800  1
  Cu  Cu50  1  0.73009600  0.11817200  0.78748800  1
  Cu  Cu51  1  0.76990400  0.61817200  0.71251200  1
  Cu  Cu52  1  0.76990400  0.11817200  0.28748800  1
  Cu  Cu53  1  0.73009600  0.61817200  0.21251200  1
  Cu  Cu54  1  0.26990400  0.88182800  0.21251200  1
  Cu  Cu55  1  0.23009600  0.38182800  0.28748800  1
  Cu  Cu56  1  0.27768800  0.99318500  0.99926600  1
  Cu  Cu57  1  0.22231200  0.49318500  0.50073400  1
  Cu  Cu58  1  0.77768800  0.00681500  0.50073400  1
  Cu  Cu59  1  0.72231200  0.50681500  0.99926600  1
  Cu  Cu60  1  0.72231200  0.00681500  0.00073400  1
  Cu  Cu61  1  0.77768800  0.50681500  0.49926600  1
  Cu  Cu62  1  0.22231200  0.99318500  0.49926600  1
  Cu  Cu63  1  0.27768800  0.49318500  0.00073400  1
  Cu  Cu64  1  0.01038000  0.94819100  0.87004900  1
  Cu  Cu65  1  0.48962000  0.44819100  0.62995100  1
  Cu  Cu66  1  0.51038000  0.05180900  0.62995100  1
  Cu  Cu67  1  0.98962000  0.55180900  0.87004900  1
  Cu  Cu68  1  0.98962000  0.05180900  0.12995100  1
  Cu  Cu69  1  0.51038000  0.55180900  0.37004900  1
  Cu  Cu70  1  0.48962000  0.94819100  0.37004900  1
  Cu  Cu71  1  0.01038000  0.44819100  0.12995100  1
