# generated using pymatgen
data_Cu(NiC3)2
_symmetry_space_group_name_H-M   'P 1'
_cell_length_a   4.76012200
_cell_length_b   9.25930751
_cell_length_c   9.53085918
_cell_angle_alpha   90.40384299
_cell_angle_beta   89.99988580
_cell_angle_gamma   89.99995139
_symmetry_Int_Tables_number   1
_chemical_formula_structural   Cu(NiC3)2
_chemical_formula_sum   'Cu4 Ni8 C24'
_cell_volume   420.06631408
_cell_formula_units_Z   4
loop_
 _symmetry_equiv_pos_site_id
 _symmetry_equiv_pos_as_xyz
  1  'x, y, z'
loop_
 _atom_site_type_symbol
 _atom_site_label
 _atom_site_symmetry_multiplicity
 _atom_site_fract_x
 _atom_site_fract_y
 _atom_site_fract_z
 _atom_site_occupancy
  Ni  Ni0  1  0.99468700  0.33914700  0.00150400  1
  Ni  Ni1  1  0.99469000  0.33915400  0.50151300  1
  Ni  Ni2  1  0.49468500  0.16084400  0.24849200  1
  Ni  Ni3  1  0.49468600  0.16085400  0.74849300  1
  Ni  Ni4  1  0.99928800  0.68310900  0.49113800  1
  Ni  Ni5  1  0.99928600  0.68310900  0.99115300  1
  Ni  Ni6  1  0.49929000  0.81688100  0.25885800  1
  Ni  Ni7  1  0.49928600  0.81690100  0.75885300  1
  Cu  Cu8  1  0.00030300  0.00282100  0.99911900  1
  Cu  Cu9  1  0.50031700  0.49718600  0.75088800  1
  Cu  Cu10  1  0.00035000  0.00284100  0.49910400  1
  Cu  Cu11  1  0.50035800  0.49715500  0.25088800  1
  C  C12  1  0.70053600  0.66337400  0.34821200  1
  C  C13  1  0.70053900  0.66339000  0.84821900  1
  C  C14  1  0.20053200  0.83662000  0.40178400  1
  C  C15  1  0.20052800  0.83661500  0.90178500  1
  C  C16  1  0.80493500  0.49278400  0.10040400  1
  C  C17  1  0.80493200  0.49278600  0.60039800  1
  C  C18  1  0.30492900  0.00721400  0.14960300  1
  C  C19  1  0.30493300  0.00721400  0.64959500  1
  C  C20  1  0.80575600  0.83552700  0.09897000  1
  C  C21  1  0.80576400  0.83551900  0.59896000  1
  C  C22  1  0.30577000  0.66447600  0.15103300  1
  C  C23  1  0.30577500  0.66448100  0.65103000  1
  C  C24  1  0.80143300  0.17305100  0.09877500  1
  C  C25  1  0.80143700  0.17305300  0.59877100  1
  C  C26  1  0.30143600  0.32694500  0.15122800  1
  C  C27  1  0.30143400  0.32695000  0.65122600  1
  C  C28  1  0.69528100  0.00363800  0.34463400  1
  C  C29  1  0.69528500  0.00363400  0.84463300  1
  C  C30  1  0.19528400  0.49636100  0.40536600  1
  C  C31  1  0.19528600  0.49636800  0.90536900  1
  C  C32  1  0.69774300  0.32844400  0.34964500  1
  C  C33  1  0.69774300  0.32844900  0.84964600  1
  C  C34  1  0.19774300  0.17155400  0.40035500  1
  C  C35  1  0.19774200  0.17155100  0.90035500  1
