# generated using pymatgen
data_Cu2Ni4C3
_symmetry_space_group_name_H-M   'P 1'
_cell_length_a   4.61767266
_cell_length_b   4.61767266
_cell_length_c   9.08988467
_cell_angle_alpha   89.62593238
_cell_angle_beta   89.62593238
_cell_angle_gamma   85.91238026
_symmetry_Int_Tables_number   1
_chemical_formula_structural   Cu2Ni4C3
_chemical_formula_sum   'Cu4 Ni8 C6'
_cell_volume   193.32197211
_cell_formula_units_Z   2
loop_
 _symmetry_equiv_pos_site_id
 _symmetry_equiv_pos_as_xyz
  1  'x, y, z'
loop_
 _atom_site_type_symbol
 _atom_site_label
 _atom_site_symmetry_multiplicity
 _atom_site_fract_x
 _atom_site_fract_y
 _atom_site_fract_z
 _atom_site_occupancy
  C  C0  1  0.01205600  0.01205600  0.82474700  1
  C  C1  1  0.00000000  0.00000000  0.50000000  1
  C  C2  1  0.98794400  0.98794400  0.17525300  1
  C  C3  1  0.50000000  0.50000000  0.00000000  1
  C  C4  1  0.47886400  0.47886400  0.66560200  1
  C  C5  1  0.52113600  0.52113600  0.33439800  1
  Ni  Ni6  1  0.80878500  0.80878500  0.33853000  1
  Ni  Ni7  1  0.29299200  0.68249400  0.83036200  1
  Ni  Ni8  1  0.30756600  0.69243500  0.50000000  1
  Ni  Ni9  1  0.31750600  0.70700800  0.16963800  1
  Ni  Ni10  1  0.68249400  0.29299200  0.83036200  1
  Ni  Ni11  1  0.69243500  0.30756500  0.50000000  1
  Ni  Ni12  1  0.70700800  0.31750600  0.16963800  1
  Ni  Ni13  1  0.19121500  0.19121500  0.66147000  1
  Cu  Cu14  1  0.77694500  0.77694500  0.66623800  1
  Cu  Cu15  1  0.81248800  0.81248800  0.98685800  1
  Cu  Cu16  1  0.22305500  0.22305500  0.33376200  1
  Cu  Cu17  1  0.18751200  0.18751200  0.01314200  1
