# generated using pymatgen
data_Cu14Ni2C11
_symmetry_space_group_name_H-M   'P 1'
_cell_length_a   5.10191200
_cell_length_b   5.95271382
_cell_length_c   10.50236407
_cell_angle_alpha   92.41001904
_cell_angle_beta   91.05269493
_cell_angle_gamma   90.96187707
_symmetry_Int_Tables_number   1
_chemical_formula_structural   Cu14Ni2C11
_chemical_formula_sum   'Cu14 Ni2 C11'
_cell_volume   318.57399153
_cell_formula_units_Z   1
loop_
 _symmetry_equiv_pos_site_id
 _symmetry_equiv_pos_as_xyz
  1  'x, y, z'
loop_
 _atom_site_type_symbol
 _atom_site_label
 _atom_site_symmetry_multiplicity
 _atom_site_fract_x
 _atom_site_fract_y
 _atom_site_fract_z
 _atom_site_occupancy
  C  C0  1  0.54288700  0.23575900  0.08101200  1
  C  C1  1  0.02469600  0.74245800  0.40674500  1
  C  C2  1  0.97530400  0.25754200  0.59325500  1
  C  C3  1  0.45711300  0.76424100  0.91898800  1
  C  C4  1  0.00000000  0.50000000  0.00000000  1
  C  C5  1  0.49518700  0.74610100  0.24245600  1
  C  C6  1  0.98812600  0.23366600  0.25826000  1
  C  C7  1  0.50000000  0.00000000  0.50000000  1
  C  C8  1  0.50000000  0.50000000  0.50000000  1
  C  C9  1  0.01187400  0.76633400  0.74174000  1
  C  C10  1  0.50481300  0.25389900  0.75754400  1
  Ni  Ni11  1  0.66228000  0.74604500  0.41274900  1
  Ni  Ni12  1  0.33772000  0.25395500  0.58725100  1
  Cu  Cu13  1  0.29542000  0.71188600  0.07560500  1
  Cu  Cu14  1  0.18248400  0.25460200  0.09103100  1
  Cu  Cu15  1  0.70967900  0.01825400  0.17937100  1
  Cu  Cu16  1  0.75748400  0.48618700  0.16476400  1
  Cu  Cu17  1  0.22552200  0.49567500  0.33217800  1
  Cu  Cu18  1  0.21899400  0.98017400  0.32989900  1
  Cu  Cu19  1  0.78774300  0.24704100  0.43061700  1
  Cu  Cu20  1  0.21225700  0.75295900  0.56938300  1
  Cu  Cu21  1  0.78100600  0.01982600  0.67010100  1
  Cu  Cu22  1  0.77447800  0.50432500  0.66782200  1
  Cu  Cu23  1  0.24251600  0.51381300  0.83523600  1
  Cu  Cu24  1  0.29032100  0.98174600  0.82062900  1
  Cu  Cu25  1  0.81751600  0.74539800  0.90896900  1
  Cu  Cu26  1  0.70458000  0.28811400  0.92439500  1
