# generated using pymatgen
data_CuNi2C7
_symmetry_space_group_name_H-M   'P 1'
_cell_length_a   6.88179749
_cell_length_b   6.88179749
_cell_length_c   5.29160246
_cell_angle_alpha   78.64584018
_cell_angle_beta   78.64584018
_cell_angle_gamma   85.93518306
_symmetry_Int_Tables_number   1
_chemical_formula_structural   CuNi2C7
_chemical_formula_sum   'Cu2 Ni4 C14'
_cell_volume   240.75792846
_cell_formula_units_Z   2
loop_
 _symmetry_equiv_pos_site_id
 _symmetry_equiv_pos_as_xyz
  1  'x, y, z'
loop_
 _atom_site_type_symbol
 _atom_site_label
 _atom_site_symmetry_multiplicity
 _atom_site_fract_x
 _atom_site_fract_y
 _atom_site_fract_z
 _atom_site_occupancy
  C  C0  1  0.91091600  0.08908400  0.25000000  1
  C  C1  1  0.08908400  0.91091600  0.75000000  1
  Ni  Ni2  1  0.80679700  0.62450900  0.23159400  1
  Ni  Ni3  1  0.62450900  0.80679700  0.73159400  1
  Ni  Ni4  1  0.37549100  0.19320300  0.26840600  1
  Ni  Ni5  1  0.19320300  0.37549100  0.76840600  1
  Cu  Cu6  1  0.27218900  0.72781100  0.25000000  1
  Cu  Cu7  1  0.72781100  0.27218900  0.75000000  1
  C  C8  1  0.97794200  0.79165100  0.14558400  1
  C  C9  1  0.79165100  0.97794200  0.64558400  1
  C  C10  1  0.88281600  0.39863300  0.32062500  1
  C  C11  1  0.68240500  0.63949400  0.98695800  1
  C  C12  1  0.39863300  0.88281600  0.82062500  1
  C  C13  1  0.63949400  0.68240500  0.48695800  1
  C  C14  1  0.36050600  0.31759500  0.51304200  1
  C  C15  1  0.60136700  0.11718400  0.17937500  1
  C  C16  1  0.31759500  0.36050600  0.01304200  1
  C  C17  1  0.11718400  0.60136700  0.67937500  1
  C  C18  1  0.20834900  0.02205800  0.35441600  1
  C  C19  1  0.02205800  0.20834900  0.85441600  1
