# generated using pymatgen
data_Cu9(NiC5)4
_symmetry_space_group_name_H-M   'P 1'
_cell_length_a   13.89443000
_cell_length_b   7.57404600
_cell_length_c   11.70582754
_cell_angle_alpha   86.43582038
_cell_angle_beta   90.00000000
_cell_angle_gamma   90.00000000
_symmetry_Int_Tables_number   1
_chemical_formula_structural   Cu9(NiC5)4
_chemical_formula_sum   'Cu36 Ni16 C80'
_cell_volume   1229.50405218
_cell_formula_units_Z   4
loop_
 _symmetry_equiv_pos_site_id
 _symmetry_equiv_pos_as_xyz
  1  'x, y, z'
loop_
 _atom_site_type_symbol
 _atom_site_label
 _atom_site_symmetry_multiplicity
 _atom_site_fract_x
 _atom_site_fract_y
 _atom_site_fract_z
 _atom_site_occupancy
  C  C0  1  0.95517000  0.88642900  0.71804400  1
  C  C1  1  0.45517000  0.11357100  0.78195600  1
  C  C2  1  0.04483000  0.11357100  0.28195600  1
  C  C3  1  0.54483000  0.88642900  0.21804400  1
  C  C4  1  0.80778100  0.16069100  0.59479600  1
  C  C5  1  0.30778100  0.83930900  0.90520400  1
  C  C6  1  0.19221900  0.83930900  0.40520400  1
  C  C7  1  0.69221900  0.16069100  0.09479600  1
  C  C8  1  0.91304700  0.27089600  0.79781400  1
  C  C9  1  0.41304700  0.72910400  0.70218600  1
  C  C10  1  0.08695300  0.72910400  0.20218600  1
  C  C11  1  0.58695300  0.27089600  0.29781400  1
  C  C12  1  0.79415800  0.31266100  0.92808700  1
  C  C13  1  0.29415800  0.68733900  0.57191300  1
  C  C14  1  0.20584200  0.68733900  0.07191300  1
  C  C15  1  0.70584200  0.31266100  0.42808700  1
  C  C16  1  0.97832300  0.77577600  0.92966500  1
  C  C17  1  0.47832300  0.22422400  0.57033500  1
  C  C18  1  0.02167700  0.22422400  0.07033500  1
  C  C19  1  0.52167700  0.77577600  0.42966500  1
  C  C20  1  0.08875100  0.79329800  0.87227200  1
  C  C21  1  0.58875100  0.20670200  0.62772800  1
  C  C22  1  0.91124900  0.20670200  0.12772800  1
  C  C23  1  0.41124900  0.79329800  0.37227200  1
  C  C24  1  0.02003800  0.61649700  0.85108500  1
  C  C25  1  0.52003800  0.38350300  0.64891500  1
  C  C26  1  0.97996200  0.38350300  0.14891500  1
  C  C27  1  0.47996200  0.61649700  0.35108500  1
  C  C28  1  0.00131300  0.56611400  0.66160700  1
  C  C29  1  0.50131300  0.43388600  0.83839300  1
  C  C30  1  0.99868700  0.43388600  0.33839300  1
  C  C31  1  0.49868700  0.56611400  0.16160700  1
  C  C32  1  0.93746500  0.66885200  0.55531800  1
  C  C33  1  0.43746500  0.33114800  0.94468200  1
  C  C34  1  0.06253500  0.33114800  0.44468200  1
  C  C35  1  0.56253500  0.66885200  0.05531800  1
  C  C36  1  0.05634700  0.71090800  0.57146000  1
  C  C37  1  0.55634700  0.28909200  0.92854000  1
  C  C38  1  0.94365300  0.28909200  0.42854000  1
  C  C39  1  0.44365300  0.71090800  0.07146000  1
  C  C40  1  0.09553300  0.01273400  0.58584100  1
  C  C41  1  0.59553300  0.98726600  0.91415900  1
  C  C42  1  0.90446700  0.98726600  0.41415900  1
  C  C43  1  0.40446700  0.01273400  0.08584100  1
  C  C44  1  0.13952300  0.97079900  0.71900600  1
  C  C45  1  0.63952300  0.02920100  0.78099400  1
  C  C46  1  0.86047700  0.02920100  0.28099400  1
  C  C47  1  0.36047700  0.97079900  0.21900600  1
  C  C48  1  0.07556200  0.15269800  0.68711000  1
  C  C49  1  0.57556200  0.84730200  0.81289000  1
  C  C50  1  0.92443800  0.84730200  0.31289000  1
  C  C51  1  0.42443800  0.15269800  0.18711000  1
  C  C52  1  0.83631700  0.65077300  0.82700800  1
  C  C53  1  0.33631700  0.34922700  0.67299200  1
  C  C54  1  0.16368300  0.34922700  0.17299200  1
  C  C55  1  0.66368300  0.65077300  0.32700800  1
  C  C56  1  0.77981600  0.83754400  0.78944300  1
  C  C57  1  0.27981600  0.16245600  0.71055700  1
  C  C58  1  0.22018400  0.16245600  0.21055700  1
  C  C59  1  0.72018400  0.83754400  0.28944300  1
  C  C60  1  0.79807500  0.68990700  0.69410300  1
  C  C61  1  0.29807500  0.31009300  0.80589700  1
  C  C62  1  0.20192500  0.31009300  0.30589700  1
  C  C63  1  0.70192500  0.68990700  0.19410300  1
  C  C64  1  0.89624900  0.71284600  0.11307200  1
  C  C65  1  0.39624900  0.28715400  0.38692800  1
  C  C66  1  0.10375100  0.28715400  0.88692800  1
  C  C67  1  0.60375100  0.71284600  0.61307200  1
  C  C68  1  0.83703900  0.88379900  0.07351500  1
  C  C69  1  0.33703900  0.11620100  0.42648500  1
  C  C70  1  0.16296100  0.11620100  0.92648500  1
  C  C71  1  0.66296100  0.88379900  0.57351500  1
  C  C72  1  0.81761500  0.50986200  0.46688600  1
  C  C73  1  0.31761500  0.49013800  0.03311400  1
  C  C74  1  0.18238500  0.49013800  0.53311400  1
  C  C75  1  0.68238500  0.50986200  0.96688600  1
  C  C76  1  0.76070500  0.67660300  0.50097600  1
  C  C77  1  0.26070500  0.32339700  0.99902400  1
  C  C78  1  0.23929500  0.32339700  0.49902400  1
  C  C79  1  0.73929500  0.67660300  0.00097600  1
  Ni  Ni80  1  0.01927500  0.75058600  0.85926100  1
  Ni  Ni81  1  0.51927500  0.24941400  0.64073900  1
  Ni  Ni82  1  0.98072500  0.24941400  0.14073900  1
  Ni  Ni83  1  0.48072500  0.75058600  0.35926100  1
  Ni  Ni84  1  0.99268200  0.68389900  0.61365000  1
  Ni  Ni85  1  0.49268200  0.31610100  0.88635000  1
  Ni  Ni86  1  0.00731800  0.31610100  0.38635000  1
  Ni  Ni87  1  0.50731800  0.68389900  0.11365000  1
  Ni  Ni88  1  0.08221400  0.02112200  0.67182400  1
  Ni  Ni89  1  0.58221400  0.97887800  0.82817600  1
  Ni  Ni90  1  0.91778600  0.97887800  0.32817600  1
  Ni  Ni91  1  0.41778600  0.02112200  0.17182400  1
  Ni  Ni92  1  0.82803500  0.74723100  0.76237700  1
  Ni  Ni93  1  0.32803500  0.25276900  0.73762300  1
  Ni  Ni94  1  0.17196500  0.25276900  0.23762300  1
  Ni  Ni95  1  0.67196500  0.74723100  0.26237700  1
  Cu  Cu96  1  0.88963500  0.02367100  0.58655100  1
  Cu  Cu97  1  0.38963500  0.97632900  0.91344900  1
  Cu  Cu98  1  0.11036500  0.97632900  0.41344900  1
  Cu  Cu99  1  0.61036500  0.02367100  0.08655100  1
  Cu  Cu100  1  0.79960300  0.26883200  0.47998400  1
  Cu  Cu101  1  0.29960300  0.73116800  0.02001600  1
  Cu  Cu102  1  0.20039700  0.73116800  0.52001600  1
  Cu  Cu103  1  0.70039700  0.26883200  0.97998400  1
  Cu  Cu104  1  0.71376600  0.08250600  0.64109500  1
  Cu  Cu105  1  0.21376600  0.91749400  0.85890500  1
  Cu  Cu106  1  0.28623400  0.91749400  0.35890500  1
  Cu  Cu107  1  0.78623400  0.08250600  0.14109500  1
  Cu  Cu108  1  0.84639400  0.30649200  0.68428700  1
  Cu  Cu109  1  0.34639400  0.69350800  0.81571300  1
  Cu  Cu110  1  0.15360600  0.69350800  0.31571300  1
  Cu  Cu111  1  0.65360600  0.30649200  0.18428700  1
  Cu  Cu112  1  0.91695200  0.07150400  0.82576200  1
  Cu  Cu113  1  0.41695200  0.92849600  0.67423800  1
  Cu  Cu114  1  0.08304800  0.92849600  0.17423800  1
  Cu  Cu115  1  0.58304800  0.07150400  0.32576200  1
  Cu  Cu116  1  0.00913700  0.36267200  0.77680100  1
  Cu  Cu117  1  0.50913700  0.63732800  0.72319900  1
  Cu  Cu118  1  0.99086300  0.63732800  0.22319900  1
  Cu  Cu119  1  0.49086300  0.36267200  0.27680100  1
  Cu  Cu120  1  0.85914300  0.36536900  0.89455800  1
  Cu  Cu121  1  0.35914300  0.63463100  0.60544200  1
  Cu  Cu122  1  0.14085700  0.63463100  0.10544200  1
  Cu  Cu123  1  0.64085700  0.36536900  0.39455800  1
  Cu  Cu124  1  0.85469900  0.76384900  0.05095800  1
  Cu  Cu125  1  0.35469900  0.23615100  0.44904200  1
  Cu  Cu126  1  0.14530100  0.23615100  0.94904200  1
  Cu  Cu127  1  0.64530100  0.76384900  0.55095800  1
  Cu  Cu128  1  0.82308800  0.63949000  0.46932500  1
  Cu  Cu129  1  0.32308800  0.36051000  0.03067500  1
  Cu  Cu130  1  0.17691200  0.36051000  0.53067500  1
  Cu  Cu131  1  0.67691200  0.63949000  0.96932500  1
