# generated using pymatgen
data_CuNiC25
_symmetry_space_group_name_H-M   'P 1'
_cell_length_a   10.29387878
_cell_length_b   10.29387878
_cell_length_c   10.98672777
_cell_angle_alpha   66.90485876
_cell_angle_beta   66.90485876
_cell_angle_gamma   81.34277747
_symmetry_Int_Tables_number   1
_chemical_formula_structural   CuNiC25
_chemical_formula_sum   'Cu2 Ni2 C50'
_cell_volume   985.05752909
_cell_formula_units_Z   2
loop_
 _symmetry_equiv_pos_site_id
 _symmetry_equiv_pos_as_xyz
  1  'x, y, z'
loop_
 _atom_site_type_symbol
 _atom_site_label
 _atom_site_symmetry_multiplicity
 _atom_site_fract_x
 _atom_site_fract_y
 _atom_site_fract_z
 _atom_site_occupancy
  C  C0  1  0.20522500  0.20522500  0.74505500  1
  C  C1  1  0.79477500  0.79477500  0.25494500  1
  Ni  Ni2  1  0.71921400  0.28078600  0.00000000  1
  Ni  Ni3  1  0.28078600  0.71921400  0.00000000  1
  Cu  Cu4  1  0.77067600  0.22932400  0.50000000  1
  Cu  Cu5  1  0.22932400  0.77067600  0.50000000  1
  C  C6  1  0.47494400  0.24821000  0.29218300  1
  C  C7  1  0.24821000  0.47494400  0.29218300  1
  C  C8  1  0.08558900  0.46506700  0.20706400  1
  C  C9  1  0.46506700  0.08558900  0.20706400  1
  C  C10  1  0.26002900  0.03733900  0.20677900  1
  C  C11  1  0.03733900  0.26002900  0.20677900  1
  C  C12  1  0.73997100  0.96266100  0.79322100  1
  C  C13  1  0.96266100  0.73997100  0.79322100  1
  C  C14  1  0.53493300  0.91441100  0.79293600  1
  C  C15  1  0.91441100  0.53493300  0.79293600  1
  C  C16  1  0.75179000  0.52505600  0.70781700  1
  C  C17  1  0.52505600  0.75179000  0.70781700  1
  C  C18  1  0.62687500  0.30004800  0.18416000  1
  C  C19  1  0.30004800  0.62687500  0.18416000  1
  C  C20  1  0.37113600  0.37113600  0.23257800  1
  C  C21  1  0.39620800  0.55373400  0.56668600  1
  C  C22  1  0.55373400  0.39620800  0.56668600  1
  C  C23  1  0.18009200  0.55415900  0.04812900  1
  C  C24  1  0.55415900  0.18009200  0.04812900  1
  C  C25  1  0.20893200  0.45004500  0.44462900  1
  C  C26  1  0.45004500  0.20893200  0.44462900  1
  C  C27  1  0.27184500  0.05276100  0.06336300  1
  C  C28  1  0.05276100  0.27184500  0.06336300  1
  C  C29  1  0.94706600  0.52363700  0.27668900  1
  C  C30  1  0.52363700  0.94706600  0.27668900  1
  C  C31  1  0.86355200  0.17490200  0.92510800  1
  C  C32  1  0.17490200  0.86355200  0.92510800  1
  C  C33  1  0.14570000  0.14570000  0.27251400  1
  C  C34  1  0.89058500  0.22078900  0.32684200  1
  C  C35  1  0.22078900  0.89058500  0.32684200  1
  C  C36  1  0.77921100  0.10941500  0.67315800  1
  C  C37  1  0.10941500  0.77921100  0.67315800  1
  C  C38  1  0.85430000  0.85430000  0.72748600  1
  C  C39  1  0.82509800  0.13644800  0.07489200  1
  C  C40  1  0.13644800  0.82509800  0.07489200  1
  C  C41  1  0.47636300  0.05293400  0.72331100  1
  C  C42  1  0.05293400  0.47636300  0.72331100  1
  C  C43  1  0.94723900  0.72815500  0.93663700  1
  C  C44  1  0.72815500  0.94723900  0.93663700  1
  C  C45  1  0.54995500  0.79106800  0.55537100  1
  C  C46  1  0.79106800  0.54995500  0.55537100  1
  C  C47  1  0.44584100  0.81990800  0.95187100  1
  C  C48  1  0.81990800  0.44584100  0.95187100  1
  C  C49  1  0.44626600  0.60379200  0.43331400  1
  C  C50  1  0.60379200  0.44626600  0.43331400  1
  C  C51  1  0.62886400  0.62886400  0.76742200  1
  C  C52  1  0.37312500  0.69995200  0.81584000  1
  C  C53  1  0.69995200  0.37312500  0.81584000  1
