# generated using pymatgen
data_Cu3(NiC6)2
_symmetry_space_group_name_H-M   'P 1'
_cell_length_a   9.43805800
_cell_length_b   9.51460900
_cell_length_c   13.09150100
_cell_angle_alpha   90.00000000
_cell_angle_beta   90.00000000
_cell_angle_gamma   90.00000000
_symmetry_Int_Tables_number   1
_chemical_formula_structural   Cu3(NiC6)2
_chemical_formula_sum   'Cu12 Ni8 C48'
_cell_volume   1175.60934845
_cell_formula_units_Z   4
loop_
 _symmetry_equiv_pos_site_id
 _symmetry_equiv_pos_as_xyz
  1  'x, y, z'
loop_
 _atom_site_type_symbol
 _atom_site_label
 _atom_site_symmetry_multiplicity
 _atom_site_fract_x
 _atom_site_fract_y
 _atom_site_fract_z
 _atom_site_occupancy
  Ni  Ni0  1  0.24972300  0.03722600  0.62062800  1
  Ni  Ni1  1  0.74972300  0.03722600  0.87937200  1
  Ni  Ni2  1  0.74972300  0.46277400  0.12062800  1
  Ni  Ni3  1  0.24972300  0.46277400  0.37937200  1
  Ni  Ni4  1  0.25027700  0.53722600  0.87937200  1
  Ni  Ni5  1  0.75027700  0.53722600  0.62062800  1
  Ni  Ni6  1  0.25027700  0.96277400  0.12062800  1
  Ni  Ni7  1  0.75027700  0.96277400  0.37937200  1
  Cu  Cu8  1  0.39694400  0.11391000  0.35534700  1
  Cu  Cu9  1  0.89694400  0.11391000  0.14465300  1
  Cu  Cu10  1  0.46974400  0.25000000  0.00000000  1
  Cu  Cu11  1  0.96974400  0.25000000  0.50000000  1
  Cu  Cu12  1  0.39694400  0.38609000  0.64465300  1
  Cu  Cu13  1  0.89694400  0.38609000  0.85534700  1
  Cu  Cu14  1  0.10305600  0.61391000  0.14465300  1
  Cu  Cu15  1  0.60305600  0.61391000  0.35534700  1
  Cu  Cu16  1  0.53025600  0.75000000  0.00000000  1
  Cu  Cu17  1  0.03025600  0.75000000  0.50000000  1
  Cu  Cu18  1  0.10305600  0.88609000  0.85534700  1
  Cu  Cu19  1  0.60305600  0.88609000  0.64465300  1
  C  C20  1  0.18114400  0.00203900  0.76153700  1
  C  C21  1  0.68114400  0.00203900  0.73846300  1
  C  C22  1  0.82521700  0.07085100  0.02048400  1
  C  C23  1  0.32521700  0.07085100  0.47951600  1
  C  C24  1  0.08745900  0.09166400  0.14624200  1
  C  C25  1  0.58745900  0.09166400  0.35375800  1
  C  C26  1  0.36091200  0.12596700  0.06896600  1
  C  C27  1  0.86091200  0.12596700  0.43103400  1
  C  C28  1  0.08191000  0.16090400  0.59159100  1
  C  C29  1  0.58191000  0.16090400  0.90840900  1
  C  C30  1  0.85914700  0.20329600  0.82771300  1
  C  C31  1  0.35914700  0.20329600  0.67228700  1
  C  C32  1  0.85914700  0.29670400  0.17228700  1
  C  C33  1  0.35914700  0.29670400  0.32771300  1
  C  C34  1  0.58191000  0.33909600  0.09159100  1
  C  C35  1  0.08191000  0.33909600  0.40840900  1
  C  C36  1  0.86091200  0.37403300  0.56896600  1
  C  C37  1  0.36091200  0.37403300  0.93103400  1
  C  C38  1  0.58745900  0.40833600  0.64624200  1
  C  C39  1  0.08745900  0.40833600  0.85375800  1
  C  C40  1  0.32521700  0.42914900  0.52048400  1
  C  C41  1  0.82521700  0.42914900  0.97951600  1
  C  C42  1  0.68114400  0.49796100  0.26153700  1
  C  C43  1  0.18114400  0.49796100  0.23846300  1
  C  C44  1  0.31885600  0.50203900  0.73846300  1
  C  C45  1  0.81885600  0.50203900  0.76153700  1
  C  C46  1  0.17478300  0.57085100  0.02048400  1
  C  C47  1  0.67478300  0.57085100  0.47951600  1
  C  C48  1  0.41254100  0.59166400  0.35375800  1
  C  C49  1  0.91254100  0.59166400  0.14624200  1
  C  C50  1  0.63908800  0.62596700  0.06896600  1
  C  C51  1  0.13908800  0.62596700  0.43103400  1
  C  C52  1  0.41809000  0.66090400  0.90840900  1
  C  C53  1  0.91809000  0.66090400  0.59159100  1
  C  C54  1  0.64085300  0.70329600  0.67228700  1
  C  C55  1  0.14085300  0.70329600  0.82771300  1
  C  C56  1  0.14085300  0.79670400  0.17228700  1
  C  C57  1  0.64085300  0.79670400  0.32771300  1
  C  C58  1  0.91809000  0.83909600  0.40840900  1
  C  C59  1  0.41809000  0.83909600  0.09159100  1
  C  C60  1  0.63908800  0.87403300  0.93103400  1
  C  C61  1  0.13908800  0.87403300  0.56896600  1
  C  C62  1  0.91254100  0.90833600  0.85375800  1
  C  C63  1  0.41254100  0.90833600  0.64624200  1
  C  C64  1  0.17478300  0.92914900  0.97951600  1
  C  C65  1  0.67478300  0.92914900  0.52048400  1
  C  C66  1  0.81885600  0.99796100  0.23846300  1
  C  C67  1  0.31885600  0.99796100  0.26153700  1
