# generated using pymatgen
data_Cu2Ni2C13
_symmetry_space_group_name_H-M   'P 1'
_cell_length_a   6.01865607
_cell_length_b   6.04581944
_cell_length_c   6.03184064
_cell_angle_alpha   119.74110638
_cell_angle_beta   60.07211108
_cell_angle_gamma   90.00040980
_symmetry_Int_Tables_number   1
_chemical_formula_structural   Cu2Ni2C13
_chemical_formula_sum   'Cu2 Ni2 C13'
_cell_volume   155.97261877
_cell_formula_units_Z   1
loop_
 _symmetry_equiv_pos_site_id
 _symmetry_equiv_pos_as_xyz
  1  'x, y, z'
loop_
 _atom_site_type_symbol
 _atom_site_label
 _atom_site_symmetry_multiplicity
 _atom_site_fract_x
 _atom_site_fract_y
 _atom_site_fract_z
 _atom_site_occupancy
  C  C0  1  0.00002200  0.99994400  0.99996200  1
  C  C1  1  0.49994400  0.99999900  0.49999200  1
  C  C2  1  0.00008600  0.00000500  0.49999500  1
  C  C3  1  0.93429600  0.70915500  0.13140600  1
  C  C4  1  0.06578800  0.29068100  0.86842800  1
  Ni  Ni5  1  0.49990300  0.99993000  0.00016500  1
  Ni  Ni6  1  0.49991700  0.50012900  0.00014100  1
  Cu  Cu7  1  0.00032800  0.49981700  0.49957800  1
  Cu  Cu8  1  0.50018500  0.49984300  0.49957800  1
  C  C9  1  0.25214200  0.26367200  0.49567100  1
  C  C10  1  0.74777200  0.73659700  0.50442000  1
  C  C11  1  0.24856900  0.73463000  0.50283200  1
  C  C12  1  0.75130100  0.26538300  0.49736000  1
  C  C13  1  0.26931000  0.75181700  0.98001400  1
  C  C14  1  0.75066700  0.75182100  0.98001200  1
  C  C15  1  0.24906200  0.24828800  0.02021800  1
  C  C16  1  0.73071200  0.24828800  0.02021700  1
