# generated using pymatgen
data_Cu(NiC12)3
_symmetry_space_group_name_H-M   'P 1'
_cell_length_a   8.57708000
_cell_length_b   8.60764727
_cell_length_c   8.67242210
_cell_angle_alpha   62.05678352
_cell_angle_beta   62.15387703
_cell_angle_gamma   62.82729620
_symmetry_Int_Tables_number   1
_chemical_formula_structural   Cu(NiC12)3
_chemical_formula_sum   'Cu1 Ni3 C36'
_cell_volume   476.38946898
_cell_formula_units_Z   1
loop_
 _symmetry_equiv_pos_site_id
 _symmetry_equiv_pos_as_xyz
  1  'x, y, z'
loop_
 _atom_site_type_symbol
 _atom_site_label
 _atom_site_symmetry_multiplicity
 _atom_site_fract_x
 _atom_site_fract_y
 _atom_site_fract_z
 _atom_site_occupancy
  C  C0  1  0.00354700  0.97405500  0.00531200  1
  C  C1  1  0.84932700  0.24778000  0.65471200  1
  C  C2  1  0.49235900  0.52667200  0.50516300  1
  C  C3  1  0.16506400  0.76846700  0.33836800  1
  C  C4  1  0.76880400  0.34169100  0.16266800  1
  C  C5  1  0.33402000  0.16353800  0.77461500  1
  Ni  Ni6  1  0.85488800  0.85286100  0.86366400  1
  Ni  Ni7  1  0.64027000  0.64625300  0.64547200  1
  Ni  Ni8  1  0.35044200  0.35264000  0.35047000  1
  Cu  Cu9  1  0.14580300  0.14732900  0.15357700  1
  C  C10  1  0.24882200  0.94359000  0.55269400  1
  C  C11  1  0.94043800  0.55537500  0.24954800  1
  C  C12  1  0.54890800  0.24822900  0.94975000  1
  C  C13  1  0.45909300  0.74363800  0.04054900  1
  C  C14  1  0.04001400  0.45910900  0.74654900  1
  C  C15  1  0.74777500  0.04578300  0.46294900  1
  C  C16  1  0.69398300  0.87752500  0.50969300  1
  C  C17  1  0.51169800  0.67499500  0.88320300  1
  C  C18  1  0.07868700  0.94843200  0.73289500  1
  C  C19  1  0.88264600  0.48714200  0.68680600  1
  C  C20  1  0.40546000  0.75827600  0.58745400  1
  C  C21  1  0.20214300  0.95458200  0.39676900  1
  C  C22  1  0.92742600  0.74542000  0.09303300  1
  C  C23  1  0.76018900  0.56819200  0.42040500  1
  C  C24  1  0.57918400  0.40424700  0.75741200  1
  C  C25  1  0.61791000  0.80726600  0.00399400  1
  C  C26  1  0.26971800  0.89529900  0.05254400  1
  C  C27  1  0.99705500  0.62671900  0.79758300  1
  C  C28  1  0.95044900  0.40708500  0.19329700  1
  C  C29  1  0.74085500  0.09378600  0.92671300  1
  C  C30  1  0.39112700  0.19345500  0.97285100  1
  C  C31  1  0.43843800  0.58677800  0.23259300  1
  C  C32  1  0.23085600  0.44085500  0.58691600  1
  C  C33  1  0.05894700  0.27268100  0.90590500  1
  C  C34  1  0.79797800  0.02393800  0.62321400  1
  C  C35  1  0.58775900  0.23102000  0.43438600  1
  C  C36  1  0.11141500  0.50843800  0.30137000  1
  C  C37  1  0.90906600  0.06081200  0.27604800  1
  C  C38  1  0.51370000  0.30362600  0.11104200  1
  C  C39  1  0.30473400  0.11241900  0.50681800  1
