# generated using pymatgen
data_Cu2(NiC)5
_symmetry_space_group_name_H-M   'P 1'
_cell_length_a   5.40231317
_cell_length_b   5.40231317
_cell_length_c   9.16992847
_cell_angle_alpha   74.84992115
_cell_angle_beta   74.84992115
_cell_angle_gamma   33.00511397
_symmetry_Int_Tables_number   1
_chemical_formula_structural   Cu2(NiC)5
_chemical_formula_sum   'Cu2 Ni5 C5'
_cell_volume   140.25860746
_cell_formula_units_Z   1
loop_
 _symmetry_equiv_pos_site_id
 _symmetry_equiv_pos_as_xyz
  1  'x, y, z'
loop_
 _atom_site_type_symbol
 _atom_site_label
 _atom_site_symmetry_multiplicity
 _atom_site_fract_x
 _atom_site_fract_y
 _atom_site_fract_z
 _atom_site_occupancy
  C  C0  1  0.10932900  0.10932900  0.07997000  1
  C  C1  1  0.69848800  0.69848800  0.70042000  1
  C  C2  1  0.30635300  0.30635300  0.29789400  1
  C  C3  1  0.88778900  0.88778900  0.91856900  1
  C  C4  1  0.98944100  0.98944100  0.49374300  1
  Ni  Ni5  1  0.50835300  0.50835300  0.98536500  1
  Ni  Ni6  1  0.74041600  0.74041600  0.14391000  1
  Ni  Ni7  1  0.26604100  0.26604100  0.84798300  1
  Ni  Ni8  1  0.33815900  0.33815900  0.55302100  1
  Ni  Ni9  1  0.95493900  0.95493900  0.28363500  1
  Cu  Cu10  1  0.04564700  0.04564700  0.70538000  1
  Cu  Cu11  1  0.65378100  0.65378100  0.44817900  1
