# generated using pymatgen
data_Cu(NiC7)2
_symmetry_space_group_name_H-M   'P 1'
_cell_length_a   10.95541000
_cell_length_b   11.17469100
_cell_length_c   15.99284000
_cell_angle_alpha   90.00000000
_cell_angle_beta   90.00000000
_cell_angle_gamma   90.00000000
_symmetry_Int_Tables_number   1
_chemical_formula_structural   Cu(NiC7)2
_chemical_formula_sum   'Cu8 Ni16 C112'
_cell_volume   1957.89659347
_cell_formula_units_Z   8
loop_
 _symmetry_equiv_pos_site_id
 _symmetry_equiv_pos_as_xyz
  1  'x, y, z'
loop_
 _atom_site_type_symbol
 _atom_site_label
 _atom_site_symmetry_multiplicity
 _atom_site_fract_x
 _atom_site_fract_y
 _atom_site_fract_z
 _atom_site_occupancy
  Ni  Ni0  1  0.00000000  0.25000000  0.34433100  1
  Ni  Ni1  1  0.00000000  0.75000000  0.24549700  1
  Ni  Ni2  1  0.00000000  0.25000000  0.75450300  1
  Ni  Ni3  1  0.00000000  0.75000000  0.65566900  1
  Ni  Ni4  1  0.18287200  0.41903900  0.07385700  1
  Ni  Ni5  1  0.18287200  0.91903900  0.92614300  1
  Ni  Ni6  1  0.31712800  0.91903900  0.42614300  1
  Ni  Ni7  1  0.31712800  0.41903900  0.57385700  1
  Ni  Ni8  1  0.50000000  0.25000000  0.25450300  1
  Ni  Ni9  1  0.50000000  0.25000000  0.84433100  1
  Ni  Ni10  1  0.50000000  0.75000000  0.15566900  1
  Ni  Ni11  1  0.50000000  0.75000000  0.74549700  1
  Ni  Ni12  1  0.68287200  0.58096100  0.42614300  1
  Ni  Ni13  1  0.68287200  0.08096100  0.57385700  1
  Ni  Ni14  1  0.81712800  0.08096100  0.07385700  1
  Ni  Ni15  1  0.81712800  0.58096100  0.92614300  1
  C  C16  1  0.03225000  0.02133900  0.58499600  1
  C  C17  1  0.03225000  0.52133900  0.41500400  1
  C  C18  1  0.46775000  0.02133900  0.08499600  1
  C  C19  1  0.46775000  0.52133900  0.91500400  1
  C  C20  1  0.53225000  0.47866100  0.08499600  1
  C  C21  1  0.53225000  0.97866100  0.91500400  1
  C  C22  1  0.96775000  0.97866100  0.41500400  1
  C  C23  1  0.96775000  0.47866100  0.58499600  1
  Cu  Cu24  1  0.19613000  0.04334300  0.15616500  1
  Cu  Cu25  1  0.19613000  0.54334300  0.84383500  1
  Cu  Cu26  1  0.30387000  0.04334300  0.65616500  1
  Cu  Cu27  1  0.30387000  0.54334300  0.34383500  1
  Cu  Cu28  1  0.69613000  0.95665700  0.34383500  1
  Cu  Cu29  1  0.69613000  0.45665700  0.65616500  1
  Cu  Cu30  1  0.80387000  0.95665700  0.84383500  1
  Cu  Cu31  1  0.80387000  0.45665700  0.15616500  1
  C  C32  1  0.00000000  0.75000000  0.13695200  1
  C  C33  1  0.00000000  0.25000000  0.64619500  1
  C  C34  1  0.00000000  0.75000000  0.35380500  1
  C  C35  1  0.00000000  0.25000000  0.86304800  1
  C  C36  1  0.02040600  0.42624400  0.08924700  1
  C  C37  1  0.02040600  0.92624400  0.91075300  1
  C  C38  1  0.05508900  0.90274400  0.24463800  1
  C  C39  1  0.05508900  0.40274400  0.75536200  1
  C  C40  1  0.07398400  0.16575700  0.26276500  1
  C  C41  1  0.07398400  0.66575700  0.73723500  1
  C  C42  1  0.07250600  0.16133700  0.41901700  1
  C  C43  1  0.07250600  0.66133700  0.58098300  1
  C  C44  1  0.10491200  0.06449700  0.57440700  1
  C  C45  1  0.10491200  0.56449700  0.42559300  1
  C  C46  1  0.12357700  0.35326700  0.34088900  1
  C  C47  1  0.12357700  0.85326700  0.65911100  1
  C  C48  1  0.15366100  0.69607300  0.24726100  1
  C  C49  1  0.15366100  0.19607300  0.75273900  1
  C  C50  1  0.15827100  0.87796300  0.03320100  1
  C  C51  1  0.15827100  0.37796300  0.96679900  1
  C  C52  1  0.15942000  0.40454700  0.56024500  1
  C  C53  1  0.15942000  0.90454700  0.43975500  1
  C  C54  1  0.17382000  0.26354500  0.10195800  1
  C  C55  1  0.17382000  0.76354500  0.89804200  1
  C  C56  1  0.18295700  0.56925100  0.04166100  1
  C  C57  1  0.18295700  0.06925100  0.95833900  1
  C  C58  1  0.20347200  0.45873700  0.18016300  1
  C  C59  1  0.20347200  0.95873700  0.81983700  1
  C  C60  1  0.29652800  0.95873700  0.31983700  1
  C  C61  1  0.29652800  0.45873700  0.68016300  1
  C  C62  1  0.31704300  0.06925100  0.45833900  1
  C  C63  1  0.31704300  0.56925100  0.54166100  1
  C  C64  1  0.32618000  0.26354500  0.60195800  1
  C  C65  1  0.32618000  0.76354500  0.39804200  1
  C  C66  1  0.34058000  0.40454700  0.06024500  1
  C  C67  1  0.34058000  0.90454700  0.93975500  1
  C  C68  1  0.34172900  0.87796300  0.53320100  1
  C  C69  1  0.34172900  0.37796300  0.46679900  1
  C  C70  1  0.34633900  0.19607300  0.25273900  1
  C  C71  1  0.34633900  0.69607300  0.74726100  1
  C  C72  1  0.37642300  0.85326700  0.15911100  1
  C  C73  1  0.37642300  0.35326700  0.84088900  1
  C  C74  1  0.39508800  0.06449700  0.07440700  1
  C  C75  1  0.39508800  0.56449700  0.92559300  1
  C  C76  1  0.42749400  0.66133700  0.08098300  1
  C  C77  1  0.42749400  0.16133700  0.91901700  1
  C  C78  1  0.42601600  0.66575700  0.23723500  1
  C  C79  1  0.42601600  0.16575700  0.76276500  1
  C  C80  1  0.44491100  0.40274400  0.25536200  1
  C  C81  1  0.44491100  0.90274400  0.74463800  1
  C  C82  1  0.47959400  0.92624400  0.41075300  1
  C  C83  1  0.47959400  0.42624400  0.58924700  1
  C  C84  1  0.50000000  0.25000000  0.36304800  1
  C  C85  1  0.50000000  0.25000000  0.14619500  1
  C  C86  1  0.50000000  0.75000000  0.63695200  1
  C  C87  1  0.50000000  0.75000000  0.85380500  1
  C  C88  1  0.52040600  0.57375600  0.41075300  1
  C  C89  1  0.52040600  0.07375600  0.58924700  1
  C  C90  1  0.55508900  0.09725600  0.25536200  1
  C  C91  1  0.55508900  0.59725600  0.74463800  1
  C  C92  1  0.57398400  0.33424300  0.76276500  1
  C  C93  1  0.57398400  0.83424300  0.23723500  1
  C  C94  1  0.57250600  0.33866300  0.91901700  1
  C  C95  1  0.57250600  0.83866300  0.08098300  1
  C  C96  1  0.60491200  0.43550300  0.07440700  1
  C  C97  1  0.60491200  0.93550300  0.92559300  1
  C  C98  1  0.62357700  0.64673300  0.15911100  1
  C  C99  1  0.62357700  0.14673300  0.84088900  1
  C  C100  1  0.65366100  0.30392700  0.25273900  1
  C  C101  1  0.65366100  0.80392700  0.74726100  1
  C  C102  1  0.65827100  0.12203700  0.46679900  1
  C  C103  1  0.65827100  0.62203700  0.53320100  1
  C  C104  1  0.65942000  0.09545300  0.06024500  1
  C  C105  1  0.65942000  0.59545300  0.93975500  1
  C  C106  1  0.67382000  0.73645500  0.39804200  1
  C  C107  1  0.67382000  0.23645500  0.60195800  1
  C  C108  1  0.68295700  0.43074900  0.45833900  1
  C  C109  1  0.68295700  0.93074900  0.54166100  1
  C  C110  1  0.70347200  0.54126300  0.31983700  1
  C  C111  1  0.70347200  0.04126300  0.68016300  1
  C  C112  1  0.79652800  0.04126300  0.18016300  1
  C  C113  1  0.79652800  0.54126300  0.81983700  1
  C  C114  1  0.81704300  0.93074900  0.04166100  1
  C  C115  1  0.81704300  0.43074900  0.95833900  1
  C  C116  1  0.82618000  0.23645500  0.10195800  1
  C  C117  1  0.82618000  0.73645500  0.89804200  1
  C  C118  1  0.84058000  0.59545300  0.43975500  1
  C  C119  1  0.84058000  0.09545300  0.56024500  1
  C  C120  1  0.84172900  0.62203700  0.03320100  1
  C  C121  1  0.84172900  0.12203700  0.96679900  1
  C  C122  1  0.84633900  0.30392700  0.75273900  1
  C  C123  1  0.84633900  0.80392700  0.24726100  1
  C  C124  1  0.87642300  0.14673300  0.34088900  1
  C  C125  1  0.87642300  0.64673300  0.65911100  1
  C  C126  1  0.89508800  0.93550300  0.42559300  1
  C  C127  1  0.89508800  0.43550300  0.57440700  1
  C  C128  1  0.92749400  0.33866300  0.41901700  1
  C  C129  1  0.92749400  0.83866300  0.58098300  1
  C  C130  1  0.92601600  0.33424300  0.26276500  1
  C  C131  1  0.92601600  0.83424300  0.73723500  1
  C  C132  1  0.94491100  0.59725600  0.24463800  1
  C  C133  1  0.94491100  0.09725600  0.75536200  1
  C  C134  1  0.97959400  0.57375600  0.91075300  1
  C  C135  1  0.97959400  0.07375600  0.08924700  1
