# generated using pymatgen
data_Cu4Ni2C3
_symmetry_space_group_name_H-M   'P 1'
_cell_length_a   6.19885507
_cell_length_b   6.19885507
_cell_length_c   7.59608900
_cell_angle_alpha   90.00000000
_cell_angle_beta   90.00000000
_cell_angle_gamma   99.12388628
_symmetry_Int_Tables_number   1
_chemical_formula_structural   Cu4Ni2C3
_chemical_formula_sum   'Cu8 Ni4 C6'
_cell_volume   288.19282685
_cell_formula_units_Z   2
loop_
 _symmetry_equiv_pos_site_id
 _symmetry_equiv_pos_as_xyz
  1  'x, y, z'
loop_
 _atom_site_type_symbol
 _atom_site_label
 _atom_site_symmetry_multiplicity
 _atom_site_fract_x
 _atom_site_fract_y
 _atom_site_fract_z
 _atom_site_occupancy
  C  C0  1  0.94783200  0.50098600  0.25000000  1
  C  C1  1  0.49901400  0.05216800  0.75000000  1
  C  C2  1  0.05216800  0.49901400  0.75000000  1
  C  C3  1  0.50098600  0.94783200  0.25000000  1
  C  C4  1  0.00000000  0.00000000  0.50000000  1
  C  C5  1  0.00000000  0.00000000  0.00000000  1
  Ni  Ni6  1  0.98979800  0.98979800  0.25000000  1
  Ni  Ni7  1  0.01020200  0.01020200  0.75000000  1
  Ni  Ni8  1  0.44334700  0.44334700  0.25000000  1
  Ni  Ni9  1  0.55665300  0.55665300  0.75000000  1
  Cu  Cu10  1  0.79456800  0.20543200  0.50000000  1
  Cu  Cu11  1  0.79456800  0.20543200  0.00000000  1
  Cu  Cu12  1  0.20543200  0.79456800  0.50000000  1
  Cu  Cu13  1  0.20543200  0.79456800  0.00000000  1
  Cu  Cu14  1  0.24235000  0.24235000  0.49350300  1
  Cu  Cu15  1  0.75765000  0.75765000  0.50649700  1
  Cu  Cu16  1  0.24235000  0.24235000  0.00649700  1
  Cu  Cu17  1  0.75765000  0.75765000  0.99350300  1
