# generated using pymatgen
data_CuNiC10
_symmetry_space_group_name_H-M   'P 1'
_cell_length_a   5.15164644
_cell_length_b   17.11623239
_cell_length_c   6.29722700
_cell_angle_alpha   90.00078451
_cell_angle_beta   90.00223647
_cell_angle_gamma   86.82938331
_symmetry_Int_Tables_number   1
_chemical_formula_structural   CuNiC10
_chemical_formula_sum   'Cu4 Ni4 C40'
_cell_volume   554.41921244
_cell_formula_units_Z   4
loop_
 _symmetry_equiv_pos_site_id
 _symmetry_equiv_pos_as_xyz
  1  'x, y, z'
loop_
 _atom_site_type_symbol
 _atom_site_label
 _atom_site_symmetry_multiplicity
 _atom_site_fract_x
 _atom_site_fract_y
 _atom_site_fract_z
 _atom_site_occupancy
  C  C0  1  0.21217100  0.11333200  0.50890800  1
  C  C1  1  0.21237000  0.61311300  0.50942500  1
  C  C2  1  0.21217500  0.11333800  0.99111000  1
  C  C3  1  0.21238200  0.61311700  0.99059200  1
  C  C4  1  0.78771600  0.38671500  0.49105400  1
  C  C5  1  0.78760600  0.88692000  0.49042100  1
  C  C6  1  0.78771300  0.38671000  0.00893200  1
  C  C7  1  0.78759300  0.88691600  0.00956400  1
  C  C8  1  0.79515300  0.67388500  0.75000200  1
  C  C9  1  0.20465400  0.32605200  0.25000300  1
  C  C10  1  0.79517800  0.17393800  0.75000400  1
  C  C11  1  0.20495900  0.82608300  0.24999400  1
  Ni  Ni12  1  0.71406100  0.21589400  0.24999500  1
  Ni  Ni13  1  0.71406900  0.71593600  0.24999800  1
  Ni  Ni14  1  0.28581000  0.28411900  0.75000200  1
  Ni  Ni15  1  0.28600600  0.78404400  0.75000200  1
  Cu  Cu16  1  0.73141100  0.02635000  0.74999700  1
  Cu  Cu17  1  0.73124500  0.52647000  0.75000100  1
  Cu  Cu18  1  0.26856700  0.47362800  0.25000400  1
  Cu  Cu19  1  0.26887000  0.97351900  0.25000000  1
  C  C20  1  0.29146800  0.04705000  0.25000100  1
  C  C21  1  0.29161700  0.54718000  0.25000300  1
  C  C22  1  0.70849200  0.45295100  0.75000200  1
  C  C23  1  0.70845800  0.95282100  0.74999800  1
  C  C24  1  0.95983500  0.05634700  0.75000200  1
  C  C25  1  0.95967600  0.55654600  0.75000400  1
  C  C26  1  0.04010500  0.44365400  0.24999600  1
  C  C27  1  0.04051400  0.94343200  0.24999600  1
  C  C28  1  0.53429300  0.07748200  0.74999100  1
  C  C29  1  0.53411600  0.57763900  0.74999600  1
  C  C30  1  0.46570100  0.42248200  0.25001100  1
  C  C31  1  0.46599700  0.92240100  0.25000300  1
  C  C32  1  0.16822900  0.19724000  0.74999100  1
  C  C33  1  0.16825500  0.69724000  0.75000100  1
  C  C34  1  0.83165100  0.30276800  0.25000900  1
  C  C35  1  0.83180200  0.80274300  0.24999800  1
  C  C36  1  0.39350400  0.22815600  0.24998100  1
  C  C37  1  0.39349900  0.72817900  0.24998800  1
  C  C38  1  0.60640700  0.27183200  0.75001600  1
  C  C39  1  0.60657600  0.77179200  0.75001200  1
  C  C40  1  0.81784700  0.16149300  0.05006100  1
  C  C41  1  0.81797500  0.66152400  0.05010100  1
  C  C42  1  0.81783600  0.16149300  0.44993600  1
  C  C43  1  0.81796300  0.66152500  0.44990200  1
  C  C44  1  0.18205900  0.33851600  0.55007100  1
  C  C45  1  0.18219000  0.83845900  0.55009500  1
  C  C46  1  0.18205100  0.33851600  0.94992800  1
  C  C47  1  0.18217800  0.83846000  0.94989900  1
