# generated using pymatgen
data_Cu2Ni5C9
_symmetry_space_group_name_H-M   'P 1'
_cell_length_a   12.74360930
_cell_length_b   12.61875820
_cell_length_c   7.71562141
_cell_angle_alpha   73.17445037
_cell_angle_beta   71.40797070
_cell_angle_gamma   35.41757894
_symmetry_Int_Tables_number   1
_chemical_formula_structural   Cu2Ni5C9
_chemical_formula_sum   'Cu8 Ni20 C36'
_cell_volume   680.52893185
_cell_formula_units_Z   4
loop_
 _symmetry_equiv_pos_site_id
 _symmetry_equiv_pos_as_xyz
  1  'x, y, z'
loop_
 _atom_site_type_symbol
 _atom_site_label
 _atom_site_symmetry_multiplicity
 _atom_site_fract_x
 _atom_site_fract_y
 _atom_site_fract_z
 _atom_site_occupancy
  C  C0  1  0.25359100  0.24640900  0.24640900  1
  C  C1  1  0.00359100  0.99640900  0.99640900  1
  Ni  Ni2  1  0.11710700  0.11987300  0.26308700  1
  Ni  Ni3  1  0.49993300  0.26308700  0.11987300  1
  Ni  Ni4  1  0.29712600  0.95055000  0.36462600  1
  Ni  Ni5  1  0.47188000  0.66034800  0.40132300  1
  Ni  Ni6  1  0.13012700  0.13289300  0.75006700  1
  Ni  Ni7  1  0.27100800  0.50577600  0.67718500  1
  Ni  Ni8  1  0.30316600  0.76580300  0.65996400  1
  Ni  Ni9  1  0.27106700  0.65996400  0.76580300  1
  Ni  Ni10  1  0.54603200  0.67718500  0.50577600  1
  Ni  Ni11  1  0.98691300  0.75006700  0.13289300  1
  Ni  Ni12  1  0.46644900  0.40132300  0.66034800  1
  Ni  Ni13  1  0.29945000  0.95287400  0.86230100  1
  Ni  Ni14  1  0.38769900  0.36462600  0.95055000  1
  Ni  Ni15  1  0.58965200  0.77812000  0.78355100  1
  Ni  Ni16  1  0.74422400  0.97899200  0.70396800  1
  Ni  Ni17  1  0.48419700  0.94683400  0.97893300  1
  Ni  Ni18  1  0.59003600  0.97893300  0.94683400  1
  Ni  Ni19  1  0.57281500  0.70396800  0.97899200  1
  Ni  Ni20  1  0.84867700  0.78355100  0.77812000  1
  Ni  Ni21  1  0.88537400  0.86230100  0.95287400  1
  Cu  Cu22  1  0.31235400  0.67698100  0.22052400  1
  Cu  Cu23  1  0.14669600  0.50697000  0.45102700  1
  Cu  Cu24  1  0.79897300  0.35469300  0.10330400  1
  Cu  Cu25  1  0.02947600  0.45985900  0.93764600  1
  Cu  Cu26  1  0.57301900  0.93764600  0.45985900  1
  Cu  Cu27  1  0.74303000  0.10330400  0.35469300  1
  Cu  Cu28  1  0.89530700  0.45102700  0.50697000  1
  Cu  Cu29  1  0.79014100  0.22052400  0.67698100  1
  C  C30  1  0.09737300  0.31088600  0.00432800  1
  C  C31  1  0.06142600  0.56583000  0.32220400  1
  C  C32  1  0.24567200  0.66258600  0.15262700  1
  C  C33  1  0.25819800  0.82198900  0.16592800  1
  C  C34  1  0.41251100  0.29550600  0.07254300  1
  C  C35  1  0.48162600  0.01837400  0.01837500  1
  C  C36  1  0.21944000  0.07254300  0.29550600  1
  C  C37  1  0.05053900  0.32220400  0.56583000  1
  C  C38  1  0.10474100  0.61128500  0.53208900  1
  C  C39  1  0.42073100  0.56277600  0.33245000  1
  C  C40  1  0.27642800  0.33433900  0.48934400  1
  C  C41  1  0.71791100  0.49811400  0.14525900  1
  C  C42  1  0.68417000  0.18857400  0.19946100  1
  C  C43  1  0.58741400  0.00432800  0.31088600  1
  C  C44  1  0.43298600  0.74311900  0.47406000  1
  C  C45  1  0.42801100  0.99180200  0.49611500  1
  C  C46  1  0.95449400  0.83748900  0.03056000  1
  C  C47  1  0.23162500  0.76837400  0.76837400  1
  C  C48  1  0.17745700  0.03056000  0.83748900  1
  C  C49  1  0.08407200  0.49611500  0.99180200  1
  C  C50  1  0.34983500  0.47406000  0.74311900  1
  C  C51  1  0.92779600  0.19946100  0.18857400  1
  C  C52  1  0.63871500  0.14525900  0.49811400  1
  C  C53  1  0.89988900  0.48934400  0.33433900  1
  C  C54  1  0.68722400  0.82926900  0.56595800  1
  C  C55  1  0.68404200  0.33245000  0.56277600  1
  C  C56  1  0.91566100  0.97357200  0.35011100  1
  C  C57  1  0.75188600  0.53208900  0.61128500  1
  C  C58  1  0.50688100  0.81701400  0.90016500  1
  C  C59  1  0.75388500  0.16592800  0.82198900  1
  C  C60  1  0.77594000  0.90016500  0.81701400  1
  C  C61  1  0.93911400  0.15262700  0.66258600  1
  C  C62  1  0.76065600  0.35011100  0.97357200  1
  C  C63  1  0.91755000  0.56595800  0.82926900  1
