# generated using pymatgen
data_CuNi3C32
_symmetry_space_group_name_H-M   'P 1'
_cell_length_a   8.78284345
_cell_length_b   8.78284345
_cell_length_c   8.78284314
_cell_angle_alpha   60.29347199
_cell_angle_beta   60.29347199
_cell_angle_gamma   60.29347365
_symmetry_Int_Tables_number   1
_chemical_formula_structural   CuNi3C32
_chemical_formula_sum   'Cu1 Ni3 C32'
_cell_volume   482.24215458
_cell_formula_units_Z   1
loop_
 _symmetry_equiv_pos_site_id
 _symmetry_equiv_pos_as_xyz
  1  'x, y, z'
loop_
 _atom_site_type_symbol
 _atom_site_label
 _atom_site_symmetry_multiplicity
 _atom_site_fract_x
 _atom_site_fract_y
 _atom_site_fract_z
 _atom_site_occupancy
  Ni  Ni0  1  0.84497900  0.84497900  0.84497900  1
  Ni  Ni1  1  0.65378400  0.65378400  0.65378400  1
  Ni  Ni2  1  0.34931200  0.34931200  0.34931200  1
  Cu  Cu3  1  0.14566200  0.14566200  0.14566200  1
  C  C4  1  0.99267400  0.99267400  0.99267400  1
  C  C5  1  0.49934100  0.49934100  0.49934100  1
  C  C6  1  0.95626300  0.24996800  0.54184800  1
  C  C7  1  0.54184800  0.95626300  0.24996800  1
  C  C8  1  0.24996800  0.54184800  0.95626300  1
  C  C9  1  0.75322200  0.44709200  0.05314800  1
  C  C10  1  0.44709200  0.05314800  0.75322200  1
  C  C11  1  0.05314800  0.75322200  0.44709200  1
  C  C12  1  0.90580700  0.69243400  0.47423000  1
  C  C13  1  0.69243400  0.47423000  0.90580700  1
  C  C14  1  0.93533000  0.08804600  0.74443800  1
  C  C15  1  0.47423000  0.90580700  0.69243400  1
  C  C16  1  0.75612200  0.40124600  0.56568500  1
  C  C17  1  0.00048400  0.17999700  0.39321600  1
  C  C18  1  0.74443800  0.93533000  0.08804600  1
  C  C19  1  0.56568500  0.75612200  0.40124600  1
  C  C20  1  0.40124600  0.56568500  0.75612200  1
  C  C21  1  0.81060200  0.60030200  0.02044600  1
  C  C22  1  0.91290500  0.25129700  0.07757500  1
  C  C23  1  0.60030200  0.02044600  0.81060200  1
  C  C24  1  0.39321600  0.00048400  0.17999700  1
  C  C25  1  0.08804600  0.74443800  0.93533000  1
  C  C26  1  0.17999700  0.39321600  0.00048400  1
  C  C27  1  0.59460000  0.42472600  0.25234400  1
  C  C28  1  0.42472600  0.25234400  0.59460000  1
  C  C29  1  0.25129700  0.07757500  0.91290500  1
  C  C30  1  0.02044600  0.81060200  0.60030200  1
  C  C31  1  0.25234400  0.59460000  0.42472600  1
  C  C32  1  0.51494000  0.09957300  0.31636200  1
  C  C33  1  0.07757500  0.91290500  0.25129700  1
  C  C34  1  0.31636200  0.51494000  0.09957300  1
  C  C35  1  0.09957300  0.31636200  0.51494000  1
