# generated using pymatgen
data_Cu2Ni3C10
_symmetry_space_group_name_H-M   'P 1'
_cell_length_a   8.01614653
_cell_length_b   8.01614653
_cell_length_c   5.00939645
_cell_angle_alpha   86.90681662
_cell_angle_beta   86.90681662
_cell_angle_gamma   138.30668230
_symmetry_Int_Tables_number   1
_chemical_formula_structural   Cu2Ni3C10
_chemical_formula_sum   'Cu2 Ni3 C10'
_cell_volume   211.63187880
_cell_formula_units_Z   1
loop_
 _symmetry_equiv_pos_site_id
 _symmetry_equiv_pos_as_xyz
  1  'x, y, z'
loop_
 _atom_site_type_symbol
 _atom_site_label
 _atom_site_symmetry_multiplicity
 _atom_site_fract_x
 _atom_site_fract_y
 _atom_site_fract_z
 _atom_site_occupancy
  Ni  Ni0  1  0.57415400  0.57415400  0.76330100  1
  Ni  Ni1  1  0.60888200  0.28719500  0.47700800  1
  Ni  Ni2  1  0.28719500  0.60888200  0.47700800  1
  Cu  Cu3  1  0.17748900  0.88247400  0.01855900  1
  Cu  Cu4  1  0.88247400  0.17748900  0.01855900  1
  C  C5  1  0.34355400  0.11445600  0.40294500  1
  C  C6  1  0.11445600  0.34355400  0.40294500  1
  C  C7  1  0.31763500  0.31763500  0.89303500  1
  C  C8  1  0.76937300  0.76937300  0.93842800  1
  C  C9  1  0.39961400  0.81397900  0.24495100  1
  C  C10  1  0.81397900  0.39961400  0.24495100  1
  C  C11  1  0.59360200  0.15626800  0.73215500  1
  C  C12  1  0.15626800  0.59360200  0.73215500  1
  C  C13  1  0.71318600  0.54500600  0.56218900  1
  C  C14  1  0.54500600  0.71318600  0.56218900  1
