# generated using pymatgen
data_Cu8(NiC4)3
_symmetry_space_group_name_H-M   'P 1'
_cell_length_a   9.17487616
_cell_length_b   14.91974603
_cell_length_c   14.95605358
_cell_angle_alpha   90.00000000
_cell_angle_beta   90.00000000
_cell_angle_gamma   90.00000000
_symmetry_Int_Tables_number   1
_chemical_formula_structural   Cu8(NiC4)3
_chemical_formula_sum   'Cu64 Ni24 C96'
_cell_volume   2047.28664668
_cell_formula_units_Z   8
loop_
 _symmetry_equiv_pos_site_id
 _symmetry_equiv_pos_as_xyz
  1  'x, y, z'
loop_
 _atom_site_type_symbol
 _atom_site_label
 _atom_site_symmetry_multiplicity
 _atom_site_fract_x
 _atom_site_fract_y
 _atom_site_fract_z
 _atom_site_occupancy
  C  C0  1  0.06236883  0.65801027  0.06836586  1
  C  C1  1  0.56236883  0.84198973  0.93163414  1
  C  C2  1  0.93763117  0.15801027  0.43163414  1
  C  C3  1  0.43763117  0.34198973  0.56836586  1
  C  C4  1  0.93763117  0.34198973  0.93163414  1
  C  C5  1  0.43763117  0.15801027  0.06836586  1
  C  C6  1  0.06236883  0.84198973  0.56836586  1
  C  C7  1  0.56236883  0.65801027  0.43163414  1
  C  C8  1  0.94825844  0.84082224  0.95355697  1
  C  C9  1  0.44825844  0.65917776  0.04644303  1
  C  C10  1  0.05174156  0.34082224  0.54644303  1
  C  C11  1  0.55174156  0.15917776  0.45355697  1
  C  C12  1  0.05174156  0.15917776  0.04644303  1
  C  C13  1  0.55174156  0.34082224  0.95355697  1
  C  C14  1  0.94825844  0.65917776  0.45355697  1
  C  C15  1  0.44825844  0.84082224  0.54644303  1
  Ni  Ni16  1  0.72616491  0.53114204  0.99067145  1
  Ni  Ni17  1  0.22616491  0.96885796  0.00932855  1
  Ni  Ni18  1  0.27383509  0.03114204  0.50932855  1
  Ni  Ni19  1  0.77383509  0.46885796  0.49067145  1
  Ni  Ni20  1  0.27383509  0.46885796  0.00932855  1
  Ni  Ni21  1  0.77383509  0.03114204  0.99067145  1
  Ni  Ni22  1  0.72616491  0.96885796  0.49067145  1
  Ni  Ni23  1  0.22616491  0.53114204  0.50932855  1
  Ni  Ni24  1  0.23590951  0.72248650  0.88187726  1
  Ni  Ni25  1  0.73590951  0.77751350  0.11812274  1
  Ni  Ni26  1  0.76409049  0.22248650  0.61812274  1
  Ni  Ni27  1  0.26409049  0.27751350  0.38187726  1
  Ni  Ni28  1  0.76409049  0.27751350  0.11812274  1
  Ni  Ni29  1  0.26409049  0.22248650  0.88187726  1
  Ni  Ni30  1  0.23590951  0.77751350  0.38187726  1
  Ni  Ni31  1  0.73590951  0.72248650  0.61812274  1
  Ni  Ni32  1  0.96513216  0.52889623  0.26242821  1
  Ni  Ni33  1  0.46513216  0.97110377  0.73757179  1
  Ni  Ni34  1  0.03486784  0.02889623  0.23757179  1
  Ni  Ni35  1  0.53486784  0.47110377  0.76242821  1
  Ni  Ni36  1  0.03486784  0.47110377  0.73757179  1
  Ni  Ni37  1  0.53486784  0.02889623  0.26242821  1
  Ni  Ni38  1  0.96513216  0.97110377  0.76242821  1
  Ni  Ni39  1  0.46513216  0.52889623  0.23757179  1
  Cu  Cu40  1  0.75269099  0.54469606  0.08218092  1
  Cu  Cu41  1  0.25269099  0.95530394  0.91781908  1
  Cu  Cu42  1  0.24730901  0.04469606  0.41781908  1
  Cu  Cu43  1  0.74730901  0.45530394  0.58218092  1
  Cu  Cu44  1  0.24730901  0.45530394  0.91781908  1
  Cu  Cu45  1  0.74730901  0.04469606  0.08218092  1
  Cu  Cu46  1  0.75269099  0.95530394  0.58218092  1
  Cu  Cu47  1  0.25269099  0.54469606  0.41781908  1
  Cu  Cu48  1  0.22688568  0.63766949  0.84107544  1
  Cu  Cu49  1  0.72688568  0.86233051  0.15892456  1
  Cu  Cu50  1  0.77311432  0.13766949  0.65892456  1
  Cu  Cu51  1  0.27311432  0.36233051  0.34107544  1
  Cu  Cu52  1  0.77311432  0.36233051  0.15892456  1
  Cu  Cu53  1  0.27311432  0.13766949  0.84107544  1
  Cu  Cu54  1  0.22688568  0.86233051  0.34107544  1
  Cu  Cu55  1  0.72688568  0.63766949  0.65892456  1
  Cu  Cu56  1  0.81120019  0.52976730  0.26505953  1
  Cu  Cu57  1  0.31120019  0.97023270  0.73494047  1
  Cu  Cu58  1  0.18879981  0.02976730  0.23494047  1
  Cu  Cu59  1  0.68879981  0.47023270  0.76505953  1
  Cu  Cu60  1  0.18879981  0.47023270  0.73494047  1
  Cu  Cu61  1  0.68879981  0.02976730  0.26505953  1
  Cu  Cu62  1  0.81120019  0.97023270  0.76505953  1
  Cu  Cu63  1  0.31120019  0.52976730  0.23494047  1
  Cu  Cu64  1  0.91528573  0.53402544  0.89688037  1
  Cu  Cu65  1  0.41528573  0.96597456  0.10311963  1
  Cu  Cu66  1  0.08471427  0.03402544  0.60311963  1
  Cu  Cu67  1  0.58471427  0.46597456  0.39688037  1
  Cu  Cu68  1  0.08471427  0.46597456  0.10311963  1
  Cu  Cu69  1  0.58471427  0.03402544  0.89688037  1
  Cu  Cu70  1  0.91528573  0.96597456  0.39688037  1
  Cu  Cu71  1  0.41528573  0.53402544  0.60311963  1
  Cu  Cu72  1  0.14786225  0.83359512  0.80260464  1
  Cu  Cu73  1  0.64786225  0.66640488  0.19739536  1
  Cu  Cu74  1  0.85213775  0.33359512  0.69739536  1
  Cu  Cu75  1  0.35213775  0.16640488  0.30260464  1
  Cu  Cu76  1  0.85213775  0.16640488  0.19739536  1
  Cu  Cu77  1  0.35213775  0.33359512  0.80260464  1
  Cu  Cu78  1  0.14786225  0.66640488  0.30260464  1
  Cu  Cu79  1  0.64786225  0.83359512  0.69739536  1
  Cu  Cu80  1  0.97484635  0.42011997  0.36081728  1
  Cu  Cu81  1  0.47484635  0.07988003  0.63918272  1
  Cu  Cu82  1  0.02515365  0.92011997  0.13918272  1
  Cu  Cu83  1  0.52515365  0.57988003  0.86081728  1
  Cu  Cu84  1  0.02515365  0.57988003  0.63918272  1
  Cu  Cu85  1  0.52515365  0.92011997  0.36081728  1
  Cu  Cu86  1  0.97484635  0.07988003  0.86081728  1
  Cu  Cu87  1  0.47484635  0.42011997  0.13918272  1
  Cu  Cu88  1  0.29774157  0.73532001  0.18474755  1
  Cu  Cu89  1  0.79774157  0.76467999  0.81525245  1
  Cu  Cu90  1  0.70225843  0.23532001  0.31525245  1
  Cu  Cu91  1  0.20225843  0.26467999  0.68474755  1
  Cu  Cu92  1  0.70225843  0.26467999  0.81525245  1
  Cu  Cu93  1  0.20225843  0.23532001  0.18474755  1
  Cu  Cu94  1  0.29774157  0.76467999  0.68474755  1
  Cu  Cu95  1  0.79774157  0.73532001  0.31525245  1
  Cu  Cu96  1  0.30338823  0.80192091  0.10174438  1
  Cu  Cu97  1  0.80338823  0.69807909  0.89825562  1
  Cu  Cu98  1  0.69661177  0.30192091  0.39825562  1
  Cu  Cu99  1  0.19661177  0.19807909  0.60174438  1
  Cu  Cu100  1  0.69661177  0.19807909  0.89825562  1
  Cu  Cu101  1  0.19661177  0.30192091  0.10174438  1
  Cu  Cu102  1  0.30338823  0.69807909  0.60174438  1
  Cu  Cu103  1  0.80338823  0.80192091  0.39825562  1
  C  C104  1  0.86587332  0.57502682  0.94390897  1
  C  C105  1  0.36587332  0.92497318  0.05609103  1
  C  C106  1  0.13412668  0.07502682  0.55609103  1
  C  C107  1  0.63412668  0.42497318  0.44390897  1
  C  C108  1  0.13412668  0.42497318  0.05609103  1
  C  C109  1  0.63412668  0.07502682  0.94390897  1
  C  C110  1  0.86587332  0.92497318  0.44390897  1
  C  C111  1  0.36587332  0.57502682  0.55609103  1
  C  C112  1  0.59095001  0.58511142  0.96487955  1
  C  C113  1  0.09095001  0.91488858  0.03512045  1
  C  C114  1  0.40904999  0.08511142  0.53512045  1
  C  C115  1  0.90904999  0.41488858  0.46487955  1
  C  C116  1  0.40904999  0.41488858  0.03512045  1
  C  C117  1  0.90904999  0.08511142  0.96487955  1
  C  C118  1  0.59095001  0.91488858  0.46487955  1
  C  C119  1  0.09095001  0.58511142  0.53512045  1
  C  C120  1  0.72249174  0.43124453  0.96984941  1
  C  C121  1  0.22249174  0.06875547  0.03015059  1
  C  C122  1  0.27750826  0.93124453  0.53015059  1
  C  C123  1  0.77750826  0.56875547  0.46984941  1
  C  C124  1  0.27750826  0.56875547  0.03015059  1
  C  C125  1  0.77750826  0.93124453  0.96984941  1
  C  C126  1  0.72249174  0.06875547  0.46984941  1
  C  C127  1  0.22249174  0.43124453  0.53015059  1
  C  C128  1  0.23634647  0.79113300  0.79931966  1
  C  C129  1  0.73634647  0.70886700  0.20068034  1
  C  C130  1  0.76365353  0.29113300  0.70068034  1
  C  C131  1  0.26365353  0.20886700  0.29931966  1
  C  C132  1  0.76365353  0.20886700  0.20068034  1
  C  C133  1  0.26365353  0.29113300  0.79931966  1
  C  C134  1  0.23634647  0.70886700  0.29931966  1
  C  C135  1  0.73634647  0.79113300  0.70068034  1
  C  C136  1  0.09896701  0.73825552  0.93702518  1
  C  C137  1  0.59896701  0.76174448  0.06297482  1
  C  C138  1  0.90103299  0.23825552  0.56297482  1
  C  C139  1  0.40103299  0.26174448  0.43702518  1
  C  C140  1  0.90103299  0.26174448  0.06297482  1
  C  C141  1  0.40103299  0.23825552  0.93702518  1
  C  C142  1  0.09896701  0.76174448  0.43702518  1
  C  C143  1  0.59896701  0.73825552  0.56297482  1
  C  C144  1  0.38124034  0.72961622  0.92993595  1
  C  C145  1  0.88124034  0.77038378  0.07006405  1
  C  C146  1  0.61875966  0.22961622  0.57006405  1
  C  C147  1  0.11875966  0.27038378  0.42993595  1
  C  C148  1  0.61875966  0.27038378  0.07006405  1
  C  C149  1  0.11875966  0.22961622  0.92993595  1
  C  C150  1  0.38124034  0.77038378  0.42993595  1
  C  C151  1  0.88124034  0.72961622  0.57006405  1
  C  C152  1  0.00969474  0.43219479  0.29788494  1
  C  C153  1  0.50969474  0.06780521  0.70211506  1
  C  C154  1  0.99030526  0.93219479  0.20211506  1
  C  C155  1  0.49030526  0.56780521  0.79788494  1
  C  C156  1  0.99030526  0.56780521  0.70211506  1
  C  C157  1  0.49030526  0.93219479  0.29788494  1
  C  C158  1  0.00969474  0.06780521  0.79788494  1
  C  C159  1  0.50969474  0.43219479  0.20211506  1
  C  C160  1  0.01888454  0.53682553  0.16698985  1
  C  C161  1  0.51888454  0.96317447  0.83301015  1
  C  C162  1  0.98111546  0.03682553  0.33301015  1
  C  C163  1  0.48111546  0.46317447  0.66698985  1
  C  C164  1  0.98111546  0.46317447  0.83301015  1
  C  C165  1  0.48111546  0.03682553  0.16698985  1
  C  C166  1  0.01888454  0.96317447  0.66698985  1
  C  C167  1  0.51888454  0.53682553  0.33301015  1
  C  C168  1  0.01798680  0.60344693  0.32549747  1
  C  C169  1  0.51798680  0.89655307  0.67450253  1
  C  C170  1  0.98201320  0.10344693  0.17450253  1
  C  C171  1  0.48201320  0.39655307  0.82549747  1
  C  C172  1  0.98201320  0.39655307  0.67450253  1
  C  C173  1  0.48201320  0.10344693  0.32549747  1
  C  C174  1  0.01798680  0.89655307  0.82549747  1
  C  C175  1  0.51798680  0.60344693  0.17450253  1
  C  C176  1  0.29029537  0.73873050  0.11896481  1
  C  C177  1  0.79029537  0.76126950  0.88103519  1
  C  C178  1  0.70970463  0.23873050  0.38103519  1
  C  C179  1  0.20970463  0.26126950  0.61896481  1
  C  C180  1  0.70970463  0.26126950  0.88103519  1
  C  C181  1  0.20970463  0.23873050  0.11896481  1
  C  C182  1  0.29029537  0.76126950  0.61896481  1
  C  C183  1  0.79029537  0.73873050  0.38103519  1
