# generated using pymatgen
data_Cu8(NiC3)5
_symmetry_space_group_name_H-M   'P 1'
_cell_length_a   13.41008200
_cell_length_b   6.55040200
_cell_length_c   11.64253682
_cell_angle_alpha   86.77599054
_cell_angle_beta   90.00000000
_cell_angle_gamma   90.00000000
_symmetry_Int_Tables_number   1
_chemical_formula_structural   Cu8(NiC3)5
_chemical_formula_sum   'Cu32 Ni20 C60'
_cell_volume   1021.07842108
_cell_formula_units_Z   4
loop_
 _symmetry_equiv_pos_site_id
 _symmetry_equiv_pos_as_xyz
  1  'x, y, z'
loop_
 _atom_site_type_symbol
 _atom_site_label
 _atom_site_symmetry_multiplicity
 _atom_site_fract_x
 _atom_site_fract_y
 _atom_site_fract_z
 _atom_site_occupancy
  C  C0  1  0.48297600  0.66202500  0.85486500  1
  C  C1  1  0.98297600  0.33797500  0.64513500  1
  C  C2  1  0.51702400  0.33797500  0.14513500  1
  C  C3  1  0.01702400  0.66202500  0.35486500  1
  C  C4  1  0.39579100  0.78914800  0.58083000  1
  C  C5  1  0.89579100  0.21085200  0.91917000  1
  C  C6  1  0.60420900  0.21085200  0.41917000  1
  C  C7  1  0.10420900  0.78914800  0.08083000  1
  Ni  Ni8  1  0.54115100  0.37755900  0.68252500  1
  Ni  Ni9  1  0.04115100  0.62244100  0.81747500  1
  Ni  Ni10  1  0.45884900  0.62244100  0.31747500  1
  Ni  Ni11  1  0.95884900  0.37755900  0.18252500  1
  Ni  Ni12  1  0.62742200  0.68560800  0.57713900  1
  Ni  Ni13  1  0.12742200  0.31439200  0.92286100  1
  Ni  Ni14  1  0.37257800  0.31439200  0.42286100  1
  Ni  Ni15  1  0.87257800  0.68560800  0.07713900  1
  Ni  Ni16  1  0.24393400  0.16032200  0.78455500  1
  Ni  Ni17  1  0.74393400  0.83967800  0.71544500  1
  Ni  Ni18  1  0.75606600  0.83967800  0.21544500  1
  Ni  Ni19  1  0.25606600  0.16032200  0.28455500  1
  Ni  Ni20  1  0.43276200  0.11984900  0.78063300  1
  Ni  Ni21  1  0.93276200  0.88015100  0.71936700  1
  Ni  Ni22  1  0.56723800  0.88015100  0.21936700  1
  Ni  Ni23  1  0.06723800  0.11984900  0.28063300  1
  Ni  Ni24  1  0.58256700  0.01551300  0.65915400  1
  Ni  Ni25  1  0.08256700  0.98448700  0.84084600  1
  Ni  Ni26  1  0.41743300  0.98448700  0.34084600  1
  Ni  Ni27  1  0.91743300  0.01551300  0.15915400  1
  Cu  Cu28  1  0.26717700  0.77052400  0.78393100  1
  Cu  Cu29  1  0.76717700  0.22947600  0.71606900  1
  Cu  Cu30  1  0.73282300  0.22947600  0.21606900  1
  Cu  Cu31  1  0.23282300  0.77052400  0.28393100  1
  Cu  Cu32  1  0.28841000  0.53365700  0.79567800  1
  Cu  Cu33  1  0.78841000  0.46634300  0.70432200  1
  Cu  Cu34  1  0.71159000  0.46634300  0.20432200  1
  Cu  Cu35  1  0.21159000  0.53365700  0.29567800  1
  Cu  Cu36  1  0.34922800  0.32512100  0.59460700  1
  Cu  Cu37  1  0.84922800  0.67487900  0.90539300  1
  Cu  Cu38  1  0.65077200  0.67487900  0.40539300  1
  Cu  Cu39  1  0.15077200  0.32512100  0.09460700  1
  Cu  Cu40  1  0.19096400  0.91040000  0.62813900  1
  Cu  Cu41  1  0.69096400  0.08960000  0.87186100  1
  Cu  Cu42  1  0.80903600  0.08960000  0.37186100  1
  Cu  Cu43  1  0.30903600  0.91040000  0.12813900  1
  Cu  Cu44  1  0.18126500  0.92094800  0.49237100  1
  Cu  Cu45  1  0.68126500  0.07905200  0.00762900  1
  Cu  Cu46  1  0.81873500  0.07905200  0.50762900  1
  Cu  Cu47  1  0.31873500  0.92094800  0.99237100  1
  Cu  Cu48  1  0.46144400  0.10946600  0.95351200  1
  Cu  Cu49  1  0.96144400  0.89053400  0.54648800  1
  Cu  Cu50  1  0.53855600  0.89053400  0.04648800  1
  Cu  Cu51  1  0.03855600  0.10946600  0.45351200  1
  Cu  Cu52  1  0.34897600  0.57758900  0.05121300  1
  Cu  Cu53  1  0.84897600  0.42241100  0.44878700  1
  Cu  Cu54  1  0.65102400  0.42241100  0.94878700  1
  Cu  Cu55  1  0.15102400  0.57758900  0.55121300  1
  Cu  Cu56  1  0.32779100  0.37835100  0.98777100  1
  Cu  Cu57  1  0.82779100  0.62164900  0.51222900  1
  Cu  Cu58  1  0.67220900  0.62164900  0.01222900  1
  Cu  Cu59  1  0.17220900  0.37835100  0.48777100  1
  C  C60  1  0.59212700  0.89661700  0.55616400  1
  C  C61  1  0.09212700  0.10338300  0.94383600  1
  C  C62  1  0.40787300  0.10338300  0.44383600  1
  C  C63  1  0.90787300  0.89661700  0.05616400  1
  C  C64  1  0.33237500  0.13921800  0.72568300  1
  C  C65  1  0.83237500  0.86078200  0.77431700  1
  C  C66  1  0.66762500  0.86078200  0.27431700  1
  C  C67  1  0.16762500  0.13921800  0.22568300  1
  C  C68  1  0.55227200  0.58278300  0.65610000  1
  C  C69  1  0.05227200  0.41721700  0.84390000  1
  C  C70  1  0.44772800  0.41721700  0.34390000  1
  C  C71  1  0.94772800  0.58278300  0.15610000  1
  C  C72  1  0.72795200  0.68880500  0.63933100  1
  C  C73  1  0.22795200  0.31119500  0.86066900  1
  C  C74  1  0.27204800  0.31119500  0.36066900  1
  C  C75  1  0.77204800  0.68880500  0.13933100  1
  C  C76  1  0.58817800  0.23513700  0.61902600  1
  C  C77  1  0.08817800  0.76486300  0.88097400  1
  C  C78  1  0.41182200  0.76486300  0.38097400  1
  C  C79  1  0.91182200  0.23513700  0.11902600  1
  C  C80  1  0.48268600  0.32082900  0.77641800  1
  C  C81  1  0.98268600  0.67917100  0.72358200  1
  C  C82  1  0.51731400  0.67917100  0.22358200  1
  C  C83  1  0.01731400  0.32082900  0.27641800  1
  C  C84  1  0.31765800  0.66720900  0.76763300  1
  C  C85  1  0.81765800  0.33279100  0.73236700  1
  C  C86  1  0.68234200  0.33279100  0.23236700  1
  C  C87  1  0.18234200  0.66720900  0.26763300  1
  C  C88  1  0.36258100  0.42306900  0.52860500  1
  C  C89  1  0.86258100  0.57693100  0.97139500  1
  C  C90  1  0.63741900  0.57693100  0.47139500  1
  C  C91  1  0.13741900  0.42306900  0.02860500  1
  C  C92  1  0.48852500  0.97044800  0.71762200  1
  C  C93  1  0.98852500  0.02955200  0.78237800  1
  C  C94  1  0.51147500  0.02955200  0.28237800  1
  C  C95  1  0.01147500  0.97044800  0.21762200  1
  C  C96  1  0.21321100  0.84246000  0.55797500  1
  C  C97  1  0.71321100  0.15754000  0.94202500  1
  C  C98  1  0.78678900  0.15754000  0.44202500  1
  C  C99  1  0.28678900  0.84246000  0.05797500  1
  C  C100  1  0.58140400  0.96333300  0.09724500  1
  C  C101  1  0.08140400  0.03666700  0.40275500  1
  C  C102  1  0.41859600  0.03666700  0.90275500  1
  C  C103  1  0.91859600  0.96333300  0.59724500  1
  C  C104  1  0.32959800  0.02034800  0.26192000  1
  C  C105  1  0.82959800  0.97965200  0.23808000  1
  C  C106  1  0.67040200  0.97965200  0.73808000  1
  C  C107  1  0.17040200  0.02034800  0.76192000  1
  C  C108  1  0.38117400  0.45138000  0.02678800  1
  C  C109  1  0.88117400  0.54862000  0.47321200  1
  C  C110  1  0.61882600  0.54862000  0.97321200  1
  C  C111  1  0.11882600  0.45138000  0.52678800  1
