# generated using pymatgen
data_Cu5Ni7C60
_symmetry_space_group_name_H-M   'P 1'
_cell_length_a   5.00553700
_cell_length_b   9.73957954
_cell_length_c   13.29154245
_cell_angle_alpha   97.05708173
_cell_angle_beta   100.34136116
_cell_angle_gamma   94.65673142
_symmetry_Int_Tables_number   1
_chemical_formula_structural   Cu5Ni7C60
_chemical_formula_sum   'Cu5 Ni7 C60'
_cell_volume   629.08454929
_cell_formula_units_Z   1
loop_
 _symmetry_equiv_pos_site_id
 _symmetry_equiv_pos_as_xyz
  1  'x, y, z'
loop_
 _atom_site_type_symbol
 _atom_site_label
 _atom_site_symmetry_multiplicity
 _atom_site_fract_x
 _atom_site_fract_y
 _atom_site_fract_z
 _atom_site_occupancy
  C  C0  1  0.16464400  0.99994600  0.83350400  1
  C  C1  1  0.05094400  0.00021100  0.61290400  1
  C  C2  1  0.99972800  0.74953900  0.25049100  1
  C  C3  1  0.33083100  0.75035900  0.91738800  1
  C  C4  1  0.05099300  0.49990700  0.11328800  1
  C  C5  1  0.38267000  0.49968500  0.77858700  1
  C  C6  1  0.16404600  0.50053400  0.33341700  1
  C  C7  1  0.49946600  0.49985900  0.00034700  1
  C  C8  1  0.28742500  0.50056900  0.55401800  1
  C  C9  1  0.33015600  0.25003100  0.41766600  1
  C  C10  1  0.49821200  0.99967600  0.50015700  1
  C  C11  1  0.28373700  0.99869800  0.05366900  1
  C  C12  1  0.61881600  0.99930500  0.71954100  1
  C  C13  1  0.38226700  0.99961800  0.27893100  1
  C  C14  1  0.71775400  0.00099900  0.94601600  1
  C  C15  1  0.66348700  0.75012200  0.58413100  1
  C  C16  1  0.71587500  0.49978200  0.44523800  1
  C  C17  1  0.83136800  0.50021800  0.66690500  1
  C  C18  1  0.61935000  0.50164300  0.22110300  1
  C  C19  1  0.95251600  0.49957800  0.88640300  1
  C  C20  1  0.66344800  0.25006700  0.08432900  1
  C  C21  1  0.83225500  0.99991200  0.16704400  1
  C  C22  1  0.99661400  0.24998100  0.75094000  1
  C  C23  1  0.95419400  0.00004000  0.38703300  1
  Ni  Ni24  1  0.22371800  0.75006300  0.69403400  1
  Ni  Ni25  1  0.22373700  0.24992300  0.19406900  1
  Ni  Ni26  1  0.55720900  0.25024300  0.86068300  1
  Ni  Ni27  1  0.44436800  0.74981400  0.13900500  1
  Ni  Ni28  1  0.55388700  0.74859400  0.35958700  1
  Ni  Ni29  1  0.89051700  0.24996900  0.52737300  1
  Ni  Ni30  1  0.89247000  0.75132400  0.02882300  1
  Cu  Cu31  1  0.10637500  0.24993500  0.97357200  1
  Cu  Cu32  1  0.10434000  0.75037100  0.47340900  1
  Cu  Cu33  1  0.43950900  0.24992300  0.64021400  1
  Cu  Cu34  1  0.77266000  0.74981900  0.80743500  1
  Cu  Cu35  1  0.77248000  0.25006300  0.30676300  1
  C  C36  1  0.00362000  0.86357300  0.93153300  1
  C  C37  1  0.06949300  0.63635500  0.78456200  1
  C  C38  1  0.00359200  0.36343900  0.43109800  1
  C  C39  1  0.14615200  0.36108600  0.64190900  1
  C  C40  1  0.26489900  0.36407800  0.88201000  1
  C  C41  1  0.33684800  0.86348600  0.59777500  1
  C  C42  1  0.06944100  0.13615500  0.28431800  1
  C  C43  1  0.18503900  0.13628800  0.52183000  1
  C  C44  1  0.40257800  0.13637300  0.95083000  1
  C  C45  1  0.14269100  0.86129400  0.14336500  1
  C  C46  1  0.26492100  0.86395200  0.38226000  1
  C  C47  1  0.47947300  0.86108400  0.80864700  1
  C  C48  1  0.33695000  0.13900200  0.73743600  1
  C  C49  1  0.19156700  0.63831100  0.02399900  1
  C  C50  1  0.40255100  0.63640500  0.45065700  1
  C  C51  1  0.51837700  0.63635700  0.68850200  1
  C  C52  1  0.33198100  0.63860300  0.23769900  1
  C  C53  1  0.67190900  0.63899100  0.90485700  1
  C  C54  1  0.33665100  0.36324400  0.09752500  1
  C  C55  1  0.67055100  0.36358100  0.76447500  1
  C  C56  1  0.47921500  0.36102600  0.30847500  1
  C  C57  1  0.59823100  0.36364100  0.54866000  1
  C  C58  1  0.81313400  0.36156900  0.97531700  1
  C  C59  1  0.66610100  0.86145000  0.26129900  1
  C  C60  1  0.51860000  0.13648600  0.18848600  1
  C  C61  1  0.73615000  0.13628200  0.61761100  1
  C  C62  1  0.85180700  0.13650800  0.85515600  1
  C  C63  1  0.59692900  0.86360500  0.04819400  1
  C  C64  1  0.81168900  0.86120400  0.47423700  1
  C  C65  1  0.93137600  0.86366100  0.71532900  1
  C  C66  1  0.67034100  0.13862200  0.40388700  1
  C  C67  1  0.73650600  0.63611400  0.11818200  1
  C  C68  1  0.85063700  0.63640200  0.35516500  1
  C  C69  1  0.00345400  0.63903400  0.57067700  1
  C  C70  1  0.93163700  0.36355400  0.21537300  1
  C  C71  1  0.00284300  0.13886600  0.07065200  1
