# generated using pymatgen
data_Cu2NiC4
_symmetry_space_group_name_H-M   'P 1'
_cell_length_a   5.79979300
_cell_length_b   5.85743159
_cell_length_c   10.11989925
_cell_angle_alpha   89.16675613
_cell_angle_beta   106.22685785
_cell_angle_gamma   118.81208752
_symmetry_Int_Tables_number   1
_chemical_formula_structural   Cu2NiC4
_chemical_formula_sum   'Cu8 Ni4 C16'
_cell_volume   286.26826330
_cell_formula_units_Z   4
loop_
 _symmetry_equiv_pos_site_id
 _symmetry_equiv_pos_as_xyz
  1  'x, y, z'
loop_
 _atom_site_type_symbol
 _atom_site_label
 _atom_site_symmetry_multiplicity
 _atom_site_fract_x
 _atom_site_fract_y
 _atom_site_fract_z
 _atom_site_occupancy
  Ni  Ni0  1  0.99117300  0.74161900  0.74647300  1
  Ni  Ni1  1  0.12549500  0.81982800  0.43882800  1
  Ni  Ni2  1  0.00866600  0.26100900  0.25453100  1
  Ni  Ni3  1  0.50126200  0.99996600  0.00037700  1
  Cu  Cu4  1  0.12161000  0.31109500  0.93965200  1
  Cu  Cu5  1  0.86993500  0.18277600  0.56159600  1
  Cu  Cu6  1  0.50328600  0.75180900  0.25123000  1
  Cu  Cu7  1  0.49368400  0.74364100  0.74690000  1
  Cu  Cu8  1  0.49643500  0.24837200  0.74852100  1
  Cu  Cu9  1  0.50501400  0.25640600  0.25270800  1
  Cu  Cu10  1  0.49837200  0.50010300  0.49913000  1
  Cu  Cu11  1  0.87888600  0.68812300  0.06012800  1
  C  C12  1  0.70704900  0.36614700  0.62083500  1
  C  C13  1  0.72567700  0.83184800  0.62523300  1
  C  C14  1  0.24632100  0.63707900  0.85864300  1
  C  C15  1  0.28064800  0.12561100  0.87663200  1
  C  C16  1  0.70997300  0.09451700  0.85953000  1
  C  C17  1  0.27146800  0.89518600  0.64894900  1
  C  C18  1  0.70323800  0.59511800  0.36640100  1
  C  C19  1  0.28198400  0.40055200  0.14515500  1
  C  C20  1  0.72222700  0.60208000  0.85239000  1
  C  C21  1  0.28666100  0.40002600  0.63158200  1
  C  C22  1  0.29087200  0.90635900  0.14003900  1
  C  C23  1  0.72532800  0.10396200  0.35666300  1
  C  C24  1  0.72531000  0.87818200  0.12563600  1
  C  C25  1  0.75733300  0.36430700  0.14350200  1
  C  C26  1  0.27262800  0.17386800  0.37161300  1
  C  C27  1  0.29046200  0.62996900  0.37567500  1
