# generated using pymatgen
data_Cu6NiC5
_symmetry_space_group_name_H-M   'P 1'
_cell_length_a   6.67371500
_cell_length_b   8.77393600
_cell_length_c   15.18664800
_cell_angle_alpha   90.00000000
_cell_angle_beta   90.00000000
_cell_angle_gamma   90.00000000
_symmetry_Int_Tables_number   1
_chemical_formula_structural   Cu6NiC5
_chemical_formula_sum   'Cu24 Ni4 C20'
_cell_volume   889.25035104
_cell_formula_units_Z   4
loop_
 _symmetry_equiv_pos_site_id
 _symmetry_equiv_pos_as_xyz
  1  'x, y, z'
loop_
 _atom_site_type_symbol
 _atom_site_label
 _atom_site_symmetry_multiplicity
 _atom_site_fract_x
 _atom_site_fract_y
 _atom_site_fract_z
 _atom_site_occupancy
  C  C0  1  0.01972400  0.23854500  0.01536100  1
  C  C1  1  0.98027600  0.73854500  0.98463900  1
  C  C2  1  0.01972400  0.73854500  0.48463900  1
  C  C3  1  0.98027600  0.23854500  0.51536100  1
  C  C4  1  0.44151400  0.74527500  0.76390400  1
  C  C5  1  0.55848600  0.24527500  0.23609600  1
  C  C6  1  0.44151400  0.24527500  0.73609600  1
  C  C7  1  0.55848600  0.74527500  0.26390400  1
  C  C8  1  0.28601400  0.97552100  0.10796300  1
  C  C9  1  0.71398600  0.47552100  0.89203700  1
  C  C10  1  0.28601400  0.47552100  0.39203700  1
  C  C11  1  0.71398600  0.97552100  0.60796300  1
  C  C12  1  0.06450100  0.00651100  0.28207800  1
  C  C13  1  0.93549900  0.50651100  0.71792200  1
  C  C14  1  0.06450100  0.50651100  0.21792200  1
  C  C15  1  0.93549900  0.00651100  0.78207800  1
  C  C16  1  0.49544900  0.99848600  0.96553300  1
  C  C17  1  0.50455100  0.49848600  0.03446700  1
  C  C18  1  0.49544900  0.49848600  0.53446700  1
  C  C19  1  0.50455100  0.99848600  0.46553300  1
  Ni  Ni20  1  0.22381500  0.46662600  0.87565100  1
  Ni  Ni21  1  0.77618500  0.96662600  0.12434900  1
  Ni  Ni22  1  0.22381500  0.96662600  0.62434900  1
  Ni  Ni23  1  0.77618500  0.46662600  0.37565100  1
  Cu  Cu24  1  0.28953300  0.99162800  0.21298600  1
  Cu  Cu25  1  0.71046700  0.49162800  0.78701400  1
  Cu  Cu26  1  0.28953300  0.49162800  0.28701400  1
  Cu  Cu27  1  0.71046700  0.99162800  0.71298600  1
  Cu  Cu28  1  0.18857300  0.06821300  0.38576500  1
  Cu  Cu29  1  0.81142700  0.56821300  0.61423500  1
  Cu  Cu30  1  0.18857300  0.56821300  0.11423500  1
  Cu  Cu31  1  0.81142700  0.06821300  0.88576500  1
  Cu  Cu32  1  0.01546500  0.80585800  0.30473200  1
  Cu  Cu33  1  0.98453500  0.30585800  0.69526800  1
  Cu  Cu34  1  0.01546500  0.30585800  0.19526800  1
  Cu  Cu35  1  0.98453500  0.80585800  0.80473200  1
  Cu  Cu36  1  0.26266600  0.96407800  0.04163600  1
  Cu  Cu37  1  0.73733400  0.46407800  0.95836400  1
  Cu  Cu38  1  0.26266600  0.46407800  0.45836400  1
  Cu  Cu39  1  0.73733400  0.96407800  0.54163600  1
  Cu  Cu40  1  0.33382200  0.04271100  0.87267600  1
  Cu  Cu41  1  0.66617800  0.54271100  0.12732400  1
  Cu  Cu42  1  0.33382200  0.54271100  0.62732400  1
  Cu  Cu43  1  0.66617800  0.04271100  0.37267600  1
  Cu  Cu44  1  0.54911300  0.79875000  0.94486600  1
  Cu  Cu45  1  0.45088700  0.29875000  0.05513400  1
  Cu  Cu46  1  0.54911300  0.29875000  0.55513400  1
  Cu  Cu47  1  0.45088700  0.79875000  0.44486600  1
