# generated using pymatgen
data_CuNi3C8
_symmetry_space_group_name_H-M   'P 1'
_cell_length_a   5.26462200
_cell_length_b   7.76365300
_cell_length_c   15.84573218
_cell_angle_alpha   73.02336450
_cell_angle_beta   90.00000000
_cell_angle_gamma   90.00000000
_symmetry_Int_Tables_number   1
_chemical_formula_structural   CuNi3C8
_chemical_formula_sum   'Cu4 Ni12 C32'
_cell_volume   619.43543084
_cell_formula_units_Z   4
loop_
 _symmetry_equiv_pos_site_id
 _symmetry_equiv_pos_as_xyz
  1  'x, y, z'
loop_
 _atom_site_type_symbol
 _atom_site_label
 _atom_site_symmetry_multiplicity
 _atom_site_fract_x
 _atom_site_fract_y
 _atom_site_fract_z
 _atom_site_occupancy
  Ni  Ni0  1  0.25902300  0.00964800  0.16535800  1
  Ni  Ni1  1  0.76192600  0.75725200  0.08368600  1
  Ni  Ni2  1  0.26487400  0.50020200  0.16511800  1
  Ni  Ni3  1  0.75902300  0.99035200  0.33464200  1
  Ni  Ni4  1  0.76487400  0.49979800  0.33488200  1
  Ni  Ni5  1  0.26192600  0.24274800  0.41631400  1
  Ni  Ni6  1  0.73807400  0.75725200  0.58368600  1
  Ni  Ni7  1  0.23512600  0.50020200  0.66511800  1
  Ni  Ni8  1  0.24097700  0.00964800  0.66535800  1
  Ni  Ni9  1  0.73512600  0.49979800  0.83488200  1
  Ni  Ni10  1  0.23807400  0.24274800  0.91631400  1
  Ni  Ni11  1  0.74097700  0.99035200  0.83464200  1
  Cu  Cu12  1  0.75944800  0.26834900  0.07798500  1
  Cu  Cu13  1  0.25944800  0.73165100  0.42201500  1
  Cu  Cu14  1  0.74055200  0.26834900  0.57798500  1
  Cu  Cu15  1  0.24055200  0.73165100  0.92201500  1
  C  C16  1  0.14768400  0.13251300  0.03485200  1
  C  C17  1  0.57527400  0.94826000  0.11042000  1
  C  C18  1  0.45767200  0.64382800  0.05855600  1
  C  C19  1  0.95691600  0.52442200  0.09869400  1
  C  C20  1  0.35244800  0.27241000  0.15699600  1
  C  C21  1  0.94250800  0.05903500  0.22540200  1
  C  C22  1  0.09062600  0.78852900  0.15461900  1
  C  C23  1  0.44250800  0.94096500  0.27459800  1
  C  C24  1  0.59583200  0.57578900  0.21820100  1
  C  C25  1  0.85244800  0.72759000  0.34300400  1
  C  C26  1  0.09583200  0.42421100  0.28179900  1
  C  C27  1  0.59062600  0.21147100  0.34538100  1
  C  C28  1  0.07527400  0.05174000  0.38958000  1
  C  C29  1  0.64768400  0.86748700  0.46514800  1
  C  C30  1  0.45691600  0.47557800  0.40130600  1
  C  C31  1  0.04232800  0.64382800  0.55855600  1
  C  C32  1  0.95767200  0.35617200  0.44144400  1
  C  C33  1  0.54308400  0.52442200  0.59869400  1
  C  C34  1  0.35231600  0.13251300  0.53485200  1
  C  C35  1  0.92472600  0.94826000  0.61042000  1
  C  C36  1  0.40937400  0.78852900  0.65461900  1
  C  C37  1  0.90416800  0.57578900  0.71820100  1
  C  C38  1  0.14755200  0.27241000  0.65699600  1
  C  C39  1  0.40416800  0.42421100  0.78179900  1
  C  C40  1  0.55749200  0.05903500  0.72540200  1
  C  C41  1  0.90937400  0.21147100  0.84538100  1
  C  C42  1  0.05749200  0.94096500  0.77459800  1
  C  C43  1  0.64755200  0.72759000  0.84300400  1
  C  C44  1  0.04308400  0.47557800  0.90130600  1
  C  C45  1  0.54232800  0.35617200  0.94144400  1
  C  C46  1  0.42472600  0.05174000  0.88958000  1
  C  C47  1  0.85231600  0.86748700  0.96514800  1
