# generated using pymatgen
data_CuNi7C5
_symmetry_space_group_name_H-M   'P 1'
_cell_length_a   12.52540500
_cell_length_b   6.92169300
_cell_length_c   13.49488082
_cell_angle_alpha   61.87650097
_cell_angle_beta   90.00000000
_cell_angle_gamma   90.00000000
_symmetry_Int_Tables_number   1
_chemical_formula_structural   CuNi7C5
_chemical_formula_sum   'Cu4 Ni28 C20'
_cell_volume   1031.83215806
_cell_formula_units_Z   4
loop_
 _symmetry_equiv_pos_site_id
 _symmetry_equiv_pos_as_xyz
  1  'x, y, z'
loop_
 _atom_site_type_symbol
 _atom_site_label
 _atom_site_symmetry_multiplicity
 _atom_site_fract_x
 _atom_site_fract_y
 _atom_site_fract_z
 _atom_site_occupancy
  C  C0  1  0.24935000  0.99111400  0.42984700  1
  C  C1  1  0.27743300  0.64937200  0.76659400  1
  C  C2  1  0.23484000  0.32758200  0.08063100  1
  C  C3  1  0.52195000  0.31462700  0.91685400  1
  C  C4  1  0.49036100  0.62414700  0.60848700  1
  C  C5  1  0.99036100  0.37585300  0.89151300  1
  C  C6  1  0.02195000  0.68537300  0.58314600  1
  C  C7  1  0.73484000  0.67241800  0.41936900  1
  C  C8  1  0.77743300  0.35062800  0.73340600  1
  C  C9  1  0.74935000  0.00888600  0.07015300  1
  C  C10  1  0.25065000  0.99111400  0.92984700  1
  C  C11  1  0.22256700  0.64937200  0.26659400  1
  C  C12  1  0.26516000  0.32758200  0.58063100  1
  C  C13  1  0.97805000  0.31462700  0.41685400  1
  C  C14  1  0.00963900  0.62414700  0.10848700  1
  C  C15  1  0.50963900  0.37585300  0.39151300  1
  C  C16  1  0.47805000  0.68537300  0.08314600  1
  C  C17  1  0.76516000  0.67241800  0.91936900  1
  C  C18  1  0.72256700  0.35062800  0.23340600  1
  C  C19  1  0.75065000  0.00888600  0.57015300  1
  Ni  Ni20  1  0.10491000  0.00001900  0.50717100  1
  Ni  Ni21  1  0.89813600  0.47853900  0.00164200  1
  Ni  Ni22  1  0.34388000  0.88404000  0.57618800  1
  Ni  Ni23  1  0.66649200  0.38572700  0.99327200  1
  Ni  Ni24  1  0.85750700  0.57891800  0.77836000  1
  Ni  Ni25  1  0.10360000  0.61787900  0.73649800  1
  Ni  Ni26  1  0.74175400  0.67752700  0.58187600  1
  Ni  Ni27  1  0.24175400  0.32247300  0.91812400  1
  Ni  Ni28  1  0.60360000  0.38212100  0.76350200  1
  Ni  Ni29  1  0.35750700  0.42108200  0.72164000  1
  Ni  Ni30  1  0.16649200  0.61427300  0.50672800  1
  Ni  Ni31  1  0.84388000  0.11596000  0.92381200  1
  Ni  Ni32  1  0.39813600  0.52146100  0.49835800  1
  Ni  Ni33  1  0.60491000  0.99998100  0.99282900  1
  Ni  Ni34  1  0.39509000  0.00001900  0.00717100  1
  Ni  Ni35  1  0.60186400  0.47853900  0.50164200  1
  Ni  Ni36  1  0.15612000  0.88404000  0.07618800  1
  Ni  Ni37  1  0.83350800  0.38572700  0.49327200  1
  Ni  Ni38  1  0.64249300  0.57891800  0.27836000  1
  Ni  Ni39  1  0.39640000  0.61787900  0.23649800  1
  Ni  Ni40  1  0.75824600  0.67752700  0.08187600  1
  Ni  Ni41  1  0.25824600  0.32247300  0.41812400  1
  Ni  Ni42  1  0.89640000  0.38212100  0.26350200  1
  Ni  Ni43  1  0.14249300  0.42108200  0.22164000  1
  Ni  Ni44  1  0.33350800  0.61427300  0.00672800  1
  Ni  Ni45  1  0.65612000  0.11596000  0.42381200  1
  Ni  Ni46  1  0.10186400  0.52146100  0.99835800  1
  Ni  Ni47  1  0.89509000  0.99998100  0.49282900  1
  Cu  Cu48  1  0.52198500  0.28667200  0.22694600  1
  Cu  Cu49  1  0.02198500  0.71332800  0.27305400  1
  Cu  Cu50  1  0.97801500  0.28667200  0.72694600  1
  Cu  Cu51  1  0.47801500  0.71332800  0.77305400  1
