# generated using pymatgen
data_Cu12Ni2C9
_symmetry_space_group_name_H-M   'P 1'
_cell_length_a   10.57147200
_cell_length_b   10.57147200
_cell_length_c   16.45824874
_cell_angle_alpha   56.37224868
_cell_angle_beta   56.37224868
_cell_angle_gamma   29.10422541
_symmetry_Int_Tables_number   1
_chemical_formula_structural   Cu12Ni2C9
_chemical_formula_sum   'Cu24 Ni4 C18'
_cell_volume   733.73764471
_cell_formula_units_Z   2
loop_
 _symmetry_equiv_pos_site_id
 _symmetry_equiv_pos_as_xyz
  1  'x, y, z'
loop_
 _atom_site_type_symbol
 _atom_site_label
 _atom_site_symmetry_multiplicity
 _atom_site_fract_x
 _atom_site_fract_y
 _atom_site_fract_z
 _atom_site_occupancy
  C  C0  1  0.22766900  0.79196800  0.37777700  1
  C  C1  1  0.79196800  0.22766900  0.87777700  1
  C  C2  1  0.69770200  0.13004000  0.47113800  1
  C  C3  1  0.86996000  0.30229800  0.02886200  1
  C  C4  1  0.20803200  0.77233100  0.12222300  1
  C  C5  1  0.13004000  0.69770200  0.97113800  1
  C  C6  1  0.30229800  0.86996000  0.52886200  1
  C  C7  1  0.77233100  0.20803200  0.62222300  1
  C  C8  1  0.24702400  0.75297600  0.75000000  1
  C  C9  1  0.75297600  0.24702400  0.25000000  1
  C  C10  1  0.80513300  0.43846900  0.36378100  1
  C  C11  1  0.14026300  0.57275800  0.37995700  1
  C  C12  1  0.85973700  0.42724200  0.62004300  1
  C  C13  1  0.57275800  0.14026300  0.87995700  1
  C  C14  1  0.42724200  0.85973700  0.12004300  1
  C  C15  1  0.19486700  0.56153100  0.63621900  1
  C  C16  1  0.43846900  0.80513300  0.86378100  1
  C  C17  1  0.56153100  0.19486700  0.13621900  1
  Ni  Ni18  1  0.93311200  0.54148300  0.90145900  1
  Ni  Ni19  1  0.45851700  0.06688800  0.59854100  1
  Ni  Ni20  1  0.06688800  0.45851700  0.09854100  1
  Ni  Ni21  1  0.54148300  0.93311200  0.40145900  1
  Cu  Cu22  1  0.05292700  0.76377100  0.51768200  1
  Cu  Cu23  1  0.76377100  0.05292700  0.01768200  1
  Cu  Cu24  1  0.69005800  0.44897300  0.93010200  1
  Cu  Cu25  1  0.93047200  0.91988900  0.35464700  1
  Cu  Cu26  1  0.44849600  0.77672400  0.24929900  1
  Cu  Cu27  1  0.22327600  0.55150400  0.25070100  1
  Cu  Cu28  1  0.91988900  0.93047200  0.85464700  1
  Cu  Cu29  1  0.94707300  0.23622900  0.48231800  1
  Cu  Cu30  1  0.23622900  0.94707300  0.98231800  1
  Cu  Cu31  1  0.43390700  0.44081200  0.86930600  1
  Cu  Cu32  1  0.44897300  0.69005800  0.43010200  1
  Cu  Cu33  1  0.87303100  0.20587900  0.35654800  1
  Cu  Cu34  1  0.08011100  0.06952800  0.14535300  1
  Cu  Cu35  1  0.44081200  0.43390700  0.36930600  1
  Cu  Cu36  1  0.56609300  0.55918800  0.13069400  1
  Cu  Cu37  1  0.20587900  0.87303100  0.85654800  1
  Cu  Cu38  1  0.12696900  0.79412100  0.64345200  1
  Cu  Cu39  1  0.77672400  0.44849600  0.74929900  1
  Cu  Cu40  1  0.79412100  0.12696900  0.14345200  1
  Cu  Cu41  1  0.55918800  0.56609300  0.63069400  1
  Cu  Cu42  1  0.55102700  0.30994200  0.56989800  1
  Cu  Cu43  1  0.55150400  0.22327600  0.75070100  1
  Cu  Cu44  1  0.30994200  0.55102700  0.06989800  1
  Cu  Cu45  1  0.06952800  0.08011100  0.64535300  1
