# generated using pymatgen
data_Cu3Ni3C22
_symmetry_space_group_name_H-M   'P 1'
_cell_length_a   5.87680885
_cell_length_b   5.87680885
_cell_length_c   9.60741332
_cell_angle_alpha   88.51540551
_cell_angle_beta   88.51540551
_cell_angle_gamma   59.35111698
_symmetry_Int_Tables_number   1
_chemical_formula_structural   Cu3Ni3C22
_chemical_formula_sum   'Cu3 Ni3 C22'
_cell_volume   285.33175104
_cell_formula_units_Z   1
loop_
 _symmetry_equiv_pos_site_id
 _symmetry_equiv_pos_as_xyz
  1  'x, y, z'
loop_
 _atom_site_type_symbol
 _atom_site_label
 _atom_site_symmetry_multiplicity
 _atom_site_fract_x
 _atom_site_fract_y
 _atom_site_fract_z
 _atom_site_occupancy
  C  C0  1  0.67178500  0.67178500  0.90173000  1
  C  C1  1  0.99766800  0.99766800  0.99466600  1
  C  C2  1  0.00065600  0.00065600  0.48698900  1
  C  C3  1  0.32431800  0.32431800  0.40541500  1
  Ni  Ni4  1  0.82449300  0.82449300  0.21877600  1
  Ni  Ni5  1  0.66428200  0.16780300  0.71712100  1
  Ni  Ni6  1  0.16780300  0.66428200  0.71712100  1
  C  C7  1  0.63902300  0.63902300  0.48062200  1
  C  C8  1  0.33382200  0.33382200  0.99318800  1
  Cu  Cu9  1  0.82700700  0.33485600  0.20740900  1
  Cu  Cu10  1  0.33485600  0.82700700  0.20740900  1
  Cu  Cu11  1  0.17109700  0.17109700  0.71292800  1
  C  C12  1  0.82118500  0.34306200  0.58959400  1
  C  C13  1  0.51025100  0.51025100  0.37093500  1
  C  C14  1  0.66754100  0.66754100  0.11378900  1
  C  C15  1  0.99620100  0.99620100  0.29626300  1
  C  C16  1  0.00253300  0.00253300  0.80602400  1
  C  C17  1  0.34306200  0.82118500  0.58959400  1
  C  C18  1  0.95653100  0.53078800  0.34656600  1
  C  C19  1  0.53078800  0.95653100  0.34656600  1
  C  C20  1  0.17810500  0.17810500  0.06380200  1
  C  C21  1  0.84351300  0.84351300  0.60879100  1
  C  C22  1  0.50695700  0.04588500  0.84909300  1
  C  C23  1  0.04588500  0.50695700  0.84909300  1
  C  C24  1  0.33777700  0.33777700  0.61567300  1
  C  C25  1  0.65476600  0.16207600  0.09291600  1
  C  C26  1  0.48593500  0.48593500  0.83319700  1
  C  C27  1  0.16207600  0.65476600  0.09291600  1
