# generated using pymatgen
data_Cu8Ni4C17
_symmetry_space_group_name_H-M   'P 1'
_cell_length_a   8.75772690
_cell_length_b   8.75772690
_cell_length_c   9.99927131
_cell_angle_alpha   57.18883815
_cell_angle_beta   57.18883815
_cell_angle_gamma   62.02697813
_symmetry_Int_Tables_number   1
_chemical_formula_structural   Cu8Ni4C17
_chemical_formula_sum   'Cu16 Ni8 C34'
_cell_volume   524.76149977
_cell_formula_units_Z   2
loop_
 _symmetry_equiv_pos_site_id
 _symmetry_equiv_pos_as_xyz
  1  'x, y, z'
loop_
 _atom_site_type_symbol
 _atom_site_label
 _atom_site_symmetry_multiplicity
 _atom_site_fract_x
 _atom_site_fract_y
 _atom_site_fract_z
 _atom_site_occupancy
  C  C0  1  0.56622500  0.43377500  0.25000000  1
  C  C1  1  0.43377500  0.56622500  0.75000000  1
  C  C2  1  0.33172800  0.97138900  0.41087100  1
  C  C3  1  0.53446000  0.66921100  0.33710700  1
  C  C4  1  0.09057200  0.68396500  0.80217600  1
  C  C5  1  0.34966400  0.88807500  0.10238900  1
  C  C6  1  0.83594000  0.89719400  0.68133900  1
  C  C7  1  0.10764500  0.68982600  0.55335400  1
  C  C8  1  0.73853600  0.65240600  0.96639600  1
  C  C9  1  0.11192500  0.65033600  0.39761100  1
  C  C10  1  0.34759400  0.26146400  0.53360400  1
  C  C11  1  0.97138900  0.33172800  0.91087100  1
  C  C12  1  0.68396500  0.09057200  0.30217600  1
  C  C13  1  0.31017400  0.89235500  0.94664600  1
  C  C14  1  0.10280600  0.16406000  0.81866100  1
  C  C15  1  0.33078900  0.46554000  0.16289300  1
  C  C16  1  0.66921100  0.53446000  0.83710700  1
  C  C17  1  0.89719400  0.83594000  0.18133900  1
  C  C18  1  0.68982600  0.10764500  0.05335400  1
  C  C19  1  0.31603500  0.90942800  0.69782400  1
  C  C20  1  0.02861100  0.66827200  0.08912900  1
  C  C21  1  0.65240600  0.73853600  0.46639600  1
  C  C22  1  0.88807500  0.34966400  0.60238900  1
  C  C23  1  0.26146400  0.34759400  0.03360400  1
  C  C24  1  0.89235500  0.31017400  0.44664600  1
  C  C25  1  0.16406000  0.10280600  0.31866100  1
  C  C26  1  0.65033600  0.11192500  0.89761100  1
  C  C27  1  0.90942800  0.31603500  0.19782400  1
  C  C28  1  0.46554000  0.33078900  0.66289300  1
  C  C29  1  0.66827200  0.02861100  0.58912900  1
  C  C30  1  0.83764700  0.87633100  0.98683300  1
  C  C31  1  0.87633100  0.83764700  0.48683300  1
  C  C32  1  0.12366900  0.16235300  0.51316700  1
  C  C33  1  0.16235300  0.12366900  0.01316700  1
  Ni  Ni34  1  0.29101600  0.96065100  0.01323300  1
  Ni  Ni35  1  0.78910900  0.92855400  0.59293200  1
  Ni  Ni36  1  0.03934900  0.70898400  0.48676700  1
  Ni  Ni37  1  0.07144600  0.21089100  0.90706800  1
  Ni  Ni38  1  0.92855400  0.78910900  0.09293200  1
  Ni  Ni39  1  0.96065100  0.29101600  0.51323300  1
  Ni  Ni40  1  0.21089100  0.07144600  0.40706800  1
  Ni  Ni41  1  0.70898400  0.03934900  0.98676700  1
  Cu  Cu42  1  0.20771100  0.62866900  0.71901900  1
  Cu  Cu43  1  0.87337800  0.80298100  0.88747000  1
  Cu  Cu44  1  0.48859900  0.67494300  0.26206900  1
  Cu  Cu45  1  0.69102200  0.54921900  0.99611000  1
  Cu  Cu46  1  0.45078100  0.30897800  0.50389000  1
  Cu  Cu47  1  0.32505700  0.51140100  0.23793100  1
  Cu  Cu48  1  0.62866900  0.20771100  0.21901900  1
  Cu  Cu49  1  0.80298100  0.87337800  0.38747000  1
  Cu  Cu50  1  0.19701900  0.12662200  0.61253000  1
  Cu  Cu51  1  0.37133100  0.79228900  0.78098100  1
  Cu  Cu52  1  0.67494300  0.48859900  0.76206900  1
  Cu  Cu53  1  0.54921900  0.69102200  0.49611000  1
  Cu  Cu54  1  0.30897800  0.45078100  0.00389000  1
  Cu  Cu55  1  0.51140100  0.32505700  0.73793100  1
  Cu  Cu56  1  0.12662200  0.19701900  0.11253000  1
  Cu  Cu57  1  0.79228900  0.37133100  0.28098100  1
