# generated using pymatgen
data_CuNi5C6
_symmetry_space_group_name_H-M   'P 1'
_cell_length_a   4.93428600
_cell_length_b   5.88915100
_cell_length_c   17.70579000
_cell_angle_alpha   90.00000000
_cell_angle_beta   90.00000000
_cell_angle_gamma   90.00000000
_symmetry_Int_Tables_number   1
_chemical_formula_structural   CuNi5C6
_chemical_formula_sum   'Cu4 Ni20 C24'
_cell_volume   514.50821956
_cell_formula_units_Z   4
loop_
 _symmetry_equiv_pos_site_id
 _symmetry_equiv_pos_as_xyz
  1  'x, y, z'
loop_
 _atom_site_type_symbol
 _atom_site_label
 _atom_site_symmetry_multiplicity
 _atom_site_fract_x
 _atom_site_fract_y
 _atom_site_fract_z
 _atom_site_occupancy
  C  C0  1  0.66730500  0.28227400  0.73669900  1
  C  C1  1  0.33269500  0.78227400  0.26330100  1
  C  C2  1  0.16730500  0.78227400  0.76330100  1
  C  C3  1  0.83269500  0.28227400  0.23669900  1
  C  C4  1  0.72569300  0.78277300  0.65242900  1
  C  C5  1  0.27430700  0.28277300  0.34757100  1
  C  C6  1  0.22569300  0.28277300  0.84757100  1
  C  C7  1  0.77430700  0.78277300  0.15242900  1
  Ni  Ni8  1  0.71776400  0.60645600  0.53109200  1
  Ni  Ni9  1  0.28223600  0.10645600  0.46890800  1
  Ni  Ni10  1  0.21776400  0.10645600  0.96890800  1
  Ni  Ni11  1  0.78223600  0.60645600  0.03109200  1
  Ni  Ni12  1  0.68759100  0.90718900  0.52181500  1
  Ni  Ni13  1  0.31240900  0.40718900  0.47818500  1
  Ni  Ni14  1  0.18759100  0.40718900  0.97818500  1
  Ni  Ni15  1  0.81240900  0.90718900  0.02181500  1
  Ni  Ni16  1  0.01074600  0.78214100  0.54254200  1
  Ni  Ni17  1  0.98925400  0.28214100  0.45745800  1
  Ni  Ni18  1  0.51074600  0.28214100  0.95745800  1
  Ni  Ni19  1  0.48925400  0.78214100  0.04254200  1
  Ni  Ni20  1  0.24049500  0.42015500  0.64497300  1
  Ni  Ni21  1  0.75950500  0.92015500  0.35502700  1
  Ni  Ni22  1  0.74049500  0.92015500  0.85502700  1
  Ni  Ni23  1  0.25950500  0.42015500  0.14497300  1
  Ni  Ni24  1  0.23089300  0.15339600  0.64691700  1
  Ni  Ni25  1  0.76910700  0.65339600  0.35308300  1
  Ni  Ni26  1  0.73089300  0.65339600  0.85308300  1
  Ni  Ni27  1  0.26910700  0.15339600  0.14691700  1
  Cu  Cu28  1  0.79143400  0.77041000  0.55242000  1
  Cu  Cu29  1  0.20856600  0.27041000  0.44758000  1
  Cu  Cu30  1  0.29143400  0.27041000  0.94758000  1
  Cu  Cu31  1  0.70856600  0.77041000  0.05242000  1
  C  C32  1  0.41902700  0.78411100  0.66499500  1
  C  C33  1  0.58097300  0.28411100  0.33500500  1
  C  C34  1  0.91902700  0.28411100  0.83500500  1
  C  C35  1  0.08097300  0.78411100  0.16499500  1
  C  C36  1  0.35504900  0.28338200  0.64308600  1
  C  C37  1  0.64495100  0.78338200  0.35691400  1
  C  C38  1  0.85504900  0.78338200  0.85691400  1
  C  C39  1  0.14495100  0.28338200  0.14308600  1
  C  C40  1  0.86873900  0.57254600  0.68905900  1
  C  C41  1  0.13126100  0.07254600  0.31094100  1
  C  C42  1  0.36873900  0.07254600  0.81094100  1
  C  C43  1  0.63126100  0.57254600  0.18905900  1
  C  C44  1  0.86984300  0.99536800  0.68704400  1
  C  C45  1  0.13015700  0.49536800  0.31295600  1
  C  C46  1  0.36984300  0.49536800  0.81295600  1
  C  C47  1  0.63015700  0.99536800  0.18704400  1
