# generated using pymatgen
data_Cu16Ni4C7
_symmetry_space_group_name_H-M   'P 1'
_cell_length_a   9.72950176
_cell_length_b   9.64650226
_cell_length_c   9.31366401
_cell_angle_alpha   61.71886244
_cell_angle_beta   60.82336578
_cell_angle_gamma   57.45777177
_symmetry_Int_Tables_number   1
_chemical_formula_structural   Cu16Ni4C7
_chemical_formula_sum   'Cu32 Ni8 C14'
_cell_volume   616.24866877
_cell_formula_units_Z   2
loop_
 _symmetry_equiv_pos_site_id
 _symmetry_equiv_pos_as_xyz
  1  'x, y, z'
loop_
 _atom_site_type_symbol
 _atom_site_label
 _atom_site_symmetry_multiplicity
 _atom_site_fract_x
 _atom_site_fract_y
 _atom_site_fract_z
 _atom_site_occupancy
  C  C0  1  0.95245900  0.54754100  0.95245900  1
  C  C1  1  0.54579700  0.95420300  0.95420300  1
  C  C2  1  0.29579700  0.70420300  0.70420300  1
  C  C3  1  0.70245900  0.29754100  0.70245900  1
  C  C4  1  0.54754100  0.95245900  0.54754100  1
  C  C5  1  0.95420300  0.54579700  0.54579700  1
  C  C6  1  0.70420300  0.29579700  0.29579700  1
  C  C7  1  0.29754100  0.70245900  0.29754100  1
  C  C8  1  0.12500000  0.12500000  0.12500000  1
  C  C9  1  0.12500000  0.12500000  0.62500000  1
  C  C10  1  0.12500000  0.62500000  0.12500000  1
  C  C11  1  0.62500000  0.12500000  0.12500000  1
  Ni  Ni12  1  0.91705500  0.91034900  0.89427400  1
  Ni  Ni13  1  0.33965100  0.33294500  0.97167800  1
  Ni  Ni14  1  0.89427400  0.27832200  0.91705500  1
  Ni  Ni15  1  0.27832200  0.89427400  0.91034900  1
  Ni  Ni16  1  0.97167800  0.35572600  0.33965100  1
  Ni  Ni17  1  0.35572600  0.97167800  0.33294500  1
  Ni  Ni18  1  0.91034900  0.91705500  0.27832200  1
  Ni  Ni19  1  0.33294500  0.33965100  0.35572600  1
  C  C20  1  0.50000000  0.50000000  0.50000000  1
  C  C21  1  0.75000000  0.75000000  0.75000000  1
  Cu  Cu22  1  0.93698100  0.76573700  0.01445700  1
  Cu  Cu23  1  0.30775100  0.57840100  0.55795400  1
  Cu  Cu24  1  0.04413300  0.92878800  0.75769200  1
  Cu  Cu25  1  0.32121200  0.20586700  0.98061200  1
  Cu  Cu26  1  0.75769200  0.26938800  0.04413300  1
  Cu  Cu27  1  0.21289200  0.48337400  0.96613600  1
  Cu  Cu28  1  0.55795400  0.55589400  0.30775100  1
  Cu  Cu29  1  0.57840100  0.30775100  0.55589400  1
  Cu  Cu30  1  0.33759800  0.96613600  0.48337400  1
  Cu  Cu31  1  0.26938800  0.75769200  0.92878800  1
  Cu  Cu32  1  0.48426300  0.31301900  0.96717500  1
  Cu  Cu33  1  0.55589400  0.55795400  0.57840100  1
  Cu  Cu34  1  0.01445700  0.28282500  0.93698100  1
  Cu  Cu35  1  0.28282500  0.01445700  0.76573700  1
  Cu  Cu36  1  0.76662600  0.03710800  0.91240200  1
  Cu  Cu37  1  0.96613600  0.33759800  0.21289200  1
  Cu  Cu38  1  0.28386400  0.91240200  0.03710800  1
  Cu  Cu39  1  0.48337400  0.21289200  0.33759800  1
  Cu  Cu40  1  0.96717500  0.23554300  0.48426300  1
  Cu  Cu41  1  0.23554300  0.96717500  0.31301900  1
  Cu  Cu42  1  0.69410600  0.69204600  0.67159900  1
  Cu  Cu43  1  0.76573700  0.93698100  0.28282500  1
  Cu  Cu44  1  0.98061200  0.49230800  0.32121200  1
  Cu  Cu45  1  0.91240200  0.28386400  0.76662600  1
  Cu  Cu46  1  0.67159900  0.94224900  0.69410600  1
  Cu  Cu47  1  0.69204600  0.69410600  0.94224900  1
  Cu  Cu48  1  0.03710800  0.76662600  0.28386400  1
  Cu  Cu49  1  0.49230800  0.98061200  0.20586700  1
  Cu  Cu50  1  0.92878800  0.04413300  0.26938800  1
  Cu  Cu51  1  0.20586700  0.32121200  0.49230800  1
  Cu  Cu52  1  0.94224900  0.67159900  0.69204600  1
  Cu  Cu53  1  0.31301900  0.48426300  0.23554300  1
