# generated using pymatgen
data_Cu6NiC8
_symmetry_space_group_name_H-M   'P 1'
_cell_length_a   7.06660659
_cell_length_b   7.06660659
_cell_length_c   13.46171700
_cell_angle_alpha   90.00000000
_cell_angle_beta   90.00000000
_cell_angle_gamma   120.00000556
_symmetry_Int_Tables_number   1
_chemical_formula_structural   Cu6NiC8
_chemical_formula_sum   'Cu12 Ni2 C16'
_cell_volume   582.17411587
_cell_formula_units_Z   2
loop_
 _symmetry_equiv_pos_site_id
 _symmetry_equiv_pos_as_xyz
  1  'x, y, z'
loop_
 _atom_site_type_symbol
 _atom_site_label
 _atom_site_symmetry_multiplicity
 _atom_site_fract_x
 _atom_site_fract_y
 _atom_site_fract_z
 _atom_site_occupancy
  C  C0  1  0.00000000  0.67566000  0.76546100  1
  C  C1  1  0.00000000  0.61369400  0.13241200  1
  C  C2  1  0.00000000  0.38630600  0.63241200  1
  C  C3  1  0.00000000  0.32434000  0.26546100  1
  C  C4  1  0.33333300  0.66666700  0.39735100  1
  C  C5  1  0.33333300  0.66666700  0.89735100  1
  C  C6  1  0.32434000  0.32434000  0.76546100  1
  C  C7  1  0.38630600  0.38630600  0.13241200  1
  C  C8  1  0.61369400  0.61369400  0.63241200  1
  C  C9  1  0.32434000  0.00000000  0.26546100  1
  C  C10  1  0.67566000  0.67566000  0.26546100  1
  C  C11  1  0.38630600  0.00000000  0.63241200  1
  C  C12  1  0.66666700  0.33333300  0.89735100  1
  C  C13  1  0.66666700  0.33333300  0.39735100  1
  C  C14  1  0.61369400  0.00000000  0.13241200  1
  C  C15  1  0.67566000  0.00000000  0.76546100  1
  Ni  Ni16  1  0.00000000  0.00000000  0.99373700  1
  Ni  Ni17  1  0.00000000  0.00000000  0.49373700  1
  Cu  Cu18  1  0.00000000  0.65753400  0.95049600  1
  Cu  Cu19  1  0.00000000  0.34246600  0.45049600  1
  Cu  Cu20  1  0.33333300  0.66666700  0.21449500  1
  Cu  Cu21  1  0.00000000  0.00000000  0.18317100  1
  Cu  Cu22  1  0.00000000  0.00000000  0.68317100  1
  Cu  Cu23  1  0.33333300  0.66666700  0.71449500  1
  Cu  Cu24  1  0.34246600  0.34246600  0.95049600  1
  Cu  Cu25  1  0.34246600  0.00000000  0.45049600  1
  Cu  Cu26  1  0.65753400  0.65753400  0.45049600  1
  Cu  Cu27  1  0.66666700  0.33333300  0.71449500  1
  Cu  Cu28  1  0.66666700  0.33333300  0.21449500  1
  Cu  Cu29  1  0.65753400  0.00000000  0.95049600  1
