# generated using pymatgen
data_Cu8(Ni2C5)3
_symmetry_space_group_name_H-M   'P 1'
_cell_length_a   8.29976000
_cell_length_b   10.01047700
_cell_length_c   14.65940763
_cell_angle_alpha   65.69113869
_cell_angle_beta   90.00000000
_cell_angle_gamma   90.00000000
_symmetry_Int_Tables_number   1
_chemical_formula_structural   Cu8(Ni2C5)3
_chemical_formula_sum   'Cu32 Ni24 C60'
_cell_volume   1109.98466753
_cell_formula_units_Z   4
loop_
 _symmetry_equiv_pos_site_id
 _symmetry_equiv_pos_as_xyz
  1  'x, y, z'
loop_
 _atom_site_type_symbol
 _atom_site_label
 _atom_site_symmetry_multiplicity
 _atom_site_fract_x
 _atom_site_fract_y
 _atom_site_fract_z
 _atom_site_occupancy
  C  C0  1  0.44266100  0.80546300  0.66277000  1
  C  C1  1  0.94266100  0.19453700  0.83723000  1
  C  C2  1  0.55733900  0.19453700  0.33723000  1
  C  C3  1  0.05733900  0.80546300  0.16277000  1
  Ni  Ni4  1  0.34705000  0.15181600  0.69467500  1
  Ni  Ni5  1  0.84705000  0.84818400  0.80532500  1
  Ni  Ni6  1  0.65295000  0.84818400  0.30532500  1
  Ni  Ni7  1  0.15295000  0.15181600  0.19467500  1
  Ni  Ni8  1  0.34120700  0.41700900  0.69232500  1
  Ni  Ni9  1  0.84120700  0.58299100  0.80767500  1
  Ni  Ni10  1  0.65879300  0.58299100  0.30767500  1
  Ni  Ni11  1  0.15879300  0.41700900  0.19232500  1
  Ni  Ni12  1  0.25261200  0.37201700  0.54458900  1
  Ni  Ni13  1  0.75261200  0.62798300  0.95541100  1
  Ni  Ni14  1  0.74738800  0.62798300  0.45541100  1
  Ni  Ni15  1  0.24738800  0.37201700  0.04458900  1
  Ni  Ni16  1  0.04651400  0.78285000  0.69048100  1
  Ni  Ni17  1  0.54651400  0.21715000  0.80951900  1
  Ni  Ni18  1  0.95348600  0.21715000  0.30951900  1
  Ni  Ni19  1  0.45348600  0.78285000  0.19048100  1
  Ni  Ni20  1  0.10744000  0.51810900  0.75219800  1
  Ni  Ni21  1  0.60744000  0.48189100  0.74780200  1
  Ni  Ni22  1  0.89256000  0.48189100  0.24780200  1
  Ni  Ni23  1  0.39256000  0.51810900  0.25219800  1
  Ni  Ni24  1  0.11384500  0.97697800  0.75196800  1
  Ni  Ni25  1  0.61384500  0.02302200  0.74803200  1
  Ni  Ni26  1  0.88615500  0.02302200  0.24803200  1
  Ni  Ni27  1  0.38615500  0.97697800  0.25196800  1
  Cu  Cu28  1  0.85170500  0.65050300  0.57131200  1
  Cu  Cu29  1  0.35170500  0.34949700  0.92868800  1
  Cu  Cu30  1  0.14829500  0.34949700  0.42868800  1
  Cu  Cu31  1  0.64829500  0.65050300  0.07131200  1
  Cu  Cu32  1  0.41730500  0.80037200  0.45010600  1
  Cu  Cu33  1  0.91730500  0.19962800  0.04989400  1
  Cu  Cu34  1  0.58269500  0.19962800  0.54989400  1
  Cu  Cu35  1  0.08269500  0.80037200  0.95010600  1
  Cu  Cu36  1  0.32742700  0.65538000  0.52474100  1
  Cu  Cu37  1  0.82742700  0.34462000  0.97525900  1
  Cu  Cu38  1  0.67257300  0.34462000  0.47525900  1
  Cu  Cu39  1  0.17257300  0.65538000  0.02474100  1
  Cu  Cu40  1  0.04155100  0.86147400  0.53980300  1
  Cu  Cu41  1  0.54155100  0.13852600  0.96019700  1
  Cu  Cu42  1  0.95844900  0.13852600  0.46019700  1
  Cu  Cu43  1  0.45844900  0.86147400  0.03980300  1
  Cu  Cu44  1  0.76815900  0.91461000  0.55243700  1
  Cu  Cu45  1  0.26815900  0.08539000  0.94756300  1
  Cu  Cu46  1  0.23184100  0.08539000  0.44756300  1
  Cu  Cu47  1  0.73184100  0.91461000  0.05243700  1
  Cu  Cu48  1  0.67309900  0.87141300  0.47874000  1
  Cu  Cu49  1  0.17309900  0.12858700  0.02126000  1
  Cu  Cu50  1  0.32690100  0.12858700  0.52126000  1
  Cu  Cu51  1  0.82690100  0.87141300  0.97874000  1
  Cu  Cu52  1  0.86283200  0.23424900  0.60803700  1
  Cu  Cu53  1  0.36283200  0.76575100  0.89196300  1
  Cu  Cu54  1  0.13716800  0.76575100  0.39196300  1
  Cu  Cu55  1  0.63716800  0.23424900  0.10803700  1
  Cu  Cu56  1  0.89107400  0.38927300  0.60569100  1
  Cu  Cu57  1  0.39107400  0.61072700  0.89430900  1
  Cu  Cu58  1  0.10892600  0.61072700  0.39430900  1
  Cu  Cu59  1  0.60892600  0.38927300  0.10569100  1
  C  C60  1  0.47183200  0.04810200  0.69396300  1
  C  C61  1  0.97183200  0.95189800  0.80603700  1
  C  C62  1  0.52816800  0.95189800  0.30603700  1
  C  C63  1  0.02816800  0.04810200  0.19396300  1
  C  C64  1  0.45972000  0.51905700  0.70059300  1
  C  C65  1  0.95972000  0.48094300  0.79940700  1
  C  C66  1  0.54028000  0.48094300  0.29940700  1
  C  C67  1  0.04028000  0.51905700  0.20059300  1
  C  C68  1  0.82072400  0.57396700  0.54837400  1
  C  C69  1  0.32072400  0.42603300  0.95162600  1
  C  C70  1  0.17927600  0.42603300  0.45162600  1
  C  C71  1  0.67927600  0.57396700  0.04837400  1
  C  C72  1  0.33250600  0.76394300  0.50088900  1
  C  C73  1  0.83250600  0.23605700  0.99911100  1
  C  C74  1  0.66749400  0.23605700  0.49911100  1
  C  C75  1  0.16749400  0.76394300  0.00088900  1
  C  C76  1  0.96224300  0.83026300  0.59364000  1
  C  C77  1  0.46224300  0.16973700  0.90636000  1
  C  C78  1  0.03775700  0.16973700  0.40636000  1
  C  C79  1  0.53775700  0.83026300  0.09364000  1
  C  C80  1  0.69932000  0.59771200  0.74479200  1
  C  C81  1  0.19932000  0.40228800  0.75520800  1
  C  C82  1  0.30068000  0.40228800  0.25520800  1
  C  C83  1  0.80068000  0.59771200  0.24479200  1
  C  C84  1  0.15602100  0.66115800  0.70473400  1
  C  C85  1  0.65602100  0.33884200  0.79526600  1
  C  C86  1  0.84397900  0.33884200  0.29526600  1
  C  C87  1  0.34397900  0.66115800  0.20473400  1
  C  C88  1  0.71314700  0.91992100  0.73897400  1
  C  C89  1  0.21314700  0.08007900  0.76102600  1
  C  C90  1  0.28685300  0.08007900  0.26102600  1
  C  C91  1  0.78685300  0.91992100  0.23897400  1
  C  C92  1  0.14876000  0.89967100  0.69602700  1
  C  C93  1  0.64876000  0.10032900  0.80397300  1
  C  C94  1  0.85124000  0.10032900  0.30397300  1
  C  C95  1  0.35124000  0.89967100  0.19602700  1
  C  C96  1  0.29385400  0.22689500  0.59049200  1
  C  C97  1  0.79385400  0.77310500  0.90950800  1
  C  C98  1  0.70614600  0.77310500  0.40950800  1
  C  C99  1  0.20614600  0.22689500  0.09049200  1
  C  C100  1  0.29220900  0.46766200  0.58641400  1
  C  C101  1  0.79220900  0.53233800  0.91358600  1
  C  C102  1  0.70779100  0.53233800  0.41358600  1
  C  C103  1  0.20779100  0.46766200  0.08641400  1
  C  C104  1  0.65961900  0.92604700  0.52168800  1
  C  C105  1  0.15961900  0.07395300  0.97831200  1
  C  C106  1  0.34038100  0.07395300  0.47831200  1
  C  C107  1  0.84038100  0.92604700  0.02168800  1
  C  C108  1  0.92459500  0.28523200  0.64099700  1
  C  C109  1  0.42459500  0.71476800  0.85900300  1
  C  C110  1  0.07540500  0.71476800  0.35900300  1
  C  C111  1  0.57540500  0.28523200  0.14099700  1
  C  C112  1  0.41974800  0.26427100  0.72771400  1
  C  C113  1  0.91974800  0.73572900  0.77228600  1
  C  C114  1  0.58025200  0.73572900  0.27228600  1
  C  C115  1  0.08025200  0.26427100  0.22771400  1
