# generated using pymatgen
data_Cu12Ni3C4
_symmetry_space_group_name_H-M   'P 1'
_cell_length_a   8.78853500
_cell_length_b   8.98258100
_cell_length_c   12.46126000
_cell_angle_alpha   90.00000000
_cell_angle_beta   90.00000000
_cell_angle_gamma   90.00000000
_symmetry_Int_Tables_number   1
_chemical_formula_structural   Cu12Ni3C4
_chemical_formula_sum   'Cu48 Ni12 C16'
_cell_volume   983.73831386
_cell_formula_units_Z   4
loop_
 _symmetry_equiv_pos_site_id
 _symmetry_equiv_pos_as_xyz
  1  'x, y, z'
loop_
 _atom_site_type_symbol
 _atom_site_label
 _atom_site_symmetry_multiplicity
 _atom_site_fract_x
 _atom_site_fract_y
 _atom_site_fract_z
 _atom_site_occupancy
  C  C0  1  0.21637400  0.27724900  0.18226900  1
  C  C1  1  0.78362600  0.77724900  0.18226900  1
  C  C2  1  0.28362600  0.77724900  0.31773100  1
  C  C3  1  0.71637400  0.27724900  0.31773100  1
  C  C4  1  0.28362600  0.72275100  0.68226900  1
  C  C5  1  0.71637400  0.22275100  0.68226900  1
  C  C6  1  0.21637400  0.22275100  0.81773100  1
  C  C7  1  0.78362600  0.72275100  0.81773100  1
  C  C8  1  0.25246400  0.96236000  0.11372800  1
  C  C9  1  0.74753600  0.46236000  0.11372800  1
  C  C10  1  0.75246400  0.96236000  0.38627200  1
  C  C11  1  0.24753600  0.46236000  0.38627200  1
  C  C12  1  0.24753600  0.03764000  0.61372800  1
  C  C13  1  0.75246400  0.53764000  0.61372800  1
  C  C14  1  0.25246400  0.53764000  0.88627200  1
  C  C15  1  0.74753600  0.03764000  0.88627200  1
  Ni  Ni16  1  0.45502900  0.25000000  0.00000000  1
  Ni  Ni17  1  0.54497100  0.75000000  0.00000000  1
  Ni  Ni18  1  0.10241500  0.60569600  0.14675300  1
  Ni  Ni19  1  0.89758500  0.10569600  0.14675300  1
  Ni  Ni20  1  0.39758500  0.10569600  0.35324700  1
  Ni  Ni21  1  0.60241500  0.60569600  0.35324700  1
  Ni  Ni22  1  0.04497100  0.75000000  0.50000000  1
  Ni  Ni23  1  0.95502900  0.25000000  0.50000000  1
  Ni  Ni24  1  0.39758500  0.39430400  0.64675300  1
  Ni  Ni25  1  0.60241500  0.89430400  0.64675300  1
  Ni  Ni26  1  0.10241500  0.89430400  0.85324700  1
  Ni  Ni27  1  0.89758500  0.39430400  0.85324700  1
  Cu  Cu28  1  0.13663000  0.57493300  0.03433000  1
  Cu  Cu29  1  0.86337000  0.07493300  0.03433000  1
  Cu  Cu30  1  0.54509500  0.36134800  0.05726100  1
  Cu  Cu31  1  0.45490500  0.86134800  0.05726100  1
  Cu  Cu32  1  0.35281700  0.17568300  0.08060300  1
  Cu  Cu33  1  0.64718300  0.67568300  0.08060300  1
  Cu  Cu34  1  0.06616200  0.11333000  0.16274200  1
  Cu  Cu35  1  0.93383800  0.61333000  0.16274200  1
  Cu  Cu36  1  0.16865100  0.75107900  0.18179100  1
  Cu  Cu37  1  0.83134900  0.25107900  0.18179100  1
  Cu  Cu38  1  0.83442100  0.98449500  0.21617800  1
  Cu  Cu39  1  0.16557900  0.48449500  0.21617800  1
  Cu  Cu40  1  0.33442100  0.98449500  0.28382200  1
  Cu  Cu41  1  0.66557900  0.48449500  0.28382200  1
  Cu  Cu42  1  0.66865100  0.75107900  0.31820900  1
  Cu  Cu43  1  0.33134900  0.25107900  0.31820900  1
  Cu  Cu44  1  0.43383800  0.61333000  0.33725800  1
  Cu  Cu45  1  0.56616200  0.11333000  0.33725800  1
  Cu  Cu46  1  0.14718300  0.67568300  0.41939700  1
  Cu  Cu47  1  0.85281700  0.17568300  0.41939700  1
  Cu  Cu48  1  0.04509500  0.36134800  0.44273900  1
  Cu  Cu49  1  0.95490500  0.86134800  0.44273900  1
  Cu  Cu50  1  0.63663000  0.57493300  0.46567000  1
  Cu  Cu51  1  0.36337000  0.07493300  0.46567000  1
  Cu  Cu52  1  0.36337000  0.42506700  0.53433000  1
  Cu  Cu53  1  0.63663000  0.92506700  0.53433000  1
  Cu  Cu54  1  0.04509500  0.13865200  0.55726100  1
  Cu  Cu55  1  0.95490500  0.63865200  0.55726100  1
  Cu  Cu56  1  0.14718300  0.82431700  0.58060300  1
  Cu  Cu57  1  0.85281700  0.32431700  0.58060300  1
  Cu  Cu58  1  0.43383800  0.88667000  0.66274200  1
  Cu  Cu59  1  0.56616200  0.38667000  0.66274200  1
  Cu  Cu60  1  0.33134900  0.24892100  0.68179100  1
  Cu  Cu61  1  0.66865100  0.74892100  0.68179100  1
  Cu  Cu62  1  0.33442100  0.51550500  0.71617800  1
  Cu  Cu63  1  0.66557900  0.01550500  0.71617800  1
  Cu  Cu64  1  0.16557900  0.01550500  0.78382200  1
  Cu  Cu65  1  0.83442100  0.51550500  0.78382200  1
  Cu  Cu66  1  0.16865100  0.74892100  0.81820900  1
  Cu  Cu67  1  0.83134900  0.24892100  0.81820900  1
  Cu  Cu68  1  0.06616200  0.38667000  0.83725800  1
  Cu  Cu69  1  0.93383800  0.88667000  0.83725800  1
  Cu  Cu70  1  0.35281700  0.32431700  0.91939700  1
  Cu  Cu71  1  0.64718300  0.82431700  0.91939700  1
  Cu  Cu72  1  0.45490500  0.63865200  0.94273900  1
  Cu  Cu73  1  0.54509500  0.13865200  0.94273900  1
  Cu  Cu74  1  0.13663000  0.92506700  0.96567000  1
  Cu  Cu75  1  0.86337000  0.42506700  0.96567000  1
