# generated using pymatgen
data_CuNi10C11
_symmetry_space_group_name_H-M   'P 1'
_cell_length_a   9.89203400
_cell_length_b   7.05504900
_cell_length_c   13.01630875
_cell_angle_alpha   68.72289430
_cell_angle_beta   90.00000000
_cell_angle_gamma   90.00000000
_symmetry_Int_Tables_number   1
_chemical_formula_structural   CuNi10C11
_chemical_formula_sum   'Cu4 Ni40 C44'
_cell_volume   846.47298359
_cell_formula_units_Z   4
loop_
 _symmetry_equiv_pos_site_id
 _symmetry_equiv_pos_as_xyz
  1  'x, y, z'
loop_
 _atom_site_type_symbol
 _atom_site_label
 _atom_site_symmetry_multiplicity
 _atom_site_fract_x
 _atom_site_fract_y
 _atom_site_fract_z
 _atom_site_occupancy
  C  C0  1  0.72685400  0.66354200  0.65056000  1
  C  C1  1  0.22685400  0.33645800  0.84944000  1
  C  C2  1  0.27314600  0.33645800  0.34944000  1
  C  C3  1  0.77314600  0.66354200  0.15056000  1
  Ni  Ni4  1  0.81561400  0.81786200  0.91001600  1
  Ni  Ni5  1  0.31561400  0.18213800  0.58998400  1
  Ni  Ni6  1  0.18438600  0.18213800  0.08998400  1
  Ni  Ni7  1  0.68438600  0.81786200  0.41001600  1
  Ni  Ni8  1  0.65988900  0.77175000  0.94112500  1
  Ni  Ni9  1  0.15988900  0.22825000  0.55887500  1
  Ni  Ni10  1  0.34011100  0.22825000  0.05887500  1
  Ni  Ni11  1  0.84011100  0.77175000  0.44112500  1
  Ni  Ni12  1  0.98985900  0.61779900  0.64574500  1
  Ni  Ni13  1  0.48985900  0.38220100  0.85425500  1
  Ni  Ni14  1  0.01014100  0.38220100  0.35425500  1
  Ni  Ni15  1  0.51014100  0.61779900  0.14574500  1
  Ni  Ni16  1  0.93325200  0.40795400  0.63155700  1
  Ni  Ni17  1  0.43325200  0.59204600  0.86844300  1
  Ni  Ni18  1  0.06674800  0.59204600  0.36844300  1
  Ni  Ni19  1  0.56674800  0.40795400  0.13155700  1
  Ni  Ni20  1  0.65211000  0.38093100  0.56608900  1
  Ni  Ni21  1  0.15211000  0.61906900  0.93391100  1
  Ni  Ni22  1  0.34789000  0.61906900  0.43391100  1
  Ni  Ni23  1  0.84789000  0.38093100  0.06608900  1
  Ni  Ni24  1  0.60656500  0.31293400  0.69683000  1
  Ni  Ni25  1  0.10656500  0.68706600  0.80317000  1
  Ni  Ni26  1  0.39343500  0.68706600  0.30317000  1
  Ni  Ni27  1  0.89343500  0.31293400  0.19683000  1
  Ni  Ni28  1  0.51546200  0.90442200  0.65009000  1
  Ni  Ni29  1  0.01546200  0.09557800  0.84991000  1
  Ni  Ni30  1  0.48453800  0.09557800  0.34991000  1
  Ni  Ni31  1  0.98453800  0.90442200  0.15009000  1
  Ni  Ni32  1  0.47437500  0.78019000  0.57375400  1
  Ni  Ni33  1  0.97437500  0.21981000  0.92624600  1
  Ni  Ni34  1  0.52562500  0.21981000  0.42624600  1
  Ni  Ni35  1  0.02562500  0.78019000  0.07375400  1
  Ni  Ni36  1  0.77176500  0.37212700  0.90476600  1
  Ni  Ni37  1  0.27176500  0.62787300  0.59523400  1
  Ni  Ni38  1  0.22823500  0.62787300  0.09523400  1
  Ni  Ni39  1  0.72823500  0.37212700  0.40476600  1
  Ni  Ni40  1  0.76237900  0.15809600  0.00515800  1
  Ni  Ni41  1  0.26237900  0.84190400  0.49484200  1
  Ni  Ni42  1  0.23762100  0.84190400  0.99484200  1
  Ni  Ni43  1  0.73762100  0.15809600  0.50515800  1
  Cu  Cu44  1  0.94954100  0.98324400  0.67737500  1
  Cu  Cu45  1  0.44954100  0.01675600  0.82262500  1
  Cu  Cu46  1  0.05045900  0.01675600  0.32262500  1
  Cu  Cu47  1  0.55045900  0.98324400  0.17737500  1
  C  C48  1  0.70636600  0.57004000  0.78477300  1
  C  C49  1  0.20636600  0.42996000  0.71522700  1
  C  C50  1  0.29363400  0.42996000  0.21522700  1
  C  C51  1  0.79363400  0.57004000  0.28477300  1
  C  C52  1  0.74708400  0.74859700  0.47102400  1
  C  C53  1  0.24708400  0.25140300  0.02897600  1
  C  C54  1  0.25291600  0.25140300  0.52897600  1
  C  C55  1  0.75291600  0.74859700  0.97102400  1
  C  C56  1  0.81985100  0.93408600  0.62839900  1
  C  C57  1  0.31985100  0.06591400  0.87160100  1
  C  C58  1  0.18014900  0.06591400  0.37160100  1
  C  C59  1  0.68014900  0.93408600  0.12839900  1
  C  C60  1  0.90936900  0.53834400  0.64055700  1
  C  C61  1  0.40936900  0.46165600  0.85944300  1
  C  C62  1  0.09063100  0.46165600  0.35944300  1
  C  C63  1  0.59063100  0.53834400  0.14055700  1
  C  C64  1  0.62666500  0.42855300  0.62732800  1
  C  C65  1  0.12666500  0.57144700  0.87267200  1
  C  C66  1  0.37333500  0.57144700  0.37267200  1
  C  C67  1  0.87333500  0.42855300  0.12732800  1
  C  C68  1  0.55402600  0.83097200  0.60389100  1
  C  C69  1  0.05402600  0.16902800  0.89610900  1
  C  C70  1  0.44597400  0.16902800  0.39610900  1
  C  C71  1  0.94597400  0.83097200  0.10389100  1
  C  C72  1  0.92283100  0.96420900  0.79283200  1
  C  C73  1  0.42283100  0.03579100  0.70716800  1
  C  C74  1  0.07716900  0.03579100  0.20716800  1
  C  C75  1  0.57716900  0.96420900  0.29283200  1
  C  C76  1  0.98535400  0.19550700  0.60891800  1
  C  C77  1  0.48535400  0.80449300  0.89108200  1
  C  C78  1  0.01464600  0.80449300  0.39108200  1
  C  C79  1  0.51464600  0.19550700  0.10891800  1
  C  C80  1  0.05694100  0.83949100  0.67300700  1
  C  C81  1  0.55694100  0.16050900  0.82699300  1
  C  C82  1  0.94305900  0.16050900  0.32699300  1
  C  C83  1  0.44305900  0.83949100  0.17300700  1
  C  C84  1  0.82074100  0.27659700  0.97019000  1
  C  C85  1  0.32074100  0.72340300  0.52981000  1
  C  C86  1  0.17925900  0.72340300  0.02981000  1
  C  C87  1  0.67925900  0.27659700  0.47019000  1
