# generated using pymatgen
data_Cu6NiC29
_symmetry_space_group_name_H-M   'P 1'
_cell_length_a   8.68457622
_cell_length_b   8.68457622
_cell_length_c   8.68457594
_cell_angle_alpha   59.79163320
_cell_angle_beta   59.79163320
_cell_angle_gamma   59.79163222
_symmetry_Int_Tables_number   1
_chemical_formula_structural   Cu6NiC29
_chemical_formula_sum   'Cu6 Ni1 C29'
_cell_volume   460.96891373
_cell_formula_units_Z   1
loop_
 _symmetry_equiv_pos_site_id
 _symmetry_equiv_pos_as_xyz
  1  'x, y, z'
loop_
 _atom_site_type_symbol
 _atom_site_label
 _atom_site_symmetry_multiplicity
 _atom_site_fract_x
 _atom_site_fract_y
 _atom_site_fract_z
 _atom_site_occupancy
  C  C0  1  0.00248300  0.00248300  0.00248300  1
  C  C1  1  0.50003800  0.50003800  0.50003800  1
  C  C2  1  0.14180000  0.14180000  0.14180000  1
  C  C3  1  0.35758700  0.35758700  0.35758700  1
  C  C4  1  0.64213000  0.64213000  0.64213000  1
  Ni  Ni5  1  0.85796200  0.85796200  0.85796200  1
  Cu  Cu6  1  0.74930500  0.04255300  0.45504200  1
  Cu  Cu7  1  0.04255300  0.45504200  0.74930500  1
  Cu  Cu8  1  0.45504200  0.74930500  0.04255300  1
  Cu  Cu9  1  0.53814700  0.25298100  0.95971900  1
  Cu  Cu10  1  0.95971900  0.53814700  0.25298100  1
  Cu  Cu11  1  0.25298100  0.95971900  0.53814700  1
  C  C12  1  0.30746200  0.12342500  0.49590800  1
  C  C13  1  0.49590800  0.30746200  0.12342500  1
  C  C14  1  0.91637800  0.05906800  0.26592500  1
  C  C15  1  0.12342500  0.49590800  0.30746200  1
  C  C16  1  0.80036100  0.01524300  0.61427000  1
  C  C17  1  0.58273200  0.23093900  0.43483500  1
  C  C18  1  0.05906800  0.26592500  0.91637800  1
  C  C19  1  0.23093900  0.43483500  0.58273200  1
  C  C20  1  0.37521700  0.19621600  0.00031900  1
  C  C21  1  0.43483500  0.58273200  0.23093900  1
  C  C22  1  0.73019000  0.08832700  0.94633300  1
  C  C23  1  0.00031900  0.37521700  0.19621600  1
  C  C24  1  0.01524300  0.61427000  0.80036100  1
  C  C25  1  0.26592500  0.91637800  0.05906800  1
  C  C26  1  0.55599700  0.41852900  0.76999100  1
  C  C27  1  0.61427000  0.80036100  0.01524300  1
  C  C28  1  0.76999100  0.55599700  0.41852900  1
  C  C29  1  0.94633300  0.73019000  0.08832700  1
  C  C30  1  0.41852900  0.76999100  0.55599700  1
  C  C31  1  0.19621600  0.00031900  0.37521700  1
  C  C32  1  0.87422500  0.50069500  0.69766100  1
  C  C33  1  0.08832700  0.94633300  0.73019000  1
  C  C34  1  0.50069500  0.69766100  0.87422500  1
  C  C35  1  0.69766100  0.87422500  0.50069500  1
