# generated using pymatgen
data_Cu(NiC4)2
_symmetry_space_group_name_H-M   'P 1'
_cell_length_a   7.52893606
_cell_length_b   7.52893606
_cell_length_c   7.75735333
_cell_angle_alpha   86.45605071
_cell_angle_beta   86.45605071
_cell_angle_gamma   62.36572817
_symmetry_Int_Tables_number   1
_chemical_formula_structural   Cu(NiC4)2
_chemical_formula_sum   'Cu2 Ni4 C16'
_cell_volume   388.54541323
_cell_formula_units_Z   2
loop_
 _symmetry_equiv_pos_site_id
 _symmetry_equiv_pos_as_xyz
  1  'x, y, z'
loop_
 _atom_site_type_symbol
 _atom_site_label
 _atom_site_symmetry_multiplicity
 _atom_site_fract_x
 _atom_site_fract_y
 _atom_site_fract_z
 _atom_site_occupancy
  C  C0  1  0.28881200  0.00832500  0.13704200  1
  C  C1  1  0.99167500  0.71118800  0.36295800  1
  C  C2  1  0.71118800  0.99167500  0.86295800  1
  C  C3  1  0.00832500  0.28881200  0.63704200  1
  Ni  Ni4  1  0.76865400  0.42665100  0.13567000  1
  Ni  Ni5  1  0.57334900  0.23134600  0.36433000  1
  Ni  Ni6  1  0.23134600  0.57334900  0.86433000  1
  Ni  Ni7  1  0.42665100  0.76865400  0.63567000  1
  Cu  Cu8  1  0.56887000  0.43113000  0.25000000  1
  Cu  Cu9  1  0.43113000  0.56887000  0.75000000  1
  C  C10  1  0.81576600  0.28662800  0.99601100  1
  C  C11  1  0.71337200  0.18423400  0.50398900  1
  C  C12  1  0.18423400  0.71337200  0.00398900  1
  C  C13  1  0.28662800  0.81576600  0.49601100  1
  C  C14  1  0.69650000  0.63569800  0.07537600  1
  C  C15  1  0.36430200  0.30350000  0.42462400  1
  C  C16  1  0.30350000  0.36430200  0.92462400  1
  C  C17  1  0.63569800  0.69650000  0.57537600  1
  C  C18  1  0.93347200  0.36016800  0.25613900  1
  C  C19  1  0.63983200  0.06652800  0.24386100  1
  C  C20  1  0.06652800  0.63983200  0.74386100  1
  C  C21  1  0.36016800  0.93347200  0.75613900  1
