# generated using pymatgen
data_Cu3NiC9
_symmetry_space_group_name_H-M   'P 1'
_cell_length_a   7.76049876
_cell_length_b   7.76049876
_cell_length_c   13.11503349
_cell_angle_alpha   78.19670249
_cell_angle_beta   78.19670249
_cell_angle_gamma   66.25106079
_symmetry_Int_Tables_number   1
_chemical_formula_structural   Cu3NiC9
_chemical_formula_sum   'Cu12 Ni4 C36'
_cell_volume   701.07446587
_cell_formula_units_Z   4
loop_
 _symmetry_equiv_pos_site_id
 _symmetry_equiv_pos_as_xyz
  1  'x, y, z'
loop_
 _atom_site_type_symbol
 _atom_site_label
 _atom_site_symmetry_multiplicity
 _atom_site_fract_x
 _atom_site_fract_y
 _atom_site_fract_z
 _atom_site_occupancy
  C  C0  1  0.88248300  0.11751700  0.25000000  1
  C  C1  1  0.11751700  0.88248300  0.75000000  1
  C  C2  1  0.40292700  0.59707300  0.25000000  1
  C  C3  1  0.59707300  0.40292700  0.75000000  1
  Ni  Ni4  1  0.40198200  0.46802900  0.06735800  1
  Ni  Ni5  1  0.53197100  0.59801800  0.43264200  1
  Ni  Ni6  1  0.59801800  0.53197100  0.93264200  1
  Ni  Ni7  1  0.46802900  0.40198200  0.56735800  1
  Cu  Cu8  1  0.82083700  0.40479100  0.11733200  1
  Cu  Cu9  1  0.59520900  0.17916300  0.38266800  1
  Cu  Cu10  1  0.17916300  0.59520900  0.88266800  1
  Cu  Cu11  1  0.40479100  0.82083700  0.61733200  1
  Cu  Cu12  1  0.19912900  0.05391900  0.19055800  1
  Cu  Cu13  1  0.94608100  0.80087100  0.30944200  1
  Cu  Cu14  1  0.80087100  0.94608100  0.80944200  1
  Cu  Cu15  1  0.05391900  0.19912900  0.69055800  1
  Cu  Cu16  1  0.08630000  0.43361600  0.23943500  1
  Cu  Cu17  1  0.56638400  0.91370000  0.26056500  1
  Cu  Cu18  1  0.91370000  0.56638400  0.76056500  1
  Cu  Cu19  1  0.43361600  0.08630000  0.73943500  1
  C  C20  1  0.03902300  0.17714000  0.10852900  1
  C  C21  1  0.82286000  0.96097700  0.39147100  1
  C  C22  1  0.96097700  0.82286000  0.89147100  1
  C  C23  1  0.17714000  0.03902300  0.60852900  1
  C  C24  1  0.61862300  0.46187400  0.05590500  1
  C  C25  1  0.53812600  0.38137700  0.44409500  1
  C  C26  1  0.38137700  0.53812600  0.94409500  1
  C  C27  1  0.46187400  0.61862300  0.55590500  1
  C  C28  1  0.65621400  0.34378600  0.25000000  1
  C  C29  1  0.34378600  0.65621400  0.75000000  1
  C  C30  1  0.13635100  0.86364900  0.25000000  1
  C  C31  1  0.86364900  0.13635100  0.75000000  1
  C  C32  1  0.13393000  0.20273700  0.27955700  1
  C  C33  1  0.79726300  0.86607000  0.22044300  1
  C  C34  1  0.86607000  0.79726300  0.72044300  1
  C  C35  1  0.20273700  0.13393000  0.77955700  1
  C  C36  1  0.53899300  0.72966600  0.33327100  1
  C  C37  1  0.27033400  0.46100700  0.16672900  1
  C  C38  1  0.46100700  0.27033400  0.66672900  1
  C  C39  1  0.72966600  0.53899300  0.83327100  1
  C  C40  1  0.88790300  0.51017400  0.19138200  1
  C  C41  1  0.48982600  0.11209700  0.30861800  1
  C  C42  1  0.11209700  0.48982600  0.80861800  1
  C  C43  1  0.51017400  0.88790300  0.69138200  1
  C  C44  1  0.43117700  0.96352200  0.16300800  1
  C  C45  1  0.03647700  0.56882300  0.33699200  1
  C  C46  1  0.56882300  0.03647700  0.83699200  1
  C  C47  1  0.96352200  0.43117700  0.66300800  1
  C  C48  1  0.09607900  0.49438900  0.00094100  1
  C  C49  1  0.50561100  0.90392100  0.49905900  1
  C  C50  1  0.90392100  0.50561100  0.99905900  1
  C  C51  1  0.49438900  0.09607900  0.50094100  1
