# generated using pymatgen
data_Cu3NiC3
_symmetry_space_group_name_H-M   'P 1'
_cell_length_a   5.98528500
_cell_length_b   6.22112200
_cell_length_c   8.71705400
_cell_angle_alpha   90.00000000
_cell_angle_beta   90.00000000
_cell_angle_gamma   90.00000000
_symmetry_Int_Tables_number   1
_chemical_formula_structural   Cu3NiC3
_chemical_formula_sum   'Cu12 Ni4 C12'
_cell_volume   324.58114615
_cell_formula_units_Z   4
loop_
 _symmetry_equiv_pos_site_id
 _symmetry_equiv_pos_as_xyz
  1  'x, y, z'
loop_
 _atom_site_type_symbol
 _atom_site_label
 _atom_site_symmetry_multiplicity
 _atom_site_fract_x
 _atom_site_fract_y
 _atom_site_fract_z
 _atom_site_occupancy
  C  C0  1  0.75000000  0.47741300  0.60563500  1
  C  C1  1  0.25000000  0.52258700  0.39436500  1
  C  C2  1  0.25000000  0.02258700  0.10563500  1
  C  C3  1  0.75000000  0.97741300  0.89436500  1
  C  C4  1  0.00000000  0.00000000  0.50000000  1
  C  C5  1  0.50000000  0.00000000  0.50000000  1
  C  C6  1  0.75000000  0.73327500  0.23260800  1
  C  C7  1  0.75000000  0.23327500  0.26739200  1
  C  C8  1  0.50000000  0.50000000  0.00000000  1
  C  C9  1  0.00000000  0.50000000  0.00000000  1
  C  C10  1  0.25000000  0.76672500  0.73260800  1
  C  C11  1  0.25000000  0.26672500  0.76739200  1
  Ni  Ni12  1  0.75000000  0.20506000  0.49126900  1
  Ni  Ni13  1  0.25000000  0.79494000  0.50873100  1
  Ni  Ni14  1  0.25000000  0.29494000  0.99126900  1
  Ni  Ni15  1  0.75000000  0.70506000  0.00873100  1
  Cu  Cu16  1  0.75000000  0.74385300  0.47309600  1
  Cu  Cu17  1  0.25000000  0.25614700  0.52690400  1
  Cu  Cu18  1  0.50965600  0.48338700  0.25531500  1
  Cu  Cu19  1  0.99034400  0.48338700  0.25531500  1
  Cu  Cu20  1  0.99034400  0.98338700  0.24468500  1
  Cu  Cu21  1  0.50965600  0.98338700  0.24468500  1
  Cu  Cu22  1  0.25000000  0.75614700  0.97309600  1
  Cu  Cu23  1  0.75000000  0.24385300  0.02690400  1
  Cu  Cu24  1  0.49034400  0.01661300  0.75531500  1
  Cu  Cu25  1  0.00965600  0.01661300  0.75531500  1
  Cu  Cu26  1  0.00965600  0.51661300  0.74468500  1
  Cu  Cu27  1  0.49034400  0.51661300  0.74468500  1
