# generated using pymatgen
data_Cu2Ni2C21
_symmetry_space_group_name_H-M   'P 1'
_cell_length_a   6.67101300
_cell_length_b   8.98107500
_cell_length_c   10.45419801
_cell_angle_alpha   89.68102464
_cell_angle_beta   90.00000000
_cell_angle_gamma   90.00000000
_symmetry_Int_Tables_number   1
_chemical_formula_structural   Cu2Ni2C21
_chemical_formula_sum   'Cu4 Ni4 C42'
_cell_volume   626.33127976
_cell_formula_units_Z   2
loop_
 _symmetry_equiv_pos_site_id
 _symmetry_equiv_pos_as_xyz
  1  'x, y, z'
loop_
 _atom_site_type_symbol
 _atom_site_label
 _atom_site_symmetry_multiplicity
 _atom_site_fract_x
 _atom_site_fract_y
 _atom_site_fract_z
 _atom_site_occupancy
  C  C0  1  0.75028900  0.92501400  0.61374900  1
  C  C1  1  0.75832000  0.91100600  0.12359200  1
  C  C2  1  0.99527300  0.73493500  0.87879100  1
  C  C3  1  0.50289800  0.73542300  0.88087600  1
  C  C4  1  0.51130700  0.73969700  0.36855400  1
  C  C5  1  0.01130700  0.26030300  0.63144600  1
  C  C6  1  0.49527300  0.26506500  0.12120900  1
  C  C7  1  0.00289800  0.26457700  0.11912400  1
  C  C8  1  0.25832000  0.08899400  0.87640800  1
  C  C9  1  0.25028900  0.07498600  0.38625100  1
  C  C10  1  0.24180800  0.64737600  0.60111600  1
  C  C11  1  0.24541500  0.65178200  0.11680300  1
  C  C12  1  0.74541500  0.34821800  0.88319700  1
  C  C13  1  0.74180800  0.35262400  0.39888400  1
  Ni  Ni14  1  0.74890900  0.58528600  0.64432200  1
  Ni  Ni15  1  0.74849000  0.57709400  0.14807800  1
  Ni  Ni16  1  0.24849000  0.42290600  0.85192200  1
  Ni  Ni17  1  0.24890900  0.41471400  0.35567800  1
  Cu  Cu18  1  0.24947900  0.92786300  0.63669000  1
  Cu  Cu19  1  0.25525600  0.94587100  0.13351800  1
  Cu  Cu20  1  0.75525600  0.05412900  0.86648200  1
  Cu  Cu21  1  0.74947900  0.07213700  0.36331000  1
  C  C22  1  0.74971100  0.91030900  0.85778500  1
  C  C23  1  0.73258900  0.93176200  0.35111000  1
  C  C24  1  0.26294600  0.86492600  0.52481100  1
  C  C25  1  0.24730400  0.88251700  0.02077800  1
  C  C26  1  0.25224900  0.83521300  0.73478900  1
  C  C27  1  0.26618300  0.86352100  0.23489800  1
  C  C28  1  0.93838700  0.68232900  0.61568700  1
  C  C29  1  0.56172800  0.67749400  0.60250500  1
  C  C30  1  0.93009600  0.67703900  0.11571600  1
  C  C31  1  0.56298300  0.67638400  0.11904200  1
  C  C32  1  0.24866000  0.57033600  0.92711000  1
  C  C33  1  0.25994800  0.56529700  0.42753800  1
  C  C34  1  0.74021900  0.55531300  0.79011100  1
  C  C35  1  0.74201900  0.53373700  0.29455000  1
  C  C36  1  0.24201900  0.46626300  0.70545000  1
  C  C37  1  0.24021900  0.44468700  0.20988900  1
  C  C38  1  0.75994800  0.43470300  0.57246200  1
  C  C39  1  0.74866000  0.42966400  0.07289000  1
  C  C40  1  0.43009600  0.32296100  0.88428400  1
  C  C41  1  0.06298300  0.32361600  0.88095800  1
  C  C42  1  0.43838700  0.31767100  0.38431300  1
  C  C43  1  0.06172800  0.32250600  0.39749500  1
  C  C44  1  0.76618300  0.13647900  0.76510200  1
  C  C45  1  0.75224900  0.16478700  0.26521100  1
  C  C46  1  0.74730400  0.11748300  0.97922200  1
  C  C47  1  0.76294600  0.13507400  0.47518900  1
  C  C48  1  0.23258900  0.06823800  0.64889000  1
  C  C49  1  0.24971100  0.08969100  0.14221500  1
