# generated using pymatgen
data_Cu12Ni3C4
_symmetry_space_group_name_H-M   'P 1'
_cell_length_a   9.75682426
_cell_length_b   9.75682426
_cell_length_c   9.75682364
_cell_angle_alpha   110.06279407
_cell_angle_beta   110.06279407
_cell_angle_gamma   110.06279410
_symmetry_Int_Tables_number   1
_chemical_formula_structural   Cu12Ni3C4
_chemical_formula_sum   'Cu24 Ni6 C8'
_cell_volume   698.89746300
_cell_formula_units_Z   2
loop_
 _symmetry_equiv_pos_site_id
 _symmetry_equiv_pos_as_xyz
  1  'x, y, z'
loop_
 _atom_site_type_symbol
 _atom_site_label
 _atom_site_symmetry_multiplicity
 _atom_site_fract_x
 _atom_site_fract_y
 _atom_site_fract_z
 _atom_site_occupancy
  C  C0  1  0.50460800  0.50460800  0.50460800  1
  C  C1  1  0.00460800  0.00460800  0.00460800  1
  C  C2  1  0.91709900  0.60237700  0.72269900  1
  C  C3  1  0.72269900  0.91709900  0.60237700  1
  C  C4  1  0.60237700  0.72269900  0.91709900  1
  C  C5  1  0.22269900  0.10237700  0.41709900  1
  C  C6  1  0.41709900  0.22269900  0.10237700  1
  C  C7  1  0.10237700  0.41709900  0.22269900  1
  Ni  Ni8  1  0.19105400  0.33605800  0.80349300  1
  Ni  Ni9  1  0.80349300  0.19105400  0.33605800  1
  Ni  Ni10  1  0.33605800  0.80349300  0.19105400  1
  Ni  Ni11  1  0.30349300  0.83605800  0.69105400  1
  Ni  Ni12  1  0.69105400  0.30349300  0.83605800  1
  Ni  Ni13  1  0.83605800  0.69105400  0.30349300  1
  Cu  Cu14  1  0.66805000  0.73236400  0.51868300  1
  Cu  Cu15  1  0.51868300  0.66805000  0.73236400  1
  Cu  Cu16  1  0.73236400  0.51868300  0.66805000  1
  Cu  Cu17  1  0.01868300  0.23236400  0.16805000  1
  Cu  Cu18  1  0.16805000  0.01868300  0.23236400  1
  Cu  Cu19  1  0.23236400  0.16805000  0.01868300  1
  Cu  Cu20  1  0.00998200  0.78336000  0.86512000  1
  Cu  Cu21  1  0.86512000  0.00998200  0.78336000  1
  Cu  Cu22  1  0.78336000  0.86512000  0.00998200  1
  Cu  Cu23  1  0.36512000  0.28336000  0.50998200  1
  Cu  Cu24  1  0.50998200  0.36512000  0.28336000  1
  Cu  Cu25  1  0.28336000  0.50998200  0.36512000  1
  Cu  Cu26  1  0.99171500  0.51030400  0.78033200  1
  Cu  Cu27  1  0.78033200  0.99171500  0.51030400  1
  Cu  Cu28  1  0.51030400  0.78033200  0.99171500  1
  Cu  Cu29  1  0.28033200  0.01030400  0.49171500  1
  Cu  Cu30  1  0.49171500  0.28033200  0.01030400  1
  Cu  Cu31  1  0.01030400  0.49171500  0.28033200  1
  Cu  Cu32  1  0.94313600  0.59400000  0.57956300  1
  Cu  Cu33  1  0.57956300  0.94313600  0.59400000  1
  Cu  Cu34  1  0.59400000  0.57956300  0.94313600  1
  Cu  Cu35  1  0.07956300  0.09400000  0.44313600  1
  Cu  Cu36  1  0.44313600  0.07956300  0.09400000  1
  Cu  Cu37  1  0.09400000  0.44313600  0.07956300  1
