# generated using pymatgen
data_Cu2(NiC9)3
_symmetry_space_group_name_H-M   'P 1'
_cell_length_a   5.33591400
_cell_length_b   13.14525000
_cell_length_c   21.79381513
_cell_angle_alpha   85.57286276
_cell_angle_beta   90.00000000
_cell_angle_gamma   90.00000000
_symmetry_Int_Tables_number   1
_chemical_formula_structural   Cu2(NiC9)3
_chemical_formula_sum   'Cu8 Ni12 C108'
_cell_volume   1524.09905597
_cell_formula_units_Z   4
loop_
 _symmetry_equiv_pos_site_id
 _symmetry_equiv_pos_as_xyz
  1  'x, y, z'
loop_
 _atom_site_type_symbol
 _atom_site_label
 _atom_site_symmetry_multiplicity
 _atom_site_fract_x
 _atom_site_fract_y
 _atom_site_fract_z
 _atom_site_occupancy
  C  C0  1  0.72176000  0.99305000  0.56549400  1
  C  C1  1  0.22176000  0.00695000  0.93450600  1
  C  C2  1  0.27824000  0.00695000  0.43450600  1
  C  C3  1  0.77824000  0.99305000  0.06549400  1
  C  C4  1  0.23174000  0.99762700  0.66537800  1
  C  C5  1  0.73174000  0.00237300  0.83462200  1
  C  C6  1  0.76826000  0.00237300  0.33462200  1
  C  C7  1  0.26826000  0.99762700  0.16537800  1
  C  C8  1  0.27903500  0.61097100  0.54738500  1
  C  C9  1  0.77903500  0.38902900  0.95261500  1
  C  C10  1  0.72096500  0.38902900  0.45261500  1
  C  C11  1  0.22096500  0.61097100  0.04738500  1
  Ni  Ni12  1  0.23797800  0.86094300  0.55286500  1
  Ni  Ni13  1  0.73797800  0.13905700  0.94713500  1
  Ni  Ni14  1  0.76202200  0.13905700  0.44713500  1
  Ni  Ni15  1  0.26202200  0.86094300  0.05286500  1
  Ni  Ni16  1  0.73314500  0.10929100  0.69353100  1
  Ni  Ni17  1  0.23314500  0.89070900  0.80646900  1
  Ni  Ni18  1  0.26685500  0.89070900  0.30646900  1
  Ni  Ni19  1  0.76685500  0.10929100  0.19353100  1
  Ni  Ni20  1  0.19488400  0.51243300  0.41960900  1
  Ni  Ni21  1  0.69488400  0.48756700  0.08039100  1
  Ni  Ni22  1  0.80511600  0.48756700  0.58039100  1
  Ni  Ni23  1  0.30511600  0.51243300  0.91960900  1
  C  C24  1  0.71691900  0.25096300  0.63984900  1
  C  C25  1  0.21691900  0.74903700  0.86015100  1
  C  C26  1  0.28308100  0.74903700  0.36015100  1
  C  C27  1  0.78308100  0.25096300  0.13984900  1
  C  C28  1  0.22543900  0.62139800  0.33929500  1
  C  C29  1  0.72543900  0.37860200  0.16070500  1
  C  C30  1  0.77456100  0.37860200  0.66070500  1
  C  C31  1  0.27456100  0.62139800  0.83929500  1
  C  C32  1  0.46121800  0.72598200  0.65210700  1
  C  C33  1  0.96121800  0.27401800  0.84789300  1
  C  C34  1  0.53878200  0.27401800  0.34789300  1
  C  C35  1  0.03878200  0.72598200  0.15210700  1
  C  C36  1  0.45009600  0.76780700  0.72223100  1
  C  C37  1  0.95009600  0.23219300  0.77776900  1
  C  C38  1  0.54990400  0.23219300  0.27776900  1
  C  C39  1  0.04990400  0.76780700  0.22223100  1
  C  C40  1  0.27716600  0.59828700  0.72466400  1
  C  C41  1  0.77716600  0.40171300  0.77533600  1
  C  C42  1  0.72283400  0.40171300  0.27533600  1
  C  C43  1  0.22283400  0.59828700  0.22466400  1
  C  C44  1  0.55922200  0.60042400  0.77005400  1
  C  C45  1  0.05922200  0.39957600  0.72994600  1
  C  C46  1  0.44077800  0.39957600  0.22994600  1
  C  C47  1  0.94077800  0.60042400  0.27005400  1
  C  C48  1  0.56457400  0.55425400  0.69451500  1
  C  C49  1  0.06457400  0.44574600  0.80548500  1
  C  C50  1  0.43542600  0.44574600  0.30548500  1
  C  C51  1  0.93542600  0.55425400  0.19451500  1
  C  C52  1  0.83852400  0.81516800  0.67677500  1
  C  C53  1  0.33852400  0.18483200  0.82322500  1
  C  C54  1  0.16147600  0.18483200  0.32322500  1
  C  C55  1  0.66147600  0.81516800  0.17677500  1
  C  C56  1  0.90178400  0.68426200  0.66504700  1
  C  C57  1  0.40178400  0.31573800  0.83495300  1
  C  C58  1  0.09821600  0.31573800  0.33495300  1
  C  C59  1  0.59821600  0.68426200  0.16504700  1
  C  C60  1  0.88382000  0.72585100  0.74214900  1
  C  C61  1  0.38382000  0.27414900  0.75785100  1
  C  C62  1  0.11618000  0.27414900  0.25785100  1
  C  C63  1  0.61618000  0.72585100  0.24214900  1
  Cu  Cu64  1  0.48043300  0.60949500  0.72351300  1
  Cu  Cu65  1  0.98043300  0.39050500  0.77648700  1
  Cu  Cu66  1  0.51956700  0.39050500  0.27648700  1
  Cu  Cu67  1  0.01956700  0.60949500  0.22351300  1
  Cu  Cu68  1  0.81097300  0.73635900  0.69504800  1
  Cu  Cu69  1  0.31097300  0.26364100  0.80495200  1
  Cu  Cu70  1  0.18902700  0.26364100  0.30495200  1
  Cu  Cu71  1  0.68902700  0.73635900  0.19504800  1
  C  C72  1  0.53667000  0.71453900  0.69670500  1
  C  C73  1  0.03667000  0.28546100  0.80329500  1
  C  C74  1  0.46333000  0.28546100  0.30329500  1
  C  C75  1  0.96333000  0.71453900  0.19670500  1
  C  C76  1  0.95732900  0.88555200  0.55811700  1
  C  C77  1  0.45732900  0.11444800  0.94188300  1
  C  C78  1  0.04267100  0.11444800  0.44188300  1
  C  C79  1  0.54267100  0.88555200  0.05811700  1
  C  C80  1  0.34189200  0.88556400  0.48710300  1
  C  C81  1  0.84189200  0.11443600  0.01289700  1
  C  C82  1  0.65810800  0.11443600  0.51289700  1
  C  C83  1  0.15810800  0.88556400  0.98710300  1
  C  C84  1  0.87232600  0.03295600  0.65306600  1
  C  C85  1  0.37232600  0.96704400  0.84693400  1
  C  C86  1  0.12767400  0.96704400  0.34693400  1
  C  C87  1  0.62767400  0.03295600  0.15306600  1
  C  C88  1  0.38952400  0.93372500  0.59639200  1
  C  C89  1  0.88952400  0.06627500  0.90360800  1
  C  C90  1  0.61047600  0.06627500  0.40360800  1
  C  C91  1  0.11047600  0.93372500  0.09639200  1
  C  C92  1  0.81618700  0.09430600  0.76061400  1
  C  C93  1  0.31618700  0.90569400  0.73938600  1
  C  C94  1  0.18381300  0.90569400  0.23938600  1
  C  C95  1  0.68381300  0.09430600  0.26061400  1
  C  C96  1  0.45292300  0.11054800  0.68002500  1
  C  C97  1  0.95292300  0.88945200  0.81997500  1
  C  C98  1  0.54707700  0.88945200  0.31997500  1
  C  C99  1  0.04707700  0.11054800  0.18002500  1
  C  C100  1  0.15639600  0.59439400  0.46522200  1
  C  C101  1  0.65639600  0.40560600  0.03477800  1
  C  C102  1  0.84360400  0.40560600  0.53477800  1
  C  C103  1  0.34360400  0.59439400  0.96522200  1
  C  C104  1  0.37304600  0.42576300  0.43995800  1
  C  C105  1  0.87304600  0.57423700  0.06004200  1
  C  C106  1  0.62695400  0.57423700  0.56004200  1
  C  C107  1  0.12695400  0.42576300  0.93995800  1
  C  C108  1  0.94524000  0.47175500  0.39560600  1
  C  C109  1  0.44524000  0.52824500  0.10439400  1
  C  C110  1  0.05476000  0.52824500  0.60439400  1
  C  C111  1  0.55476000  0.47175500  0.89560600  1
  C  C112  1  0.29275100  0.75108700  0.57837900  1
  C  C113  1  0.79275100  0.24891300  0.92162100  1
  C  C114  1  0.70724900  0.24891300  0.42162100  1
  C  C115  1  0.20724900  0.75108700  0.07837900  1
  C  C116  1  0.82552200  0.22378800  0.67365000  1
  C  C117  1  0.32552200  0.77621200  0.82635000  1
  C  C118  1  0.17447800  0.77621200  0.32635000  1
  C  C119  1  0.67447800  0.22378800  0.17365000  1
  C  C120  1  0.33475900  0.57032200  0.35953000  1
  C  C121  1  0.83475900  0.42967800  0.14047000  1
  C  C122  1  0.66524100  0.42967800  0.64047000  1
  C  C123  1  0.16524100  0.57032200  0.85953000  1
  C  C124  1  0.74294300  0.73051200  0.43963300  1
  C  C125  1  0.24294300  0.26948800  0.06036700  1
  C  C126  1  0.25705700  0.26948800  0.56036700  1
  C  C127  1  0.75705700  0.73051200  0.93963300  1
