# generated using pymatgen
data_Cu6NiC7
_symmetry_space_group_name_H-M   'P 1'
_cell_length_a   6.87949700
_cell_length_b   9.16343300
_cell_length_c   9.66373400
_cell_angle_alpha   90.00000000
_cell_angle_beta   90.00000000
_cell_angle_gamma   90.00000000
_symmetry_Int_Tables_number   1
_chemical_formula_structural   Cu6NiC7
_chemical_formula_sum   'Cu24 Ni4 C28'
_cell_volume   609.19995364
_cell_formula_units_Z   4
loop_
 _symmetry_equiv_pos_site_id
 _symmetry_equiv_pos_as_xyz
  1  'x, y, z'
loop_
 _atom_site_type_symbol
 _atom_site_label
 _atom_site_symmetry_multiplicity
 _atom_site_fract_x
 _atom_site_fract_y
 _atom_site_fract_z
 _atom_site_occupancy
  C  C0  1  0.47249200  0.50977500  0.02061800  1
  C  C1  1  0.52750800  0.49022500  0.52061800  1
  C  C2  1  0.02750800  0.50977500  0.52061800  1
  C  C3  1  0.97249200  0.49022500  0.02061800  1
  C  C4  1  0.20585500  0.79618100  0.95334900  1
  C  C5  1  0.79414500  0.20381900  0.45334900  1
  C  C6  1  0.29414500  0.79618100  0.45334900  1
  C  C7  1  0.70585500  0.20381900  0.95334900  1
  C  C8  1  0.85135200  0.83674200  0.73751100  1
  C  C9  1  0.14864800  0.16325800  0.23751100  1
  C  C10  1  0.64864800  0.83674200  0.23751100  1
  C  C11  1  0.35135200  0.16325800  0.73751100  1
  C  C12  1  0.66703200  0.89092500  0.83748600  1
  C  C13  1  0.33296800  0.10907500  0.33748600  1
  C  C14  1  0.83296800  0.89092500  0.33748600  1
  C  C15  1  0.16703200  0.10907500  0.83748600  1
  C  C16  1  0.67532500  0.75879100  0.39134300  1
  C  C17  1  0.32467500  0.24120900  0.89134300  1
  C  C18  1  0.82467500  0.75879100  0.89134300  1
  C  C19  1  0.17532500  0.24120900  0.39134300  1
  C  C20  1  0.66248800  0.72087600  0.76725600  1
  C  C21  1  0.33751200  0.27912400  0.26725600  1
  C  C22  1  0.83751200  0.72087600  0.26725600  1
  C  C23  1  0.16248800  0.27912400  0.76725600  1
  C  C24  1  0.25829800  0.88721200  0.16360900  1
  C  C25  1  0.74170200  0.11278800  0.66360900  1
  C  C26  1  0.24170200  0.88721200  0.66360900  1
  C  C27  1  0.75829800  0.11278800  0.16360900  1
  Ni  Ni28  1  0.74834400  0.80229700  0.80725900  1
  Ni  Ni29  1  0.25165600  0.19770300  0.30725900  1
  Ni  Ni30  1  0.75165600  0.80229700  0.30725900  1
  Ni  Ni31  1  0.24834400  0.19770300  0.80725900  1
  Cu  Cu32  1  0.21903600  0.45416700  0.96791300  1
  Cu  Cu33  1  0.78096400  0.54583300  0.46791300  1
  Cu  Cu34  1  0.28096400  0.45416700  0.46791300  1
  Cu  Cu35  1  0.71903600  0.54583300  0.96791300  1
  Cu  Cu36  1  0.02613000  0.70030200  0.99431900  1
  Cu  Cu37  1  0.97387000  0.29969800  0.49431900  1
  Cu  Cu38  1  0.47387000  0.70030200  0.49431900  1
  Cu  Cu39  1  0.52613000  0.29969800  0.99431900  1
  Cu  Cu40  1  0.39620600  0.70440500  0.95861200  1
  Cu  Cu41  1  0.60379400  0.29559500  0.45861200  1
  Cu  Cu42  1  0.10379400  0.70440500  0.45861200  1
  Cu  Cu43  1  0.89620600  0.29559500  0.95861200  1
  Cu  Cu44  1  0.22218300  0.92057800  0.06617300  1
  Cu  Cu45  1  0.77781700  0.07942200  0.56617300  1
  Cu  Cu46  1  0.27781700  0.92057800  0.56617300  1
  Cu  Cu47  1  0.72218300  0.07942200  0.06617300  1
  Cu  Cu48  1  0.47057000  0.51959600  0.18888600  1
  Cu  Cu49  1  0.52943000  0.48040400  0.68888600  1
  Cu  Cu50  1  0.02943000  0.51959600  0.68888600  1
  Cu  Cu51  1  0.97057000  0.48040400  0.18888600  1
  Cu  Cu52  1  0.17217300  0.87144600  0.81610700  1
  Cu  Cu53  1  0.82782700  0.12855400  0.31610700  1
  Cu  Cu54  1  0.32782700  0.87144600  0.31610700  1
  Cu  Cu55  1  0.67217300  0.12855400  0.81610700  1
