# generated using pymatgen
data_Cu3Ni2C13
_symmetry_space_group_name_H-M   'P 1'
_cell_length_a   8.89284865
_cell_length_b   8.89284865
_cell_length_c   8.89284855
_cell_angle_alpha   64.27159013
_cell_angle_beta   64.27159013
_cell_angle_gamma   64.27159623
_symmetry_Int_Tables_number   1
_chemical_formula_structural   Cu3Ni2C13
_chemical_formula_sum   'Cu6 Ni4 C26'
_cell_volume   543.96502317
_cell_formula_units_Z   2
loop_
 _symmetry_equiv_pos_site_id
 _symmetry_equiv_pos_as_xyz
  1  'x, y, z'
loop_
 _atom_site_type_symbol
 _atom_site_label
 _atom_site_symmetry_multiplicity
 _atom_site_fract_x
 _atom_site_fract_y
 _atom_site_fract_z
 _atom_site_occupancy
  C  C0  1  0.00000000  0.00000000  0.00000000  1
  C  C1  1  0.50000000  0.50000000  0.50000000  1
  Ni  Ni2  1  0.33330300  0.33330300  0.33330300  1
  Ni  Ni3  1  0.16669700  0.16669700  0.16669700  1
  Ni  Ni4  1  0.66669700  0.66669700  0.66669700  1
  Ni  Ni5  1  0.83330300  0.83330300  0.83330300  1
  Cu  Cu6  1  0.75000000  0.08429100  0.41570900  1
  Cu  Cu7  1  0.91570900  0.58429100  0.25000000  1
  Cu  Cu8  1  0.58429100  0.25000000  0.91570900  1
  Cu  Cu9  1  0.41570900  0.75000000  0.08429100  1
  Cu  Cu10  1  0.08429100  0.41570900  0.75000000  1
  Cu  Cu11  1  0.25000000  0.91570900  0.58429100  1
  C  C12  1  0.89536500  0.09498800  0.24648900  1
  C  C13  1  0.75351100  0.10463500  0.90501200  1
  C  C14  1  0.94029600  0.44852500  0.68529800  1
  C  C15  1  0.05147500  0.55970400  0.81470200  1
  C  C16  1  0.60463500  0.25351100  0.40501200  1
  C  C17  1  0.74648900  0.59498800  0.39536500  1
  C  C18  1  0.90501200  0.75351100  0.10463500  1
  C  C19  1  0.18529800  0.94852500  0.44029600  1
  C  C20  1  0.55147500  0.31470200  0.05970400  1
  C  C21  1  0.31470200  0.05970400  0.55147500  1
  C  C22  1  0.44029600  0.18529800  0.94852500  1
  C  C23  1  0.59498800  0.39536500  0.74648900  1
  C  C24  1  0.40501200  0.60463500  0.25351100  1
  C  C25  1  0.68529800  0.94029600  0.44852500  1
  C  C26  1  0.55970400  0.81470200  0.05147500  1
  C  C27  1  0.81470200  0.05147500  0.55970400  1
  C  C28  1  0.44852500  0.68529800  0.94029600  1
  C  C29  1  0.09498800  0.24648900  0.89536500  1
  C  C30  1  0.25351100  0.40501200  0.60463500  1
  C  C31  1  0.39536500  0.74648900  0.59498800  1
  C  C32  1  0.05970400  0.55147500  0.31470200  1
  C  C33  1  0.94852500  0.44029600  0.18529800  1
  C  C34  1  0.24648900  0.89536500  0.09498800  1
  C  C35  1  0.10463500  0.90501200  0.75351100  1
