# generated using pymatgen
data_Cu18Ni4C11
_symmetry_space_group_name_H-M   'P 1'
_cell_length_a   7.54007500
_cell_length_b   10.29308800
_cell_length_c   19.58856400
_cell_angle_alpha   90.00000000
_cell_angle_beta   90.00000000
_cell_angle_gamma   90.00000000
_symmetry_Int_Tables_number   1
_chemical_formula_structural   Cu18Ni4C11
_chemical_formula_sum   'Cu72 Ni16 C44'
_cell_volume   1520.28129238
_cell_formula_units_Z   4
loop_
 _symmetry_equiv_pos_site_id
 _symmetry_equiv_pos_as_xyz
  1  'x, y, z'
loop_
 _atom_site_type_symbol
 _atom_site_label
 _atom_site_symmetry_multiplicity
 _atom_site_fract_x
 _atom_site_fract_y
 _atom_site_fract_z
 _atom_site_occupancy
  C  C0  1  0.03451200  0.21048200  0.83710000  1
  C  C1  1  0.03451200  0.71048200  0.66290000  1
  C  C2  1  0.14473400  0.22424200  0.02185900  1
  C  C3  1  0.14473400  0.72424200  0.47814100  1
  C  C4  1  0.35526600  0.72424200  0.02185900  1
  C  C5  1  0.35526600  0.22424200  0.47814100  1
  C  C6  1  0.46548800  0.71048200  0.83710000  1
  C  C7  1  0.46548800  0.21048200  0.66290000  1
  C  C8  1  0.53451200  0.78951800  0.33710000  1
  C  C9  1  0.53451200  0.28951800  0.16290000  1
  C  C10  1  0.64473400  0.27575800  0.97814100  1
  C  C11  1  0.64473400  0.77575800  0.52185900  1
  C  C12  1  0.85526600  0.27575800  0.52185900  1
  C  C13  1  0.85526600  0.77575800  0.97814100  1
  C  C14  1  0.96548800  0.28951800  0.33710000  1
  C  C15  1  0.96548800  0.78951800  0.16290000  1
  C  C16  1  0.25000000  0.15324700  0.25000000  1
  C  C17  1  0.25000000  0.65324700  0.25000000  1
  C  C18  1  0.75000000  0.34675300  0.75000000  1
  C  C19  1  0.75000000  0.84675300  0.75000000  1
  C  C20  1  0.06331300  0.43901400  0.77974200  1
  C  C21  1  0.06331300  0.93901400  0.72025800  1
  C  C22  1  0.09749900  0.34900800  0.71597800  1
  C  C23  1  0.09749900  0.84900800  0.78402200  1
  C  C24  1  0.09234000  0.05869100  0.55897000  1
  C  C25  1  0.09234000  0.55869100  0.94103000  1
  C  C26  1  0.40766000  0.55869100  0.55897000  1
  C  C27  1  0.40766000  0.05869100  0.94103000  1
  C  C28  1  0.40250100  0.84900800  0.71597800  1
  C  C29  1  0.40250100  0.34900800  0.78402200  1
  C  C30  1  0.43668700  0.43901400  0.72025800  1
  C  C31  1  0.43668700  0.93901400  0.77974200  1
  C  C32  1  0.56331300  0.06098600  0.22025800  1
  C  C33  1  0.56331300  0.56098600  0.27974200  1
  C  C34  1  0.59749900  0.65099200  0.21597800  1
  C  C35  1  0.59749900  0.15099200  0.28402200  1
  C  C36  1  0.59234000  0.94130900  0.05897000  1
  C  C37  1  0.59234000  0.44130900  0.44103000  1
  C  C38  1  0.90766000  0.44130900  0.05897000  1
  C  C39  1  0.90766000  0.94130900  0.44103000  1
  C  C40  1  0.90250100  0.65099200  0.28402200  1
  C  C41  1  0.90250100  0.15099200  0.21597800  1
  C  C42  1  0.93668700  0.56098600  0.22025800  1
  C  C43  1  0.93668700  0.06098600  0.27974200  1
  Ni  Ni44  1  0.14253900  0.40781400  0.15295900  1
  Ni  Ni45  1  0.14253900  0.90781400  0.34704000  1
  Ni  Ni46  1  0.22004500  0.39714600  0.57247200  1
  Ni  Ni47  1  0.22004500  0.89714600  0.92752800  1
  Ni  Ni48  1  0.27995500  0.39714600  0.92752800  1
  Ni  Ni49  1  0.27995500  0.89714600  0.57247200  1
  Ni  Ni50  1  0.35746100  0.90781400  0.15295900  1
  Ni  Ni51  1  0.35746100  0.40781400  0.34704000  1
  Ni  Ni52  1  0.64253900  0.59218600  0.65296000  1
  Ni  Ni53  1  0.64253900  0.09218600  0.84704000  1
  Ni  Ni54  1  0.72004500  0.60285400  0.07247200  1
  Ni  Ni55  1  0.72004500  0.10285400  0.42752800  1
  Ni  Ni56  1  0.77995500  0.10285400  0.07247200  1
  Ni  Ni57  1  0.77995500  0.60285400  0.42752800  1
  Ni  Ni58  1  0.85746100  0.09218600  0.65296000  1
  Ni  Ni59  1  0.85746100  0.59218600  0.84704000  1
  Cu  Cu60  1  0.01374900  0.09652100  0.69890900  1
  Cu  Cu61  1  0.01374900  0.59652100  0.80109100  1
  Cu  Cu62  1  0.04723700  0.34785800  0.76269000  1
  Cu  Cu63  1  0.04723700  0.84785800  0.73731000  1
  Cu  Cu64  1  0.12235900  0.81264300  0.58263800  1
  Cu  Cu65  1  0.12235900  0.31264300  0.91736200  1
  Cu  Cu66  1  0.08628000  0.37934700  0.08146600  1
  Cu  Cu67  1  0.08628000  0.87934700  0.41853400  1
  Cu  Cu68  1  0.10402400  0.34070800  0.52020600  1
  Cu  Cu69  1  0.10402400  0.84070800  0.97979400  1
  Cu  Cu70  1  0.13077200  0.43109600  0.63639600  1
  Cu  Cu71  1  0.13077200  0.93109600  0.86360400  1
  Cu  Cu72  1  0.21276200  0.02830800  0.53929600  1
  Cu  Cu73  1  0.21276200  0.52830800  0.96070400  1
  Cu  Cu74  1  0.27610400  0.80584500  0.32727600  1
  Cu  Cu75  1  0.27610400  0.30584500  0.17272400  1
  Cu  Cu76  1  0.23064600  0.03681800  0.34316900  1
  Cu  Cu77  1  0.23064600  0.53681800  0.15683100  1
  Cu  Cu78  1  0.26935400  0.03681800  0.15683100  1
  Cu  Cu79  1  0.26935400  0.53681800  0.34316900  1
  Cu  Cu80  1  0.22389600  0.80584500  0.17272400  1
  Cu  Cu81  1  0.22389600  0.30584500  0.32727600  1
  Cu  Cu82  1  0.28723800  0.52830800  0.53929600  1
  Cu  Cu83  1  0.28723800  0.02830800  0.96070400  1
  Cu  Cu84  1  0.36922800  0.43109600  0.86360400  1
  Cu  Cu85  1  0.36922800  0.93109600  0.63639600  1
  Cu  Cu86  1  0.39597600  0.84070800  0.52020600  1
  Cu  Cu87  1  0.39597600  0.34070800  0.97979400  1
  Cu  Cu88  1  0.41372000  0.87934700  0.08146600  1
  Cu  Cu89  1  0.41372000  0.37934700  0.41853400  1
  Cu  Cu90  1  0.37764100  0.31264300  0.58263800  1
  Cu  Cu91  1  0.37764100  0.81264300  0.91736200  1
  Cu  Cu92  1  0.45276300  0.34785800  0.73731000  1
  Cu  Cu93  1  0.45276300  0.84785800  0.76269000  1
  Cu  Cu94  1  0.48625100  0.09652100  0.80109100  1
  Cu  Cu95  1  0.48625100  0.59652100  0.69890900  1
  Cu  Cu96  1  0.51374900  0.90347900  0.19890900  1
  Cu  Cu97  1  0.51374900  0.40347900  0.30109100  1
  Cu  Cu98  1  0.54723700  0.65214200  0.26269000  1
  Cu  Cu99  1  0.54723700  0.15214200  0.23731000  1
  Cu  Cu100  1  0.62235900  0.18735700  0.08263800  1
  Cu  Cu101  1  0.62235900  0.68735700  0.41736200  1
  Cu  Cu102  1  0.58628000  0.62065300  0.58146600  1
  Cu  Cu103  1  0.58628000  0.12065300  0.91853400  1
  Cu  Cu104  1  0.60402400  0.65929200  0.02020600  1
  Cu  Cu105  1  0.60402400  0.15929200  0.47979400  1
  Cu  Cu106  1  0.63077200  0.56890400  0.13639600  1
  Cu  Cu107  1  0.63077200  0.06890400  0.36360400  1
  Cu  Cu108  1  0.71276200  0.97169200  0.03929600  1
  Cu  Cu109  1  0.71276200  0.47169200  0.46070400  1
  Cu  Cu110  1  0.77610400  0.19415500  0.82727600  1
  Cu  Cu111  1  0.77610400  0.69415500  0.67272400  1
  Cu  Cu112  1  0.73064600  0.46318200  0.65683100  1
  Cu  Cu113  1  0.73064600  0.96318200  0.84316900  1
  Cu  Cu114  1  0.76935400  0.46318200  0.84316900  1
  Cu  Cu115  1  0.76935400  0.96318200  0.65683100  1
  Cu  Cu116  1  0.72389600  0.19415500  0.67272400  1
  Cu  Cu117  1  0.72389600  0.69415500  0.82727600  1
  Cu  Cu118  1  0.78723800  0.47169200  0.03929600  1
  Cu  Cu119  1  0.78723800  0.97169200  0.46070400  1
  Cu  Cu120  1  0.86922800  0.06890400  0.13639600  1
  Cu  Cu121  1  0.86922800  0.56890400  0.36360400  1
  Cu  Cu122  1  0.89597600  0.65929200  0.47979400  1
  Cu  Cu123  1  0.89597600  0.15929200  0.02020600  1
  Cu  Cu124  1  0.91372000  0.12065300  0.58146600  1
  Cu  Cu125  1  0.91372000  0.62065300  0.91853400  1
  Cu  Cu126  1  0.87764100  0.68735700  0.08263800  1
  Cu  Cu127  1  0.87764100  0.18735700  0.41736200  1
  Cu  Cu128  1  0.95276300  0.65214200  0.23731000  1
  Cu  Cu129  1  0.95276300  0.15214200  0.26269000  1
  Cu  Cu130  1  0.98625100  0.40347900  0.19890900  1
  Cu  Cu131  1  0.98625100  0.90347900  0.30109100  1
