# generated using pymatgen
data_Cu2Ni4C5
_symmetry_space_group_name_H-M   'P 1'
_cell_length_a   5.96284000
_cell_length_b   5.99791518
_cell_length_c   15.17853186
_cell_angle_alpha   84.25262177
_cell_angle_beta   78.84448916
_cell_angle_gamma   60.33342706
_symmetry_Int_Tables_number   1
_chemical_formula_structural   Cu2Ni4C5
_chemical_formula_sum   'Cu8 Ni16 C20'
_cell_volume   462.77863192
_cell_formula_units_Z   4
loop_
 _symmetry_equiv_pos_site_id
 _symmetry_equiv_pos_as_xyz
  1  'x, y, z'
loop_
 _atom_site_type_symbol
 _atom_site_label
 _atom_site_symmetry_multiplicity
 _atom_site_fract_x
 _atom_site_fract_y
 _atom_site_fract_z
 _atom_site_occupancy
  C  C0  1  0.62345700  0.14119600  0.16456200  1
  C  C1  1  0.05397100  0.71615900  0.16524100  1
  C  C2  1  0.18311700  0.33027500  0.29121500  1
  C  C3  1  0.84300700  0.15891400  0.66487800  1
  C  C4  1  0.97697800  0.47168000  0.04805200  1
  C  C5  1  0.58332400  0.67902000  0.17464200  1
  C  C6  1  0.46087700  0.99761800  0.04095200  1
  C  C7  1  0.70730700  0.33310800  0.29627700  1
  C  C8  1  0.33042100  0.15273100  0.66501300  1
  C  C9  1  0.48353200  0.50430900  0.02665200  1
  C  C10  1  0.18224900  0.85758700  0.29608800  1
  C  C11  1  0.83178300  0.66067100  0.66899100  1
  C  C12  1  0.74889400  0.50198700  0.49951600  1
  C  C13  1  0.25560300  0.99523900  0.49886400  1
  C  C14  1  0.41844100  0.33597200  0.82437400  1
  C  C15  1  0.24766300  0.49915600  0.50793000  1
  C  C16  1  0.92268800  0.82972300  0.83618800  1
  C  C17  1  0.75372100  0.99845400  0.49375900  1
  C  C18  1  0.91735400  0.32982800  0.83877900  1
  C  C19  1  0.41797500  0.83543300  0.82971800  1
  Ni  Ni20  1  0.04092400  0.32436400  0.57985900  1
  Ni  Ni21  1  0.71323800  0.16346700  0.89673200  1
  Ni  Ni22  1  0.95655300  0.17296900  0.42949300  1
  Ni  Ni23  1  0.64117100  0.49270600  0.76078100  1
  Ni  Ni24  1  0.55031300  0.83229900  0.57260000  1
  Ni  Ni25  1  0.45146700  0.66841900  0.43597400  1
  Ni  Ni26  1  0.20465600  0.67148800  0.89571400  1
  Ni  Ni27  1  0.10544400  0.01481100  0.76083600  1
  Ni  Ni28  1  0.56565500  0.32543600  0.57177000  1
  Ni  Ni29  1  0.20770100  0.17691300  0.89681300  1
  Ni  Ni30  1  0.42849900  0.16946100  0.43720800  1
  Ni  Ni31  1  0.10193200  0.50425600  0.75969300  1
  Ni  Ni32  1  0.04495000  0.84767900  0.57084300  1
  Ni  Ni33  1  0.95065900  0.64661600  0.43721000  1
  Ni  Ni34  1  0.71673800  0.66755900  0.90147300  1
  Ni  Ni35  1  0.63462800  0.99145400  0.75438700  1
  Cu  Cu36  1  0.30380100  0.33473600  0.07539100  1
  Cu  Cu37  1  0.87928500  0.50965900  0.24463400  1
  Cu  Cu38  1  0.77848900  0.81945900  0.08962100  1
  Cu  Cu39  1  0.38579200  0.00340000  0.24685900  1
  Cu  Cu40  1  0.75573900  0.34905800  0.08831700  1
  Cu  Cu41  1  0.37687000  0.50915500  0.25464800  1
  Cu  Cu42  1  0.30693700  0.80494000  0.08896000  1
  Cu  Cu43  1  0.87286600  0.00396900  0.25182300  1
