# generated using pymatgen
data_Cu2NiC2
_symmetry_space_group_name_H-M   'P 1'
_cell_length_a   3.79922803
_cell_length_b   3.79922803
_cell_length_c   13.37774600
_cell_angle_alpha   90.00000000
_cell_angle_beta   90.00000000
_cell_angle_gamma   120.00000056
_symmetry_Int_Tables_number   1
_chemical_formula_structural   Cu2NiC2
_chemical_formula_sum   'Cu4 Ni2 C4'
_cell_volume   167.22619075
_cell_formula_units_Z   2
loop_
 _symmetry_equiv_pos_site_id
 _symmetry_equiv_pos_as_xyz
  1  'x, y, z'
loop_
 _atom_site_type_symbol
 _atom_site_label
 _atom_site_symmetry_multiplicity
 _atom_site_fract_x
 _atom_site_fract_y
 _atom_site_fract_z
 _atom_site_occupancy
  C  C0  1  0.33333300  0.66666700  0.89204100  1
  C  C1  1  0.33333300  0.66666700  0.60795900  1
  C  C2  1  0.66666700  0.33333300  0.39204100  1
  C  C3  1  0.66666700  0.33333300  0.10795900  1
  Ni  Ni4  1  0.00000000  0.00000000  0.25000000  1
  Ni  Ni5  1  0.00000000  0.00000000  0.75000000  1
  Cu  Cu6  1  0.33333300  0.66666700  0.06488300  1
  Cu  Cu7  1  0.33333300  0.66666700  0.43511700  1
  Cu  Cu8  1  0.66666700  0.33333300  0.93511700  1
  Cu  Cu9  1  0.66666700  0.33333300  0.56488300  1
