# generated using pymatgen
data_Cu5NiC2
_symmetry_space_group_name_H-M   'P 1'
_cell_length_a   5.53684800
_cell_length_b   6.13073800
_cell_length_c   7.43487500
_cell_angle_alpha   90.00000000
_cell_angle_beta   90.00000000
_cell_angle_gamma   90.00000000
_symmetry_Int_Tables_number   1
_chemical_formula_structural   Cu5NiC2
_chemical_formula_sum   'Cu10 Ni2 C4'
_cell_volume   252.37656744
_cell_formula_units_Z   2
loop_
 _symmetry_equiv_pos_site_id
 _symmetry_equiv_pos_as_xyz
  1  'x, y, z'
loop_
 _atom_site_type_symbol
 _atom_site_label
 _atom_site_symmetry_multiplicity
 _atom_site_fract_x
 _atom_site_fract_y
 _atom_site_fract_z
 _atom_site_occupancy
  C  C0  1  0.45844900  0.50000000  0.01750900  1
  C  C1  1  0.95844900  0.00000000  0.98249100  1
  C  C2  1  0.91111100  0.50000000  0.78847700  1
  C  C3  1  0.41111100  0.00000000  0.21152300  1
  Ni  Ni4  1  0.15784400  0.00000000  0.52209200  1
  Ni  Ni5  1  0.65784400  0.50000000  0.47790800  1
  Cu  Cu6  1  0.77536400  0.70167000  0.86248300  1
  Cu  Cu7  1  0.77536400  0.29833000  0.86248300  1
  Cu  Cu8  1  0.27536400  0.79833000  0.13751700  1
  Cu  Cu9  1  0.27536400  0.20167000  0.13751700  1
  Cu  Cu10  1  0.18205400  0.50000000  0.80466300  1
  Cu  Cu11  1  0.68205400  0.00000000  0.19533700  1
  Cu  Cu12  1  0.18931300  0.00000000  0.68105500  1
  Cu  Cu13  1  0.68931300  0.50000000  0.31894500  1
  Cu  Cu14  1  0.89249900  0.50000000  0.56380000  1
  Cu  Cu15  1  0.39249900  0.00000000  0.43620000  1
