# generated using pymatgen
data_Cu3NiC24
_symmetry_space_group_name_H-M   'P 1'
_cell_length_a   6.31625300
_cell_length_b   4.77923600
_cell_length_c   10.32667475
_cell_angle_alpha   89.35086502
_cell_angle_beta   90.00000000
_cell_angle_gamma   90.00000000
_symmetry_Int_Tables_number   1
_chemical_formula_structural   Cu3NiC24
_chemical_formula_sum   'Cu3 Ni1 C24'
_cell_volume   311.70991704
_cell_formula_units_Z   1
loop_
 _symmetry_equiv_pos_site_id
 _symmetry_equiv_pos_as_xyz
  1  'x, y, z'
loop_
 _atom_site_type_symbol
 _atom_site_label
 _atom_site_symmetry_multiplicity
 _atom_site_fract_x
 _atom_site_fract_y
 _atom_site_fract_z
 _atom_site_occupancy
  C  C0  1  0.25080100  0.99645200  0.99795400  1
  C  C1  1  0.74919900  0.99645200  0.99795400  1
  C  C2  1  0.74838700  0.50025700  0.50128500  1
  C  C3  1  0.25161300  0.50025700  0.50128500  1
  Ni  Ni4  1  0.50000000  0.96950600  0.28195000  1
  Cu  Cu5  1  0.50000000  0.54865800  0.78446900  1
  Cu  Cu6  1  0.00000000  0.44952100  0.21545900  1
  Cu  Cu7  1  0.00000000  0.05079400  0.71500100  1
  C  C8  1  0.00000000  0.91571100  0.40625800  1
  C  C9  1  0.00000000  0.58010600  0.90576300  1
  C  C10  1  0.50000000  0.41716000  0.09090100  1
  C  C11  1  0.50000000  0.08618600  0.59619300  1
  C  C12  1  0.00000000  0.80674500  0.54951700  1
  C  C13  1  0.19890100  0.78480500  0.34043900  1
  C  C14  1  0.80109900  0.78480500  0.34043900  1
  C  C15  1  0.50000000  0.76134700  0.60167900  1
  C  C16  1  0.50000000  0.73960000  0.09370500  1
  C  C17  1  0.19761300  0.71324500  0.83931400  1
  C  C18  1  0.80238700  0.71324500  0.83931400  1
  C  C19  1  0.00000000  0.68894500  0.04818500  1
  C  C20  1  0.50000000  0.29958600  0.95037300  1
  C  C21  1  0.69539500  0.28298200  0.16111300  1
  C  C22  1  0.30460500  0.28298200  0.16111300  1
  C  C23  1  0.00000000  0.25578300  0.89903300  1
  C  C24  1  0.00000000  0.24002400  0.39775200  1
  C  C25  1  0.69754300  0.21379600  0.66404700  1
  C  C26  1  0.30245700  0.21379600  0.66404700  1
  C  C27  1  0.50000000  0.20725500  0.45545700  1
