# generated using pymatgen
data_Cu3(NiC6)2
_symmetry_space_group_name_H-M   'P 1'
_cell_length_a   9.14817300
_cell_length_b   9.17829700
_cell_length_c   12.79563700
_cell_angle_alpha   90.00000000
_cell_angle_beta   90.00000000
_cell_angle_gamma   90.00000000
_symmetry_Int_Tables_number   1
_chemical_formula_structural   Cu3(NiC6)2
_chemical_formula_sum   'Cu12 Ni8 C48'
_cell_volume   1074.38116689
_cell_formula_units_Z   4
loop_
 _symmetry_equiv_pos_site_id
 _symmetry_equiv_pos_as_xyz
  1  'x, y, z'
loop_
 _atom_site_type_symbol
 _atom_site_label
 _atom_site_symmetry_multiplicity
 _atom_site_fract_x
 _atom_site_fract_y
 _atom_site_fract_z
 _atom_site_occupancy
  Ni  Ni0  1  0.76533600  0.47160400  0.61915500  1
  Ni  Ni1  1  0.23466400  0.97160400  0.61915500  1
  Ni  Ni2  1  0.73466400  0.97160400  0.88084500  1
  Ni  Ni3  1  0.26533600  0.47160400  0.88084500  1
  Ni  Ni4  1  0.73466400  0.52839600  0.11915500  1
  Ni  Ni5  1  0.26533600  0.02839600  0.11915500  1
  Ni  Ni6  1  0.76533600  0.02839600  0.38084500  1
  Ni  Ni7  1  0.23466400  0.52839600  0.38084500  1
  Cu  Cu8  1  0.96479300  0.75000000  0.50000000  1
  Cu  Cu9  1  0.03520700  0.25000000  0.50000000  1
  Cu  Cu10  1  0.60930700  0.10356200  0.64252500  1
  Cu  Cu11  1  0.39069300  0.60356200  0.64252500  1
  Cu  Cu12  1  0.89069300  0.60356200  0.85747500  1
  Cu  Cu13  1  0.10930700  0.10356200  0.85747500  1
  Cu  Cu14  1  0.53520700  0.25000000  0.00000000  1
  Cu  Cu15  1  0.46479300  0.75000000  0.00000000  1
  Cu  Cu16  1  0.89069300  0.89643800  0.14252500  1
  Cu  Cu17  1  0.10930700  0.39643800  0.14252500  1
  Cu  Cu18  1  0.60930700  0.39643800  0.35747500  1
  Cu  Cu19  1  0.39069300  0.89643800  0.35747500  1
  C  C20  1  0.66535600  0.05522700  0.52410100  1
  C  C21  1  0.33464400  0.55522700  0.52410100  1
  C  C22  1  0.08033900  0.85792400  0.58068000  1
  C  C23  1  0.91966100  0.35792400  0.58068000  1
  C  C24  1  0.84946800  0.64260700  0.58051500  1
  C  C25  1  0.15053200  0.14260700  0.58051500  1
  C  C26  1  0.57000700  0.58231600  0.65280400  1
  C  C27  1  0.42999300  0.08231600  0.65280400  1
  C  C28  1  0.65086500  0.27689600  0.66259000  1
  C  C29  1  0.34913500  0.77689600  0.66259000  1
  C  C30  1  0.69104600  0.99448100  0.73206900  1
  C  C31  1  0.30895400  0.49448100  0.73206900  1
  C  C32  1  0.80895400  0.49448100  0.76793100  1
  C  C33  1  0.19104600  0.99448100  0.76793100  1
  C  C34  1  0.15086500  0.27689600  0.83741000  1
  C  C35  1  0.84913500  0.77689600  0.83741000  1
  C  C36  1  0.92999300  0.08231600  0.84719600  1
  C  C37  1  0.07000700  0.58231600  0.84719600  1
  C  C38  1  0.65053200  0.14260700  0.91948500  1
  C  C39  1  0.34946800  0.64260700  0.91948500  1
  C  C40  1  0.58033900  0.85792400  0.91932000  1
  C  C41  1  0.41966100  0.35792400  0.91932000  1
  C  C42  1  0.16535600  0.05522700  0.97589900  1
  C  C43  1  0.83464400  0.55522700  0.97589900  1
  C  C44  1  0.83464400  0.94477300  0.02410100  1
  C  C45  1  0.16535600  0.44477300  0.02410100  1
  C  C46  1  0.58033900  0.64207600  0.08068000  1
  C  C47  1  0.41966100  0.14207600  0.08068000  1
  C  C48  1  0.65053200  0.35739300  0.08051500  1
  C  C49  1  0.34946800  0.85739300  0.08051500  1
  C  C50  1  0.92999300  0.41768400  0.15280400  1
  C  C51  1  0.07000700  0.91768400  0.15280400  1
  C  C52  1  0.84913500  0.72310400  0.16259000  1
  C  C53  1  0.15086500  0.22310400  0.16259000  1
  C  C54  1  0.80895400  0.00551900  0.23206900  1
  C  C55  1  0.19104600  0.50551900  0.23206900  1
  C  C56  1  0.69104600  0.50551900  0.26793100  1
  C  C57  1  0.30895400  0.00551900  0.26793100  1
  C  C58  1  0.65086500  0.22310400  0.33741000  1
  C  C59  1  0.34913500  0.72310400  0.33741000  1
  C  C60  1  0.57000700  0.91768400  0.34719600  1
  C  C61  1  0.42999300  0.41768400  0.34719600  1
  C  C62  1  0.84946800  0.85739300  0.41948500  1
  C  C63  1  0.15053200  0.35739300  0.41948500  1
  C  C64  1  0.91966100  0.14207600  0.41932000  1
  C  C65  1  0.08033900  0.64207600  0.41932000  1
  C  C66  1  0.66535600  0.44477300  0.47589900  1
  C  C67  1  0.33464400  0.94477300  0.47589900  1
