# generated using pymatgen
data_Cu6NiC13
_symmetry_space_group_name_H-M   'P 1'
_cell_length_a   9.70055282
_cell_length_b   9.70055282
_cell_length_c   35.94680839
_cell_angle_alpha   82.05844417
_cell_angle_beta   82.05844417
_cell_angle_gamma   30.34401309
_symmetry_Int_Tables_number   1
_chemical_formula_structural   Cu6NiC13
_chemical_formula_sum   'Cu48 Ni8 C104'
_cell_volume   1691.26831154
_cell_formula_units_Z   8
loop_
 _symmetry_equiv_pos_site_id
 _symmetry_equiv_pos_as_xyz
  1  'x, y, z'
loop_
 _atom_site_type_symbol
 _atom_site_label
 _atom_site_symmetry_multiplicity
 _atom_site_fract_x
 _atom_site_fract_y
 _atom_site_fract_z
 _atom_site_occupancy
  C  C0  1  0.50923600  0.06920300  0.37623300  1
  C  C1  1  0.93079700  0.49076400  0.12376700  1
  C  C2  1  0.49076400  0.93079700  0.62376700  1
  C  C3  1  0.06920300  0.50923600  0.87623300  1
  C  C4  1  0.88050400  0.31885500  0.39566800  1
  C  C5  1  0.68114500  0.11949600  0.10433200  1
  C  C6  1  0.11949600  0.68114500  0.60433200  1
  C  C7  1  0.31885500  0.88050400  0.89566800  1
  C  C8  1  0.75695600  0.15442300  0.36225900  1
  C  C9  1  0.84557700  0.24304400  0.13774100  1
  C  C10  1  0.24304400  0.84557700  0.63774100  1
  C  C11  1  0.15442300  0.75695600  0.86225900  1
  C  C12  1  0.43733000  0.86671600  0.43600500  1
  C  C13  1  0.13328400  0.56267100  0.06399500  1
  C  C14  1  0.56267100  0.13328400  0.56399500  1
  C  C15  1  0.86671600  0.43732900  0.93600500  1
  C  C16  1  0.95454300  0.52072200  0.33698200  1
  C  C17  1  0.47927800  0.04545700  0.16301800  1
  C  C18  1  0.04545700  0.47927800  0.66301800  1
  C  C19  1  0.52072200  0.95454300  0.83698200  1
  C  C20  1  0.33867500  0.03486300  0.23721000  1
  C  C21  1  0.96513700  0.66132500  0.26279000  1
  C  C22  1  0.66132500  0.96513700  0.76279000  1
  C  C23  1  0.03486300  0.33867500  0.73721000  1
  C  C24  1  0.12062400  0.24971700  0.27287000  1
  C  C25  1  0.75028300  0.87937600  0.22713000  1
  C  C26  1  0.87937600  0.75028300  0.72713000  1
  C  C27  1  0.24971700  0.12062400  0.77287000  1
  C  C28  1  0.68647500  0.56952500  0.49964300  1
  C  C29  1  0.43047500  0.31352500  0.00035700  1
  C  C30  1  0.31352500  0.43047500  0.50035700  1
  C  C31  1  0.56952500  0.68647500  0.99964300  1
  C  C32  1  0.02955800  0.23764600  0.49751100  1
  C  C33  1  0.76235400  0.97044200  0.00248900  1
  C  C34  1  0.97044200  0.76235400  0.50248900  1
  C  C35  1  0.23764600  0.02955800  0.99751100  1
  C  C36  1  0.35848300  0.56787300  0.33933200  1
  C  C37  1  0.43212700  0.64151700  0.16066800  1
  C  C38  1  0.64151700  0.43212700  0.66066800  1
  C  C39  1  0.56787300  0.35848300  0.83933200  1
  C  C40  1  0.88439900  0.39582900  0.21935300  1
  C  C41  1  0.60417100  0.11560100  0.28064700  1
  C  C42  1  0.11560100  0.60417100  0.78064700  1
  C  C43  1  0.39582900  0.88439900  0.71935300  1
  C  C44  1  0.82837800  0.31281300  0.25926700  1
  C  C45  1  0.68718700  0.17162200  0.24073300  1
  C  C46  1  0.17162200  0.68718700  0.74073300  1
  C  C47  1  0.31281300  0.82837800  0.75926700  1
  C  C48  1  0.06439800  0.08013400  0.22176300  1
  C  C49  1  0.91986600  0.93560200  0.27823700  1
  C  C50  1  0.93560200  0.91986600  0.77823700  1
  C  C51  1  0.08013400  0.06439800  0.72176300  1
  C  C52  1  0.50798500  0.79082400  0.29693200  1
  C  C53  1  0.20917600  0.49201500  0.20306800  1
  C  C54  1  0.49201500  0.20917600  0.70306800  1
  C  C55  1  0.79082400  0.50798500  0.79693200  1
  C  C56  1  0.44039800  0.71494900  0.26900300  1
  C  C57  1  0.28505100  0.55960200  0.23099700  1
  C  C58  1  0.55960200  0.28505100  0.73099700  1
  C  C59  1  0.71494900  0.44039800  0.76900300  1
  C  C60  1  0.20683500  0.94500200  0.30642400  1
  C  C61  1  0.05499800  0.79316500  0.19357600  1
  C  C62  1  0.79316500  0.05499800  0.69357600  1
  C  C63  1  0.94500200  0.20683500  0.80642400  1
  C  C64  1  0.93638900  0.52243000  0.52723900  1
  C  C65  1  0.47757000  0.06361100  0.97276100  1
  C  C66  1  0.06361100  0.47757000  0.47276100  1
  C  C67  1  0.52243000  0.93638900  0.02723900  1
  C  C68  1  0.08026000  0.26183500  0.55903900  1
  C  C69  1  0.73816500  0.91974000  0.94096100  1
  C  C70  1  0.91974000  0.73816500  0.44096100  1
  C  C71  1  0.26183500  0.08026000  0.05903900  1
  C  C72  1  0.72054800  0.60651300  0.56136000  1
  C  C73  1  0.39348700  0.27945200  0.93864000  1
  C  C74  1  0.27945200  0.39348700  0.43864000  1
  C  C75  1  0.60651300  0.72054800  0.06136000  1
  C  C76  1  0.77003400  0.25194200  0.51258500  1
  C  C77  1  0.74805800  0.22996600  0.98741500  1
  C  C78  1  0.22996600  0.74805800  0.48741500  1
  C  C79  1  0.25194200  0.77003400  0.01258500  1
  C  C80  1  0.62052500  0.44650100  0.55298700  1
  C  C81  1  0.55349900  0.37947500  0.94701300  1
  C  C82  1  0.37947500  0.55349900  0.44701300  1
  C  C83  1  0.44650100  0.62052500  0.05298700  1
  C  C84  1  0.97786700  0.10329900  0.55060400  1
  C  C85  1  0.89670100  0.02213300  0.94939600  1
  C  C86  1  0.02213300  0.89670100  0.44939600  1
  C  C87  1  0.10329900  0.97786700  0.05060400  1
  C  C88  1  0.97927700  0.23135600  0.23831500  1
  C  C89  1  0.76864400  0.02072300  0.26168500  1
  C  C90  1  0.02072300  0.76864400  0.76168500  1
  C  C91  1  0.23135600  0.97927700  0.73831500  1
  C  C92  1  0.34826300  0.87358800  0.28437900  1
  C  C93  1  0.12641200  0.65173700  0.21562100  1
  C  C94  1  0.65173700  0.12641200  0.71562100  1
  C  C95  1  0.87358800  0.34826300  0.78437900  1
  C  C96  1  0.90180400  0.44840000  0.54278900  1
  C  C97  1  0.55160000  0.09819600  0.95721100  1
  C  C98  1  0.09819600  0.55160000  0.45721100  1
  C  C99  1  0.44840000  0.90180400  0.04278900  1
  C  C100  1  0.80181200  0.29151600  0.53418500  1
  C  C101  1  0.70848400  0.19818800  0.96581500  1
  C  C102  1  0.19818800  0.70848400  0.46581500  1
  C  C103  1  0.29151600  0.80181200  0.03418500  1
  Ni  Ni104  1  0.20025000  0.10279900  0.25781500  1
  Ni  Ni105  1  0.89720100  0.79975000  0.24218500  1
  Ni  Ni106  1  0.79975000  0.89720100  0.74218500  1
  Ni  Ni107  1  0.10279900  0.20025000  0.75781500  1
  Ni  Ni108  1  0.85485200  0.39019800  0.51550800  1
  Ni  Ni109  1  0.60980200  0.14514800  0.98449200  1
  Ni  Ni110  1  0.14514800  0.60980200  0.48449200  1
  Ni  Ni111  1  0.39019800  0.85485200  0.01550800  1
  Cu  Cu112  1  0.03458600  0.90166500  0.34445200  1
  Cu  Cu113  1  0.09833500  0.96541400  0.15554800  1
  Cu  Cu114  1  0.96541400  0.09833500  0.65554800  1
  Cu  Cu115  1  0.90166500  0.03458600  0.84445200  1
  Cu  Cu116  1  0.36011300  0.92107200  0.47772400  1
  Cu  Cu117  1  0.07892800  0.63988700  0.02227600  1
  Cu  Cu118  1  0.63988700  0.07892800  0.52227600  1
  Cu  Cu119  1  0.92107200  0.36011300  0.97772400  1
  Cu  Cu120  1  0.69482400  0.55305100  0.43093400  1
  Cu  Cu121  1  0.44694900  0.30517600  0.06906600  1
  Cu  Cu122  1  0.30517600  0.44694900  0.56906600  1
  Cu  Cu123  1  0.55305100  0.69482400  0.93093400  1
  Cu  Cu124  1  0.17218000  0.38499300  0.36235200  1
  Cu  Cu125  1  0.61500700  0.82782000  0.13764800  1
  Cu  Cu126  1  0.82782000  0.61500700  0.63764800  1
  Cu  Cu127  1  0.38499300  0.17218000  0.86235200  1
  Cu  Cu128  1  0.04518900  0.45485100  0.29590200  1
  Cu  Cu129  1  0.54514900  0.95481100  0.20409800  1
  Cu  Cu130  1  0.95481100  0.54514900  0.70409800  1
  Cu  Cu131  1  0.45485100  0.04518900  0.79590200  1
  Cu  Cu132  1  0.88432500  0.42628500  0.35254800  1
  Cu  Cu133  1  0.57371500  0.11567500  0.14745200  1
  Cu  Cu134  1  0.11567500  0.57371500  0.64745200  1
  Cu  Cu135  1  0.42628500  0.88432500  0.85254800  1
  Cu  Cu136  1  0.21158500  0.00817500  0.41226800  1
  Cu  Cu137  1  0.99182500  0.78841500  0.08773200  1
  Cu  Cu138  1  0.78841500  0.99182500  0.58773200  1
  Cu  Cu139  1  0.00817500  0.21158500  0.91226800  1
  Cu  Cu140  1  0.64094600  0.11604100  0.38497000  1
  Cu  Cu141  1  0.88395900  0.35905400  0.11503000  1
  Cu  Cu142  1  0.35905400  0.88395900  0.61503000  1
  Cu  Cu143  1  0.11604100  0.64094600  0.88497000  1
  Cu  Cu144  1  0.50972900  0.95761100  0.41945600  1
  Cu  Cu145  1  0.04238900  0.49027100  0.08054400  1
  Cu  Cu146  1  0.49027100  0.04238900  0.58054400  1
  Cu  Cu147  1  0.95761100  0.50972900  0.91945600  1
  Cu  Cu148  1  0.69419700  0.83454300  0.34151700  1
  Cu  Cu149  1  0.16545700  0.30580300  0.15848300  1
  Cu  Cu150  1  0.30580300  0.16545700  0.65848300  1
  Cu  Cu151  1  0.83454300  0.69419700  0.84151700  1
  Cu  Cu152  1  0.73977000  0.27753700  0.39081600  1
  Cu  Cu153  1  0.72246300  0.26023000  0.10918400  1
  Cu  Cu154  1  0.26023000  0.72246300  0.60918400  1
  Cu  Cu155  1  0.27753700  0.73977000  0.89081600  1
  Cu  Cu156  1  0.54850600  0.38322800  0.33020200  1
  Cu  Cu157  1  0.61677200  0.45149400  0.16979800  1
  Cu  Cu158  1  0.45149400  0.61677200  0.66979800  1
  Cu  Cu159  1  0.38322800  0.54850600  0.83020200  1
