# generated using pymatgen
data_CuNiC
_symmetry_space_group_name_H-M   'P 1'
_cell_length_a   3.10437200
_cell_length_b   9.44445800
_cell_length_c   9.48155548
_cell_angle_alpha   89.91483180
_cell_angle_beta   90.00000000
_cell_angle_gamma   90.00000000
_symmetry_Int_Tables_number   1
_chemical_formula_structural   CuNiC
_chemical_formula_sum   'Cu8 Ni8 C8'
_cell_volume   277.99047003
_cell_formula_units_Z   8
loop_
 _symmetry_equiv_pos_site_id
 _symmetry_equiv_pos_as_xyz
  1  'x, y, z'
loop_
 _atom_site_type_symbol
 _atom_site_label
 _atom_site_symmetry_multiplicity
 _atom_site_fract_x
 _atom_site_fract_y
 _atom_site_fract_z
 _atom_site_occupancy
  C  C0  1  0.00000000  0.98045900  0.99588400  1
  C  C1  1  0.00000000  0.98853000  0.48999600  1
  C  C2  1  0.50000000  0.77197800  0.24909900  1
  C  C3  1  0.50000000  0.77546000  0.74043800  1
  C  C4  1  0.00000000  0.48101700  0.49517200  1
  C  C5  1  0.00000000  0.48788800  0.99024300  1
  C  C6  1  0.50000000  0.24048300  0.27531600  1
  C  C7  1  0.50000000  0.26831800  0.74571600  1
  Ni  Ni8  1  0.50000000  0.90004900  0.40488500  1
  Ni  Ni9  1  0.50000000  0.90403600  0.90146000  1
  Ni  Ni10  1  0.00000000  0.84672300  0.15198100  1
  Ni  Ni11  1  0.00000000  0.85012100  0.64976600  1
  Ni  Ni12  1  0.50000000  0.40567600  0.39919900  1
  Ni  Ni13  1  0.50000000  0.40182000  0.90734000  1
  Ni  Ni14  1  0.00000000  0.34945900  0.65444000  1
  Ni  Ni15  1  0.00000000  0.14926800  0.35203500  1
  Cu  Cu16  1  0.00000000  0.65226400  0.34878100  1
  Cu  Cu17  1  0.00000000  0.65118400  0.84847000  1
  Cu  Cu18  1  0.50000000  0.59368600  0.09926900  1
  Cu  Cu19  1  0.50000000  0.59863500  0.59782000  1
  Cu  Cu20  1  0.00000000  0.34659000  0.15324900  1
  Cu  Cu21  1  0.00000000  0.15390700  0.84941200  1
  Cu  Cu22  1  0.50000000  0.10285900  0.09463000  1
  Cu  Cu23  1  0.50000000  0.09959000  0.60540100  1
