# generated using pymatgen
data_Cu3Ni12C41
_symmetry_space_group_name_H-M   'P 1'
_cell_length_a   8.29038333
_cell_length_b   8.29038333
_cell_length_c   8.29038304
_cell_angle_alpha   90.22472717
_cell_angle_beta   90.22472717
_cell_angle_gamma   90.22471913
_symmetry_Int_Tables_number   1
_chemical_formula_structural   Cu3Ni12C41
_chemical_formula_sum   'Cu3 Ni12 C41'
_cell_volume   569.78862217
_cell_formula_units_Z   1
loop_
 _symmetry_equiv_pos_site_id
 _symmetry_equiv_pos_as_xyz
  1  'x, y, z'
loop_
 _atom_site_type_symbol
 _atom_site_label
 _atom_site_symmetry_multiplicity
 _atom_site_fract_x
 _atom_site_fract_y
 _atom_site_fract_z
 _atom_site_occupancy
  C  C0  1  0.99596300  0.99596300  0.99596300  1
  C  C1  1  0.62289500  0.87728700  0.12181800  1
  C  C2  1  0.75378300  0.75378300  0.75378300  1
  C  C3  1  0.24906100  0.74757200  0.24632800  1
  C  C4  1  0.12181800  0.62289500  0.87728700  1
  C  C5  1  0.37516700  0.37516700  0.37516700  1
  C  C6  1  0.24632800  0.24906100  0.74757200  1
  C  C7  1  0.74757200  0.24632800  0.24906100  1
  C  C8  1  0.87728700  0.12181800  0.62289500  1
  Ni  Ni9  1  0.37085100  0.87869300  0.87415200  1
  Ni  Ni10  1  0.12217100  0.87657900  0.62300600  1
  Ni  Ni11  1  0.87869300  0.87415200  0.37085100  1
  Ni  Ni12  1  0.37539300  0.62389200  0.62179500  1
  Ni  Ni13  1  0.62389200  0.62179500  0.37539300  1
  Ni  Ni14  1  0.87657900  0.62300600  0.12217100  1
  Ni  Ni15  1  0.62179500  0.37539300  0.62389200  1
  Ni  Ni16  1  0.87415200  0.37085100  0.87869300  1
  Ni  Ni17  1  0.11796700  0.37521200  0.12275300  1
  Ni  Ni18  1  0.62300600  0.12217100  0.87657900  1
  Ni  Ni19  1  0.37521200  0.12275300  0.11796700  1
  Ni  Ni20  1  0.12275300  0.11796700  0.37521200  1
  Cu  Cu21  1  0.48731300  0.50875700  0.00654300  1
  Cu  Cu22  1  0.00654300  0.48731300  0.50875700  1
  Cu  Cu23  1  0.50875700  0.00654300  0.48731300  1
  C  C24  1  0.60196000  0.89874600  0.87169200  1
  C  C25  1  0.36877900  0.89438500  0.10172000  1
  C  C26  1  0.11110000  0.88670600  0.38417700  1
  C  C27  1  0.89874600  0.87169200  0.60196000  1
  C  C28  1  0.14079600  0.87654300  0.84932800  1
  C  C29  1  0.36162600  0.86304800  0.63366500  1
  C  C30  1  0.64614500  0.85794800  0.38325500  1
  C  C31  1  0.87654300  0.84932800  0.14079600  1
  C  C32  1  0.38325500  0.64614500  0.85794800  1
  C  C33  1  0.14636100  0.63744700  0.61803200  1
  C  C34  1  0.86304800  0.63366500  0.36162600  1
  C  C35  1  0.63744700  0.61803200  0.14636100  1
  C  C36  1  0.39704300  0.62825500  0.39312100  1
  C  C37  1  0.61344200  0.61344200  0.61344200  1
  C  C38  1  0.87169200  0.60196000  0.89874600  1
  C  C39  1  0.10225400  0.60154800  0.12820900  1
  C  C40  1  0.39312100  0.39704300  0.62825500  1
  C  C41  1  0.62825500  0.39312100  0.39704300  1
  C  C42  1  0.88670600  0.38417700  0.11110000  1
  C  C43  1  0.10172000  0.36877900  0.89438500  1
  C  C44  1  0.85794800  0.38325500  0.64614500  1
  C  C45  1  0.63366500  0.36162600  0.86304800  1
  C  C46  1  0.34973600  0.36142900  0.12334800  1
  C  C47  1  0.12334800  0.34973600  0.36142900  1
  C  C48  1  0.61803200  0.14636100  0.63744700  1
  C  C49  1  0.84932800  0.14079600  0.87654300  1
  C  C50  1  0.13708200  0.13708200  0.13708200  1
  C  C51  1  0.36142900  0.12334800  0.34973600  1
  C  C52  1  0.60154800  0.12820900  0.10225400  1
  C  C53  1  0.38417700  0.11110000  0.88670600  1
  C  C54  1  0.12820900  0.10225400  0.60154800  1
  C  C55  1  0.89438500  0.10172000  0.36877900  1
