# generated using pymatgen
data_Cu2NiC12
_symmetry_space_group_name_H-M   'P 1'
_cell_length_a   9.27841100
_cell_length_b   9.42976495
_cell_length_c   10.19614733
_cell_angle_alpha   95.67006265
_cell_angle_beta   92.07658740
_cell_angle_gamma   108.43834012
_symmetry_Int_Tables_number   1
_chemical_formula_structural   Cu2NiC12
_chemical_formula_sum   'Cu8 Ni4 C48'
_cell_volume   840.00268575
_cell_formula_units_Z   4
loop_
 _symmetry_equiv_pos_site_id
 _symmetry_equiv_pos_as_xyz
  1  'x, y, z'
loop_
 _atom_site_type_symbol
 _atom_site_label
 _atom_site_symmetry_multiplicity
 _atom_site_fract_x
 _atom_site_fract_y
 _atom_site_fract_z
 _atom_site_occupancy
  Ni  Ni0  1  0.27087200  0.68302000  0.02566500  1
  Ni  Ni1  1  0.43106500  0.01322600  0.68883900  1
  Ni  Ni2  1  0.75613000  0.91677600  0.55435300  1
  Ni  Ni3  1  0.82406300  0.41831500  0.94066600  1
  Cu  Cu4  1  0.16494800  0.31695600  0.63162700  1
  Cu  Cu5  1  0.28152100  0.17320400  0.38536700  1
  Cu  Cu6  1  0.50468700  0.45315600  0.84938600  1
  Cu  Cu7  1  0.45291000  0.10225500  0.05517500  1
  Cu  Cu8  1  0.48444800  0.47271500  0.18293800  1
  Cu  Cu9  1  0.46216400  0.84551700  0.32394600  1
  Cu  Cu10  1  0.01718200  0.80262200  0.42104600  1
  Cu  Cu11  1  0.89706500  0.14405000  0.11440000  1
  C  C12  1  0.04004700  0.91033500  0.82457800  1
  C  C13  1  0.49196500  0.61136800  0.54886300  1
  C  C14  1  0.63309500  0.82620500  0.92046500  1
  C  C15  1  0.62769900  0.31253900  0.49759800  1
  C  C16  1  0.20865300  0.70101200  0.63979000  1
  C  C17  1  0.04689200  0.91504100  0.11487800  1
  C  C18  1  0.14107400  0.28562300  0.91986900  1
  C  C19  1  0.18050300  0.51184100  0.36537500  1
  C  C20  1  0.76593900  0.58254000  0.69068500  1
  C  C21  1  0.81436500  0.65587900  0.13981700  1
  C  C22  1  0.82988400  0.12858400  0.80229500  1
  C  C23  1  0.90257700  0.24814100  0.38769000  1
  C  C24  1  0.00097200  0.76091000  0.19677100  1
  C  C25  1  0.11849900  0.61845300  0.48126500  1
  C  C26  1  0.03219700  0.35629600  0.30251700  1
  C  C27  1  0.05810800  0.11762600  0.95362400  1
  C  C28  1  0.27633100  0.61208400  0.26061200  1
  C  C29  1  0.28655700  0.58059000  0.68744300  1
  C  C30  1  0.28514300  0.43393200  0.44564600  1
  C  C31  1  0.46856200  0.92812700  0.90784000  1
  C  C32  1  0.10582900  0.06717600  0.21464600  1
  C  C33  1  0.27202600  0.30125600  0.81907800  1
  C  C34  1  0.16451700  0.88877900  0.00571200  1
  C  C35  1  0.42312500  0.25496200  0.58344400  1
  C  C36  1  0.50450300  0.64371900  0.00950400  1
  C  C37  1  0.48840500  0.82305200  0.53622800  1
  C  C38  1  0.49481600  0.28408200  0.31315500  1
  C  C39  1  0.63604400  0.66517700  0.74149800  1
  C  C40  1  0.60112600  0.68157900  0.32935100  1
  C  C41  1  0.75667700  0.15741500  0.93816500  1
  C  C42  1  0.76337200  0.73964500  0.29507900  1
  C  C43  1  0.83209800  0.95527600  0.77239300  1
  C  C44  1  0.65459300  0.05246400  0.22131700  1
  C  C45  1  0.71515800  0.55763300  0.52898600  1
  C  C46  1  0.73805400  0.20543400  0.29518800  1
  C  C47  1  0.71248800  0.41829700  0.74010000  1
  C  C48  1  0.87497400  0.89238500  0.03970300  1
  C  C49  1  0.94102200  0.68634700  0.73124800  1
  C  C50  1  0.89361900  0.31769200  0.53162200  1
  C  C51  1  0.98870600  0.26496000  0.78728100  1
  C  C52  1  0.06362500  0.00034700  0.59206900  1
  C  C53  1  0.08679200  0.42868000  0.99232200  1
  C  C54  1  0.27124300  0.32507700  0.06345500  1
  C  C55  1  0.70801900  0.12237300  0.67280200  1
  C  C56  1  0.26346800  0.92486200  0.38440800  1
  C  C57  1  0.56135300  0.33423800  0.01018900  1
  C  C58  1  0.81164300  0.48975400  0.19913100  1
  C  C59  1  0.91658800  0.07840500  0.39089400  1
