# generated using pymatgen
data_CuNi2C9
_symmetry_space_group_name_H-M   'P 1'
_cell_length_a   6.52505200
_cell_length_b   6.52977844
_cell_length_c   18.36861259
_cell_angle_alpha   84.08027626
_cell_angle_beta   86.61173576
_cell_angle_gamma   88.45839117
_symmetry_Int_Tables_number   1
_chemical_formula_structural   CuNi2C9
_chemical_formula_sum   'Cu6 Ni12 C54'
_cell_volume   776.92919324
_cell_formula_units_Z   6
loop_
 _symmetry_equiv_pos_site_id
 _symmetry_equiv_pos_as_xyz
  1  'x, y, z'
loop_
 _atom_site_type_symbol
 _atom_site_label
 _atom_site_symmetry_multiplicity
 _atom_site_fract_x
 _atom_site_fract_y
 _atom_site_fract_z
 _atom_site_occupancy
  C  C0  1  0.51905400  0.88284900  0.74711100  1
  C  C1  1  0.18567900  0.88288000  0.41378100  1
  C  C2  1  0.77910800  0.83613700  0.08649700  1
  C  C3  1  0.22064000  0.16358800  0.91349400  1
  C  C4  1  0.88830100  0.16443900  0.57972200  1
  C  C5  1  0.55513100  0.16476100  0.24622400  1
  C  C6  1  0.99216000  0.64101300  0.70301700  1
  C  C7  1  0.65897300  0.64090200  0.36979300  1
  C  C8  1  0.68006600  0.35834400  0.96405400  1
  C  C9  1  0.32008300  0.64198800  0.03573700  1
  C  C10  1  0.34679300  0.35993000  0.63056800  1
  C  C11  1  0.01310900  0.35968400  0.29699400  1
  Ni  Ni12  1  0.67228700  0.85868200  0.92780200  1
  Ni  Ni13  1  0.33887700  0.85800900  0.59468100  1
  Ni  Ni14  1  0.00556600  0.85785400  0.26118200  1
  Ni  Ni15  1  0.04560900  0.62068100  0.87840400  1
  Ni  Ni16  1  0.71243800  0.62078700  0.54514600  1
  Ni  Ni17  1  0.37890100  0.62116900  0.21206500  1
  Ni  Ni18  1  0.62053000  0.38106200  0.78786300  1
  Ni  Ni19  1  0.28718000  0.38103500  0.45449600  1
  Ni  Ni20  1  0.95454300  0.37890200  0.12124100  1
  Ni  Ni21  1  0.99417000  0.14246100  0.73910400  1
  Ni  Ni22  1  0.66081700  0.14245000  0.40577000  1
  Ni  Ni23  1  0.32758800  0.14148000  0.07231500  1
  Cu  Cu24  1  0.34430700  0.79928100  0.89760900  1
  Cu  Cu25  1  0.01112700  0.79948100  0.56430000  1
  Cu  Cu26  1  0.67884300  0.80067300  0.23179100  1
  Cu  Cu27  1  0.31652300  0.19787100  0.76885600  1
  Cu  Cu28  1  0.98326100  0.19793000  0.43548000  1
  Cu  Cu29  1  0.65448300  0.19946800  0.10153800  1
  C  C30  1  0.49468200  0.90811000  0.87622600  1
  C  C31  1  0.92640200  0.96102500  0.70167500  1
  C  C32  1  0.86108400  0.79263200  0.87448800  1
  C  C33  1  0.16110200  0.90844000  0.54317600  1
  C  C34  1  0.59307700  0.96101300  0.36834300  1
  C  C35  1  0.20767400  0.70657300  0.92658100  1
  C  C36  1  0.62117100  0.66995500  0.98361300  1
  C  C37  1  0.52766500  0.79240100  0.54122800  1
  C  C38  1  0.82671000  0.90783600  0.21002000  1
  C  C39  1  0.26399000  0.96061300  0.03413700  1
  C  C40  1  0.87417800  0.70687800  0.59338200  1
  C  C41  1  0.28825500  0.66928700  0.65013100  1
  C  C42  1  0.19431400  0.79220600  0.20790700  1
  C  C43  1  0.13122000  0.61481100  0.80058200  1
  C  C44  1  0.70625700  0.57969200  0.74951800  1
  C  C45  1  0.54027000  0.70645300  0.26048900  1
  C  C46  1  0.95499400  0.66918500  0.31668900  1
  C  C47  1  0.79791200  0.61479700  0.46729800  1
  C  C48  1  0.37293300  0.57968000  0.41619200  1
  C  C49  1  0.96319500  0.42083500  0.91732300  1
  C  C50  1  0.53428100  0.38336500  0.86602700  1
  C  C51  1  0.46567700  0.61709800  0.13398200  1
  C  C52  1  0.03684800  0.57953600  0.08314500  1
  C  C53  1  0.62996200  0.42076600  0.58394800  1
  C  C54  1  0.20073200  0.38341000  0.53263100  1
  C  C55  1  0.04600800  0.32949700  0.68287700  1
  C  C56  1  0.46162700  0.29235900  0.73950900  1
  C  C57  1  0.29656400  0.42051500  0.25023900  1
  C  C58  1  0.86722500  0.38284100  0.19931500  1
  C  C59  1  0.80499100  0.20769300  0.79211500  1
  C  C60  1  0.71264700  0.32949300  0.34955000  1
  C  C61  1  0.12830400  0.29229200  0.40612900  1
  C  C62  1  0.73603400  0.03927800  0.96616900  1
  C  C63  1  0.17356200  0.09358600  0.79010600  1
  C  C64  1  0.47164200  0.20769900  0.45877900  1
  C  C65  1  0.37862200  0.33011000  0.01650400  1
  C  C66  1  0.79273400  0.29383700  0.07302000  1
  C  C67  1  0.40361200  0.03977800  0.63233800  1
  C  C68  1  0.84023000  0.09356900  0.45676400  1
  C  C69  1  0.13878900  0.20757200  0.12554500  1
  C  C70  1  0.07002000  0.03979800  0.29877800  1
  C  C71  1  0.50618900  0.09249900  0.12363200  1
