# generated using pymatgen
data_Cu(NiC3)2
_symmetry_space_group_name_H-M   'P 1'
_cell_length_a   9.08331800
_cell_length_b   7.93930900
_cell_length_c   13.63796502
_cell_angle_alpha   55.58764280
_cell_angle_beta   90.00000000
_cell_angle_gamma   90.00000000
_symmetry_Int_Tables_number   1
_chemical_formula_structural   Cu(NiC3)2
_chemical_formula_sum   'Cu2 Ni4 C12'
_cell_volume   811.38381204
_cell_formula_units_Z   2
loop_
 _symmetry_equiv_pos_site_id
 _symmetry_equiv_pos_as_xyz
  1  'x, y, z'
loop_
 _atom_site_type_symbol
 _atom_site_label
 _atom_site_symmetry_multiplicity
 _atom_site_fract_x
 _atom_site_fract_y
 _atom_site_fract_z
 _atom_site_occupancy
  Ni  Ni0  1  0.89073000  0.78035300  0.75393500  1
  Ni  Ni1  1  0.10927000  0.21964700  0.24606500  1
  Ni  Ni2  1  0.60927000  0.78035300  0.25393500  1
  Ni  Ni3  1  0.39073000  0.21964700  0.74606500  1
  Cu  Cu4  1  0.50000000  0.50000000  0.00000000  1
  Cu  Cu5  1  0.00000000  0.50000000  0.50000000  1
  C  C6  1  0.96653800  0.63643900  0.23823700  1
  C  C7  1  0.69198200  0.27959600  0.55884800  1
  C  C8  1  0.67316400  0.88918300  0.93768300  1
  C  C9  1  0.17316400  0.11081700  0.56231700  1
  C  C10  1  0.19198200  0.72040400  0.94115200  1
  C  C11  1  0.46653800  0.36356100  0.26176300  1
  C  C12  1  0.53346200  0.63643900  0.73823700  1
  C  C13  1  0.80801800  0.27959600  0.05884800  1
  C  C14  1  0.82683600  0.88918300  0.43768300  1
  C  C15  1  0.32683600  0.11081700  0.06231700  1
  C  C16  1  0.30801800  0.72040400  0.44115200  1
  C  C17  1  0.03346200  0.36356100  0.76176300  1
