# generated using pymatgen
data_CuNi3C4
_symmetry_space_group_name_H-M   'P 1'
_cell_length_a   5.16636937
_cell_length_b   9.71413406
_cell_length_c   5.84930646
_cell_angle_alpha   87.29045034
_cell_angle_beta   88.63935984
_cell_angle_gamma   80.68878957
_symmetry_Int_Tables_number   1
_chemical_formula_structural   CuNi3C4
_chemical_formula_sum   'Cu4 Ni12 C16'
_cell_volume   289.32764805
_cell_formula_units_Z   4
loop_
 _symmetry_equiv_pos_site_id
 _symmetry_equiv_pos_as_xyz
  1  'x, y, z'
loop_
 _atom_site_type_symbol
 _atom_site_label
 _atom_site_symmetry_multiplicity
 _atom_site_fract_x
 _atom_site_fract_y
 _atom_site_fract_z
 _atom_site_occupancy
  C  C0  1  0.38339100  0.12082900  0.12659600  1
  C  C1  1  0.88336500  0.62083900  0.12660400  1
  C  C2  1  0.11664200  0.37915900  0.87339600  1
  C  C3  1  0.61661200  0.87917100  0.87340400  1
  C  C4  1  0.37528300  0.13383000  0.63089900  1
  C  C5  1  0.87524300  0.63384700  0.63090100  1
  C  C6  1  0.12476200  0.36614800  0.36909800  1
  C  C7  1  0.62472100  0.86616800  0.36909800  1
  C  C8  1  0.86796500  0.12863600  0.37596900  1
  C  C9  1  0.36798000  0.62865400  0.37600800  1
  C  C10  1  0.63201500  0.37134500  0.62399200  1
  C  C11  1  0.13203000  0.87136500  0.62402700  1
  C  C12  1  0.38926400  0.63509300  0.88074700  1
  C  C13  1  0.61073900  0.36489900  0.11925500  1
  C  C14  1  0.88931900  0.13513300  0.88073100  1
  C  C15  1  0.11068000  0.86487100  0.11927500  1
  Ni  Ni16  1  0.72709600  0.49978300  0.89793200  1
  Ni  Ni17  1  0.22707400  0.99977700  0.89794200  1
  Ni  Ni18  1  0.77292100  0.00022500  0.10205800  1
  Ni  Ni19  1  0.27290200  0.50021900  0.10206800  1
  Ni  Ni20  1  0.52588400  0.24752800  0.88613800  1
  Ni  Ni21  1  0.02582400  0.74750200  0.88613400  1
  Ni  Ni22  1  0.97417200  0.25250100  0.11386700  1
  Ni  Ni23  1  0.47411100  0.75247700  0.11386800  1
  Ni  Ni24  1  0.50278500  0.26490000  0.35982800  1
  Ni  Ni25  1  0.00275400  0.76488600  0.35986300  1
  Ni  Ni26  1  0.99725200  0.23511400  0.64013000  1
  Ni  Ni27  1  0.49721600  0.73510000  0.64017300  1
  Cu  Cu28  1  0.74466100  0.00596700  0.62824300  1
  Cu  Cu29  1  0.24466500  0.50595300  0.62823600  1
  Cu  Cu30  1  0.75533600  0.49404600  0.37176900  1
  Cu  Cu31  1  0.25533700  0.99403400  0.37175300  1
