# generated using pymatgen
data_Cu2Ni3C23
_symmetry_space_group_name_H-M   'P 1'
_cell_length_a   6.00945302
_cell_length_b   6.00945302
_cell_length_c   9.90764229
_cell_angle_alpha   86.91227191
_cell_angle_beta   86.91227191
_cell_angle_gamma   58.97907263
_symmetry_Int_Tables_number   1
_chemical_formula_structural   Cu2Ni3C23
_chemical_formula_sum   'Cu2 Ni3 C23'
_cell_volume   306.03937941
_cell_formula_units_Z   1
loop_
 _symmetry_equiv_pos_site_id
 _symmetry_equiv_pos_as_xyz
  1  'x, y, z'
loop_
 _atom_site_type_symbol
 _atom_site_label
 _atom_site_symmetry_multiplicity
 _atom_site_fract_x
 _atom_site_fract_y
 _atom_site_fract_z
 _atom_site_occupancy
  C  C0  1  0.66370600  0.66370600  0.91241900  1
  C  C1  1  0.00077000  0.00077000  0.98512100  1
  C  C2  1  0.00243200  0.00243200  0.48174700  1
  C  C3  1  0.34482800  0.34482800  0.41193200  1
  Ni  Ni4  1  0.83100200  0.83100200  0.21591700  1
  Ni  Ni5  1  0.65780800  0.16608100  0.71561900  1
  Ni  Ni6  1  0.16608100  0.65780800  0.71561900  1
  C  C7  1  0.83114300  0.34074800  0.21176500  1
  C  C8  1  0.34074800  0.83114300  0.21176500  1
  C  C9  1  0.16821800  0.16821800  0.70792600  1
  Cu  Cu10  1  0.67758500  0.67758500  0.48788400  1
  Cu  Cu11  1  0.32715100  0.32715100  0.98541800  1
  C  C12  1  0.81639100  0.34060700  0.58107200  1
  C  C13  1  0.53287300  0.53287300  0.34613200  1
  C  C14  1  0.66696800  0.66696800  0.11910500  1
  C  C15  1  0.00284200  0.00284200  0.29306300  1
  C  C16  1  0.00142500  0.00142500  0.79658700  1
  C  C17  1  0.34060700  0.81639100  0.58107200  1
  C  C18  1  0.97766800  0.54186100  0.36310100  1
  C  C19  1  0.54186100  0.97766800  0.36310100  1
  C  C20  1  0.16013800  0.16013800  0.08798800  1
  C  C21  1  0.82487900  0.82487900  0.60244800  1
  C  C22  1  0.48520500  0.03499800  0.85439400  1
  C  C23  1  0.03499800  0.48520500  0.85439400  1
  C  C24  1  0.33352700  0.33352700  0.61381200  1
  C  C25  1  0.64249400  0.15125500  0.08186500  1
  C  C26  1  0.47838900  0.47838900  0.84444500  1
  C  C27  1  0.15125500  0.64249400  0.08186500  1
