# generated using pymatgen
data_CuNi5C16
_symmetry_space_group_name_H-M   'P 1'
_cell_length_a   4.92101639
_cell_length_b   4.92101639
_cell_length_c   9.92282370
_cell_angle_alpha   89.53499245
_cell_angle_beta   89.53499245
_cell_angle_gamma   119.83365679
_symmetry_Int_Tables_number   1
_chemical_formula_structural   CuNi5C16
_chemical_formula_sum   'Cu1 Ni5 C16'
_cell_volume   208.42226852
_cell_formula_units_Z   1
loop_
 _symmetry_equiv_pos_site_id
 _symmetry_equiv_pos_as_xyz
  1  'x, y, z'
loop_
 _atom_site_type_symbol
 _atom_site_label
 _atom_site_symmetry_multiplicity
 _atom_site_fract_x
 _atom_site_fract_y
 _atom_site_fract_z
 _atom_site_occupancy
  C  C0  1  0.33876500  0.83072900  0.74846100  1
  C  C1  1  0.16927100  0.66123500  0.25153900  1
  C  C2  1  0.83072900  0.33876500  0.74846100  1
  C  C3  1  0.66123500  0.16927100  0.25153900  1
  Ni  Ni4  1  0.16498300  0.83501700  0.50000000  1
  Ni  Ni5  1  0.66436000  0.33564000  0.00000000  1
  Ni  Ni6  1  0.33564000  0.66436000  0.00000000  1
  Ni  Ni7  1  0.83501700  0.16498300  0.50000000  1
  Ni  Ni8  1  0.50000000  0.50000000  0.50000000  1
  Cu  Cu9  1  0.00000000  0.00000000  0.00000000  1
  C  C10  1  0.33924900  0.99106900  0.10504600  1
  C  C11  1  0.00893100  0.66075100  0.89495400  1
  C  C12  1  0.49619400  0.83176900  0.39871500  1
  C  C13  1  0.83176900  0.49619400  0.39871500  1
  C  C14  1  0.16823100  0.50380600  0.60128500  1
  C  C15  1  0.82020800  0.82020800  0.59771500  1
  C  C16  1  0.50380600  0.16823100  0.60128500  1
  C  C17  1  0.99106900  0.33924900  0.10504600  1
  C  C18  1  0.66583400  0.66583400  0.09759200  1
  C  C19  1  0.66075100  0.00893100  0.89495400  1
  C  C20  1  0.33416600  0.33416600  0.90240800  1
  C  C21  1  0.17979200  0.17979200  0.40228500  1
