# generated using pymatgen
data_Cu(NiC)2
_symmetry_space_group_name_H-M   'P 1'
_cell_length_a   5.77338129
_cell_length_b   5.77338129
_cell_length_c   8.04646200
_cell_angle_alpha   90.00000000
_cell_angle_beta   90.00000000
_cell_angle_gamma   90.51079960
_symmetry_Int_Tables_number   1
_chemical_formula_structural   Cu(NiC)2
_chemical_formula_sum   'Cu4 Ni8 C8'
_cell_volume   268.19346176
_cell_formula_units_Z   4
loop_
 _symmetry_equiv_pos_site_id
 _symmetry_equiv_pos_as_xyz
  1  'x, y, z'
loop_
 _atom_site_type_symbol
 _atom_site_label
 _atom_site_symmetry_multiplicity
 _atom_site_fract_x
 _atom_site_fract_y
 _atom_site_fract_z
 _atom_site_occupancy
  C  C0  1  0.00000000  0.00000000  0.00000000  1
  C  C1  1  0.00000000  0.00000000  0.50000000  1
  C  C2  1  0.68283000  0.31717000  0.25000000  1
  C  C3  1  0.31717000  0.68283000  0.75000000  1
  Ni  Ni4  1  0.60058500  0.20983500  0.94126600  1
  Ni  Ni5  1  0.20983500  0.60058500  0.05873400  1
  Ni  Ni6  1  0.20983500  0.60058500  0.44126600  1
  Ni  Ni7  1  0.60058500  0.20983500  0.55873400  1
  Ni  Ni8  1  0.79016500  0.39941500  0.55873400  1
  Ni  Ni9  1  0.39941500  0.79016500  0.05873400  1
  Ni  Ni10  1  0.79016500  0.39941500  0.94126600  1
  Ni  Ni11  1  0.39941500  0.79016500  0.44126600  1
  Cu  Cu12  1  0.21969300  0.27725100  0.25000000  1
  Cu  Cu13  1  0.27725100  0.21969300  0.75000000  1
  Cu  Cu14  1  0.72274900  0.78030700  0.25000000  1
  Cu  Cu15  1  0.78030700  0.72274900  0.75000000  1
  C  C16  1  0.74465000  0.25535000  0.00033900  1
  C  C17  1  0.74465000  0.25535000  0.49966100  1
  C  C18  1  0.25535000  0.74465000  0.50033900  1
  C  C19  1  0.25535000  0.74465000  0.99966100  1
