# generated using pymatgen
data_Cu11(NiC4)2
_symmetry_space_group_name_H-M   'P 1'
_cell_length_a   7.80399505
_cell_length_b   7.80399505
_cell_length_c   9.33634307
_cell_angle_alpha   80.96641373
_cell_angle_beta   80.96641373
_cell_angle_gamma   28.58745220
_symmetry_Int_Tables_number   1
_chemical_formula_structural   Cu11(NiC4)2
_chemical_formula_sum   'Cu11 Ni2 C8'
_cell_volume   268.48206038
_cell_formula_units_Z   1
loop_
 _symmetry_equiv_pos_site_id
 _symmetry_equiv_pos_as_xyz
  1  'x, y, z'
loop_
 _atom_site_type_symbol
 _atom_site_label
 _atom_site_symmetry_multiplicity
 _atom_site_fract_x
 _atom_site_fract_y
 _atom_site_fract_z
 _atom_site_occupancy
  C  C0  1  0.53926200  0.53926200  0.22291100  1
  C  C1  1  0.44416500  0.44416500  0.75761800  1
  C  C2  1  0.11945900  0.11945900  0.90059200  1
  C  C3  1  0.16292700  0.16292700  0.57261600  1
  C  C4  1  0.22875300  0.22875300  0.23559500  1
  C  C5  1  0.76015700  0.76015700  0.76845500  1
  C  C6  1  0.83121300  0.83121300  0.43383100  1
  C  C7  1  0.87457500  0.87457500  0.07747900  1
  Ni  Ni8  1  0.22955100  0.22955100  0.75191800  1
  Ni  Ni9  1  0.83743000  0.83743000  0.90205100  1
  Cu  Cu10  1  0.05945300  0.05945300  0.70898000  1
  Cu  Cu11  1  0.12479200  0.12479200  0.38252900  1
  Cu  Cu12  1  0.15984600  0.15984600  0.09351000  1
  Cu  Cu13  1  0.63101400  0.63101400  0.89636400  1
  Cu  Cu14  1  0.69270200  0.69270200  0.56542400  1
  Cu  Cu15  1  0.75649300  0.75649300  0.24233800  1
  Cu  Cu16  1  0.29567800  0.29567800  0.42751900  1
  Cu  Cu17  1  0.35780100  0.35780100  0.12170900  1
  Cu  Cu18  1  0.86878500  0.86878500  0.61137000  1
  Cu  Cu19  1  0.93287100  0.93287100  0.30600600  1
  Cu  Cu20  1  0.99779800  0.99779800  0.00934500  1
