# generated using pymatgen
data_Cu8Ni4C21
_symmetry_space_group_name_H-M   'P 1'
_cell_length_a   10.41039014
_cell_length_b   10.41039014
_cell_length_c   9.19743386
_cell_angle_alpha   72.90487073
_cell_angle_beta   72.90487073
_cell_angle_gamma   45.56249250
_symmetry_Int_Tables_number   1
_chemical_formula_structural   Cu8Ni4C21
_chemical_formula_sum   'Cu16 Ni8 C42'
_cell_volume   674.57418020
_cell_formula_units_Z   2
loop_
 _symmetry_equiv_pos_site_id
 _symmetry_equiv_pos_as_xyz
  1  'x, y, z'
loop_
 _atom_site_type_symbol
 _atom_site_label
 _atom_site_symmetry_multiplicity
 _atom_site_fract_x
 _atom_site_fract_y
 _atom_site_fract_z
 _atom_site_occupancy
  C  C0  1  0.53913100  0.46086900  0.25000000  1
  C  C1  1  0.46086900  0.53913100  0.75000000  1
  C  C2  1  0.20351600  0.42645700  0.43203900  1
  C  C3  1  0.42645700  0.20351600  0.93203900  1
  C  C4  1  0.00000000  0.50000000  0.00000000  1
  C  C5  1  0.57354300  0.79648400  0.06796100  1
  C  C6  1  0.50000000  0.00000000  0.50000000  1
  C  C7  1  0.79648400  0.57354300  0.56796100  1
  Ni  Ni8  1  0.21432600  0.58500800  0.08630700  1
  Ni  Ni9  1  0.84777200  0.75290700  0.24202600  1
  Ni  Ni10  1  0.58500800  0.21432600  0.58630700  1
  Ni  Ni11  1  0.75290700  0.84777200  0.74202600  1
  Ni  Ni12  1  0.24709300  0.15222800  0.25797400  1
  Ni  Ni13  1  0.41499200  0.78567400  0.41369300  1
  Ni  Ni14  1  0.15222800  0.24709300  0.75797400  1
  Ni  Ni15  1  0.78567400  0.41499200  0.91369300  1
  Cu  Cu16  1  0.88632400  0.10646100  0.34338500  1
  Cu  Cu17  1  0.99396500  0.91324300  0.27542800  1
  Cu  Cu18  1  0.10646100  0.88632400  0.84338500  1
  Cu  Cu19  1  0.64690400  0.22542100  0.00679500  1
  Cu  Cu20  1  0.91324300  0.99396500  0.77542800  1
  Cu  Cu21  1  0.63916900  0.08247100  0.12226900  1
  Cu  Cu22  1  0.22542100  0.64690400  0.50679500  1
  Cu  Cu23  1  0.08247100  0.63916900  0.62226900  1
  Cu  Cu24  1  0.91752900  0.36083100  0.37773100  1
  Cu  Cu25  1  0.77457900  0.35309600  0.49320500  1
  Cu  Cu26  1  0.36083100  0.91752900  0.87773100  1
  Cu  Cu27  1  0.08675700  0.00603500  0.22457200  1
  Cu  Cu28  1  0.35309600  0.77457900  0.99320500  1
  Cu  Cu29  1  0.89353900  0.11367600  0.15661500  1
  Cu  Cu30  1  0.00603500  0.08675700  0.72457200  1
  Cu  Cu31  1  0.11367600  0.89353900  0.65661500  1
  C  C32  1  0.96750800  0.03249200  0.25000000  1
  C  C33  1  0.03249200  0.96750800  0.75000000  1
  C  C34  1  0.67398900  0.27748600  0.46657800  1
  C  C35  1  0.27748600  0.67398900  0.96657800  1
  C  C36  1  0.30964300  0.49003700  0.22963500  1
  C  C37  1  0.00162600  0.75934600  0.13965700  1
  C  C38  1  0.63187600  0.13993200  0.01311300  1
  C  C39  1  0.69541800  0.93947300  0.29474900  1
  C  C40  1  0.49003700  0.30964300  0.72963500  1
  C  C41  1  0.21570000  0.46442900  0.01969800  1
  C  C42  1  0.94253300  0.59723900  0.37169100  1
  C  C43  1  0.75934600  0.00162600  0.63965700  1
  C  C44  1  0.13993200  0.63187600  0.51311300  1
  C  C45  1  0.29021800  0.19977500  0.36824600  1
  C  C46  1  0.93947300  0.69541800  0.79474900  1
  C  C47  1  0.80022500  0.70978200  0.13175400  1
  C  C48  1  0.46442900  0.21570000  0.51969800  1
  C  C49  1  0.59723900  0.94253300  0.87169100  1
  C  C50  1  0.40276100  0.05746700  0.12830900  1
  C  C51  1  0.53557100  0.78430000  0.48030200  1
  C  C52  1  0.19977500  0.29021800  0.86824600  1
  C  C53  1  0.06052700  0.30458200  0.20525100  1
  C  C54  1  0.70978200  0.80022500  0.63175400  1
  C  C55  1  0.86006800  0.36812400  0.48688700  1
  C  C56  1  0.24065400  0.99837400  0.36034300  1
  C  C57  1  0.05746700  0.40276100  0.62830900  1
  C  C58  1  0.78430000  0.53557100  0.98030200  1
  C  C59  1  0.50996300  0.69035700  0.27036500  1
  C  C60  1  0.30458200  0.06052700  0.70525100  1
  C  C61  1  0.36812400  0.86006800  0.98688700  1
  C  C62  1  0.99837400  0.24065400  0.86034300  1
  C  C63  1  0.69035700  0.50996300  0.77036500  1
  C  C64  1  0.72251400  0.32601100  0.03342200  1
  C  C65  1  0.32601100  0.72251400  0.53342200  1
