# generated using pymatgen
data_Cu2NiC6
_symmetry_space_group_name_H-M   'P 1'
_cell_length_a   7.29812600
_cell_length_b   8.09377100
_cell_length_c   27.05966300
_cell_angle_alpha   90.00000000
_cell_angle_beta   90.00000000
_cell_angle_gamma   90.00000000
_symmetry_Int_Tables_number   1
_chemical_formula_structural   Cu2NiC6
_chemical_formula_sum   'Cu8 Ni4 C24'
_cell_volume   1598.39699073
_cell_formula_units_Z   4
loop_
 _symmetry_equiv_pos_site_id
 _symmetry_equiv_pos_as_xyz
  1  'x, y, z'
loop_
 _atom_site_type_symbol
 _atom_site_label
 _atom_site_symmetry_multiplicity
 _atom_site_fract_x
 _atom_site_fract_y
 _atom_site_fract_z
 _atom_site_occupancy
  Ni  Ni0  1  0.00000000  0.25000000  0.37893000  1
  Ni  Ni1  1  0.00000000  0.75000000  0.62107000  1
  Ni  Ni2  1  0.50000000  0.25000000  0.87893000  1
  Ni  Ni3  1  0.50000000  0.75000000  0.12107000  1
  Cu  Cu4  1  0.00000000  0.25000000  0.04571700  1
  Cu  Cu5  1  0.00000000  0.75000000  0.28673700  1
  Cu  Cu6  1  0.00000000  0.25000000  0.71326300  1
  Cu  Cu7  1  0.00000000  0.75000000  0.95428300  1
  Cu  Cu8  1  0.50000000  0.25000000  0.21326300  1
  Cu  Cu9  1  0.50000000  0.75000000  0.78673700  1
  Cu  Cu10  1  0.50000000  0.25000000  0.54571700  1
  Cu  Cu11  1  0.50000000  0.75000000  0.45428300  1
  C  C12  1  0.23716400  0.57242500  0.03657700  1
  C  C13  1  0.23716400  0.07242500  0.96342300  1
  C  C14  1  0.24959900  0.56793400  0.20730200  1
  C  C15  1  0.24959900  0.06793400  0.79269800  1
  C  C16  1  0.24166200  0.59195200  0.37194600  1
  C  C17  1  0.24166200  0.09195200  0.62805400  1
  C  C18  1  0.25833800  0.09195200  0.12805400  1
  C  C19  1  0.25833800  0.59195200  0.87194600  1
  C  C20  1  0.25040100  0.06793400  0.29269800  1
  C  C21  1  0.25040100  0.56793400  0.70730200  1
  C  C22  1  0.26283600  0.07242500  0.46342300  1
  C  C23  1  0.26283600  0.57242500  0.53657700  1
  C  C24  1  0.73716400  0.92757500  0.53657700  1
  C  C25  1  0.73716400  0.42757500  0.46342300  1
  C  C26  1  0.74959900  0.43206600  0.29269800  1
  C  C27  1  0.74959900  0.93206600  0.70730200  1
  C  C28  1  0.74166200  0.90804800  0.87194600  1
  C  C29  1  0.74166200  0.40804800  0.12805400  1
  C  C30  1  0.75833800  0.90804800  0.37194600  1
  C  C31  1  0.75833800  0.40804800  0.62805400  1
  C  C32  1  0.75040100  0.93206600  0.20730200  1
  C  C33  1  0.75040100  0.43206600  0.79269800  1
  C  C34  1  0.76283600  0.92757500  0.03657700  1
  C  C35  1  0.76283600  0.42757500  0.96342300  1
