# generated using pymatgen
data_Cu8(Ni4C9)3
_symmetry_space_group_name_H-M   'P 1'
_cell_length_a   6.27509900
_cell_length_b   8.99771971
_cell_length_c   9.40801126
_cell_angle_alpha   110.61197241
_cell_angle_beta   103.36232772
_cell_angle_gamma   106.90465301
_symmetry_Int_Tables_number   1
_chemical_formula_structural   Cu8(Ni4C9)3
_chemical_formula_sum   'Cu8 Ni12 C27'
_cell_volume   441.49334522
_cell_formula_units_Z   1
loop_
 _symmetry_equiv_pos_site_id
 _symmetry_equiv_pos_as_xyz
  1  'x, y, z'
loop_
 _atom_site_type_symbol
 _atom_site_label
 _atom_site_symmetry_multiplicity
 _atom_site_fract_x
 _atom_site_fract_y
 _atom_site_fract_z
 _atom_site_occupancy
  C  C0  1  0.00000000  0.00000000  0.00000000  1
  C  C1  1  0.85021400  0.30379200  0.62180900  1
  C  C2  1  0.14978600  0.69620800  0.37819100  1
  C  C3  1  0.80339300  0.63728100  0.82513000  1
  C  C4  1  0.19660700  0.36271900  0.17487000  1
  C  C5  1  0.89690400  0.67854800  0.01290700  1
  C  C6  1  0.10309600  0.32145200  0.98709300  1
  C  C7  1  0.55075600  0.91362400  0.77438800  1
  C  C8  1  0.44924400  0.08637600  0.22561200  1
  C  C9  1  0.61363900  0.08990900  0.93004000  1
  C  C10  1  0.38636100  0.91009100  0.06996000  1
  C  C11  1  0.21535100  0.44235800  0.52396400  1
  C  C12  1  0.78464900  0.55764200  0.47603600  1
  C  C13  1  0.32208100  0.36027600  0.63350200  1
  C  C14  1  0.67791900  0.63972400  0.36649800  1
  C  C15  1  0.88252600  0.12260600  0.29050300  1
  C  C16  1  0.11747400  0.87739400  0.70949700  1
  C  C17  1  0.02562900  0.00300000  0.29995300  1
  C  C18  1  0.97437100  0.99700000  0.70004700  1
  C  C19  1  0.35598800  0.11085100  0.57306200  1
  C  C20  1  0.64401200  0.88914900  0.42693800  1
  C  C21  1  0.51098800  0.23838200  0.76520400  1
  C  C22  1  0.48901200  0.76161800  0.23479600  1
  C  C23  1  0.46404000  0.29923600  0.01927100  1
  C  C24  1  0.53596000  0.70076400  0.98072900  1
  C  C25  1  0.73575700  0.38924300  0.04271300  1
  C  C26  1  0.26424300  0.61075700  0.95728700  1
  Ni  Ni27  1  0.81709400  0.71546800  0.93606100  1
  Ni  Ni28  1  0.18290600  0.28453200  0.06393900  1
  Ni  Ni29  1  0.65697500  0.98906800  0.89038000  1
  Ni  Ni30  1  0.34302500  0.01093200  0.10962000  1
  Ni  Ni31  1  0.21068500  0.41678300  0.61751000  1
  Ni  Ni32  1  0.78931500  0.58321700  0.38249000  1
  Ni  Ni33  1  0.96607300  0.05771900  0.23471300  1
  Ni  Ni34  1  0.03392700  0.94228100  0.76528700  1
  Ni  Ni35  1  0.48191400  0.22833600  0.65248100  1
  Ni  Ni36  1  0.51808600  0.77166400  0.34751900  1
  Ni  Ni37  1  0.58504900  0.28515100  0.97049500  1
  Ni  Ni38  1  0.41495100  0.71484900  0.02950500  1
  Cu  Cu39  1  0.81772300  0.51475200  0.64782100  1
  Cu  Cu40  1  0.18227700  0.48524800  0.35217900  1
  Cu  Cu41  1  0.00151900  0.39369000  0.85063700  1
  Cu  Cu42  1  0.99848100  0.60631000  0.14936300  1
  Cu  Cu43  1  0.85737400  0.08388600  0.59068100  1
  Cu  Cu44  1  0.14262600  0.91611400  0.40931900  1
  Cu  Cu45  1  0.70413300  0.20795600  0.39266200  1
  Cu  Cu46  1  0.29586700  0.79204400  0.60733800  1
