# generated using pymatgen
data_Cu11(NiC5)4
_symmetry_space_group_name_H-M   'P 1'
_cell_length_a   14.28005600
_cell_length_b   7.39224700
_cell_length_c   14.13269412
_cell_angle_alpha   62.41706762
_cell_angle_beta   90.00000000
_cell_angle_gamma   90.00000000
_symmetry_Int_Tables_number   1
_chemical_formula_structural   Cu11(NiC5)4
_chemical_formula_sum   'Cu44 Ni16 C80'
_cell_volume   1322.30745961
_cell_formula_units_Z   4
loop_
 _symmetry_equiv_pos_site_id
 _symmetry_equiv_pos_as_xyz
  1  'x, y, z'
loop_
 _atom_site_type_symbol
 _atom_site_label
 _atom_site_symmetry_multiplicity
 _atom_site_fract_x
 _atom_site_fract_y
 _atom_site_fract_z
 _atom_site_occupancy
  C  C0  1  0.10377300  0.53302700  0.71216600  1
  C  C1  1  0.39622700  0.53302700  0.21216600  1
  C  C2  1  0.89622700  0.46697300  0.28783400  1
  C  C3  1  0.60377300  0.46697300  0.78783400  1
  C  C4  1  0.17536400  0.65004400  0.46014700  1
  C  C5  1  0.32463600  0.65004400  0.96014700  1
  C  C6  1  0.82463600  0.34995600  0.53985300  1
  C  C7  1  0.67536400  0.34995600  0.03985300  1
  C  C8  1  0.34136000  0.81561100  0.52580800  1
  C  C9  1  0.15864000  0.81561100  0.02580800  1
  C  C10  1  0.65864000  0.18438900  0.47419200  1
  C  C11  1  0.84136000  0.18438900  0.97419200  1
  C  C12  1  0.20915700  0.97906200  0.62810800  1
  C  C13  1  0.29084300  0.97906200  0.12810800  1
  C  C14  1  0.79084300  0.02093800  0.37189200  1
  C  C15  1  0.70915700  0.02093800  0.87189200  1
  C  C16  1  0.13754000  0.48551100  0.90391500  1
  C  C17  1  0.36246000  0.48551100  0.40391500  1
  C  C18  1  0.86246000  0.51448900  0.09608500  1
  C  C19  1  0.63754000  0.51448900  0.59608500  1
  C  C20  1  0.02300600  0.51024300  0.88549000  1
  C  C21  1  0.47699400  0.51024300  0.38549000  1
  C  C22  1  0.97699400  0.48975700  0.11451000  1
  C  C23  1  0.52300600  0.48975700  0.61451000  1
  C  C24  1  0.07355400  0.28735000  0.91661800  1
  C  C25  1  0.42644600  0.28735000  0.41661800  1
  C  C26  1  0.92644600  0.71265000  0.08338200  1
  C  C27  1  0.57355400  0.71265000  0.58338200  1
  C  C28  1  0.22828500  0.28834600  0.83186000  1
  C  C29  1  0.27171500  0.28834600  0.33186000  1
  C  C30  1  0.77171500  0.71165400  0.16814000  1
  C  C31  1  0.72828500  0.71165400  0.66814000  1
  C  C32  1  0.23381400  0.28510700  0.71582500  1
  C  C33  1  0.26618600  0.28510700  0.21582500  1
  C  C34  1  0.76618600  0.71489300  0.28417500  1
  C  C35  1  0.73381400  0.71489300  0.78417500  1
  C  C36  1  0.27594600  0.48577600  0.72706900  1
  C  C37  1  0.22405400  0.48577600  0.22706900  1
  C  C38  1  0.72405400  0.51422400  0.27293100  1
  C  C39  1  0.77594600  0.51422400  0.77293100  1
  C  C40  1  0.02476300  0.27540800  0.66061200  1
  C  C41  1  0.47523700  0.27540800  0.16061200  1
  C  C42  1  0.97523700  0.72459200  0.33938800  1
  C  C43  1  0.52476300  0.72459200  0.83938800  1
  C  C44  1  0.06143600  0.14889500  0.78664800  1
  C  C45  1  0.43856400  0.14889500  0.28664800  1
  C  C46  1  0.93856400  0.85110500  0.21335200  1
  C  C47  1  0.56143600  0.85110500  0.71335200  1
  C  C48  1  0.96453700  0.28371000  0.76071200  1
  C  C49  1  0.53546300  0.28371000  0.26071200  1
  C  C50  1  0.03546300  0.71629000  0.23928800  1
  C  C51  1  0.46453700  0.71629000  0.73928800  1
  C  C52  1  0.93311900  0.61987600  0.66148000  1
  C  C53  1  0.56688100  0.61987600  0.16148000  1
  C  C54  1  0.06688100  0.38012400  0.33852000  1
  C  C55  1  0.43311900  0.38012400  0.83852000  1
  C  C56  1  0.97071500  0.74073100  0.73056600  1
  C  C57  1  0.52928500  0.74073100  0.23056600  1
  C  C58  1  0.02928500  0.25926900  0.26943400  1
  C  C59  1  0.47071500  0.25926900  0.76943400  1
  C  C60  1  0.00027100  0.82437700  0.60237000  1
  C  C61  1  0.49972900  0.82437700  0.10237000  1
  C  C62  1  0.99972900  0.17562300  0.39763000  1
  C  C63  1  0.50027100  0.17562300  0.89763000  1
  C  C64  1  0.00088200  0.16806800  0.10892700  1
  C  C65  1  0.49911800  0.16806800  0.60892700  1
  C  C66  1  0.99911800  0.83193200  0.89107300  1
  C  C67  1  0.50088200  0.83193200  0.39107300  1
  C  C68  1  0.10729800  0.17568500  0.14093900  1
  C  C69  1  0.39270200  0.17568500  0.64093900  1
  C  C70  1  0.89270200  0.82431500  0.85906100  1
  C  C71  1  0.60729800  0.82431500  0.35906100  1
  C  C72  1  0.18289700  0.92289800  0.29500800  1
  C  C73  1  0.31710300  0.92289800  0.79500800  1
  C  C74  1  0.81710300  0.07710200  0.70499200  1
  C  C75  1  0.68289700  0.07710200  0.20499200  1
  C  C76  1  0.14242900  0.26958700  0.51495100  1
  C  C77  1  0.35757100  0.26958700  0.01495100  1
  C  C78  1  0.85757100  0.73041300  0.48504900  1
  C  C79  1  0.64242900  0.73041300  0.98504900  1
  Ni  Ni80  1  0.08167800  0.44215400  0.87385700  1
  Ni  Ni81  1  0.41832200  0.44215400  0.37385700  1
  Ni  Ni82  1  0.91832200  0.55784600  0.12614300  1
  Ni  Ni83  1  0.58167800  0.55784600  0.62614300  1
  Ni  Ni84  1  0.22274100  0.37848800  0.75110600  1
  Ni  Ni85  1  0.27725900  0.37848800  0.25110600  1
  Ni  Ni86  1  0.77725900  0.62151200  0.24889400  1
  Ni  Ni87  1  0.72274100  0.62151200  0.74889400  1
  Ni  Ni88  1  0.03021800  0.28090600  0.73123800  1
  Ni  Ni89  1  0.46978200  0.28090600  0.23123800  1
  Ni  Ni90  1  0.96978200  0.71909400  0.26876200  1
  Ni  Ni91  1  0.53021800  0.71909400  0.76876200  1
  Ni  Ni92  1  0.98813300  0.69667700  0.67306500  1
  Ni  Ni93  1  0.51186700  0.69667700  0.17306500  1
  Ni  Ni94  1  0.01186700  0.30332300  0.32693500  1
  Ni  Ni95  1  0.48813300  0.30332300  0.82693500  1
  Cu  Cu96  1  0.11488500  0.62285900  0.55397100  1
  Cu  Cu97  1  0.38511500  0.62285900  0.05397100  1
  Cu  Cu98  1  0.88511500  0.37714100  0.44602900  1
  Cu  Cu99  1  0.61488500  0.37714100  0.94602900  1
  Cu  Cu100  1  0.14715100  0.86282000  0.36517300  1
  Cu  Cu101  1  0.35284900  0.86282000  0.86517300  1
  Cu  Cu102  1  0.85284900  0.13718000  0.63482700  1
  Cu  Cu103  1  0.64715100  0.13718000  0.13482700  1
  Cu  Cu104  1  0.17137700  0.47804000  0.43014700  1
  Cu  Cu105  1  0.32862300  0.47804000  0.93014700  1
  Cu  Cu106  1  0.82862300  0.52196000  0.56985300  1
  Cu  Cu107  1  0.67137700  0.52196000  0.06985300  1
  Cu  Cu108  1  0.28429000  0.66958000  0.48681000  1
  Cu  Cu109  1  0.21571000  0.66958000  0.98681000  1
  Cu  Cu110  1  0.71571000  0.33042000  0.51319000  1
  Cu  Cu111  1  0.78429000  0.33042000  0.01319000  1
  Cu  Cu112  1  0.40700300  0.94430900  0.43667000  1
  Cu  Cu113  1  0.09299700  0.94430900  0.93667000  1
  Cu  Cu114  1  0.59299700  0.05569100  0.56333000  1
  Cu  Cu115  1  0.90700300  0.05569100  0.06333000  1
  Cu  Cu116  1  0.37553700  0.68404100  0.63690400  1
  Cu  Cu117  1  0.12446300  0.68404100  0.13690400  1
  Cu  Cu118  1  0.62446300  0.31595900  0.36309600  1
  Cu  Cu119  1  0.87553700  0.31595900  0.86309600  1
  Cu  Cu120  1  0.26028500  0.97133200  0.52703600  1
  Cu  Cu121  1  0.23971500  0.97133200  0.02703600  1
  Cu  Cu122  1  0.73971500  0.02866800  0.47296400  1
  Cu  Cu123  1  0.76028500  0.02866800  0.97296400  1
  Cu  Cu124  1  0.12329600  0.12229100  0.57117900  1
  Cu  Cu125  1  0.37670400  0.12229100  0.07117900  1
  Cu  Cu126  1  0.87670400  0.87770900  0.42882100  1
  Cu  Cu127  1  0.62329600  0.87770900  0.92882100  1
  Cu  Cu128  1  0.27524000  0.07327000  0.67748400  1
  Cu  Cu129  1  0.22476000  0.07327000  0.17748400  1
  Cu  Cu130  1  0.72476000  0.92673000  0.32251600  1
  Cu  Cu131  1  0.77524000  0.92673000  0.82251600  1
  Cu  Cu132  1  0.17393800  0.77012000  0.70700300  1
  Cu  Cu133  1  0.32606200  0.77012000  0.20700300  1
  Cu  Cu134  1  0.82606200  0.22988000  0.29299700  1
  Cu  Cu135  1  0.67393800  0.22988000  0.79299700  1
  Cu  Cu136  1  0.04477800  0.23622700  0.13633800  1
  Cu  Cu137  1  0.45522200  0.23622700  0.63633800  1
  Cu  Cu138  1  0.95522200  0.76377300  0.86366200  1
  Cu  Cu139  1  0.54477800  0.76377300  0.36366200  1
