# generated using pymatgen
data_CuNiC18
_symmetry_space_group_name_H-M   'P 1'
_cell_length_a   12.82600400
_cell_length_b   7.91373000
_cell_length_c   20.56169229
_cell_angle_alpha   89.31317906
_cell_angle_beta   90.00000000
_cell_angle_gamma   90.00000000
_symmetry_Int_Tables_number   1
_chemical_formula_structural   CuNiC18
_chemical_formula_sum   'Cu8 Ni8 C144'
_cell_volume   2086.89333380
_cell_formula_units_Z   8
loop_
 _symmetry_equiv_pos_site_id
 _symmetry_equiv_pos_as_xyz
  1  'x, y, z'
loop_
 _atom_site_type_symbol
 _atom_site_label
 _atom_site_symmetry_multiplicity
 _atom_site_fract_x
 _atom_site_fract_y
 _atom_site_fract_z
 _atom_site_occupancy
  Ni  Ni0  1  0.73064000  0.98688300  0.33666100  1
  Ni  Ni1  1  0.23064000  0.01311700  0.16333900  1
  Ni  Ni2  1  0.26936000  0.01311700  0.66333900  1
  Ni  Ni3  1  0.76936000  0.98688300  0.83666100  1
  Ni  Ni4  1  0.55049700  0.73696300  0.16565400  1
  Ni  Ni5  1  0.05049700  0.26303700  0.33434600  1
  Ni  Ni6  1  0.44950300  0.26303700  0.83434600  1
  Ni  Ni7  1  0.94950300  0.73696300  0.66565400  1
  Cu  Cu8  1  0.75447100  0.50860200  0.37554900  1
  Cu  Cu9  1  0.25447100  0.49139800  0.12445100  1
  Cu  Cu10  1  0.24552900  0.49139800  0.62445100  1
  Cu  Cu11  1  0.74552900  0.50860200  0.87554900  1
  Cu  Cu12  1  0.30369200  0.00028000  0.41308900  1
  Cu  Cu13  1  0.80369200  0.99972000  0.08691100  1
  Cu  Cu14  1  0.69630800  0.99972000  0.58691100  1
  Cu  Cu15  1  0.19630800  0.00028000  0.91308900  1
  C  C16  1  0.82844100  0.68549400  0.21684500  1
  C  C17  1  0.32844100  0.31450600  0.28315500  1
  C  C18  1  0.17155900  0.31450600  0.78315500  1
  C  C19  1  0.67155900  0.68549400  0.71684500  1
  C  C20  1  0.99224400  0.66869900  0.11711500  1
  C  C21  1  0.49224400  0.33130100  0.38288500  1
  C  C22  1  0.00775600  0.33130100  0.88288500  1
  C  C23  1  0.50775600  0.66869900  0.61711500  1
  C  C24  1  0.50424900  0.70082000  0.36141900  1
  C  C25  1  0.00424900  0.29918000  0.13858100  1
  C  C26  1  0.49575100  0.29918000  0.63858100  1
  C  C27  1  0.99575100  0.70082000  0.86141900  1
  C  C28  1  0.81434000  0.31605800  0.21824200  1
  C  C29  1  0.31434000  0.68394200  0.28175800  1
  C  C30  1  0.18566000  0.68394200  0.78175800  1
  C  C31  1  0.68566000  0.31605800  0.71824200  1
  C  C32  1  0.61379500  0.83194100  0.97912100  1
  C  C33  1  0.11379500  0.16805900  0.52087900  1
  C  C34  1  0.38620500  0.16805900  0.02087900  1
  C  C35  1  0.88620500  0.83194100  0.47912100  1
  C  C36  1  0.61113900  0.21106700  0.98311100  1
  C  C37  1  0.11113900  0.78893300  0.51688900  1
  C  C38  1  0.38886100  0.78893300  0.01688900  1
  C  C39  1  0.88886100  0.21106700  0.48311100  1
  C  C40  1  0.63189700  0.08753200  0.20195300  1
  C  C41  1  0.13189700  0.91246800  0.29804700  1
  C  C42  1  0.36810300  0.91246800  0.79804700  1
  C  C43  1  0.86810300  0.08753200  0.70195300  1
  C  C44  1  0.03565800  0.86886500  0.25618200  1
  C  C45  1  0.53565800  0.13113500  0.24381800  1
  C  C46  1  0.96434200  0.13113500  0.74381800  1
  C  C47  1  0.46434200  0.86886500  0.75618200  1
  C  C48  1  0.80144800  0.41350200  0.00564500  1
  C  C49  1  0.30144800  0.58649800  0.49435500  1
  C  C50  1  0.19855200  0.58649800  0.99435500  1
  C  C51  1  0.69855200  0.41350200  0.50564500  1
  C  C52  1  0.16244700  0.39859900  0.98467300  1
  C  C53  1  0.66244700  0.60140100  0.51532700  1
  C  C54  1  0.83755300  0.60140100  0.01532700  1
  C  C55  1  0.33755300  0.39859900  0.48467300  1
  C  C56  1  0.07386400  0.04973100  0.03633000  1
  C  C57  1  0.57386400  0.95026900  0.46367000  1
  C  C58  1  0.92613600  0.95026900  0.96367000  1
  C  C59  1  0.42613600  0.04973100  0.53633000  1
  C  C60  1  0.63089000  0.12247300  0.44991600  1
  C  C61  1  0.13089000  0.87752700  0.05008400  1
  C  C62  1  0.36911000  0.87752700  0.55008400  1
  C  C63  1  0.86911000  0.12247300  0.94991600  1
  C  C64  1  0.60909500  0.35375800  0.13672600  1
  C  C65  1  0.10909500  0.64624200  0.36327400  1
  C  C66  1  0.39090500  0.64624200  0.86327400  1
  C  C67  1  0.89090500  0.35375800  0.63672600  1
  C  C68  1  0.98907700  0.62781800  0.36219300  1
  C  C69  1  0.48907700  0.37218200  0.13780700  1
  C  C70  1  0.01092300  0.37218200  0.63780700  1
  C  C71  1  0.51092300  0.62781800  0.86219300  1
  C  C72  1  0.76718100  0.81876000  0.18106700  1
  C  C73  1  0.26718100  0.18124000  0.31893300  1
  C  C74  1  0.23281900  0.18124000  0.81893300  1
  C  C75  1  0.73281900  0.81876000  0.68106700  1
  C  C76  1  0.83277100  0.68539500  0.28946900  1
  C  C77  1  0.33277100  0.31460500  0.21053100  1
  C  C78  1  0.16722900  0.31460500  0.71053100  1
  C  C79  1  0.66722900  0.68539500  0.78946900  1
  C  C80  1  0.94958600  0.68789600  0.19168400  1
  C  C81  1  0.44958600  0.31210400  0.30831600  1
  C  C82  1  0.05041400  0.31210400  0.80831600  1
  C  C83  1  0.55041400  0.68789600  0.69168400  1
  C  C84  1  0.42450500  0.23115400  0.42883200  1
  C  C85  1  0.92450500  0.76884600  0.07116800  1
  C  C86  1  0.57549500  0.76884600  0.57116800  1
  C  C87  1  0.07549500  0.23115400  0.92883200  1
  C  C88  1  0.60744800  0.29726800  0.38036700  1
  C  C89  1  0.10744800  0.70273200  0.11963300  1
  C  C90  1  0.39255200  0.70273200  0.61963300  1
  C  C91  1  0.89255200  0.29726800  0.88036700  1
  C  C92  1  0.46740300  0.52836400  0.39822600  1
  C  C93  1  0.96740300  0.47163600  0.10177400  1
  C  C94  1  0.53259700  0.47163600  0.60177400  1
  C  C95  1  0.03259700  0.52836400  0.89822600  1
  C  C96  1  0.46495200  0.84631900  0.40074300  1
  C  C97  1  0.96495200  0.15368100  0.09925700  1
  C  C98  1  0.53504800  0.15368100  0.59925700  1
  C  C99  1  0.03504800  0.84631900  0.90074300  1
  C  C100  1  0.61697800  0.69062300  0.34355100  1
  C  C101  1  0.11697800  0.30937700  0.15644900  1
  C  C102  1  0.38302200  0.30937700  0.65644900  1
  C  C103  1  0.88302200  0.69062300  0.84355100  1
  C  C104  1  0.94027800  0.30758500  0.20734000  1
  C  C105  1  0.44027800  0.69241500  0.29266000  1
  C  C106  1  0.05972200  0.69241500  0.79266000  1
  C  C107  1  0.55972200  0.30758500  0.70734000  1
  C  C108  1  0.76059800  0.19321700  0.17431500  1
  C  C109  1  0.26059800  0.80678300  0.32568500  1
  C  C110  1  0.23940200  0.80678300  0.82568500  1
  C  C111  1  0.73940200  0.19321700  0.67431500  1
  C  C112  1  0.29844900  0.69545300  0.20968500  1
  C  C113  1  0.79844900  0.30454700  0.29031500  1
  C  C114  1  0.70155100  0.30454700  0.79031500  1
  C  C115  1  0.20155100  0.69545300  0.70968500  1
  C  C116  1  0.28507600  0.49585900  0.30908500  1
  C  C117  1  0.78507600  0.50414100  0.19091500  1
  C  C118  1  0.71492400  0.50414100  0.69091500  1
  C  C119  1  0.21492400  0.49585900  0.80908500  1
  C  C120  1  0.65626600  0.83757400  0.04730400  1
  C  C121  1  0.15626600  0.16242600  0.45269600  1
  C  C122  1  0.34373400  0.16242600  0.95269600  1
  C  C123  1  0.84373400  0.83757400  0.54730400  1
  C  C124  1  0.33126100  0.25454000  0.07481400  1
  C  C125  1  0.83126100  0.74546000  0.42518600  1
  C  C126  1  0.66873900  0.74546000  0.92518600  1
  C  C127  1  0.16873900  0.25454000  0.57481400  1
  C  C128  1  0.50315700  0.24596200  0.02136400  1
  C  C129  1  0.00315700  0.75403800  0.47863600  1
  C  C130  1  0.49684300  0.75403800  0.97863600  1
  C  C131  1  0.99684300  0.24596200  0.52136400  1
  C  C132  1  0.69710600  0.21102400  0.03282200  1
  C  C133  1  0.19710600  0.78897600  0.46717800  1
  C  C134  1  0.30289400  0.78897600  0.96717800  1
  C  C135  1  0.80289400  0.21102400  0.53282200  1
  C  C136  1  0.38109100  0.67175200  0.07450300  1
  C  C137  1  0.88109100  0.32824800  0.42549700  1
  C  C138  1  0.61890900  0.32824800  0.92549700  1
  C  C139  1  0.11890900  0.67175200  0.57450300  1
  C  C140  1  0.40754600  0.97503700  0.04766300  1
  C  C141  1  0.90754600  0.02496300  0.45233700  1
  C  C142  1  0.59245400  0.02496300  0.95233700  1
  C  C143  1  0.09245400  0.97503700  0.54766300  1
  C  C144  1  0.07881400  0.96445500  0.26976200  1
  C  C145  1  0.57881400  0.03554500  0.23023800  1
  C  C146  1  0.92118600  0.03554500  0.73023800  1
  C  C147  1  0.42118600  0.96445500  0.76976200  1
  C  C148  1  0.18207500  0.48114100  0.01739100  1
  C  C149  1  0.68207500  0.51885900  0.48260900  1
  C  C150  1  0.81792500  0.51885900  0.98260900  1
  C  C151  1  0.31792500  0.48114100  0.51739100  1
  C  C152  1  0.63940100  0.01139500  0.47138600  1
  C  C153  1  0.13940100  0.98860500  0.02861400  1
  C  C154  1  0.36059900  0.98860500  0.52861400  1
  C  C155  1  0.86059900  0.01139500  0.97138600  1
  C  C156  1  0.05193400  0.59887300  0.33811500  1
  C  C157  1  0.55193400  0.40112700  0.16188500  1
  C  C158  1  0.94806600  0.40112700  0.66188500  1
  C  C159  1  0.44806600  0.59887300  0.83811500  1
