# generated using pymatgen
data_Cu2Ni3C23
_symmetry_space_group_name_H-M   'P 1'
_cell_length_a   6.09750400
_cell_length_b   6.12163080
_cell_length_c   9.67615083
_cell_angle_alpha   89.62579493
_cell_angle_beta   89.69359880
_cell_angle_gamma   60.23395994
_symmetry_Int_Tables_number   1
_chemical_formula_structural   Cu2Ni3C23
_chemical_formula_sum   'Cu2 Ni3 C23'
_cell_volume   313.51692670
_cell_formula_units_Z   1
loop_
 _symmetry_equiv_pos_site_id
 _symmetry_equiv_pos_as_xyz
  1  'x, y, z'
loop_
 _atom_site_type_symbol
 _atom_site_label
 _atom_site_symmetry_multiplicity
 _atom_site_fract_x
 _atom_site_fract_y
 _atom_site_fract_z
 _atom_site_occupancy
  C  C0  1  0.67107200  0.65345600  0.11002000  1
  C  C1  1  0.98868000  0.02240100  0.00816500  1
  C  C2  1  0.99474500  0.01454500  0.50002100  1
  C  C3  1  0.33331400  0.33195400  0.60460300  1
  Ni  Ni4  1  0.83133100  0.33716700  0.78693000  1
  Ni  Ni5  1  0.66173000  0.17020300  0.29042900  1
  Ni  Ni6  1  0.17893300  0.16272300  0.28619800  1
  Cu  Cu7  1  0.67262600  0.66155800  0.51294000  1
  Cu  Cu8  1  0.33443700  0.32808700  0.01694200  1
  C  C9  1  0.33912400  0.82897400  0.78663000  1
  C  C10  1  0.83175400  0.82918400  0.78684400  1
  C  C11  1  0.16848300  0.66052200  0.28605400  1
  C  C12  1  0.33061500  0.84449900  0.39864200  1
  C  C13  1  0.52135700  0.95903200  0.65095200  1
  C  C14  1  0.66564600  0.66706500  0.90366600  1
  C  C15  1  0.00058200  0.00001900  0.68343400  1
  C  C16  1  0.00663600  0.00643200  0.19083500  1
  C  C17  1  0.82854600  0.84417100  0.39948600  1
  C  C18  1  0.52511400  0.51442800  0.65633900  1
  C  C19  1  0.96091300  0.51544300  0.65695100  1
  C  C20  1  0.16176900  0.67516400  0.90843300  1
  C  C21  1  0.84840100  0.32595200  0.39115100  1
  C  C22  1  0.04317600  0.46752800  0.15699300  1
  C  C23  1  0.48625100  0.46760000  0.15704100  1
  C  C24  1  0.32106400  0.33044100  0.39999100  1
  C  C25  1  0.15916000  0.16984400  0.89803000  1
  C  C26  1  0.46334000  0.04315900  0.16511200  1
  C  C27  1  0.67090400  0.16844900  0.89932700  1
