# generated using pymatgen
data_Cu3NiC10
_symmetry_space_group_name_H-M   'P 1'
_cell_length_a   5.85039257
_cell_length_b   5.85039257
_cell_length_c   5.86202248
_cell_angle_alpha   60.46892470
_cell_angle_beta   60.46892470
_cell_angle_gamma   58.55365925
_symmetry_Int_Tables_number   1
_chemical_formula_structural   Cu3NiC10
_chemical_formula_sum   'Cu3 Ni1 C10'
_cell_volume   141.22362606
_cell_formula_units_Z   1
loop_
 _symmetry_equiv_pos_site_id
 _symmetry_equiv_pos_as_xyz
  1  'x, y, z'
loop_
 _atom_site_type_symbol
 _atom_site_label
 _atom_site_symmetry_multiplicity
 _atom_site_fract_x
 _atom_site_fract_y
 _atom_site_fract_z
 _atom_site_occupancy
  C  C0  1  0.50000000  0.00000000  0.50000000  1
  C  C1  1  0.00000000  0.50000000  0.50000000  1
  Ni  Ni2  1  0.00000000  0.00000000  0.00000000  1
  Cu  Cu3  1  0.50000000  0.00000000  0.00000000  1
  Cu  Cu4  1  0.00000000  0.50000000  0.00000000  1
  Cu  Cu5  1  0.50000000  0.50000000  0.00000000  1
  C  C6  1  0.72304800  0.72304800  0.79677400  1
  C  C7  1  0.25287700  0.74893500  0.78545100  1
  C  C8  1  0.74893500  0.25287700  0.78545100  1
  C  C9  1  0.22636900  0.22636900  0.78709800  1
  C  C10  1  0.77363100  0.77363100  0.21290200  1
  C  C11  1  0.25106500  0.74712300  0.21454900  1
  C  C12  1  0.74712300  0.25106500  0.21454900  1
  C  C13  1  0.27695200  0.27695200  0.20322600  1
