# generated using pymatgen
data_Cu7NiC4
_symmetry_space_group_name_H-M   'P 1'
_cell_length_a   7.51274059
_cell_length_b   7.51274059
_cell_length_c   6.89738200
_cell_angle_alpha   90.00000000
_cell_angle_beta   90.00000000
_cell_angle_gamma   129.88343229
_symmetry_Int_Tables_number   1
_chemical_formula_structural   Cu7NiC4
_chemical_formula_sum   'Cu14 Ni2 C8'
_cell_volume   298.72729325
_cell_formula_units_Z   2
loop_
 _symmetry_equiv_pos_site_id
 _symmetry_equiv_pos_as_xyz
  1  'x, y, z'
loop_
 _atom_site_type_symbol
 _atom_site_label
 _atom_site_symmetry_multiplicity
 _atom_site_fract_x
 _atom_site_fract_y
 _atom_site_fract_z
 _atom_site_occupancy
  C  C0  1  0.35882400  0.10053800  0.75000000  1
  C  C1  1  0.89946200  0.64117600  0.75000000  1
  C  C2  1  0.62887400  0.37112600  0.25000000  1
  C  C3  1  0.12962700  0.87037300  0.25000000  1
  C  C4  1  0.37112600  0.62887400  0.75000000  1
  C  C5  1  0.87037300  0.12962700  0.75000000  1
  C  C6  1  0.64117600  0.89946200  0.25000000  1
  C  C7  1  0.10053800  0.35882400  0.25000000  1
  Ni  Ni8  1  0.22393700  0.77606300  0.75000000  1
  Ni  Ni9  1  0.77606300  0.22393700  0.25000000  1
  Cu  Cu10  1  0.72135700  0.27864300  0.75000000  1
  Cu  Cu11  1  0.36736200  0.12719600  0.04322800  1
  Cu  Cu12  1  0.87280400  0.63263800  0.04322800  1
  Cu  Cu13  1  0.36736200  0.12719600  0.45677200  1
  Cu  Cu14  1  0.63263800  0.87280400  0.95677200  1
  Cu  Cu15  1  0.12719600  0.36736200  0.95677200  1
  Cu  Cu16  1  0.87280400  0.63263800  0.45677200  1
  Cu  Cu17  1  0.53099300  0.46900700  0.75000000  1
  Cu  Cu18  1  0.01978300  0.98021700  0.75000000  1
  Cu  Cu19  1  0.27864300  0.72135700  0.25000000  1
  Cu  Cu20  1  0.98021700  0.01978300  0.25000000  1
  Cu  Cu21  1  0.46900700  0.53099300  0.25000000  1
  Cu  Cu22  1  0.63263800  0.87280400  0.54322800  1
  Cu  Cu23  1  0.12719600  0.36736200  0.54322800  1
