# generated using pymatgen
data_CuNiC6
_symmetry_space_group_name_H-M   'P 1'
_cell_length_a   5.84989565
_cell_length_b   5.84989565
_cell_length_c   9.51162963
_cell_angle_alpha   89.88248403
_cell_angle_beta   89.88248403
_cell_angle_gamma   59.83459203
_symmetry_Int_Tables_number   1
_chemical_formula_structural   CuNiC6
_chemical_formula_sum   'Cu3 Ni3 C18'
_cell_volume   281.41957638
_cell_formula_units_Z   3
loop_
 _symmetry_equiv_pos_site_id
 _symmetry_equiv_pos_as_xyz
  1  'x, y, z'
loop_
 _atom_site_type_symbol
 _atom_site_label
 _atom_site_symmetry_multiplicity
 _atom_site_fract_x
 _atom_site_fract_y
 _atom_site_fract_z
 _atom_site_occupancy
  Ni  Ni0  1  0.82973800  0.82973800  0.78536200  1
  Ni  Ni1  1  0.16671200  0.66349400  0.28569000  1
  Ni  Ni2  1  0.66349400  0.16671200  0.28569000  1
  Cu  Cu3  1  0.33265600  0.82861500  0.78619700  1
  Cu  Cu4  1  0.82861500  0.33265600  0.78619700  1
  Cu  Cu5  1  0.16544300  0.16544300  0.29161400  1
  C  C6  1  0.67019300  0.67019300  0.50832300  1
  C  C7  1  0.33408600  0.33408600  0.01035400  1
  C  C8  1  0.32501800  0.84160100  0.39095100  1
  C  C9  1  0.52370500  0.52370500  0.67189300  1
  C  C10  1  0.66960900  0.66960900  0.89303800  1
  C  C11  1  0.99681500  0.99681500  0.68829000  1
  C  C12  1  0.99694700  0.99694700  0.18745800  1
  C  C13  1  0.84160100  0.32501800  0.39095100  1
  C  C14  1  0.51866500  0.96478900  0.66915900  1
  C  C15  1  0.96478900  0.51866500  0.66915900  1
  C  C16  1  0.16506500  0.16506500  0.88951000  1
  C  C17  1  0.84186400  0.84186400  0.39491900  1
  C  C18  1  0.03730700  0.48221500  0.17180800  1
  C  C19  1  0.48221500  0.03730700  0.17180800  1
  C  C20  1  0.33771200  0.33771200  0.39222300  1
  C  C21  1  0.16113500  0.67904600  0.89309800  1
  C  C22  1  0.48272000  0.48272000  0.17010500  1
  C  C23  1  0.67904600  0.16113500  0.89309800  1
