# generated using pymatgen
data_Cu2Ni2C7
_symmetry_space_group_name_H-M   'P 1'
_cell_length_a   3.99280100
_cell_length_b   3.99280100
_cell_length_c   11.45443900
_cell_angle_alpha   90.00000000
_cell_angle_beta   90.00000000
_cell_angle_gamma   90.00000000
_symmetry_Int_Tables_number   1
_chemical_formula_structural   Cu2Ni2C7
_chemical_formula_sum   'Cu2 Ni2 C7'
_cell_volume   182.61193358
_cell_formula_units_Z   1
loop_
 _symmetry_equiv_pos_site_id
 _symmetry_equiv_pos_as_xyz
  1  'x, y, z'
loop_
 _atom_site_type_symbol
 _atom_site_label
 _atom_site_symmetry_multiplicity
 _atom_site_fract_x
 _atom_site_fract_y
 _atom_site_fract_z
 _atom_site_occupancy
  Ni  Ni0  1  0.50000000  0.00000000  0.85818600  1
  Ni  Ni1  1  0.00000000  0.50000000  0.14181400  1
  Cu  Cu2  1  0.50000000  0.00000000  0.37740200  1
  Cu  Cu3  1  0.00000000  0.50000000  0.62259800  1
  C  C4  1  0.50000000  0.50000000  0.00000000  1
  C  C5  1  0.00000000  0.00000000  0.24553100  1
  C  C6  1  0.50000000  0.50000000  0.26319100  1
  C  C7  1  0.00000000  0.00000000  0.50000000  1
  C  C8  1  0.50000000  0.50000000  0.50000000  1
  C  C9  1  0.00000000  0.00000000  0.75446900  1
  C  C10  1  0.50000000  0.50000000  0.73680900  1
