# generated using pymatgen
data_CuNi3C2
_symmetry_space_group_name_H-M   'P 1'
_cell_length_a   4.76531600
_cell_length_b   5.78467300
_cell_length_c   10.23254200
_cell_angle_alpha   90.00000000
_cell_angle_beta   90.00000000
_cell_angle_gamma   90.00000000
_symmetry_Int_Tables_number   1
_chemical_formula_structural   CuNi3C2
_chemical_formula_sum   'Cu4 Ni12 C8'
_cell_volume   282.06815307
_cell_formula_units_Z   4
loop_
 _symmetry_equiv_pos_site_id
 _symmetry_equiv_pos_as_xyz
  1  'x, y, z'
loop_
 _atom_site_type_symbol
 _atom_site_label
 _atom_site_symmetry_multiplicity
 _atom_site_fract_x
 _atom_site_fract_y
 _atom_site_fract_z
 _atom_site_occupancy
  C  C0  1  0.05614400  0.50587900  0.02543900  1
  C  C1  1  0.53928300  0.74352700  0.23240800  1
  C  C2  1  0.03928300  0.24352700  0.26759200  1
  C  C3  1  0.55614400  0.00587900  0.47456100  1
  C  C4  1  0.44385600  0.50587900  0.52543900  1
  C  C5  1  0.96071700  0.74352700  0.73240800  1
  C  C6  1  0.46071700  0.24352700  0.76759200  1
  C  C7  1  0.94385600  0.00587900  0.97456100  1
  Ni  Ni8  1  0.79185700  0.75184500  0.08255500  1
  Ni  Ni9  1  0.84152500  0.24820400  0.09381600  1
  Ni  Ni10  1  0.27025100  0.50022300  0.16729100  1
  Ni  Ni11  1  0.77025100  0.00022300  0.33270900  1
  Ni  Ni12  1  0.34152500  0.74820400  0.40618400  1
  Ni  Ni13  1  0.29185700  0.25184500  0.41744500  1
  Ni  Ni14  1  0.70814300  0.75184500  0.58255500  1
  Ni  Ni15  1  0.65847500  0.24820400  0.59381600  1
  Ni  Ni16  1  0.22974900  0.50022300  0.66729100  1
  Ni  Ni17  1  0.72974900  0.00022300  0.83270900  1
  Ni  Ni18  1  0.15847500  0.74820400  0.90618400  1
  Ni  Ni19  1  0.20814300  0.25184500  0.91744500  1
  Cu  Cu20  1  0.27331400  0.99435500  0.16730100  1
  Cu  Cu21  1  0.77331400  0.49435500  0.33269900  1
  Cu  Cu22  1  0.22668600  0.99435500  0.66730100  1
  Cu  Cu23  1  0.72668600  0.49435500  0.83269900  1
