# generated using pymatgen
data_Cu2Ni2C19
_symmetry_space_group_name_H-M   'P 1'
_cell_length_a   10.22053296
_cell_length_b   10.45959669
_cell_length_c   8.32664535
_cell_angle_alpha   108.18935343
_cell_angle_beta   71.84340753
_cell_angle_gamma   60.03858212
_symmetry_Int_Tables_number   1
_chemical_formula_structural   Cu2Ni2C19
_chemical_formula_sum   'Cu4 Ni4 C38'
_cell_volume   602.98479357
_cell_formula_units_Z   2
loop_
 _symmetry_equiv_pos_site_id
 _symmetry_equiv_pos_as_xyz
  1  'x, y, z'
loop_
 _atom_site_type_symbol
 _atom_site_label
 _atom_site_symmetry_multiplicity
 _atom_site_fract_x
 _atom_site_fract_y
 _atom_site_fract_z
 _atom_site_occupancy
  C  C0  1  0.75627400  0.99462600  0.48620500  1
  C  C1  1  0.99894200  0.75391500  0.99802400  1
  C  C2  1  0.53106400  0.72496200  0.95642300  1
  C  C3  1  0.46893600  0.27503800  0.04357700  1
  C  C4  1  0.00105800  0.24608500  0.00197600  1
  C  C5  1  0.24372600  0.00537400  0.51379500  1
  C  C6  1  0.84542600  0.80655300  0.74510600  1
  C  C7  1  0.65605300  0.69048200  0.25378900  1
  C  C8  1  0.34394700  0.30951800  0.74621100  1
  C  C9  1  0.15457400  0.19344700  0.25489400  1
  Ni  Ni10  1  0.47643500  0.95131800  0.75293500  1
  Ni  Ni11  1  0.98154300  0.44378500  0.74875500  1
  Ni  Ni12  1  0.01845700  0.55621500  0.25124500  1
  Ni  Ni13  1  0.52356500  0.04868200  0.24706500  1
  Cu  Cu14  1  0.94143600  0.98275800  0.75525100  1
  Cu  Cu15  1  0.55317100  0.52376200  0.25655900  1
  Cu  Cu16  1  0.44682900  0.47623800  0.74344100  1
  Cu  Cu17  1  0.05856400  0.01724200  0.24474900  1
  C  C18  1  0.00965900  0.92836200  0.24123900  1
  C  C19  1  0.70471500  0.96920700  0.06073400  1
  C  C20  1  0.97965800  0.59102800  0.74780700  1
  C  C21  1  0.85589900  0.68161100  0.24172200  1
  C  C22  1  0.64016300  0.82385300  0.75706300  1
  C  C23  1  0.51973600  0.90119300  0.24138300  1
  C  C24  1  0.48273000  0.85280500  0.56540900  1
  C  C25  1  0.80084600  0.52194800  0.93625900  1
  C  C26  1  0.99954600  0.32481700  0.56246400  1
  C  C27  1  0.20304800  0.97248900  0.24384600  1
  C  C28  1  0.69456400  0.48170000  0.26001500  1
  C  C29  1  0.46655900  0.66755200  0.25860700  1
  C  C30  1  0.97154200  0.16151000  0.25060600  1
  C  C31  1  0.49293700  0.56647100  0.75077700  1
  C  C32  1  0.50706300  0.43352900  0.24922300  1
  C  C33  1  0.02845800  0.83849000  0.74939400  1
  C  C34  1  0.53344100  0.33244800  0.74139300  1
  C  C35  1  0.30543600  0.51830000  0.73998500  1
  C  C36  1  0.79695200  0.02751100  0.75615400  1
  C  C37  1  0.00045400  0.67518300  0.43753600  1
  C  C38  1  0.19915400  0.47805200  0.06374100  1
  C  C39  1  0.51727000  0.14719500  0.43459100  1
  C  C40  1  0.48026400  0.09880700  0.75861700  1
  C  C41  1  0.35983700  0.17614700  0.24293700  1
  C  C42  1  0.14410100  0.31838900  0.75827800  1
  C  C43  1  0.02034200  0.40897200  0.25219300  1
  C  C44  1  0.29528500  0.03079300  0.93926600  1
  C  C45  1  0.99034100  0.07163800  0.75876100  1
