# generated using pymatgen
data_Cu6Ni2C
_symmetry_space_group_name_H-M   'P 1'
_cell_length_a   10.87177200
_cell_length_b   6.66021500
_cell_length_c   8.60571129
_cell_angle_alpha   62.43739931
_cell_angle_beta   90.00000000
_cell_angle_gamma   90.00000000
_symmetry_Int_Tables_number   1
_chemical_formula_structural   Cu6Ni2C
_chemical_formula_sum   'Cu24 Ni8 C4'
_cell_volume   552.40415917
_cell_formula_units_Z   4
loop_
 _symmetry_equiv_pos_site_id
 _symmetry_equiv_pos_as_xyz
  1  'x, y, z'
loop_
 _atom_site_type_symbol
 _atom_site_label
 _atom_site_symmetry_multiplicity
 _atom_site_fract_x
 _atom_site_fract_y
 _atom_site_fract_z
 _atom_site_occupancy
  C  C0  1  0.90547200  0.10929800  0.08574900  1
  C  C1  1  0.40547200  0.89070200  0.41425100  1
  C  C2  1  0.59452800  0.10929800  0.58574900  1
  C  C3  1  0.09452800  0.89070200  0.91425100  1
  Ni  Ni4  1  0.20642000  0.36113800  0.92690100  1
  Ni  Ni5  1  0.70642000  0.63886200  0.57309900  1
  Ni  Ni6  1  0.08308200  0.76889900  0.47678000  1
  Ni  Ni7  1  0.58308200  0.23110100  0.02322000  1
  Ni  Ni8  1  0.41691800  0.76889900  0.97678000  1
  Ni  Ni9  1  0.91691800  0.23110100  0.52322000  1
  Ni  Ni10  1  0.29358000  0.36113800  0.42690100  1
  Ni  Ni11  1  0.79358000  0.63886200  0.07309900  1
  Cu  Cu12  1  0.07794400  0.14831500  0.98164100  1
  Cu  Cu13  1  0.89916700  0.39856100  0.64197600  1
  Cu  Cu14  1  0.60926300  0.40622900  0.59472500  1
  Cu  Cu15  1  0.21733900  0.44178700  0.69391000  1
  Cu  Cu16  1  0.71733900  0.55821300  0.80609000  1
  Cu  Cu17  1  0.71838700  0.04401700  0.11289200  1
  Cu  Cu18  1  0.45896800  0.03519100  0.15689400  1
  Cu  Cu19  1  0.10926300  0.59377100  0.90527500  1
  Cu  Cu20  1  0.95896800  0.96480900  0.34310600  1
  Cu  Cu21  1  0.21838700  0.95598300  0.38710800  1
  Cu  Cu22  1  0.39916700  0.60143900  0.85802400  1
  Cu  Cu23  1  0.57794400  0.85168500  0.51835900  1
  Cu  Cu24  1  0.42205600  0.14831500  0.48164100  1
  Cu  Cu25  1  0.60083300  0.39856100  0.14197600  1
  Cu  Cu26  1  0.78161300  0.04401700  0.61289200  1
  Cu  Cu27  1  0.04103200  0.03519100  0.65689400  1
  Cu  Cu28  1  0.89073700  0.40622900  0.09472500  1
  Cu  Cu29  1  0.54103200  0.96480900  0.84310600  1
  Cu  Cu30  1  0.28161300  0.95598300  0.88710800  1
  Cu  Cu31  1  0.28266100  0.44178700  0.19391000  1
  Cu  Cu32  1  0.78266100  0.55821300  0.30609000  1
  Cu  Cu33  1  0.39073700  0.59377100  0.40527500  1
  Cu  Cu34  1  0.10083300  0.60143900  0.35802400  1
  Cu  Cu35  1  0.92205600  0.85168500  0.01835900  1
