# generated using pymatgen
data_Cu(NiC3)2
_symmetry_space_group_name_H-M   'P 1'
_cell_length_a   7.69766000
_cell_length_b   8.53641300
_cell_length_c   28.20774500
_cell_angle_alpha   90.00000000
_cell_angle_beta   90.00000000
_cell_angle_gamma   90.00000000
_symmetry_Int_Tables_number   1
_chemical_formula_structural   Cu(NiC3)2
_chemical_formula_sum   'Cu4 Ni8 C24'
_cell_volume   1853.54234508
_cell_formula_units_Z   4
loop_
 _symmetry_equiv_pos_site_id
 _symmetry_equiv_pos_as_xyz
  1  'x, y, z'
loop_
 _atom_site_type_symbol
 _atom_site_label
 _atom_site_symmetry_multiplicity
 _atom_site_fract_x
 _atom_site_fract_y
 _atom_site_fract_z
 _atom_site_occupancy
  Ni  Ni0  1  0.00000000  0.25000000  0.04907200  1
  Ni  Ni1  1  0.00000000  0.75000000  0.28404100  1
  Ni  Ni2  1  0.00000000  0.25000000  0.71595900  1
  Ni  Ni3  1  0.00000000  0.75000000  0.95092800  1
  Ni  Ni4  1  0.50000000  0.25000000  0.21595900  1
  Ni  Ni5  1  0.50000000  0.25000000  0.54907200  1
  Ni  Ni6  1  0.50000000  0.75000000  0.78404100  1
  Ni  Ni7  1  0.50000000  0.75000000  0.45092800  1
  Cu  Cu8  1  0.00000000  0.25000000  0.38211500  1
  Cu  Cu9  1  0.00000000  0.75000000  0.61788500  1
  Cu  Cu10  1  0.50000000  0.25000000  0.88211500  1
  Cu  Cu11  1  0.50000000  0.75000000  0.11788500  1
  C  C12  1  0.25158200  0.58938800  0.04153900  1
  C  C13  1  0.25158200  0.08938800  0.95846100  1
  C  C14  1  0.26923900  0.59090700  0.19830200  1
  C  C15  1  0.26923900  0.09090700  0.80169800  1
  C  C16  1  0.22959100  0.55386100  0.37238800  1
  C  C17  1  0.22959100  0.05386100  0.62761200  1
  C  C18  1  0.27040900  0.55386100  0.87238800  1
  C  C19  1  0.27040900  0.05386100  0.12761200  1
  C  C20  1  0.23076100  0.09090700  0.30169800  1
  C  C21  1  0.23076100  0.59090700  0.69830200  1
  C  C22  1  0.24841800  0.08938800  0.45846100  1
  C  C23  1  0.24841800  0.58938800  0.54153900  1
  C  C24  1  0.75158200  0.41061200  0.45846100  1
  C  C25  1  0.75158200  0.91061200  0.54153900  1
  C  C26  1  0.76923900  0.40909300  0.30169800  1
  C  C27  1  0.76923900  0.90909300  0.69830200  1
  C  C28  1  0.72959100  0.44613900  0.12761200  1
  C  C29  1  0.72959100  0.94613900  0.87238800  1
  C  C30  1  0.77040900  0.44613900  0.62761200  1
  C  C31  1  0.77040900  0.94613900  0.37238800  1
  C  C32  1  0.73076100  0.90909300  0.19830200  1
  C  C33  1  0.73076100  0.40909300  0.80169800  1
  C  C34  1  0.74841800  0.91061200  0.04153900  1
  C  C35  1  0.74841800  0.41061200  0.95846100  1
