# generated using pymatgen
data_Cu4NiC26
_symmetry_space_group_name_H-M   'P 1'
_cell_length_a   2.90670800
_cell_length_b   9.03578200
_cell_length_c   24.55745400
_cell_angle_alpha   90.00000000
_cell_angle_beta   90.00000000
_cell_angle_gamma   90.00000000
_symmetry_Int_Tables_number   1
_chemical_formula_structural   Cu4NiC26
_chemical_formula_sum   'Cu8 Ni2 C52'
_cell_volume   644.98629941
_cell_formula_units_Z   2
loop_
 _symmetry_equiv_pos_site_id
 _symmetry_equiv_pos_as_xyz
  1  'x, y, z'
loop_
 _atom_site_type_symbol
 _atom_site_label
 _atom_site_symmetry_multiplicity
 _atom_site_fract_x
 _atom_site_fract_y
 _atom_site_fract_z
 _atom_site_occupancy
  C  C0  1  0.00000000  0.92469700  0.99504300  1
  C  C1  1  0.00000000  0.95046300  0.20655400  1
  C  C2  1  0.00000000  0.04953700  0.70655400  1
  C  C3  1  0.00000000  0.07530300  0.49504300  1
  C  C4  1  0.00000000  0.43982500  0.51981100  1
  C  C5  1  0.00000000  0.44108900  0.29788100  1
  C  C6  1  0.00000000  0.55891100  0.79788100  1
  C  C7  1  0.00000000  0.56017500  0.01981100  1
  Ni  Ni8  1  0.00000000  0.25785100  0.39806800  1
  Ni  Ni9  1  0.00000000  0.74214900  0.89806800  1
  Cu  Cu10  1  0.00000000  0.75031800  0.50075200  1
  Cu  Cu11  1  0.00000000  0.76104300  0.10574900  1
  Cu  Cu12  1  0.50000000  0.90158900  0.80647900  1
  Cu  Cu13  1  0.50000000  0.09841100  0.30647900  1
  Cu  Cu14  1  0.00000000  0.23895700  0.60574900  1
  Cu  Cu15  1  0.00000000  0.24968200  0.00075200  1
  Cu  Cu16  1  0.50000000  0.40391500  0.69100800  1
  Cu  Cu17  1  0.50000000  0.59608500  0.19100800  1
  C  C18  1  0.00000000  0.76088300  0.30730800  1
  C  C19  1  0.50000000  0.90089500  0.58544900  1
  C  C20  1  0.50000000  0.09910500  0.08544900  1
  C  C21  1  0.00000000  0.23911700  0.80730800  1
  C  C22  1  0.00000000  0.25493700  0.18847300  1
  C  C23  1  0.50000000  0.39450600  0.91445700  1
  C  C24  1  0.50000000  0.60549400  0.41445700  1
  C  C25  1  0.00000000  0.74506300  0.68847300  1
  C  C26  1  0.00000000  0.74418100  0.42285900  1
  C  C27  1  0.00000000  0.75842900  0.57946000  1
  C  C28  1  0.50000000  0.80487500  0.94293200  1
  C  C29  1  0.50000000  0.79844300  0.15941700  1
  C  C30  1  0.50000000  0.87801600  0.66359000  1
  C  C31  1  0.00000000  0.85455300  0.75782700  1
  C  C32  1  0.50000000  0.89334400  0.50442000  1
  C  C33  1  0.50000000  0.89603600  0.27960400  1
  C  C34  1  0.00000000  0.94213000  0.85519300  1
  C  C35  1  0.00000000  0.95636700  0.07963000  1
  C  C36  1  0.00000000  0.04363300  0.57963000  1
  C  C37  1  0.00000000  0.05787000  0.35519300  1
  C  C38  1  0.50000000  0.10396400  0.77960400  1
  C  C39  1  0.50000000  0.10665600  0.00442000  1
  C  C40  1  0.00000000  0.14544700  0.25782700  1
  C  C41  1  0.50000000  0.12198400  0.16359000  1
  C  C42  1  0.50000000  0.20155700  0.65941700  1
  C  C43  1  0.50000000  0.19512500  0.44293200  1
  C  C44  1  0.00000000  0.24157100  0.07946000  1
  C  C45  1  0.00000000  0.25581900  0.92285900  1
  C  C46  1  0.50000000  0.29580200  0.55862500  1
  C  C47  1  0.50000000  0.29542700  0.33902200  1
  C  C48  1  0.50000000  0.36510800  0.83641300  1
  C  C49  1  0.00000000  0.36172500  0.74030900  1
  C  C50  1  0.50000000  0.39586900  0.99630800  1
  C  C51  1  0.50000000  0.39295000  0.21254500  1
  C  C52  1  0.00000000  0.43600100  0.64056700  1
  C  C53  1  0.00000000  0.45925700  0.41441800  1
  C  C54  1  0.00000000  0.54074300  0.91441800  1
  C  C55  1  0.00000000  0.56399900  0.14056700  1
  C  C56  1  0.50000000  0.60705000  0.71254500  1
  C  C57  1  0.50000000  0.60413100  0.49630800  1
  C  C58  1  0.00000000  0.63827500  0.24030900  1
  C  C59  1  0.50000000  0.63489200  0.33641300  1
  C  C60  1  0.50000000  0.70457300  0.83902200  1
  C  C61  1  0.50000000  0.70419800  0.05862500  1
