# generated using pymatgen
data_CuNi3C10
_symmetry_space_group_name_H-M   'P 1'
_cell_length_a   5.83594223
_cell_length_b   5.83594223
_cell_length_c   5.83594233
_cell_angle_alpha   61.54419167
_cell_angle_beta   61.54419167
_cell_angle_gamma   61.54419461
_symmetry_Int_Tables_number   1
_chemical_formula_structural   CuNi3C10
_chemical_formula_sum   'Cu1 Ni3 C10'
_cell_volume   145.41608142
_cell_formula_units_Z   1
loop_
 _symmetry_equiv_pos_site_id
 _symmetry_equiv_pos_as_xyz
  1  'x, y, z'
loop_
 _atom_site_type_symbol
 _atom_site_label
 _atom_site_symmetry_multiplicity
 _atom_site_fract_x
 _atom_site_fract_y
 _atom_site_fract_z
 _atom_site_occupancy
  C  C0  1  0.87572700  0.87572700  0.87572700  1
  C  C1  1  0.12427300  0.12427300  0.12427300  1
  Ni  Ni2  1  0.00000000  0.50000000  0.50000000  1
  Ni  Ni3  1  0.50000000  0.00000000  0.50000000  1
  Ni  Ni4  1  0.50000000  0.50000000  0.00000000  1
  Cu  Cu5  1  0.50000000  0.50000000  0.50000000  1
  C  C6  1  0.73530200  0.73530200  0.73530200  1
  C  C7  1  0.73151300  0.73151300  0.29109700  1
  C  C8  1  0.73151300  0.29109700  0.73151300  1
  C  C9  1  0.29109700  0.73151300  0.73151300  1
  C  C10  1  0.70890300  0.26848700  0.26848700  1
  C  C11  1  0.26848700  0.70890300  0.26848700  1
  C  C12  1  0.26848700  0.26848700  0.70890300  1
  C  C13  1  0.26469800  0.26469800  0.26469800  1
