# generated using pymatgen
data_CuNiC19
_symmetry_space_group_name_H-M   'P 1'
_cell_length_a   10.47070151
_cell_length_b   6.09832500
_cell_length_c   14.31770095
_cell_angle_alpha   90.00000000
_cell_angle_beta   89.84569841
_cell_angle_gamma   90.00000000
_symmetry_Int_Tables_number   1
_chemical_formula_structural   CuNiC19
_chemical_formula_sum   'Cu4 Ni4 C76'
_cell_volume   914.23545020
_cell_formula_units_Z   4
loop_
 _symmetry_equiv_pos_site_id
 _symmetry_equiv_pos_as_xyz
  1  'x, y, z'
loop_
 _atom_site_type_symbol
 _atom_site_label
 _atom_site_symmetry_multiplicity
 _atom_site_fract_x
 _atom_site_fract_y
 _atom_site_fract_z
 _atom_site_occupancy
  C  C0  1  0.99815500  0.50043100  0.66692200  1
  C  C1  1  0.99991000  0.00058500  0.00003200  1
  C  C2  1  0.99991000  0.49941500  0.00003200  1
  C  C3  1  0.99934100  0.00111900  0.33334100  1
  C  C4  1  0.99934100  0.49888100  0.33334100  1
  C  C5  1  0.99815500  0.99956900  0.66692200  1
  C  C6  1  0.50087400  0.00010200  0.50057700  1
  C  C7  1  0.50087400  0.49989800  0.50057700  1
  C  C8  1  0.50127700  0.00153700  0.16679400  1
  C  C9  1  0.50127700  0.49846300  0.16679400  1
  C  C10  1  0.50078200  0.00044200  0.83323500  1
  C  C11  1  0.50078200  0.49955800  0.83323500  1
  C  C12  1  0.21834100  0.75000000  0.15986500  1
  C  C13  1  0.21855900  0.75000000  0.49310500  1
  C  C14  1  0.28179100  0.25000000  0.65953600  1
  C  C15  1  0.71974400  0.75000000  0.00709400  1
  Ni  Ni16  1  0.21783500  0.75000000  0.82518400  1
  Ni  Ni17  1  0.28042900  0.25000000  0.99282100  1
  Ni  Ni18  1  0.28148500  0.25000000  0.32575000  1
  Ni  Ni19  1  0.72001900  0.75000000  0.34134900  1
  Cu  Cu20  1  0.72004700  0.75000000  0.67331800  1
  Cu  Cu21  1  0.78114600  0.25000000  0.83920900  1
  Cu  Cu22  1  0.77953300  0.25000000  0.50735300  1
  Cu  Cu23  1  0.78031700  0.25000000  0.17315800  1
  C  C24  1  0.09318300  0.25000000  0.80747200  1
  C  C25  1  0.09356200  0.25000000  0.13824900  1
  C  C26  1  0.09266400  0.25000000  0.47140600  1
  C  C27  1  0.40747600  0.75000000  0.30626300  1
  C  C28  1  0.40790700  0.75000000  0.63967000  1
  C  C29  1  0.40474900  0.75000000  0.97183700  1
  C  C30  1  0.59537300  0.25000000  0.36053600  1
  C  C31  1  0.59405400  0.25000000  0.02822200  1
  C  C32  1  0.59737600  0.25000000  0.69438200  1
  C  C33  1  0.90567400  0.75000000  0.85935700  1
  C  C34  1  0.90434900  0.75000000  0.19465100  1
  C  C35  1  0.90334800  0.75000000  0.52754300  1
  C  C36  1  0.04087200  0.75000000  0.23702500  1
  C  C37  1  0.04004400  0.75000000  0.56955800  1
  C  C38  1  0.04224300  0.75000000  0.90146900  1
  C  C39  1  0.09593400  0.25000000  0.57879400  1
  C  C40  1  0.09675100  0.25000000  0.91419200  1
  C  C41  1  0.09746900  0.25000000  0.24598200  1
  C  C42  1  0.16397800  0.04928700  0.09306500  1
  C  C43  1  0.16397800  0.45071300  0.09306500  1
  C  C44  1  0.16343900  0.04908200  0.42628000  1
  C  C45  1  0.16343900  0.45091800  0.42628000  1
  C  C46  1  0.16389700  0.04691800  0.76323400  1
  C  C47  1  0.16389700  0.45308200  0.76323400  1
  C  C48  1  0.33786100  0.54855200  0.59467500  1
  C  C49  1  0.33786100  0.95144800  0.59467500  1
  C  C50  1  0.33645400  0.54718900  0.26302500  1
  C  C51  1  0.33645400  0.95281100  0.26302500  1
  C  C52  1  0.33383700  0.54713400  0.92827500  1
  C  C53  1  0.33383700  0.95286600  0.92827500  1
  C  C54  1  0.40562100  0.75000000  0.41381100  1
  C  C55  1  0.40425200  0.75000000  0.07918700  1
  C  C56  1  0.40297300  0.75000000  0.74691400  1
  C  C57  1  0.45774800  0.25000000  0.40200400  1
  C  C58  1  0.45629700  0.25000000  0.06783900  1
  C  C59  1  0.46045800  0.25000000  0.73647400  1
  C  C60  1  0.54429400  0.75000000  0.26395500  1
  C  C61  1  0.54172400  0.75000000  0.92961500  1
  C  C62  1  0.54603100  0.75000000  0.59904000  1
  C  C63  1  0.59778000  0.25000000  0.25339600  1
  C  C64  1  0.59835300  0.25000000  0.92060400  1
  C  C65  1  0.59788800  0.25000000  0.58660500  1
  C  C66  1  0.66446700  0.04913200  0.07392300  1
  C  C67  1  0.66619300  0.04758100  0.40528400  1
  C  C68  1  0.66802600  0.04673700  0.73846500  1
  C  C69  1  0.66802600  0.45326300  0.73846500  1
  C  C70  1  0.66446700  0.45086800  0.07392300  1
  C  C71  1  0.66619300  0.45241900  0.40528400  1
  C  C72  1  0.83515300  0.54580400  0.90347400  1
  C  C73  1  0.83515300  0.95419600  0.90347400  1
  C  C74  1  0.83313600  0.54603300  0.23822900  1
  C  C75  1  0.83214100  0.54686200  0.57189500  1
  C  C76  1  0.83313600  0.95396700  0.23822900  1
  C  C77  1  0.83214100  0.95313800  0.57189500  1
  C  C78  1  0.90334200  0.75000000  0.75185200  1
  C  C79  1  0.90288300  0.75000000  0.42036200  1
  C  C80  1  0.90487800  0.75000000  0.08741500  1
  C  C81  1  0.95604400  0.25000000  0.76499800  1
  C  C82  1  0.95492300  0.25000000  0.09878000  1
  C  C83  1  0.95439400  0.25000000  0.43134400  1
