# generated using pymatgen
data_Cu10Ni2C9
_symmetry_space_group_name_H-M   'P 1'
_cell_length_a   7.32512800
_cell_length_b   9.65810200
_cell_length_c   12.94879900
_cell_angle_alpha   90.00000000
_cell_angle_beta   90.00000000
_cell_angle_gamma   90.00000000
_symmetry_Int_Tables_number   1
_chemical_formula_structural   Cu10Ni2C9
_chemical_formula_sum   'Cu40 Ni8 C36'
_cell_volume   916.08652542
_cell_formula_units_Z   4
loop_
 _symmetry_equiv_pos_site_id
 _symmetry_equiv_pos_as_xyz
  1  'x, y, z'
loop_
 _atom_site_type_symbol
 _atom_site_label
 _atom_site_symmetry_multiplicity
 _atom_site_fract_x
 _atom_site_fract_y
 _atom_site_fract_z
 _atom_site_occupancy
  C  C0  1  0.00000000  0.50000000  0.00000000  1
  C  C1  1  0.00000000  0.00000000  0.50000000  1
  C  C2  1  0.50000000  0.00000000  0.00000000  1
  C  C3  1  0.50000000  0.50000000  0.50000000  1
  C  C4  1  0.27578800  0.53316500  0.12190800  1
  C  C5  1  0.72421200  0.96683500  0.62190800  1
  C  C6  1  0.22421200  0.03316500  0.87809200  1
  C  C7  1  0.77578800  0.46683500  0.37809200  1
  C  C8  1  0.72421200  0.46683500  0.87809200  1
  C  C9  1  0.27578800  0.03316500  0.37809200  1
  C  C10  1  0.77578800  0.96683500  0.12190800  1
  C  C11  1  0.22421200  0.53316500  0.62190800  1
  C  C12  1  0.12372400  0.64753900  0.15351100  1
  C  C13  1  0.87627600  0.85246100  0.65351100  1
  C  C14  1  0.37627600  0.14753900  0.84648900  1
  C  C15  1  0.62372400  0.35246100  0.34648900  1
  C  C16  1  0.87627600  0.35246100  0.84648900  1
  C  C17  1  0.12372400  0.14753900  0.34648900  1
  C  C18  1  0.62372400  0.85246100  0.15351100  1
  C  C19  1  0.37627600  0.64753900  0.65351100  1
  C  C20  1  0.01185800  0.68550400  0.85538700  1
  C  C21  1  0.98814200  0.81449600  0.35538700  1
  C  C22  1  0.48814200  0.18550400  0.14461300  1
  C  C23  1  0.51185800  0.31449600  0.64461300  1
  C  C24  1  0.98814200  0.31449600  0.14461300  1
  C  C25  1  0.01185800  0.18550400  0.64461300  1
  C  C26  1  0.51185800  0.81449600  0.85538700  1
  C  C27  1  0.48814200  0.68550400  0.35538700  1
  C  C28  1  0.07701600  0.75563800  0.96213000  1
  C  C29  1  0.92298400  0.74436200  0.46213000  1
  C  C30  1  0.42298400  0.25563800  0.03787000  1
  C  C31  1  0.57701600  0.24436200  0.53787000  1
  C  C32  1  0.92298400  0.24436200  0.03787000  1
  C  C33  1  0.07701600  0.25563800  0.53787000  1
  C  C34  1  0.57701600  0.74436200  0.96213000  1
  C  C35  1  0.42298400  0.75563800  0.46213000  1
  Ni  Ni36  1  0.15040400  0.43058800  0.33702600  1
  Ni  Ni37  1  0.84959600  0.06941200  0.83702600  1
  Ni  Ni38  1  0.34959600  0.93058800  0.66297400  1
  Ni  Ni39  1  0.65040400  0.56941200  0.16297400  1
  Ni  Ni40  1  0.84959600  0.56941200  0.66297400  1
  Ni  Ni41  1  0.15040400  0.93058800  0.16297400  1
  Ni  Ni42  1  0.65040400  0.06941200  0.33702600  1
  Ni  Ni43  1  0.34959600  0.43058800  0.83702600  1
  Cu  Cu44  1  0.14174400  0.55350100  0.12326700  1
  Cu  Cu45  1  0.85825600  0.94649900  0.62326700  1
  Cu  Cu46  1  0.35825600  0.05350100  0.87673300  1
  Cu  Cu47  1  0.64174400  0.44649900  0.37673300  1
  Cu  Cu48  1  0.85825600  0.44649900  0.87673300  1
  Cu  Cu49  1  0.14174400  0.05350100  0.37673300  1
  Cu  Cu50  1  0.64174400  0.94649900  0.12326700  1
  Cu  Cu51  1  0.35825600  0.55350100  0.62326700  1
  Cu  Cu52  1  0.07538900  0.66869700  0.92185600  1
  Cu  Cu53  1  0.92461100  0.83130300  0.42185600  1
  Cu  Cu54  1  0.42461100  0.16869700  0.07814400  1
  Cu  Cu55  1  0.57538900  0.33130300  0.57814400  1
  Cu  Cu56  1  0.92461100  0.33130300  0.07814400  1
  Cu  Cu57  1  0.07538900  0.16869700  0.57814400  1
  Cu  Cu58  1  0.57538900  0.83130300  0.92185600  1
  Cu  Cu59  1  0.42461100  0.66869700  0.42185600  1
  Cu  Cu60  1  0.22619400  0.37630800  0.43785900  1
  Cu  Cu61  1  0.77380600  0.12369200  0.93785900  1
  Cu  Cu62  1  0.27380600  0.87630800  0.56214100  1
  Cu  Cu63  1  0.72619400  0.62369200  0.06214100  1
  Cu  Cu64  1  0.77380600  0.62369200  0.56214100  1
  Cu  Cu65  1  0.22619400  0.87630800  0.06214100  1
  Cu  Cu66  1  0.72619400  0.12369200  0.43785900  1
  Cu  Cu67  1  0.27380600  0.37630800  0.93785900  1
  Cu  Cu68  1  0.07253900  0.30375800  0.28211600  1
  Cu  Cu69  1  0.92746100  0.19624200  0.78211600  1
  Cu  Cu70  1  0.42746100  0.80375800  0.71788400  1
  Cu  Cu71  1  0.57253900  0.69624200  0.21788400  1
  Cu  Cu72  1  0.92746100  0.69624200  0.71788400  1
  Cu  Cu73  1  0.07253900  0.80375800  0.21788400  1
  Cu  Cu74  1  0.57253900  0.19624200  0.28211600  1
  Cu  Cu75  1  0.42746100  0.30375800  0.78211600  1
  Cu  Cu76  1  0.99390200  0.52525200  0.36040900  1
  Cu  Cu77  1  0.00609800  0.97474800  0.86040900  1
  Cu  Cu78  1  0.50609800  0.02525200  0.63959100  1
  Cu  Cu79  1  0.49390200  0.47474800  0.13959100  1
  Cu  Cu80  1  0.00609800  0.47474800  0.63959100  1
  Cu  Cu81  1  0.99390200  0.02525200  0.13959100  1
  Cu  Cu82  1  0.49390200  0.97474800  0.36040900  1
  Cu  Cu83  1  0.50609800  0.52525200  0.86040900  1
