# generated using pymatgen
data_Cu4Ni3C14
_symmetry_space_group_name_H-M   'P 1'
_cell_length_a   6.80592364
_cell_length_b   6.80592364
_cell_length_c   8.78923602
_cell_angle_alpha   82.59189448
_cell_angle_beta   82.59189448
_cell_angle_gamma   48.20642008
_symmetry_Int_Tables_number   1
_chemical_formula_structural   Cu4Ni3C14
_chemical_formula_sum   'Cu4 Ni3 C14'
_cell_volume   300.48730228
_cell_formula_units_Z   1
loop_
 _symmetry_equiv_pos_site_id
 _symmetry_equiv_pos_as_xyz
  1  'x, y, z'
loop_
 _atom_site_type_symbol
 _atom_site_label
 _atom_site_symmetry_multiplicity
 _atom_site_fract_x
 _atom_site_fract_y
 _atom_site_fract_z
 _atom_site_occupancy
  Ni  Ni0  1  0.42910700  0.42910700  0.71476500  1
  Ni  Ni1  1  0.00000000  0.00000000  0.00000000  1
  Ni  Ni2  1  0.57089300  0.57089300  0.28523500  1
  Cu  Cu3  1  0.14191100  0.14191100  0.57191100  1
  Cu  Cu4  1  0.71395100  0.71395100  0.85818500  1
  Cu  Cu5  1  0.28604900  0.28604900  0.14181500  1
  Cu  Cu6  1  0.85808900  0.85808900  0.42808900  1
  C  C7  1  0.03943100  0.53458200  0.64388400  1
  C  C8  1  0.53458200  0.03943100  0.64388400  1
  C  C9  1  0.10869300  0.60933500  0.92765600  1
  C  C10  1  0.60933500  0.10869300  0.92765600  1
  C  C11  1  0.81953900  0.31922700  0.78709900  1
  C  C12  1  0.31922700  0.81953900  0.78709900  1
  C  C13  1  0.39066500  0.89130700  0.07234400  1
  C  C14  1  0.68077300  0.18046100  0.21290100  1
  C  C15  1  0.46541800  0.96056900  0.35611600  1
  C  C16  1  0.96056900  0.46541800  0.35611600  1
  C  C17  1  0.18046100  0.68077300  0.21290100  1
  C  C18  1  0.89130700  0.39066500  0.07234400  1
  C  C19  1  0.74490000  0.25510000  0.50000000  1
  C  C20  1  0.25510000  0.74490000  0.50000000  1
