# generated using pymatgen
data_CuNi3C32
_symmetry_space_group_name_H-M   'P 1'
_cell_length_a   8.86849871
_cell_length_b   8.86849871
_cell_length_c   8.86849915
_cell_angle_alpha   58.83185340
_cell_angle_beta   58.83185340
_cell_angle_gamma   58.83185551
_symmetry_Int_Tables_number   1
_chemical_formula_structural   CuNi3C32
_chemical_formula_sum   'Cu1 Ni3 C32'
_cell_volume   480.05896180
_cell_formula_units_Z   1
loop_
 _symmetry_equiv_pos_site_id
 _symmetry_equiv_pos_as_xyz
  1  'x, y, z'
loop_
 _atom_site_type_symbol
 _atom_site_label
 _atom_site_symmetry_multiplicity
 _atom_site_fract_x
 _atom_site_fract_y
 _atom_site_fract_z
 _atom_site_occupancy
  Ni  Ni0  1  0.64699900  0.64699900  0.64699900  1
  Ni  Ni1  1  0.85363400  0.85363400  0.85363400  1
  Ni  Ni2  1  0.35370100  0.35370100  0.35370100  1
  Cu  Cu3  1  0.14582700  0.14582700  0.14582700  1
  C  C4  1  0.99956300  0.99956300  0.99956300  1
  C  C5  1  0.50167000  0.50167000  0.50167000  1
  C  C6  1  0.53705600  0.96222700  0.24959500  1
  C  C7  1  0.24959500  0.53705600  0.96222700  1
  C  C8  1  0.96222700  0.24959500  0.53705600  1
  C  C9  1  0.04045100  0.75126400  0.45959100  1
  C  C10  1  0.75126400  0.45959100  0.04045100  1
  C  C11  1  0.45959100  0.04045100  0.75126400  1
  C  C12  1  0.30153900  0.50729700  0.11644900  1
  C  C13  1  0.11644900  0.30153900  0.50729700  1
  C  C14  1  0.50729700  0.11644900  0.30153900  1
  C  C15  1  0.73105500  0.93941400  0.08437600  1
  C  C16  1  0.38158300  0.99203800  0.19907800  1
  C  C17  1  0.56005100  0.76766500  0.41634300  1
  C  C18  1  0.08437700  0.73105500  0.93941400  1
  C  C19  1  0.41634300  0.56005100  0.76766500  1
  C  C20  1  0.00916200  0.80175900  0.61556500  1
  C  C21  1  0.76766500  0.41634300  0.56005100  1
  C  C22  1  0.06101800  0.91847000  0.26629500  1
  C  C23  1  0.80175900  0.61556500  0.00916200  1
  C  C24  1  0.19907800  0.38158300  0.99203800  1
  C  C25  1  0.93941400  0.08437700  0.73105500  1
  C  C26  1  0.23294700  0.58527400  0.43684600  1
  C  C27  1  0.99203800  0.19907800  0.38158300  1
  C  C28  1  0.58527400  0.43684600  0.23294700  1
  C  C29  1  0.91847000  0.26629500  0.06101800  1
  C  C30  1  0.43684600  0.23294700  0.58527400  1
  C  C31  1  0.61556500  0.00916200  0.80175900  1
  C  C32  1  0.26629500  0.06101800  0.91847000  1
  C  C33  1  0.48950900  0.88444900  0.70025500  1
  C  C34  1  0.88444900  0.70025500  0.48950900  1
  C  C35  1  0.70025500  0.48950900  0.88444900  1
