# generated using pymatgen
data_Cu3NiC32
_symmetry_space_group_name_H-M   'P 1'
_cell_length_a   8.89045184
_cell_length_b   8.89045184
_cell_length_c   8.89045173
_cell_angle_alpha   59.83388028
_cell_angle_beta   59.83388028
_cell_angle_gamma   59.83388416
_symmetry_Int_Tables_number   1
_chemical_formula_structural   Cu3NiC32
_chemical_formula_sum   'Cu3 Ni1 C32'
_cell_volume   495.01232252
_cell_formula_units_Z   1
loop_
 _symmetry_equiv_pos_site_id
 _symmetry_equiv_pos_as_xyz
  1  'x, y, z'
loop_
 _atom_site_type_symbol
 _atom_site_label
 _atom_site_symmetry_multiplicity
 _atom_site_fract_x
 _atom_site_fract_y
 _atom_site_fract_z
 _atom_site_occupancy
  Ni  Ni0  1  0.14678800  0.14678800  0.14678800  1
  Cu  Cu1  1  0.83751800  0.83751800  0.83751800  1
  Cu  Cu2  1  0.65106800  0.65106800  0.65106800  1
  Cu  Cu3  1  0.34397000  0.34397000  0.34397000  1
  C  C4  1  0.98133400  0.98133400  0.98133400  1
  C  C5  1  0.48880100  0.48880100  0.48880100  1
  C  C6  1  0.54365400  0.95568900  0.25161500  1
  C  C7  1  0.25161500  0.54365400  0.95568900  1
  C  C8  1  0.95568900  0.25161500  0.54365400  1
  C  C9  1  0.05694400  0.75594100  0.44649300  1
  C  C10  1  0.75594100  0.44649300  0.05694400  1
  C  C11  1  0.44649300  0.05694400  0.75594100  1
  C  C12  1  0.47206600  0.90833900  0.70036800  1
  C  C13  1  0.90833900  0.70036800  0.47206600  1
  C  C14  1  0.74506500  0.93564600  0.08159600  1
  C  C15  1  0.70036800  0.47206600  0.90833900  1
  C  C16  1  0.55996200  0.76022300  0.39485900  1
  C  C17  1  0.39251600  0.02084600  0.17223900  1
  C  C18  1  0.08159600  0.74506500  0.93564600  1
  C  C19  1  0.39485900  0.55996200  0.76022300  1
  C  C20  1  0.76022300  0.39485900  0.55996200  1
  C  C21  1  0.03247700  0.80298900  0.59949000  1
  C  C22  1  0.08942200  0.91557900  0.25451700  1
  C  C23  1  0.80298900  0.59949000  0.03247700  1
  C  C24  1  0.17223900  0.39251600  0.02084600  1
  C  C25  1  0.93564600  0.08159600  0.74506500  1
  C  C26  1  0.02084600  0.17223900  0.39251600  1
  C  C27  1  0.25645800  0.59227700  0.41992200  1
  C  C28  1  0.59227700  0.41992200  0.25645800  1
  C  C29  1  0.91557900  0.25451700  0.08942200  1
  C  C30  1  0.59949000  0.03247700  0.80298900  1
  C  C31  1  0.41992200  0.25645800  0.59227700  1
  C  C32  1  0.31473200  0.52483000  0.09376500  1
  C  C33  1  0.25451700  0.08942200  0.91557900  1
  C  C34  1  0.09376500  0.31473200  0.52483000  1
  C  C35  1  0.52483000  0.09376500  0.31473200  1
