# generated using pymatgen
data_Cu8Ni9C23
_symmetry_space_group_name_H-M   'P 1'
_cell_length_a   12.68710200
_cell_length_b   10.62917300
_cell_length_c   11.61137799
_cell_angle_alpha   80.72808012
_cell_angle_beta   90.00000000
_cell_angle_gamma   90.00000000
_symmetry_Int_Tables_number   1
_chemical_formula_structural   Cu8Ni9C23
_chemical_formula_sum   'Cu32 Ni36 C92'
_cell_volume   1545.37589016
_cell_formula_units_Z   4
loop_
 _symmetry_equiv_pos_site_id
 _symmetry_equiv_pos_as_xyz
  1  'x, y, z'
loop_
 _atom_site_type_symbol
 _atom_site_label
 _atom_site_symmetry_multiplicity
 _atom_site_fract_x
 _atom_site_fract_y
 _atom_site_fract_z
 _atom_site_occupancy
  C  C0  1  0.64849200  0.46801600  0.50079500  1
  C  C1  1  0.14849200  0.03198400  0.49920500  1
  C  C2  1  0.35150800  0.53198400  0.49920500  1
  C  C3  1  0.85150800  0.96801600  0.50079500  1
  C  C4  1  0.62852400  0.96922900  0.86825000  1
  C  C5  1  0.12852400  0.53077100  0.13175000  1
  C  C6  1  0.37147600  0.03077100  0.13175000  1
  C  C7  1  0.87147600  0.46922900  0.86825000  1
  C  C8  1  0.60119400  0.13477900  0.34597300  1
  C  C9  1  0.10119400  0.36522100  0.65402700  1
  C  C10  1  0.39880600  0.86522100  0.65402700  1
  C  C11  1  0.89880600  0.63477900  0.34597300  1
  Ni  Ni12  1  0.58631200  0.15973200  0.06342200  1
  Ni  Ni13  1  0.08631200  0.34026800  0.93657800  1
  Ni  Ni14  1  0.41368800  0.84026800  0.93657800  1
  Ni  Ni15  1  0.91368800  0.65973200  0.06342200  1
  Ni  Ni16  1  0.93118200  0.31305500  0.42990100  1
  Ni  Ni17  1  0.43118200  0.18694500  0.57009900  1
  Ni  Ni18  1  0.06881800  0.68694500  0.57009900  1
  Ni  Ni19  1  0.56881800  0.81305500  0.42990100  1
  Ni  Ni20  1  0.71835200  0.31964500  0.11189900  1
  Ni  Ni21  1  0.21835200  0.18035500  0.88810100  1
  Ni  Ni22  1  0.28164800  0.68035500  0.88810100  1
  Ni  Ni23  1  0.78164800  0.81964500  0.11189900  1
  Ni  Ni24  1  0.52104600  0.67253800  0.05361000  1
  Ni  Ni25  1  0.02104600  0.82746200  0.94639000  1
  Ni  Ni26  1  0.47895400  0.32746200  0.94639000  1
  Ni  Ni27  1  0.97895400  0.17253800  0.05361000  1
  Ni  Ni28  1  0.73850800  0.72799400  0.49940800  1
  Ni  Ni29  1  0.23850800  0.77200600  0.50059200  1
  Ni  Ni30  1  0.26149200  0.27200600  0.50059200  1
  Ni  Ni31  1  0.76149200  0.22799400  0.49940800  1
  Ni  Ni32  1  0.88037900  0.59730300  0.60911200  1
  Ni  Ni33  1  0.38037900  0.90269700  0.39088800  1
  Ni  Ni34  1  0.11962100  0.40269700  0.39088800  1
  Ni  Ni35  1  0.61962100  0.09730300  0.60911200  1
  Ni  Ni36  1  0.33036100  0.70303900  0.09275600  1
  Ni  Ni37  1  0.83036100  0.79696100  0.90724400  1
  Ni  Ni38  1  0.66963900  0.29696100  0.90724400  1
  Ni  Ni39  1  0.16963900  0.20303900  0.09275600  1
  Ni  Ni40  1  0.22908100  0.60614600  0.68852200  1
  Ni  Ni41  1  0.72908100  0.89385400  0.31147800  1
  Ni  Ni42  1  0.77091900  0.39385400  0.31147800  1
  Ni  Ni43  1  0.27091900  0.10614600  0.68852200  1
  Ni  Ni44  1  0.78941600  0.75664700  0.70573600  1
  Ni  Ni45  1  0.28941600  0.74335300  0.29426400  1
  Ni  Ni46  1  0.21058400  0.24335300  0.29426400  1
  Ni  Ni47  1  0.71058400  0.25664700  0.70573600  1
  Cu  Cu48  1  0.11416000  0.53013600  0.85614500  1
  Cu  Cu49  1  0.61416000  0.96986400  0.14385500  1
  Cu  Cu50  1  0.88584000  0.46986400  0.14385500  1
  Cu  Cu51  1  0.38584000  0.03013600  0.85614500  1
  Cu  Cu52  1  0.68973900  0.55181600  0.23135100  1
  Cu  Cu53  1  0.18973900  0.94818400  0.76864900  1
  Cu  Cu54  1  0.31026100  0.44818400  0.76864900  1
  Cu  Cu55  1  0.81026100  0.05181600  0.23135100  1
  Cu  Cu56  1  0.45794000  0.57979100  0.26752000  1
  Cu  Cu57  1  0.95794000  0.92020900  0.73248000  1
  Cu  Cu58  1  0.54206000  0.42020900  0.73248000  1
  Cu  Cu59  1  0.04206000  0.07979100  0.26752000  1
  Cu  Cu60  1  0.13858600  0.59628100  0.37065500  1
  Cu  Cu61  1  0.63858600  0.90371900  0.62934500  1
  Cu  Cu62  1  0.86141400  0.40371900  0.62934500  1
  Cu  Cu63  1  0.36141400  0.09628100  0.37065500  1
  Cu  Cu64  1  0.67121100  0.63015000  0.02675800  1
  Cu  Cu65  1  0.17121100  0.86985000  0.97324200  1
  Cu  Cu66  1  0.32878900  0.36985000  0.97324200  1
  Cu  Cu67  1  0.82878900  0.13015000  0.02675800  1
  Cu  Cu68  1  0.52945500  0.63962700  0.78445100  1
  Cu  Cu69  1  0.02945500  0.86037300  0.21554900  1
  Cu  Cu70  1  0.47054500  0.36037300  0.21554900  1
  Cu  Cu71  1  0.97054500  0.13962700  0.78445100  1
  Cu  Cu72  1  0.44894000  0.41762700  0.64693400  1
  Cu  Cu73  1  0.94894000  0.08237300  0.35306600  1
  Cu  Cu74  1  0.55106000  0.58237300  0.35306600  1
  Cu  Cu75  1  0.05106000  0.91762700  0.64693400  1
  Cu  Cu76  1  0.56107800  0.66246600  0.65188200  1
  Cu  Cu77  1  0.06107800  0.83753400  0.34811800  1
  Cu  Cu78  1  0.43892200  0.33753400  0.34811800  1
  Cu  Cu79  1  0.93892200  0.16246600  0.65188200  1
  C  C80  1  0.71439500  0.29798200  0.39175100  1
  C  C81  1  0.21439500  0.20201800  0.60824900  1
  C  C82  1  0.28560500  0.70201800  0.60824900  1
  C  C83  1  0.78560500  0.79798200  0.39175100  1
  C  C84  1  0.74761900  0.80616400  0.59858700  1
  C  C85  1  0.24761900  0.69383600  0.40141300  1
  C  C86  1  0.25238100  0.19383600  0.40141300  1
  C  C87  1  0.75238100  0.30616400  0.59858700  1
  C  C88  1  0.78061000  0.37052100  0.18861500  1
  C  C89  1  0.28061000  0.12947900  0.81138500  1
  C  C90  1  0.21939000  0.62947900  0.81138500  1
  C  C91  1  0.71939000  0.87052100  0.18861500  1
  C  C92  1  0.96473000  0.67540500  0.54339200  1
  C  C93  1  0.46473000  0.82459500  0.45660800  1
  C  C94  1  0.03527000  0.32459500  0.45660800  1
  C  C95  1  0.53527000  0.17540500  0.54339200  1
  C  C96  1  0.64770600  0.14971200  0.71786300  1
  C  C97  1  0.14770600  0.35028800  0.28213700  1
  C  C98  1  0.35229400  0.85028800  0.28213700  1
  C  C99  1  0.85229400  0.64971200  0.71786300  1
  C  C100  1  0.61925200  0.90730900  0.35463700  1
  C  C101  1  0.11925200  0.59269100  0.64536300  1
  C  C102  1  0.38074800  0.09269100  0.64536300  1
  C  C103  1  0.88074800  0.40730900  0.35463700  1
  C  C104  1  0.70943600  0.10477300  0.53022500  1
  C  C105  1  0.20943600  0.39522700  0.46977500  1
  C  C106  1  0.29056400  0.89522700  0.46977500  1
  C  C107  1  0.79056400  0.60477300  0.53022500  1
  C  C108  1  0.62361600  0.70761000  0.48531900  1
  C  C109  1  0.12361600  0.79239000  0.51468100  1
  C  C110  1  0.37638400  0.29239000  0.51468100  1
  C  C111  1  0.87638400  0.20761000  0.48531900  1
  C  C112  1  0.91459500  0.46447400  0.64997800  1
  C  C113  1  0.41459500  0.03552600  0.35002200  1
  C  C114  1  0.08540500  0.53552600  0.35002200  1
  C  C115  1  0.58540500  0.96447400  0.64997800  1
  C  C116  1  0.85010400  0.66312000  0.95764400  1
  C  C117  1  0.35010400  0.83688000  0.04235600  1
  C  C118  1  0.14989600  0.33688000  0.04235600  1
  C  C119  1  0.64989600  0.16312000  0.95764400  1
  C  C120  1  0.98157400  0.27453900  0.96423200  1
  C  C121  1  0.48157400  0.22546100  0.03576800  1
  C  C122  1  0.01842600  0.72546100  0.03576800  1
  C  C123  1  0.51842600  0.77453900  0.96423200  1
  C  C124  1  0.76680800  0.81608500  0.80034000  1
  C  C125  1  0.26680800  0.68391500  0.19966000  1
  C  C126  1  0.23319200  0.18391500  0.19966000  1
  C  C127  1  0.73319200  0.31608500  0.80034000  1
  C  C128  1  0.94350700  0.53102200  0.11738500  1
  C  C129  1  0.44350700  0.96897800  0.88261500  1
  C  C130  1  0.05649300  0.46897800  0.88261500  1
  C  C131  1  0.55649300  0.03102200  0.11738500  1
  C  C132  1  0.73369900  0.35890400  0.99264800  1
  C  C133  1  0.23369900  0.14109600  0.00735200  1
  C  C134  1  0.26630100  0.64109600  0.00735200  1
  C  C135  1  0.76630100  0.85890400  0.99264800  1
  C  C136  1  0.72229800  0.52259400  0.30738000  1
  C  C137  1  0.22229800  0.97740600  0.69262000  1
  C  C138  1  0.27770200  0.47740600  0.69262000  1
  C  C139  1  0.77770200  0.02259400  0.30738000  1
  C  C140  1  0.64363500  0.22728900  0.14912900  1
  C  C141  1  0.14363500  0.27271100  0.85087100  1
  C  C142  1  0.35636500  0.77271100  0.85087100  1
  C  C143  1  0.85636500  0.72728900  0.14912900  1
  C  C144  1  0.43304700  0.63313700  0.11902300  1
  C  C145  1  0.93304700  0.86686300  0.88097700  1
  C  C146  1  0.56695300  0.36686300  0.88097700  1
  C  C147  1  0.06695300  0.13313700  0.11902300  1
  C  C148  1  0.53187500  0.70368200  0.71458100  1
  C  C149  1  0.03187500  0.79631800  0.28541900  1
  C  C150  1  0.46812500  0.29631800  0.28541900  1
  C  C151  1  0.96812500  0.20368200  0.71458100  1
  C  C152  1  0.61370000  0.60406300  0.08155400  1
  C  C153  1  0.11370000  0.89593700  0.91844600  1
  C  C154  1  0.38630000  0.39593700  0.91844600  1
  C  C155  1  0.88630000  0.10406300  0.08155400  1
  C  C156  1  0.47814200  0.55394200  0.35098400  1
  C  C157  1  0.97814200  0.94605800  0.64901600  1
  C  C158  1  0.52185800  0.44605800  0.64901600  1
  C  C159  1  0.02185800  0.05394200  0.35098400  1
