# generated using pymatgen
data_Cu5Ni3C20
_symmetry_space_group_name_H-M   'P 1'
_cell_length_a   5.89458181
_cell_length_b   5.89458181
_cell_length_c   9.54893015
_cell_angle_alpha   89.79323734
_cell_angle_beta   89.79323734
_cell_angle_gamma   60.29381146
_symmetry_Int_Tables_number   1
_chemical_formula_structural   Cu5Ni3C20
_chemical_formula_sum   'Cu5 Ni3 C20'
_cell_volume   288.18127354
_cell_formula_units_Z   1
loop_
 _symmetry_equiv_pos_site_id
 _symmetry_equiv_pos_as_xyz
  1  'x, y, z'
loop_
 _atom_site_type_symbol
 _atom_site_label
 _atom_site_symmetry_multiplicity
 _atom_site_fract_x
 _atom_site_fract_y
 _atom_site_fract_z
 _atom_site_occupancy
  C  C0  1  0.66676000  0.66676000  0.10966900  1
  C  C1  1  0.99617200  0.99617200  0.00525500  1
  C  C2  1  0.00042200  0.00042200  0.50157000  1
  C  C3  1  0.33314000  0.33314000  0.60657600  1
  Ni  Ni4  1  0.33737800  0.83173600  0.78637700  1
  Ni  Ni5  1  0.83173600  0.33737800  0.78637700  1
  Ni  Ni6  1  0.17055900  0.17055900  0.28312900  1
  Cu  Cu7  1  0.66736000  0.66736000  0.51404900  1
  Cu  Cu8  1  0.82950400  0.82950400  0.78631900  1
  Cu  Cu9  1  0.33617700  0.33617700  0.01626200  1
  Cu  Cu10  1  0.16969900  0.66133700  0.28974700  1
  Cu  Cu11  1  0.66133700  0.16969900  0.28974700  1
  C  C12  1  0.33000300  0.83749000  0.39734300  1
  C  C13  1  0.52080800  0.52080800  0.66113800  1
  C  C14  1  0.66155300  0.66155300  0.89689800  1
  C  C15  1  0.00173900  0.00173900  0.68808700  1
  C  C16  1  0.00111400  0.00111400  0.19105300  1
  C  C17  1  0.83749000  0.33000300  0.39734300  1
  C  C18  1  0.51663900  0.95920500  0.65932800  1
  C  C19  1  0.95920500  0.51663900  0.65932800  1
  C  C20  1  0.16509400  0.16509400  0.89527300  1
  C  C21  1  0.83466300  0.83466300  0.39501700  1
  C  C22  1  0.04081000  0.47808200  0.15999000  1
  C  C23  1  0.47808200  0.04081000  0.15999000  1
  C  C24  1  0.32917200  0.32917200  0.39795900  1
  C  C25  1  0.17132800  0.67319200  0.89708900  1
  C  C26  1  0.47873400  0.47873400  0.16420800  1
  C  C27  1  0.67319200  0.17132800  0.89708900  1
