# generated using pymatgen
data_Cu(NiC3)2
_symmetry_space_group_name_H-M   'P 1'
_cell_length_a   7.79405300
_cell_length_b   8.67870100
_cell_length_c   28.69451000
_cell_angle_alpha   90.00000000
_cell_angle_beta   90.00000000
_cell_angle_gamma   90.00000000
_symmetry_Int_Tables_number   1
_chemical_formula_structural   Cu(NiC3)2
_chemical_formula_sum   'Cu4 Ni8 C24'
_cell_volume   1940.96137874
_cell_formula_units_Z   4
loop_
 _symmetry_equiv_pos_site_id
 _symmetry_equiv_pos_as_xyz
  1  'x, y, z'
loop_
 _atom_site_type_symbol
 _atom_site_label
 _atom_site_symmetry_multiplicity
 _atom_site_fract_x
 _atom_site_fract_y
 _atom_site_fract_z
 _atom_site_occupancy
  Ni  Ni0  1  0.00000000  0.25000000  0.04951300  1
  Ni  Ni1  1  0.00000000  0.75000000  0.28385400  1
  Ni  Ni2  1  0.00000000  0.25000000  0.71614600  1
  Ni  Ni3  1  0.00000000  0.75000000  0.95048700  1
  Ni  Ni4  1  0.50000000  0.25000000  0.21614600  1
  Ni  Ni5  1  0.50000000  0.25000000  0.54951300  1
  Ni  Ni6  1  0.50000000  0.75000000  0.78385400  1
  Ni  Ni7  1  0.50000000  0.75000000  0.45048700  1
  Cu  Cu8  1  0.00000000  0.25000000  0.38344200  1
  Cu  Cu9  1  0.00000000  0.75000000  0.61655800  1
  Cu  Cu10  1  0.50000000  0.25000000  0.88344200  1
  Cu  Cu11  1  0.50000000  0.75000000  0.11655800  1
  C  C12  1  0.24391900  0.58378900  0.03894900  1
  C  C13  1  0.24391900  0.08378900  0.96105100  1
  C  C14  1  0.26430300  0.58506600  0.19966100  1
  C  C15  1  0.26430300  0.08506600  0.80033900  1
  C  C16  1  0.23240100  0.56533000  0.37155400  1
  C  C17  1  0.23240100  0.06533000  0.62844600  1
  C  C18  1  0.26759900  0.56533000  0.87155400  1
  C  C19  1  0.26759900  0.06533000  0.12844600  1
  C  C20  1  0.23569700  0.08506600  0.30033900  1
  C  C21  1  0.23569700  0.58506600  0.69966100  1
  C  C22  1  0.25608100  0.08378900  0.46105100  1
  C  C23  1  0.25608100  0.58378900  0.53894900  1
  C  C24  1  0.74391900  0.41621100  0.46105100  1
  C  C25  1  0.74391900  0.91621100  0.53894900  1
  C  C26  1  0.76430300  0.41493400  0.30033900  1
  C  C27  1  0.76430300  0.91493400  0.69966100  1
  C  C28  1  0.73240100  0.43467000  0.12844600  1
  C  C29  1  0.73240100  0.93467000  0.87155400  1
  C  C30  1  0.76759900  0.43467000  0.62844600  1
  C  C31  1  0.76759900  0.93467000  0.37155400  1
  C  C32  1  0.73569700  0.91493400  0.19966100  1
  C  C33  1  0.73569700  0.41493400  0.80033900  1
  C  C34  1  0.75608100  0.91621100  0.03894900  1
  C  C35  1  0.75608100  0.41621100  0.96105100  1
