# generated using pymatgen
data_CuNiC11
_symmetry_space_group_name_H-M   'P 1'
_cell_length_a   6.51363500
_cell_length_b   8.53595600
_cell_length_c   10.04057321
_cell_angle_alpha   85.20515104
_cell_angle_beta   90.00000000
_cell_angle_gamma   90.00000000
_symmetry_Int_Tables_number   1
_chemical_formula_structural   CuNiC11
_chemical_formula_sum   'Cu4 Ni4 C44'
_cell_volume   556.30320415
_cell_formula_units_Z   4
loop_
 _symmetry_equiv_pos_site_id
 _symmetry_equiv_pos_as_xyz
  1  'x, y, z'
loop_
 _atom_site_type_symbol
 _atom_site_label
 _atom_site_symmetry_multiplicity
 _atom_site_fract_x
 _atom_site_fract_y
 _atom_site_fract_z
 _atom_site_occupancy
  C  C0  1  0.00000000  0.90796900  0.62035800  1
  C  C1  1  0.00000000  0.90952400  0.12067300  1
  C  C2  1  0.22530600  0.72556700  0.87568900  1
  C  C3  1  0.77469400  0.72556700  0.87568900  1
  C  C4  1  0.22613600  0.72636700  0.37655000  1
  C  C5  1  0.77386400  0.72636700  0.37655000  1
  C  C6  1  0.72421200  0.27456600  0.62355600  1
  C  C7  1  0.27578800  0.27456600  0.62355600  1
  C  C8  1  0.72465700  0.27401200  0.12305800  1
  C  C9  1  0.27534300  0.27401200  0.12305800  1
  C  C10  1  0.50000000  0.09174600  0.87973000  1
  C  C11  1  0.50000000  0.09296600  0.38021300  1
  C  C12  1  0.00000000  0.34059300  0.38901900  1
  C  C13  1  0.50000000  0.66534400  0.60577800  1
  C  C14  1  0.50000000  0.66468100  0.10634200  1
  C  C15  1  0.00000000  0.33399900  0.89448300  1
  Ni  Ni16  1  0.00000000  0.58699800  0.64165000  1
  Ni  Ni17  1  0.00000000  0.58966200  0.13966800  1
  Ni  Ni18  1  0.50000000  0.41220800  0.85926600  1
  Ni  Ni19  1  0.50000000  0.41117900  0.36001300  1
  Cu  Cu20  1  0.50000000  0.96565900  0.64883400  1
  Cu  Cu21  1  0.50000000  0.96588400  0.14856600  1
  Cu  Cu22  1  0.00000000  0.03473200  0.85132700  1
  Cu  Cu23  1  0.00000000  0.03273600  0.35175100  1
  C  C24  1  0.50000000  0.92873800  0.52624200  1
  C  C25  1  0.00000000  0.88866500  0.82200000  1
  C  C26  1  0.50000000  0.92911100  0.02600300  1
  C  C27  1  0.50000000  0.85276200  0.74531900  1
  C  C28  1  0.00000000  0.88658600  0.32218000  1
  C  C29  1  0.50000000  0.85282100  0.24501000  1
  C  C30  1  0.18665800  0.68854600  0.58801700  1
  C  C31  1  0.81334200  0.68854600  0.58801700  1
  C  C32  1  0.18704200  0.68985300  0.08603500  1
  C  C33  1  0.81295800  0.68985300  0.08603500  1
  C  C34  1  0.50000000  0.57826400  0.90961100  1
  C  C35  1  0.00000000  0.57195700  0.79785200  1
  C  C36  1  0.50000000  0.57822600  0.40939100  1
  C  C37  1  0.00000000  0.57639800  0.29568600  1
  C  C38  1  0.50000000  0.42821300  0.70316000  1
  C  C39  1  0.00000000  0.42091600  0.59201700  1
  C  C40  1  0.50000000  0.42809600  0.20347800  1
  C  C41  1  0.00000000  0.42171400  0.09297100  1
  C  C42  1  0.31327300  0.31083000  0.91255000  1
  C  C43  1  0.68672700  0.31083000  0.91255000  1
  C  C44  1  0.68480800  0.30939900  0.41349400  1
  C  C45  1  0.31519200  0.30939900  0.41349400  1
  C  C46  1  0.00000000  0.14705900  0.75488100  1
  C  C47  1  0.50000000  0.11101900  0.67822700  1
  C  C48  1  0.00000000  0.14420300  0.25461000  1
  C  C49  1  0.00000000  0.07130700  0.97369400  1
  C  C50  1  0.50000000  0.11122300  0.17794500  1
  C  C51  1  0.00000000  0.06856400  0.47415400  1
