# generated using pymatgen
data_CuNiC6
_symmetry_space_group_name_H-M   'P 1'
_cell_length_a   10.83177300
_cell_length_b   5.13440200
_cell_length_c   8.09250844
_cell_angle_alpha   51.76837156
_cell_angle_beta   90.00000000
_cell_angle_gamma   90.00000000
_symmetry_Int_Tables_number   1
_chemical_formula_structural   CuNiC6
_chemical_formula_sum   'Cu4 Ni4 C24'
_cell_volume   353.53082232
_cell_formula_units_Z   4
loop_
 _symmetry_equiv_pos_site_id
 _symmetry_equiv_pos_as_xyz
  1  'x, y, z'
loop_
 _atom_site_type_symbol
 _atom_site_label
 _atom_site_symmetry_multiplicity
 _atom_site_fract_x
 _atom_site_fract_y
 _atom_site_fract_z
 _atom_site_occupancy
  C  C0  1  0.83276000  0.30494000  0.00690100  1
  C  C1  1  0.08079600  0.05131600  0.24007100  1
  C  C2  1  0.58079600  0.94868400  0.25992900  1
  C  C3  1  0.33276000  0.69506000  0.49309900  1
  C  C4  1  0.66724000  0.30494000  0.50690100  1
  C  C5  1  0.41920400  0.05131600  0.74007100  1
  C  C6  1  0.91920400  0.94868400  0.75992900  1
  C  C7  1  0.16724000  0.69506000  0.99309900  1
  Ni  Ni8  1  0.66444400  0.82088800  0.99958800  1
  Ni  Ni9  1  0.16444400  0.17911200  0.50041200  1
  Ni  Ni10  1  0.83555600  0.82088800  0.49958800  1
  Ni  Ni11  1  0.33555600  0.17911200  0.00041200  1
  Cu  Cu12  1  0.41365600  0.43862200  0.24623900  1
  Cu  Cu13  1  0.91365600  0.56137800  0.25376100  1
  Cu  Cu14  1  0.08634400  0.43862200  0.74623900  1
  Cu  Cu15  1  0.58634400  0.56137800  0.75376100  1
  C  C16  1  0.33418300  0.81727400  0.01547000  1
  C  C17  1  0.81977600  0.68865800  0.02092700  1
  C  C18  1  0.07842600  0.45921500  0.26393200  1
  C  C19  1  0.40789600  0.08803400  0.22824800  1
  C  C20  1  0.90789600  0.91196600  0.27175200  1
  C  C21  1  0.57842600  0.54078500  0.23606800  1
  C  C22  1  0.31977600  0.31134200  0.47907300  1
  C  C23  1  0.83418300  0.18272600  0.48453000  1
  C  C24  1  0.16581700  0.81727400  0.51547000  1
  C  C25  1  0.68022400  0.68865800  0.52092700  1
  C  C26  1  0.42157400  0.45921500  0.76393200  1
  C  C27  1  0.09210400  0.08803400  0.72824800  1
  C  C28  1  0.59210400  0.91196600  0.77175200  1
  C  C29  1  0.92157400  0.54078500  0.73606800  1
  C  C30  1  0.18022400  0.31134200  0.97907300  1
  C  C31  1  0.66581700  0.18272600  0.98453000  1
