# generated using pymatgen
data_CuNi6C5
_symmetry_space_group_name_H-M   'P 1'
_cell_length_a   7.54884900
_cell_length_b   10.52741500
_cell_length_c   11.77591170
_cell_angle_alpha   84.73816101
_cell_angle_beta   90.00000000
_cell_angle_gamma   90.00000000
_symmetry_Int_Tables_number   1
_chemical_formula_structural   CuNi6C5
_chemical_formula_sum   'Cu4 Ni24 C20'
_cell_volume   931.88653833
_cell_formula_units_Z   4
loop_
 _symmetry_equiv_pos_site_id
 _symmetry_equiv_pos_as_xyz
  1  'x, y, z'
loop_
 _atom_site_type_symbol
 _atom_site_label
 _atom_site_symmetry_multiplicity
 _atom_site_fract_x
 _atom_site_fract_y
 _atom_site_fract_z
 _atom_site_occupancy
  C  C0  1  0.58312900  0.00871100  0.16186600  1
  C  C1  1  0.08312900  0.49128900  0.83813400  1
  C  C2  1  0.41687100  0.99128900  0.83813400  1
  C  C3  1  0.91687100  0.50871100  0.16186600  1
  Ni  Ni4  1  0.76990800  0.92430700  0.27228400  1
  Ni  Ni5  1  0.26990800  0.57569300  0.72771600  1
  Ni  Ni6  1  0.23009200  0.07569300  0.72771600  1
  Ni  Ni7  1  0.73009200  0.42430700  0.27228400  1
  Ni  Ni8  1  0.46098300  0.07296800  0.28158300  1
  Ni  Ni9  1  0.96098300  0.42703200  0.71841700  1
  Ni  Ni10  1  0.53901700  0.92703200  0.71841700  1
  Ni  Ni11  1  0.03901700  0.57296800  0.28158300  1
  Ni  Ni12  1  0.26445300  0.22938700  0.34129400  1
  Ni  Ni13  1  0.76445300  0.27061300  0.65870600  1
  Ni  Ni14  1  0.73554700  0.77061300  0.65870600  1
  Ni  Ni15  1  0.23554700  0.72938700  0.34129400  1
  Ni  Ni16  1  0.25588500  0.31634500  0.40977600  1
  Ni  Ni17  1  0.75588500  0.18365500  0.59022400  1
  Ni  Ni18  1  0.74411500  0.68365500  0.59022400  1
  Ni  Ni19  1  0.24411500  0.81634500  0.40977600  1
  Ni  Ni20  1  0.23135400  0.15836800  0.15915600  1
  Ni  Ni21  1  0.73135400  0.34163200  0.84084400  1
  Ni  Ni22  1  0.76864600  0.84163200  0.84084400  1
  Ni  Ni23  1  0.26864600  0.65836800  0.15915600  1
  Ni  Ni24  1  0.14087200  0.15786000  0.06809800  1
  Ni  Ni25  1  0.64087200  0.34214000  0.93190200  1
  Ni  Ni26  1  0.85912800  0.84214000  0.93190200  1
  Ni  Ni27  1  0.35912800  0.65786000  0.06809800  1
  Cu  Cu28  1  0.31268600  0.15492600  0.26061200  1
  Cu  Cu29  1  0.81268600  0.34507400  0.73938800  1
  Cu  Cu30  1  0.68731400  0.84507400  0.73938800  1
  Cu  Cu31  1  0.18731400  0.65492600  0.26061200  1
  C  C32  1  0.85471900  0.00944600  0.33266800  1
  C  C33  1  0.35471900  0.49055400  0.66733200  1
  C  C34  1  0.14528100  0.99055400  0.66733200  1
  C  C35  1  0.64528100  0.50944600  0.33266800  1
  C  C36  1  0.89370400  0.86768800  0.20943300  1
  C  C37  1  0.39370400  0.63231200  0.79056700  1
  C  C38  1  0.10629600  0.13231200  0.79056700  1
  C  C39  1  0.60629600  0.36768800  0.20943300  1
  C  C40  1  0.69639900  0.83237800  0.34571000  1
  C  C41  1  0.19639900  0.66762200  0.65429000  1
  C  C42  1  0.30360100  0.16762200  0.65429000  1
  C  C43  1  0.80360100  0.33237800  0.34571000  1
  C  C44  1  0.50789400  0.06250800  0.38973000  1
  C  C45  1  0.00789400  0.43749200  0.61027000  1
  C  C46  1  0.49210600  0.93749200  0.61027000  1
  C  C47  1  0.99210600  0.56250800  0.38973000  1
