# generated using pymatgen
data_Cu2Ni8C7
_symmetry_space_group_name_H-M   'P 1'
_cell_length_a   6.47076600
_cell_length_b   10.01715550
_cell_length_c   10.06442118
_cell_angle_alpha   60.24158481
_cell_angle_beta   89.90335153
_cell_angle_gamma   89.85182931
_symmetry_Int_Tables_number   1
_chemical_formula_structural   Cu2Ni8C7
_chemical_formula_sum   'Cu6 Ni24 C21'
_cell_volume   566.33074570
_cell_formula_units_Z   3
loop_
 _symmetry_equiv_pos_site_id
 _symmetry_equiv_pos_as_xyz
  1  'x, y, z'
loop_
 _atom_site_type_symbol
 _atom_site_label
 _atom_site_symmetry_multiplicity
 _atom_site_fract_x
 _atom_site_fract_y
 _atom_site_fract_z
 _atom_site_occupancy
  C  C0  1  0.57227000  0.99985800  0.00099500  1
  C  C1  1  0.73830500  0.13993100  0.18160800  1
  C  C2  1  0.73638000  0.67669300  0.14375900  1
  C  C3  1  0.07048300  0.32879200  0.34106100  1
  C  C4  1  0.50507000  0.32737700  0.34238800  1
  C  C5  1  0.48376000  0.83191400  0.34016900  1
  C  C6  1  0.73546300  0.18125900  0.67201300  1
  C  C7  1  0.49271500  0.34016500  0.82181200  1
  C  C8  1  0.44393100  0.66978800  0.66177200  1
  C  C9  1  0.05220400  0.66908700  0.66068600  1
  C  C10  1  0.26149600  0.47799300  0.99798700  1
  C  C11  1  0.49429200  0.83445200  0.83037100  1
  C  C12  1  0.99936600  0.83219900  0.33329900  1
  C  C13  1  0.99435600  0.33172100  0.83031400  1
  C  C14  1  0.99696800  0.83506500  0.83372700  1
  C  C15  1  0.25207100  0.14506400  0.15277700  1
  C  C16  1  0.25123900  0.70374500  0.13964400  1
  C  C17  1  0.73110500  0.53268800  0.50843900  1
  C  C18  1  0.25553900  0.15362900  0.69824200  1
  C  C19  1  0.73309100  0.95777500  0.53352300  1
  C  C20  1  0.73103500  0.50807900  0.96335400  1
  Ni  Ni21  1  0.45062800  0.05645900  0.16336700  1
  Ni  Ni22  1  0.05856900  0.03967600  0.18992600  1
  Ni  Ni23  1  0.73722000  0.38736300  0.13278600  1
  Ni  Ni24  1  0.25572900  0.23411900  0.23879100  1
  Ni  Ni25  1  0.05468900  0.77708600  0.03754400  1
  Ni  Ni26  1  0.44956300  0.78500100  0.05405600  1
  Ni  Ni27  1  0.25398600  0.53050000  0.19902800  1
  Ni  Ni28  1  0.73738100  0.12766600  0.48707400  1
  Ni  Ni29  1  0.73732600  0.48096100  0.38965400  1
  Ni  Ni30  1  0.21690500  0.74768500  0.26819400  1
  Ni  Ni31  1  0.25763400  0.24847400  0.52544500  1
  Ni  Ni32  1  0.92122700  0.64032200  0.49156600  1
  Ni  Ni33  1  0.53837400  0.62016700  0.50827000  1
  Ni  Ni34  1  0.77072100  0.93414000  0.39231100  1
  Ni  Ni35  1  0.45190600  0.16374400  0.77812800  1
  Ni  Ni36  1  0.05838700  0.19243100  0.76526500  1
  Ni  Ni37  1  0.76571600  0.39323800  0.67536900  1
  Ni  Ni38  1  0.54146400  0.86987400  0.62114400  1
  Ni  Ni39  1  0.92270400  0.86563200  0.64221100  1
  Ni  Ni40  1  0.21643100  0.26865800  0.97743100  1
  Ni  Ni41  1  0.92099200  0.48877700  0.87429500  1
  Ni  Ni42  1  0.53112000  0.50508700  0.88237500  1
  Ni  Ni43  1  0.21978800  0.97725200  0.75651700  1
  Ni  Ni44  1  0.76563700  0.67493100  0.93587300  1
  Cu  Cu45  1  0.77488000  0.83088600  0.20502900  1
  Cu  Cu46  1  0.20936800  0.82382800  0.47276100  1
  Cu  Cu47  1  0.20492400  0.47536200  0.70473400  1
  Cu  Cu48  1  0.77382300  0.20239800  0.96314600  1
  Cu  Cu49  1  0.20730800  0.69373700  0.83333900  1
  Cu  Cu50  1  0.77485600  0.96689100  0.82950700  1
