# generated using pymatgen
data_Cu6Ni3C10
_symmetry_space_group_name_H-M   'P 1'
_cell_length_a   7.61364924
_cell_length_b   7.61364924
_cell_length_c   9.88071456
_cell_angle_alpha   75.68117731
_cell_angle_beta   75.68117731
_cell_angle_gamma   50.30726399
_symmetry_Int_Tables_number   1
_chemical_formula_structural   Cu6Ni3C10
_chemical_formula_sum   'Cu12 Ni6 C20'
_cell_volume   423.95915680
_cell_formula_units_Z   2
loop_
 _symmetry_equiv_pos_site_id
 _symmetry_equiv_pos_as_xyz
  1  'x, y, z'
loop_
 _atom_site_type_symbol
 _atom_site_label
 _atom_site_symmetry_multiplicity
 _atom_site_fract_x
 _atom_site_fract_y
 _atom_site_fract_z
 _atom_site_occupancy
  C  C0  1  0.29622400  0.09692200  0.35694100  1
  C  C1  1  0.09692200  0.29622400  0.85694100  1
  Ni  Ni2  1  0.61111500  0.78775600  0.93527100  1
  Ni  Ni3  1  0.78775600  0.61111500  0.43527100  1
  Ni  Ni4  1  0.13620800  0.95244100  0.68003100  1
  Ni  Ni5  1  0.95244100  0.13620800  0.18003100  1
  Ni  Ni6  1  0.38860500  0.32896700  0.55394300  1
  Ni  Ni7  1  0.32896700  0.38860500  0.05394300  1
  Cu  Cu8  1  0.72294300  0.84880700  0.98236100  1
  Cu  Cu9  1  0.84880700  0.72294300  0.48236100  1
  Cu  Cu10  1  0.34377800  0.79318800  0.73848200  1
  Cu  Cu11  1  0.79318800  0.34377800  0.23848200  1
  Cu  Cu12  1  0.60395800  0.21950300  0.59530500  1
  Cu  Cu13  1  0.21950300  0.60395800  0.09530500  1
  Cu  Cu14  1  0.40475500  0.80146300  0.13768900  1
  Cu  Cu15  1  0.80146300  0.40475500  0.63768900  1
  Cu  Cu16  1  0.72220000  0.04523400  0.22189300  1
  Cu  Cu17  1  0.04523400  0.72220000  0.72189300  1
  Cu  Cu18  1  0.67139600  0.29484700  0.95747200  1
  Cu  Cu19  1  0.29484700  0.67139600  0.45747200  1
  C  C20  1  0.41148100  0.00324100  0.85939800  1
  C  C21  1  0.00324100  0.41148100  0.35939800  1
  C  C22  1  0.59651000  0.78281900  0.34140600  1
  C  C23  1  0.78281900  0.59651000  0.84140600  1
  C  C24  1  0.52315000  0.68678500  0.06886100  1
  C  C25  1  0.68678500  0.52315000  0.56886100  1
  C  C26  1  0.17908900  0.94964600  0.51989400  1
  C  C27  1  0.94964600  0.17908900  0.01989400  1
  C  C28  1  0.18802300  0.01359100  0.22623300  1
  C  C29  1  0.01359100  0.18802300  0.72623300  1
  C  C30  1  0.87408100  0.98084100  0.24726500  1
  C  C31  1  0.98084100  0.87408100  0.74726500  1
  C  C32  1  0.43519800  0.20280800  0.18039200  1
  C  C33  1  0.20280800  0.43519800  0.68039200  1
  C  C34  1  0.52835900  0.34087800  0.93107600  1
  C  C35  1  0.34087800  0.52835900  0.43107600  1
  C  C36  1  0.41069000  0.15089800  0.49198400  1
  C  C37  1  0.15089800  0.41069000  0.99198400  1
