# generated using pymatgen
data_CuNi3C10
_symmetry_space_group_name_H-M   'P 1'
_cell_length_a   8.36042800
_cell_length_b   8.36042800
_cell_length_c   8.36042800
_cell_angle_alpha   90.00000000
_cell_angle_beta   90.00000000
_cell_angle_gamma   90.00000000
_symmetry_Int_Tables_number   1
_chemical_formula_structural   CuNi3C10
_chemical_formula_sum   'Cu4 Ni12 C40'
_cell_volume   584.36679884
_cell_formula_units_Z   4
loop_
 _symmetry_equiv_pos_site_id
 _symmetry_equiv_pos_as_xyz
  1  'x, y, z'
loop_
 _atom_site_type_symbol
 _atom_site_label
 _atom_site_symmetry_multiplicity
 _atom_site_fract_x
 _atom_site_fract_y
 _atom_site_fract_z
 _atom_site_occupancy
  C  C0  1  0.50135300  0.50135300  0.50135300  1
  C  C1  1  0.74864700  0.74864700  0.74864700  1
  C  C2  1  0.75135300  0.25135300  0.24864700  1
  C  C3  1  0.99864700  0.49864700  0.00135300  1
  C  C4  1  0.00135300  0.99864700  0.49864700  1
  C  C5  1  0.24864700  0.75135300  0.25135300  1
  C  C6  1  0.25135300  0.24864700  0.75135300  1
  C  C7  1  0.49864700  0.00135300  0.99864700  1
  Ni  Ni8  1  0.62786700  0.62213300  0.12500000  1
  Ni  Ni9  1  0.62500000  0.87213300  0.37786700  1
  Ni  Ni10  1  0.62213300  0.12500000  0.62786700  1
  Ni  Ni11  1  0.87786700  0.87500000  0.12786700  1
  Ni  Ni12  1  0.87500000  0.12786700  0.87786700  1
  Ni  Ni13  1  0.87213300  0.37786700  0.62500000  1
  Ni  Ni14  1  0.12786700  0.87786700  0.87500000  1
  Ni  Ni15  1  0.12500000  0.62786700  0.62213300  1
  Ni  Ni16  1  0.12213300  0.37500000  0.37213300  1
  Ni  Ni17  1  0.37786700  0.62500000  0.87213300  1
  Ni  Ni18  1  0.37500000  0.37213300  0.12213300  1
  Ni  Ni19  1  0.37213300  0.12213300  0.37500000  1
  Cu  Cu20  1  0.62500000  0.37500000  0.87500000  1
  Cu  Cu21  1  0.87500000  0.62500000  0.37500000  1
  Cu  Cu22  1  0.12500000  0.12500000  0.12500000  1
  Cu  Cu23  1  0.37500000  0.87500000  0.62500000  1
  C  C24  1  0.61889900  0.60167700  0.88357300  1
  C  C25  1  0.61642700  0.38110100  0.10167700  1
  C  C26  1  0.61308400  0.11308400  0.38691600  1
  C  C27  1  0.64832300  0.63110100  0.36642700  1
  C  C28  1  0.60167700  0.88357300  0.61889900  1
  C  C29  1  0.63691600  0.86308400  0.13691600  1
  C  C30  1  0.63357300  0.14832300  0.86889900  1
  C  C31  1  0.63110100  0.36642700  0.64832300  1
  C  C32  1  0.86889900  0.63357300  0.14832300  1
  C  C33  1  0.86642700  0.85167700  0.36889900  1
  C  C34  1  0.86308400  0.13691600  0.63691600  1
  C  C35  1  0.89832300  0.11642700  0.11889900  1
  C  C36  1  0.85167700  0.36889900  0.86642700  1
  C  C37  1  0.88691600  0.88691600  0.88691600  1
  C  C38  1  0.88357300  0.61889900  0.60167700  1
  C  C39  1  0.88110100  0.39832300  0.38357300  1
  C  C40  1  0.11889900  0.89832300  0.11642700  1
  C  C41  1  0.11642700  0.11889900  0.89832300  1
  C  C42  1  0.11308400  0.38691600  0.61308400  1
  C  C43  1  0.14832300  0.86889900  0.63357300  1
  C  C44  1  0.10167700  0.61642700  0.38110100  1
  C  C45  1  0.13691600  0.63691600  0.86308400  1
  C  C46  1  0.13357300  0.35167700  0.13110100  1
  C  C47  1  0.13110100  0.13357300  0.35167700  1
  C  C48  1  0.36889900  0.86642700  0.85167700  1
  C  C49  1  0.36642700  0.64832300  0.63110100  1
  C  C50  1  0.36308400  0.36308400  0.36308400  1
  C  C51  1  0.39832300  0.38357300  0.88110100  1
  C  C52  1  0.35167700  0.13110100  0.13357300  1
  C  C53  1  0.38691600  0.61308400  0.11308400  1
  C  C54  1  0.38357300  0.88110100  0.39832300  1
  C  C55  1  0.38110100  0.10167700  0.61642700  1
