# generated using pymatgen
data_CuNiC5
_symmetry_space_group_name_H-M   'P 1'
_cell_length_a   4.93077800
_cell_length_b   6.02826700
_cell_length_c   10.40339300
_cell_angle_alpha   90.00000000
_cell_angle_beta   90.00294991
_cell_angle_gamma   90.00009400
_symmetry_Int_Tables_number   1
_chemical_formula_structural   CuNiC5
_chemical_formula_sum   'Cu4 Ni4 C20'
_cell_volume   309.23093502
_cell_formula_units_Z   4
loop_
 _symmetry_equiv_pos_site_id
 _symmetry_equiv_pos_as_xyz
  1  'x, y, z'
loop_
 _atom_site_type_symbol
 _atom_site_label
 _atom_site_symmetry_multiplicity
 _atom_site_fract_x
 _atom_site_fract_y
 _atom_site_fract_z
 _atom_site_occupancy
  C  C0  1  0.99999900  0.99999500  0.00000000  1
  C  C1  1  0.50000000  0.99999300  0.50000000  1
  C  C2  1  0.99999900  0.50000800  0.00000000  1
  C  C3  1  0.50000000  0.50000800  0.50000000  1
  Ni  Ni4  1  0.43049100  0.24999600  0.09457300  1
  Ni  Ni5  1  0.06952800  0.25000500  0.59457900  1
  Ni  Ni6  1  0.93047200  0.75000100  0.40543600  1
  Ni  Ni7  1  0.56950200  0.74999600  0.90541100  1
  Cu  Cu8  1  0.50650100  0.25001500  0.76908200  1
  Cu  Cu9  1  0.49351500  0.74998200  0.23090500  1
  Cu  Cu10  1  0.99349600  0.24998600  0.26912400  1
  Cu  Cu11  1  0.00649300  0.75000200  0.73087800  1
  C  C12  1  0.20282800  0.25000200  0.44016500  1
  C  C13  1  0.29718000  0.25000000  0.94016700  1
  C  C14  1  0.79717500  0.75000000  0.55982600  1
  C  C15  1  0.70282100  0.75000200  0.05982700  1
  C  C16  1  0.78273400  0.25000200  0.09613800  1
  C  C17  1  0.71729100  0.25000100  0.59611800  1
  C  C18  1  0.28271300  0.75000100  0.40388100  1
  C  C19  1  0.21727800  0.75000000  0.90386500  1
  C  C20  1  0.27316600  0.02177000  0.16939100  1
  C  C21  1  0.22686200  0.02177900  0.66936500  1
  C  C22  1  0.27316600  0.47823400  0.16939200  1
  C  C23  1  0.22686200  0.47822200  0.66936500  1
  C  C24  1  0.72682300  0.52179100  0.83061800  1
  C  C25  1  0.77314200  0.52178400  0.33063900  1
  C  C26  1  0.77313800  0.97821600  0.33063800  1
  C  C27  1  0.72682300  0.97821000  0.83061900  1
