# generated using pymatgen
data_Cu(NiC6)5
_symmetry_space_group_name_H-M   'P 1'
_cell_length_a   8.72608685
_cell_length_b   8.72608685
_cell_length_c   8.72608743
_cell_angle_alpha   59.92581111
_cell_angle_beta   59.92581111
_cell_angle_gamma   59.92581187
_symmetry_Int_Tables_number   1
_chemical_formula_structural   Cu(NiC6)5
_chemical_formula_sum   'Cu1 Ni5 C30'
_cell_volume   469.04246913
_cell_formula_units_Z   1
loop_
 _symmetry_equiv_pos_site_id
 _symmetry_equiv_pos_as_xyz
  1  'x, y, z'
loop_
 _atom_site_type_symbol
 _atom_site_label
 _atom_site_symmetry_multiplicity
 _atom_site_fract_x
 _atom_site_fract_y
 _atom_site_fract_z
 _atom_site_occupancy
  Ni  Ni0  1  0.00511700  0.00511700  0.00511700  1
  Ni  Ni1  1  0.35543900  0.35543900  0.35543900  1
  Ni  Ni2  1  0.50033000  0.50033000  0.50033000  1
  Ni  Ni3  1  0.14670300  0.14670300  0.14670300  1
  Ni  Ni4  1  0.64458200  0.64458200  0.64458200  1
  Cu  Cu5  1  0.85603800  0.85603800  0.85603800  1
  C  C6  1  0.74783800  0.04562000  0.45095900  1
  C  C7  1  0.04562000  0.45095900  0.74783800  1
  C  C8  1  0.45095900  0.74783800  0.04562000  1
  C  C9  1  0.53925400  0.25613300  0.95665600  1
  C  C10  1  0.95665600  0.53925400  0.25613300  1
  C  C11  1  0.25613300  0.95665600  0.53925400  1
  C  C12  1  0.88844000  0.48910800  0.69040800  1
  C  C13  1  0.48910800  0.69040800  0.88844000  1
  C  C14  1  0.69040800  0.88844000  0.48910800  1
  C  C15  1  0.91497100  0.05925100  0.26264300  1
  C  C16  1  0.81381900  0.99265000  0.61554600  1
  C  C17  1  0.59123400  0.23698900  0.44618900  1
  C  C18  1  0.05925100  0.26264300  0.91497100  1
  C  C19  1  0.23698900  0.44618900  0.59123400  1
  C  C20  1  0.38593100  0.19452900  0.98949900  1
  C  C21  1  0.44618900  0.59123400  0.23698900  1
  C  C22  1  0.73620000  0.08828700  0.93454300  1
  C  C23  1  0.98949900  0.38593100  0.19452900  1
  C  C24  1  0.99265000  0.61554600  0.81381900  1
  C  C25  1  0.26264300  0.91497100  0.05925100  1
  C  C26  1  0.56040100  0.41292700  0.76014300  1
  C  C27  1  0.61554600  0.81381900  0.99265000  1
  C  C28  1  0.76014300  0.56040100  0.41292700  1
  C  C29  1  0.93454300  0.73620000  0.08828700  1
  C  C30  1  0.41292700  0.76014300  0.56040100  1
  C  C31  1  0.19452900  0.98949900  0.38593100  1
  C  C32  1  0.08828700  0.93454300  0.73620000  1
  C  C33  1  0.30812300  0.11058600  0.51292600  1
  C  C34  1  0.51292600  0.30812300  0.11058600  1
  C  C35  1  0.11058600  0.51292600  0.30812300  1
