# generated using pymatgen
data_Cu3NiC2
_symmetry_space_group_name_H-M   'P 1'
_cell_length_a   4.87999690
_cell_length_b   4.87999690
_cell_length_c   15.42507200
_cell_angle_alpha   90.00000000
_cell_angle_beta   90.00000000
_cell_angle_gamma   91.75546521
_symmetry_Int_Tables_number   1
_chemical_formula_structural   Cu3NiC2
_chemical_formula_sum   'Cu15 Ni5 C10'
_cell_volume   367.16596572
_cell_formula_units_Z   5
loop_
 _symmetry_equiv_pos_site_id
 _symmetry_equiv_pos_as_xyz
  1  'x, y, z'
loop_
 _atom_site_type_symbol
 _atom_site_label
 _atom_site_symmetry_multiplicity
 _atom_site_fract_x
 _atom_site_fract_y
 _atom_site_fract_z
 _atom_site_occupancy
  C  C0  1  0.97003800  0.97003800  0.80022800  1
  C  C1  1  0.03063200  0.03063200  0.00000000  1
  C  C2  1  0.97003800  0.97003800  0.19977200  1
  C  C3  1  0.02079600  0.02079600  0.39979600  1
  C  C4  1  0.02079600  0.02079600  0.60020400  1
  C  C5  1  0.50007900  0.50007900  0.89993200  1
  C  C6  1  0.50018700  0.50018700  0.30019600  1
  C  C7  1  0.50007900  0.50007900  0.10006800  1
  C  C8  1  0.47548900  0.47548900  0.50000000  1
  C  C9  1  0.50018700  0.50018700  0.69980400  1
  Ni  Ni10  1  0.33167000  0.33167000  0.00000000  1
  Ni  Ni11  1  0.32225300  0.32225300  0.39732500  1
  Ni  Ni12  1  0.32225300  0.32225300  0.60267500  1
  Ni  Ni13  1  0.66837400  0.66837400  0.79997300  1
  Ni  Ni14  1  0.66837400  0.66837400  0.20002700  1
  Cu  Cu15  1  0.79554000  0.20472500  0.90016600  1
  Cu  Cu16  1  0.79554000  0.20472500  0.09983400  1
  Cu  Cu17  1  0.79218200  0.20166500  0.29978200  1
  Cu  Cu18  1  0.80128400  0.21367200  0.50000000  1
  Cu  Cu19  1  0.79218200  0.20166500  0.70021800  1
  Cu  Cu20  1  0.29053900  0.29053900  0.80056500  1
  Cu  Cu21  1  0.29053900  0.29053900  0.19943500  1
  Cu  Cu22  1  0.70957600  0.70957500  0.00000000  1
  Cu  Cu23  1  0.70245900  0.70245900  0.40111900  1
  Cu  Cu24  1  0.70245900  0.70245900  0.59888100  1
  Cu  Cu25  1  0.20472500  0.79554000  0.90016600  1
  Cu  Cu26  1  0.20166500  0.79218200  0.29978200  1
  Cu  Cu27  1  0.20472500  0.79554000  0.09983400  1
  Cu  Cu28  1  0.20166500  0.79218200  0.70021800  1
  Cu  Cu29  1  0.21367200  0.80128400  0.50000000  1
