# generated using pymatgen
data_Cu4(NiC7)3
_symmetry_space_group_name_H-M   'P 1'
_cell_length_a   6.76970200
_cell_length_b   4.85562900
_cell_length_c   10.93427889
_cell_angle_alpha   88.79380630
_cell_angle_beta   90.00000000
_cell_angle_gamma   90.00000000
_symmetry_Int_Tables_number   1
_chemical_formula_structural   Cu4(NiC7)3
_chemical_formula_sum   'Cu4 Ni3 C21'
_cell_volume   359.34280246
_cell_formula_units_Z   1
loop_
 _symmetry_equiv_pos_site_id
 _symmetry_equiv_pos_as_xyz
  1  'x, y, z'
loop_
 _atom_site_type_symbol
 _atom_site_label
 _atom_site_symmetry_multiplicity
 _atom_site_fract_x
 _atom_site_fract_y
 _atom_site_fract_z
 _atom_site_occupancy
  C  C0  1  0.27374100  0.96681900  0.00753900  1
  C  C1  1  0.72625900  0.96681900  0.00753900  1
  C  C2  1  0.75686400  0.49778100  0.48717800  1
  C  C3  1  0.24313600  0.49778100  0.48717800  1
  C  C4  1  0.00000000  0.03555600  0.27156500  1
  Ni  Ni5  1  0.00000000  0.46645400  0.78153300  1
  Ni  Ni6  1  0.50000000  0.54179100  0.21776900  1
  Ni  Ni7  1  0.50000000  0.94285700  0.70402200  1
  Cu  Cu8  1  0.50000000  0.09554200  0.41628200  1
  Cu  Cu9  1  0.50000000  0.38031300  0.92888000  1
  Cu  Cu10  1  0.00000000  0.62320200  0.10158000  1
  Cu  Cu11  1  0.00000000  0.91548400  0.55640700  1
  C  C12  1  0.50000000  0.23667400  0.54630100  1
  C  C13  1  0.31364400  0.21370700  0.34770300  1
  C  C14  1  0.68635600  0.21370700  0.34770300  1
  C  C15  1  0.00000000  0.23161700  0.55445000  1
  C  C16  1  0.00000000  0.30863600  0.12041400  1
  C  C17  1  0.31474800  0.27444700  0.85695500  1
  C  C18  1  0.68525200  0.27444700  0.85695500  1
  C  C19  1  0.50000000  0.22114900  0.05515500  1
  C  C20  1  0.00000000  0.71785600  0.96323800  1
  C  C21  1  0.81934000  0.76848100  0.16219900  1
  C  C22  1  0.18066000  0.76848100  0.16219900  1
  C  C23  1  0.50000000  0.69197400  0.94891900  1
  C  C24  1  0.50000000  0.78056300  0.43101500  1
  C  C25  1  0.81729500  0.78842000  0.62691300  1
  C  C26  1  0.18270500  0.78842000  0.62691300  1
  C  C27  1  0.00000000  0.79102400  0.42549500  1
