# generated using pymatgen
data_Cu7NiC4
_symmetry_space_group_name_H-M   'P 1'
_cell_length_a   5.80228276
_cell_length_b   5.80228276
_cell_length_c   4.79182071
_cell_angle_alpha   88.76884891
_cell_angle_beta   88.76884891
_cell_angle_gamma   68.94433736
_symmetry_Int_Tables_number   1
_chemical_formula_structural   Cu7NiC4
_chemical_formula_sum   'Cu7 Ni1 C4'
_cell_volume   150.50132895
_cell_formula_units_Z   1
loop_
 _symmetry_equiv_pos_site_id
 _symmetry_equiv_pos_as_xyz
  1  'x, y, z'
loop_
 _atom_site_type_symbol
 _atom_site_label
 _atom_site_symmetry_multiplicity
 _atom_site_fract_x
 _atom_site_fract_y
 _atom_site_fract_z
 _atom_site_occupancy
  C  C0  1  0.51259100  0.51259100  0.47890700  1
  C  C1  1  0.99821100  0.99821100  0.49824700  1
  C  C2  1  0.50145100  0.98973100  0.00907600  1
  C  C3  1  0.98973100  0.50145100  0.00907600  1
  Ni  Ni4  1  0.65020500  0.65020500  0.20779000  1
  Cu  Cu5  1  0.14756600  0.14756600  0.19784000  1
  Cu  Cu6  1  0.16580900  0.63794400  0.30859100  1
  Cu  Cu7  1  0.63794400  0.16580900  0.30859100  1
  Cu  Cu8  1  0.83700600  0.35405000  0.69557300  1
  Cu  Cu9  1  0.35405000  0.83700600  0.69557300  1
  Cu  Cu10  1  0.85279500  0.85279500  0.80131000  1
  Cu  Cu11  1  0.35264400  0.35264400  0.78942500  1
