# generated using pymatgen
data_Cu3NiC7
_symmetry_space_group_name_H-M   'P 1'
_cell_length_a   8.24321337
_cell_length_b   8.24321337
_cell_length_c   5.35178400
_cell_angle_alpha   90.00000000
_cell_angle_beta   90.00000000
_cell_angle_gamma   119.99999491
_symmetry_Int_Tables_number   1
_chemical_formula_structural   Cu3NiC7
_chemical_formula_sum   'Cu6 Ni2 C14'
_cell_volume   314.93600430
_cell_formula_units_Z   2
loop_
 _symmetry_equiv_pos_site_id
 _symmetry_equiv_pos_as_xyz
  1  'x, y, z'
loop_
 _atom_site_type_symbol
 _atom_site_label
 _atom_site_symmetry_multiplicity
 _atom_site_fract_x
 _atom_site_fract_y
 _atom_site_fract_z
 _atom_site_occupancy
  Ni  Ni0  1  0.66666700  0.33333300  0.32421900  1
  Ni  Ni1  1  0.33333300  0.66666700  0.82421900  1
  Cu  Cu2  1  0.34284500  0.24647100  0.79397600  1
  Cu  Cu3  1  0.75352900  0.09637400  0.79397600  1
  Cu  Cu4  1  0.09637400  0.34284500  0.29397600  1
  Cu  Cu5  1  0.90362600  0.65715500  0.79397600  1
  Cu  Cu6  1  0.24647100  0.90362600  0.29397600  1
  Cu  Cu7  1  0.65715500  0.75352900  0.29397600  1
  C  C8  1  0.24430600  0.16192500  0.17611700  1
  C  C9  1  0.53145000  0.12239000  0.44988500  1
  C  C10  1  0.83807500  0.08238100  0.17611700  1
  C  C11  1  0.66666700  0.33333300  0.01539300  1
  C  C12  1  0.59094000  0.46855000  0.44988500  1
  C  C13  1  0.87761000  0.40906000  0.44988500  1
  C  C14  1  0.08238100  0.24430600  0.67611700  1
  C  C15  1  0.91761900  0.75569400  0.17611700  1
  C  C16  1  0.12239000  0.59094000  0.94988500  1
  C  C17  1  0.40906000  0.53145000  0.94988500  1
  C  C18  1  0.33333300  0.66666700  0.51539300  1
  C  C19  1  0.16192500  0.91761900  0.67611700  1
  C  C20  1  0.46855000  0.87761000  0.94988500  1
  C  C21  1  0.75569400  0.83807500  0.67611700  1
