# generated using pymatgen
data_Cu(NiC2)5
_symmetry_space_group_name_H-M   'P 1'
_cell_length_a   9.02257290
_cell_length_b   9.02257290
_cell_length_c   8.21937800
_cell_angle_alpha   90.00000000
_cell_angle_beta   90.00000000
_cell_angle_gamma   140.79420608
_symmetry_Int_Tables_number   1
_chemical_formula_structural   Cu(NiC2)5
_chemical_formula_sum   'Cu2 Ni10 C20'
_cell_volume   422.95173324
_cell_formula_units_Z   2
loop_
 _symmetry_equiv_pos_site_id
 _symmetry_equiv_pos_as_xyz
  1  'x, y, z'
loop_
 _atom_site_type_symbol
 _atom_site_label
 _atom_site_symmetry_multiplicity
 _atom_site_fract_x
 _atom_site_fract_y
 _atom_site_fract_z
 _atom_site_occupancy
  C  C0  1  0.71044500  0.28955500  0.75000000  1
  C  C1  1  0.28955500  0.71044500  0.25000000  1
  C  C2  1  0.00000000  0.00000000  0.50000000  1
  C  C3  1  0.00000000  0.00000000  0.00000000  1
  C  C4  1  0.42207700  0.57792300  0.75000000  1
  C  C5  1  0.57792300  0.42207700  0.25000000  1
  C  C6  1  0.50464400  0.20924700  0.35501800  1
  C  C7  1  0.49535600  0.79075300  0.85501800  1
  C  C8  1  0.49535600  0.79075300  0.64498200  1
  C  C9  1  0.50464400  0.20924700  0.14498200  1
  C  C10  1  0.20924700  0.50464400  0.64498200  1
  C  C11  1  0.79075300  0.49535600  0.14498200  1
  C  C12  1  0.79075300  0.49535600  0.35501800  1
  C  C13  1  0.20924700  0.50464400  0.85501800  1
  C  C14  1  0.28102600  0.71897400  0.75000000  1
  C  C15  1  0.71897400  0.28102600  0.25000000  1
  Ni  Ni16  1  0.63128000  0.93044900  0.53945800  1
  Ni  Ni17  1  0.36872000  0.06955100  0.03945800  1
  Ni  Ni18  1  0.36872000  0.06955100  0.46054200  1
  Ni  Ni19  1  0.63128000  0.93044900  0.96054200  1
  Ni  Ni20  1  0.06955100  0.36872000  0.53945800  1
  Ni  Ni21  1  0.93044900  0.63128000  0.03945800  1
  Ni  Ni22  1  0.93044900  0.63128000  0.46054200  1
  Ni  Ni23  1  0.06955100  0.36872000  0.96054200  1
  Ni  Ni24  1  0.21050200  0.78949800  0.75000000  1
  Ni  Ni25  1  0.78949800  0.21050200  0.25000000  1
  Cu  Cu26  1  0.51054200  0.48945800  0.75000000  1
  Cu  Cu27  1  0.48945800  0.51054200  0.25000000  1
  C  C28  1  0.72882600  0.63168100  0.75000000  1
  C  C29  1  0.27117400  0.36831900  0.25000000  1
  C  C30  1  0.36831900  0.27117400  0.75000000  1
  C  C31  1  0.63168100  0.72882600  0.25000000  1
