# generated using pymatgen
data_Cu7Ni9C11
_symmetry_space_group_name_H-M   'P 1'
_cell_length_a   6.08026670
_cell_length_b   6.08026670
_cell_length_c   10.85093014
_cell_angle_alpha   71.61081245
_cell_angle_beta   71.61081245
_cell_angle_gamma   57.61843587
_symmetry_Int_Tables_number   1
_chemical_formula_structural   Cu7Ni9C11
_chemical_formula_sum   'Cu7 Ni9 C11'
_cell_volume   316.05731077
_cell_formula_units_Z   1
loop_
 _symmetry_equiv_pos_site_id
 _symmetry_equiv_pos_as_xyz
  1  'x, y, z'
loop_
 _atom_site_type_symbol
 _atom_site_label
 _atom_site_symmetry_multiplicity
 _atom_site_fract_x
 _atom_site_fract_y
 _atom_site_fract_z
 _atom_site_occupancy
  C  C0  1  0.00760400  0.00760400  0.01077200  1
  C  C1  1  0.60874900  0.60874900  0.12448000  1
  C  C2  1  0.12357100  0.12357100  0.61297400  1
  C  C3  1  0.51238600  0.51238600  0.50802000  1
  C  C4  1  0.28993500  0.28993500  0.07360800  1
  C  C5  1  0.58042300  0.05983800  0.30682200  1
  C  C6  1  0.05983800  0.58042300  0.30682200  1
  C  C7  1  0.55482800  0.06328300  0.80437800  1
  C  C8  1  0.56624100  0.56624100  0.80481300  1
  C  C9  1  0.80894300  0.80894300  0.56589100  1
  C  C10  1  0.06328300  0.55482800  0.80437800  1
  Ni  Ni11  1  0.43700100  0.43700100  0.71658600  1
  Ni  Ni12  1  0.72348200  0.72348200  0.43389400  1
  Ni  Ni13  1  0.40836900  0.40836900  0.19571400  1
  Ni  Ni14  1  0.21325400  0.21325400  0.91997100  1
  Ni  Ni15  1  0.91803800  0.91803800  0.20363800  1
  Ni  Ni16  1  0.47279700  0.91425900  0.67370200  1
  Ni  Ni17  1  0.91425900  0.47279700  0.67370200  1
  Ni  Ni18  1  0.90916100  0.90916100  0.68899900  1
  Ni  Ni19  1  0.68777600  0.68777600  0.90209900  1
  Cu  Cu20  1  0.69117700  0.16418800  0.45927200  1
  Cu  Cu21  1  0.92197400  0.44744900  0.18999200  1
  Cu  Cu22  1  0.21223600  0.21223600  0.42203000  1
  Cu  Cu23  1  0.18884500  0.68965500  0.93571800  1
  Cu  Cu24  1  0.16418800  0.69117700  0.45927200  1
  Cu  Cu25  1  0.68965500  0.18884500  0.93571800  1
  Cu  Cu26  1  0.44744900  0.92197400  0.18999200  1
