# generated using pymatgen
data_Cu2Ni12C13
_symmetry_space_group_name_H-M   'P 1'
_cell_length_a   10.56587300
_cell_length_b   10.56587300
_cell_length_c   10.56587300
_cell_angle_alpha   90.00000000
_cell_angle_beta   90.00000000
_cell_angle_gamma   90.00000000
_symmetry_Int_Tables_number   1
_chemical_formula_structural   Cu2Ni12C13
_chemical_formula_sum   'Cu8 Ni48 C52'
_cell_volume   1179.54946703
_cell_formula_units_Z   4
loop_
 _symmetry_equiv_pos_site_id
 _symmetry_equiv_pos_as_xyz
  1  'x, y, z'
loop_
 _atom_site_type_symbol
 _atom_site_label
 _atom_site_symmetry_multiplicity
 _atom_site_fract_x
 _atom_site_fract_y
 _atom_site_fract_z
 _atom_site_occupancy
  C  C0  1  0.50000000  0.50000000  0.00000000  1
  C  C1  1  0.50000000  0.00000000  0.50000000  1
  C  C2  1  0.00000000  0.50000000  0.50000000  1
  C  C3  1  0.00000000  0.00000000  0.00000000  1
  Ni  Ni4  1  0.11301700  0.60899900  0.22728900  1
  Ni  Ni5  1  0.88698300  0.10899900  0.27271100  1
  Ni  Ni6  1  0.38698300  0.39100100  0.72728900  1
  Ni  Ni7  1  0.61301700  0.89100100  0.77271100  1
  Ni  Ni8  1  0.22728900  0.11301700  0.60899900  1
  Ni  Ni9  1  0.27271100  0.88698300  0.10899900  1
  Ni  Ni10  1  0.72728900  0.38698300  0.39100100  1
  Ni  Ni11  1  0.77271100  0.61301700  0.89100100  1
  Ni  Ni12  1  0.60899900  0.22728900  0.11301700  1
  Ni  Ni13  1  0.10899900  0.27271100  0.88698300  1
  Ni  Ni14  1  0.39100100  0.72728900  0.38698300  1
  Ni  Ni15  1  0.89100100  0.77271100  0.61301700  1
  Ni  Ni16  1  0.88698300  0.39100100  0.77271100  1
  Ni  Ni17  1  0.11301700  0.89100100  0.72728900  1
  Ni  Ni18  1  0.61301700  0.60899900  0.27271100  1
  Ni  Ni19  1  0.38698300  0.10899900  0.22728900  1
  Ni  Ni20  1  0.77271100  0.88698300  0.39100100  1
  Ni  Ni21  1  0.72728900  0.11301700  0.89100100  1
  Ni  Ni22  1  0.27271100  0.61301700  0.60899900  1
  Ni  Ni23  1  0.22728900  0.38698300  0.10899900  1
  Ni  Ni24  1  0.39100100  0.77271100  0.88698300  1
  Ni  Ni25  1  0.89100100  0.72728900  0.11301700  1
  Ni  Ni26  1  0.60899900  0.27271100  0.61301700  1
  Ni  Ni27  1  0.10899900  0.22728900  0.38698300  1
  Ni  Ni28  1  0.18621600  0.39556500  0.90394900  1
  Ni  Ni29  1  0.81378400  0.89556500  0.59605100  1
  Ni  Ni30  1  0.31378400  0.60443500  0.40394900  1
  Ni  Ni31  1  0.68621600  0.10443500  0.09605100  1
  Ni  Ni32  1  0.90394900  0.18621600  0.39556500  1
  Ni  Ni33  1  0.59605100  0.81378400  0.89556500  1
  Ni  Ni34  1  0.40394900  0.31378400  0.60443500  1
  Ni  Ni35  1  0.09605100  0.68621600  0.10443500  1
  Ni  Ni36  1  0.39556500  0.90394900  0.18621600  1
  Ni  Ni37  1  0.89556500  0.59605100  0.81378400  1
  Ni  Ni38  1  0.60443500  0.40394900  0.31378400  1
  Ni  Ni39  1  0.10443500  0.09605100  0.68621600  1
  Ni  Ni40  1  0.81378400  0.60443500  0.09605100  1
  Ni  Ni41  1  0.18621600  0.10443500  0.40394900  1
  Ni  Ni42  1  0.68621600  0.39556500  0.59605100  1
  Ni  Ni43  1  0.31378400  0.89556500  0.90394900  1
  Ni  Ni44  1  0.09605100  0.81378400  0.60443500  1
  Ni  Ni45  1  0.40394900  0.18621600  0.10443500  1
  Ni  Ni46  1  0.59605100  0.68621600  0.39556500  1
  Ni  Ni47  1  0.90394900  0.31378400  0.89556500  1
  Ni  Ni48  1  0.60443500  0.09605100  0.81378400  1
  Ni  Ni49  1  0.10443500  0.40394900  0.18621600  1
  Ni  Ni50  1  0.39556500  0.59605100  0.68621600  1
  Ni  Ni51  1  0.89556500  0.90394900  0.31378400  1
  Cu  Cu52  1  0.15868000  0.84132000  0.34132000  1
  Cu  Cu53  1  0.84132000  0.34132000  0.15868000  1
  Cu  Cu54  1  0.34132000  0.15868000  0.84132000  1
  Cu  Cu55  1  0.65868000  0.65868000  0.65868000  1
  Cu  Cu56  1  0.84132000  0.15868000  0.65868000  1
  Cu  Cu57  1  0.15868000  0.65868000  0.84132000  1
  Cu  Cu58  1  0.65868000  0.84132000  0.15868000  1
  Cu  Cu59  1  0.34132000  0.34132000  0.34132000  1
  C  C60  1  0.15655500  0.63264800  0.14959400  1
  C  C61  1  0.84344500  0.13264800  0.35040600  1
  C  C62  1  0.34344500  0.36735200  0.64959400  1
  C  C63  1  0.65655500  0.86735200  0.85040600  1
  C  C64  1  0.14959400  0.15655500  0.63264800  1
  C  C65  1  0.35040600  0.84344500  0.13264800  1
  C  C66  1  0.64959400  0.34344500  0.36735200  1
  C  C67  1  0.85040600  0.65655500  0.86735200  1
  C  C68  1  0.63264800  0.14959400  0.15655500  1
  C  C69  1  0.13264800  0.35040600  0.84344500  1
  C  C70  1  0.36735200  0.64959400  0.34344500  1
  C  C71  1  0.86735200  0.85040600  0.65655500  1
  C  C72  1  0.84344500  0.36735200  0.85040600  1
  C  C73  1  0.15655500  0.86735200  0.64959400  1
  C  C74  1  0.65655500  0.63264800  0.35040600  1
  C  C75  1  0.34344500  0.13264800  0.14959400  1
  C  C76  1  0.85040600  0.84344500  0.36735200  1
  C  C77  1  0.64959400  0.15655500  0.86735200  1
  C  C78  1  0.35040600  0.65655500  0.63264800  1
  C  C79  1  0.14959400  0.34344500  0.13264800  1
  C  C80  1  0.36735200  0.85040600  0.84344500  1
  C  C81  1  0.86735200  0.64959400  0.15655500  1
  C  C82  1  0.63264800  0.35040600  0.65655500  1
  C  C83  1  0.13264800  0.14959400  0.34344500  1
  C  C84  1  0.51561500  0.60461100  0.85707600  1
  C  C85  1  0.48438500  0.10461100  0.64292400  1
  C  C86  1  0.98438500  0.39538900  0.35707600  1
  C  C87  1  0.01561500  0.89538900  0.14292400  1
  C  C88  1  0.85707600  0.51561500  0.60461100  1
  C  C89  1  0.64292400  0.48438500  0.10461100  1
  C  C90  1  0.35707600  0.98438500  0.39538900  1
  C  C91  1  0.14292400  0.01561500  0.89538900  1
  C  C92  1  0.60461100  0.85707600  0.51561500  1
  C  C93  1  0.10461100  0.64292400  0.48438500  1
  C  C94  1  0.39538900  0.35707600  0.98438500  1
  C  C95  1  0.89538900  0.14292400  0.01561500  1
  C  C96  1  0.48438500  0.39538900  0.14292400  1
  C  C97  1  0.51561500  0.89538900  0.35707600  1
  C  C98  1  0.01561500  0.60461100  0.64292400  1
  C  C99  1  0.98438500  0.10461100  0.85707600  1
  C  C100  1  0.14292400  0.48438500  0.39538900  1
  C  C101  1  0.35707600  0.51561500  0.89538900  1
  C  C102  1  0.64292400  0.01561500  0.60461100  1
  C  C103  1  0.85707600  0.98438500  0.10461100  1
  C  C104  1  0.39538900  0.14292400  0.48438500  1
  C  C105  1  0.89538900  0.35707600  0.51561500  1
  C  C106  1  0.60461100  0.64292400  0.01561500  1
  C  C107  1  0.10461100  0.85707600  0.98438500  1
