# generated using pymatgen
data_CuNiC10
_symmetry_space_group_name_H-M   'P 1'
_cell_length_a   5.98457400
_cell_length_b   4.92435400
_cell_length_c   9.85679893
_cell_angle_alpha   89.23006907
_cell_angle_beta   90.00000000
_cell_angle_gamma   90.00000000
_symmetry_Int_Tables_number   1
_chemical_formula_structural   CuNiC10
_chemical_formula_sum   'Cu2 Ni2 C20'
_cell_volume   290.45522420
_cell_formula_units_Z   2
loop_
 _symmetry_equiv_pos_site_id
 _symmetry_equiv_pos_as_xyz
  1  'x, y, z'
loop_
 _atom_site_type_symbol
 _atom_site_label
 _atom_site_symmetry_multiplicity
 _atom_site_fract_x
 _atom_site_fract_y
 _atom_site_fract_z
 _atom_site_occupancy
  Ni  Ni0  1  0.75000000  0.47294100  0.77660900  1
  Ni  Ni1  1  0.25000000  0.52705900  0.22339100  1
  Cu  Cu2  1  0.25000000  0.91881400  0.71563100  1
  Cu  Cu3  1  0.75000000  0.08118600  0.28436900  1
  C  C4  1  0.25000000  0.43334500  0.89881800  1
  C  C5  1  0.75000000  0.90993200  0.59702900  1
  C  C6  1  0.25000000  0.09006800  0.40297100  1
  C  C7  1  0.75000000  0.56665500  0.10118200  1
  C  C8  1  0.75000000  0.64896000  0.94789100  1
  C  C9  1  0.25000000  0.74299600  0.88760100  1
  C  C10  1  0.04040000  0.30445300  0.82918500  1
  C  C11  1  0.45960000  0.30445300  0.82918500  1
  C  C12  1  0.94435900  0.75171100  0.67248700  1
  C  C13  1  0.55564100  0.75171100  0.67248700  1
  C  C14  1  0.75000000  0.21269100  0.63208800  1
  C  C15  1  0.25000000  0.13772000  0.55414600  1
  C  C16  1  0.75000000  0.86228000  0.44585400  1
  C  C17  1  0.25000000  0.78730900  0.36791200  1
  C  C18  1  0.05564100  0.24828900  0.32751300  1
  C  C19  1  0.44435900  0.24828900  0.32751300  1
  C  C20  1  0.54040000  0.69554700  0.17081500  1
  C  C21  1  0.95960000  0.69554700  0.17081500  1
  C  C22  1  0.75000000  0.25700400  0.11239900  1
  C  C23  1  0.25000000  0.35104000  0.05210900  1
