# generated using pymatgen
data_Cu5Ni2C7
_symmetry_space_group_name_H-M   'P 1'
_cell_length_a   9.67183210
_cell_length_b   9.67183210
_cell_length_c   9.67183244
_cell_angle_alpha   71.39745356
_cell_angle_beta   71.39745356
_cell_angle_gamma   71.39745237
_symmetry_Int_Tables_number   1
_chemical_formula_structural   Cu5Ni2C7
_chemical_formula_sum   'Cu30 Ni12 C42'
_cell_volume   788.55099953
_cell_formula_units_Z   6
loop_
 _symmetry_equiv_pos_site_id
 _symmetry_equiv_pos_as_xyz
  1  'x, y, z'
loop_
 _atom_site_type_symbol
 _atom_site_label
 _atom_site_symmetry_multiplicity
 _atom_site_fract_x
 _atom_site_fract_y
 _atom_site_fract_z
 _atom_site_occupancy
  C  C0  1  0.17458700  0.50000000  0.82541300  1
  C  C1  1  0.50000000  0.82541300  0.17458700  1
  C  C2  1  0.82541300  0.17458700  0.50000000  1
  C  C3  1  0.50000000  0.50000000  0.50000000  1
  C  C4  1  0.91472000  0.91472000  0.91472000  1
  C  C5  1  0.08528000  0.08528000  0.08528000  1
  Ni  Ni6  1  0.88388000  0.52435100  0.44729800  1
  Ni  Ni7  1  0.52435100  0.44729800  0.88388000  1
  Ni  Ni8  1  0.44729800  0.88388000  0.52435100  1
  Ni  Ni9  1  0.11612000  0.55270200  0.47564900  1
  Ni  Ni10  1  0.47564900  0.11612000  0.55270200  1
  Ni  Ni11  1  0.55270200  0.47564900  0.11612000  1
  Ni  Ni12  1  0.76981600  0.46962300  0.89343800  1
  Ni  Ni13  1  0.46962300  0.89343800  0.76981600  1
  Ni  Ni14  1  0.89343800  0.76981600  0.46962300  1
  Ni  Ni15  1  0.23018400  0.10656200  0.53037700  1
  Ni  Ni16  1  0.53037700  0.23018400  0.10656200  1
  Ni  Ni17  1  0.10656200  0.53037700  0.23018400  1
  Cu  Cu18  1  0.73598300  0.43594400  0.61741300  1
  Cu  Cu19  1  0.43594400  0.61741300  0.73598300  1
  Cu  Cu20  1  0.61741300  0.73598300  0.43594400  1
  Cu  Cu21  1  0.26401700  0.38258700  0.56405600  1
  Cu  Cu22  1  0.56405600  0.26401700  0.38258700  1
  Cu  Cu23  1  0.38258700  0.56405600  0.26401700  1
  Cu  Cu24  1  0.94269700  0.47390800  0.71453100  1
  Cu  Cu25  1  0.47390800  0.71453100  0.94269700  1
  Cu  Cu26  1  0.71453100  0.94269700  0.47390800  1
  Cu  Cu27  1  0.05730300  0.28546900  0.52609200  1
  Cu  Cu28  1  0.52609200  0.05730300  0.28546900  1
  Cu  Cu29  1  0.28546900  0.52609200  0.05730300  1
  Cu  Cu30  1  0.05819200  0.76213600  0.64188400  1
  Cu  Cu31  1  0.76213600  0.64188400  0.05819200  1
  Cu  Cu32  1  0.64188400  0.05819200  0.76213600  1
  Cu  Cu33  1  0.94180800  0.35811600  0.23786400  1
  Cu  Cu34  1  0.23786400  0.94180800  0.35811600  1
  Cu  Cu35  1  0.35811600  0.23786400  0.94180800  1
  Cu  Cu36  1  0.16515700  0.83330700  0.66848200  1
  Cu  Cu37  1  0.83330700  0.66848200  0.16515700  1
  Cu  Cu38  1  0.66848200  0.16515700  0.83330700  1
  Cu  Cu39  1  0.83484300  0.33151800  0.16669300  1
  Cu  Cu40  1  0.16669300  0.83484300  0.33151800  1
  Cu  Cu41  1  0.33151800  0.16669300  0.83484300  1
  Cu  Cu42  1  0.84686600  0.97175500  0.25882200  1
  Cu  Cu43  1  0.97175500  0.25882200  0.84686600  1
  Cu  Cu44  1  0.25882200  0.84686600  0.97175500  1
  Cu  Cu45  1  0.15313400  0.74117800  0.02824500  1
  Cu  Cu46  1  0.02824500  0.15313400  0.74117800  1
  Cu  Cu47  1  0.74117800  0.02824500  0.15313400  1
  C  C48  1  0.53512800  0.00000000  0.46487200  1
  C  C49  1  0.00000000  0.46487200  0.53512800  1
  C  C50  1  0.46487200  0.53512800  0.00000000  1
  C  C51  1  0.04003600  0.71358500  0.48494000  1
  C  C52  1  0.71358500  0.48494000  0.04003600  1
  C  C53  1  0.48494000  0.04003600  0.71358500  1
  C  C54  1  0.95996400  0.51506000  0.28641500  1
  C  C55  1  0.28641500  0.95996400  0.51506000  1
  C  C56  1  0.51506000  0.28641500  0.95996400  1
  C  C57  1  0.68584100  0.44810200  0.81539600  1
  C  C58  1  0.44810200  0.81539600  0.68584100  1
  C  C59  1  0.81539600  0.68584100  0.44810200  1
  C  C60  1  0.31415900  0.18460400  0.55189800  1
  C  C61  1  0.55189800  0.31415900  0.18460400  1
  C  C62  1  0.18460400  0.55189800  0.31415900  1
  C  C63  1  0.76928200  0.43917100  0.50853400  1
  C  C64  1  0.43917100  0.50853400  0.76928200  1
  C  C65  1  0.50853400  0.76928200  0.43917100  1
  C  C66  1  0.23071800  0.49146600  0.56082900  1
  C  C67  1  0.56082900  0.23071800  0.49146600  1
  C  C68  1  0.49146600  0.56082900  0.23071800  1
  C  C69  1  0.91939700  0.47226200  0.82484000  1
  C  C70  1  0.47226200  0.82484000  0.91939700  1
  C  C71  1  0.82484000  0.91939700  0.47226200  1
  C  C72  1  0.08060300  0.17516000  0.52773800  1
  C  C73  1  0.52773800  0.08060300  0.17516000  1
  C  C74  1  0.17516000  0.52773800  0.08060300  1
  C  C75  1  0.08621900  0.77832200  0.72464700  1
  C  C76  1  0.77832200  0.72464700  0.08621900  1
  C  C77  1  0.72464700  0.08621900  0.77832200  1
  C  C78  1  0.91378100  0.27535300  0.22167800  1
  C  C79  1  0.22167800  0.91378100  0.27535300  1
  C  C80  1  0.27535300  0.22167800  0.91378100  1
  C  C81  1  0.84854100  0.00000000  0.15145900  1
  C  C82  1  0.00000000  0.15145900  0.84854100  1
  C  C83  1  0.15145900  0.84854100  0.00000000  1
