# generated using pymatgen
data_Cu(NiC5)3
_symmetry_space_group_name_H-M   'P 1'
_cell_length_a   20.04676000
_cell_length_b   6.45567200
_cell_length_c   9.13290647
_cell_angle_alpha   46.30930538
_cell_angle_beta   90.00000000
_cell_angle_gamma   90.00000000
_symmetry_Int_Tables_number   1
_chemical_formula_structural   Cu(NiC5)3
_chemical_formula_sum   'Cu4 Ni12 C60'
_cell_volume   854.63487648
_cell_formula_units_Z   4
loop_
 _symmetry_equiv_pos_site_id
 _symmetry_equiv_pos_as_xyz
  1  'x, y, z'
loop_
 _atom_site_type_symbol
 _atom_site_label
 _atom_site_symmetry_multiplicity
 _atom_site_fract_x
 _atom_site_fract_y
 _atom_site_fract_z
 _atom_site_occupancy
  C  C0  1  0.91987000  0.79580400  0.05596000  1
  C  C1  1  0.58013000  0.79580400  0.55596000  1
  C  C2  1  0.08013000  0.20419600  0.94404000  1
  C  C3  1  0.41987000  0.20419600  0.44404000  1
  C  C4  1  0.90190200  0.68732600  0.71823200  1
  C  C5  1  0.59809800  0.68732600  0.21823200  1
  C  C6  1  0.09809800  0.31267400  0.28176800  1
  C  C7  1  0.40190200  0.31267400  0.78176800  1
  C  C8  1  0.78813900  0.33840100  0.10034300  1
  C  C9  1  0.71186100  0.33840100  0.60034300  1
  C  C10  1  0.21186100  0.66159900  0.89965700  1
  C  C11  1  0.28813900  0.66159900  0.39965700  1
  Ni  Ni12  1  0.87858700  0.30174900  0.61607000  1
  Ni  Ni13  1  0.62141300  0.30174900  0.11607000  1
  Ni  Ni14  1  0.12141300  0.69825100  0.38393000  1
  Ni  Ni15  1  0.37858700  0.69825100  0.88393000  1
  Ni  Ni16  1  0.74654600  0.85587300  0.58819400  1
  Ni  Ni17  1  0.75345400  0.85587300  0.08819400  1
  Ni  Ni18  1  0.25345400  0.14412700  0.41180600  1
  Ni  Ni19  1  0.24654600  0.14412700  0.91180600  1
  Ni  Ni20  1  0.94853700  0.16868100  0.21627300  1
  Ni  Ni21  1  0.55146300  0.16868100  0.71627300  1
  Ni  Ni22  1  0.05146300  0.83131900  0.78372700  1
  Ni  Ni23  1  0.44853700  0.83131900  0.28372700  1
  Cu  Cu24  1  0.94676500  0.65644500  0.39487500  1
  Cu  Cu25  1  0.55323500  0.65644500  0.89487500  1
  Cu  Cu26  1  0.05323500  0.34355500  0.60512500  1
  Cu  Cu27  1  0.44676500  0.34355500  0.10512500  1
  C  C28  1  0.89229600  0.99116300  0.72344000  1
  C  C29  1  0.60770400  0.99116300  0.22344000  1
  C  C30  1  0.10770400  0.00883700  0.27656000  1
  C  C31  1  0.39229600  0.00883700  0.77656000  1
  C  C32  1  0.92753000  0.49015900  0.42312800  1
  C  C33  1  0.57247000  0.49015900  0.92312800  1
  C  C34  1  0.07247000  0.50984100  0.57687200  1
  C  C35  1  0.42753000  0.50984100  0.07687200  1
  C  C36  1  0.90141000  0.33231200  0.76210100  1
  C  C37  1  0.59859000  0.33231200  0.26210100  1
  C  C38  1  0.09859000  0.66768800  0.23789900  1
  C  C39  1  0.40141000  0.66768800  0.73789900  1
  C  C40  1  0.80761700  0.40014600  0.54080700  1
  C  C41  1  0.69238300  0.40014600  0.04080700  1
  C  C42  1  0.19238300  0.59985400  0.45919300  1
  C  C43  1  0.30761700  0.59985400  0.95919300  1
  C  C44  1  0.79993700  0.64870200  0.76067700  1
  C  C45  1  0.70006300  0.64870200  0.26067700  1
  C  C46  1  0.20006300  0.35129800  0.23932300  1
  C  C47  1  0.29993700  0.35129800  0.73932300  1
  C  C48  1  0.78538700  0.08471400  0.39084900  1
  C  C49  1  0.71461300  0.08471400  0.89084900  1
  C  C50  1  0.21461300  0.91528600  0.60915100  1
  C  C51  1  0.28538700  0.91528600  0.10915100  1
  C  C52  1  0.70123000  0.00252300  0.63120600  1
  C  C53  1  0.79877000  0.00252300  0.13120600  1
  C  C54  1  0.29877000  0.99747700  0.36879400  1
  C  C55  1  0.20123000  0.99747700  0.86879400  1
  C  C56  1  0.69881300  0.68097700  0.57393400  1
  C  C57  1  0.80118700  0.68097700  0.07393400  1
  C  C58  1  0.30118700  0.31902300  0.42606600  1
  C  C59  1  0.19881300  0.31902300  0.92606600  1
  C  C60  1  0.91885400  0.92883900  0.43017400  1
  C  C61  1  0.58114600  0.92883900  0.93017400  1
  C  C62  1  0.08114600  0.07116100  0.56982600  1
  C  C63  1  0.41885400  0.07116100  0.06982600  1
  C  C64  1  0.89228100  0.39296600  0.06429900  1
  C  C65  1  0.60771900  0.39296600  0.56429900  1
  C  C66  1  0.10771900  0.60703400  0.93570100  1
  C  C67  1  0.39228100  0.60703400  0.43570100  1
  C  C68  1  0.97670200  0.03127000  0.14367600  1
  C  C69  1  0.52329800  0.03127000  0.64367600  1
  C  C70  1  0.02329800  0.96873000  0.85632400  1
  C  C71  1  0.47670200  0.96873000  0.35632400  1
  C  C72  1  0.99985600  0.34891200  0.21628700  1
  C  C73  1  0.50014400  0.34891200  0.71628700  1
  C  C74  1  0.00014400  0.65108800  0.78371300  1
  C  C75  1  0.49985600  0.65108800  0.28371300  1
