# generated using pymatgen
data_Cu3NiC24
_symmetry_space_group_name_H-M   'P 1'
_cell_length_a   4.76521113
_cell_length_b   10.25517589
_cell_length_c   6.09027400
_cell_angle_alpha   90.00000000
_cell_angle_beta   90.00000000
_cell_angle_gamma   90.58947644
_symmetry_Int_Tables_number   1
_chemical_formula_structural   Cu3NiC24
_chemical_formula_sum   'Cu3 Ni1 C24'
_cell_volume   297.60423512
_cell_formula_units_Z   1
loop_
 _symmetry_equiv_pos_site_id
 _symmetry_equiv_pos_as_xyz
  1  'x, y, z'
loop_
 _atom_site_type_symbol
 _atom_site_label
 _atom_site_symmetry_multiplicity
 _atom_site_fract_x
 _atom_site_fract_y
 _atom_site_fract_z
 _atom_site_occupancy
  C  C0  1  0.00702300  0.99774200  0.99739200  1
  C  C1  1  0.00702300  0.99774200  0.50260800  1
  C  C2  1  0.49850600  0.50076000  0.50366000  1
  C  C3  1  0.49850600  0.50076000  0.99634000  1
  Ni  Ni4  1  0.95746700  0.28281900  0.25000000  1
  Cu  Cu5  1  0.02077400  0.72058700  0.75000000  1
  Cu  Cu6  1  0.48243100  0.21798200  0.75000000  1
  Cu  Cu7  1  0.51317000  0.77834700  0.25000000  1
  C  C8  1  0.08052300  0.59550100  0.25000000  1
  C  C9  1  0.41863200  0.09483000  0.25000000  1
  C  C10  1  0.58806100  0.90430700  0.75000000  1
  C  C11  1  0.91468000  0.40691800  0.75000000  1
  C  C12  1  0.19673300  0.45371800  0.25000000  1
  C  C13  1  0.21946200  0.66584800  0.04683300  1
  C  C14  1  0.21946200  0.66584800  0.45316700  1
  C  C15  1  0.23609300  0.40312400  0.75000000  1
  C  C16  1  0.26596500  0.89890700  0.75000000  1
  C  C17  1  0.28695100  0.16251300  0.04404900  1
  C  C18  1  0.28695100  0.16251300  0.45595100  1
  C  C19  1  0.30083600  0.95215800  0.25000000  1
  C  C20  1  0.70895600  0.04612800  0.75000000  1
  C  C21  1  0.72502500  0.83471200  0.54684400  1
  C  C22  1  0.72502500  0.83471200  0.95315600  1
  C  C23  1  0.74243100  0.10263500  0.25000000  1
  C  C24  1  0.75819800  0.59846700  0.25000000  1
  C  C25  1  0.77198300  0.33616600  0.55071800  1
  C  C26  1  0.77198300  0.33616600  0.94928200  1
  C  C27  1  0.79715700  0.54808900  0.75000000  1
