# generated using pymatgen
data_CuNiC4
_symmetry_space_group_name_H-M   'P 1'
_cell_length_a   7.17913623
_cell_length_b   7.17913623
_cell_length_c   8.90995510
_cell_angle_alpha   67.48391165
_cell_angle_beta   67.48391165
_cell_angle_gamma   56.45123792
_symmetry_Int_Tables_number   1
_chemical_formula_structural   CuNiC4
_chemical_formula_sum   'Cu6 Ni6 C24'
_cell_volume   344.68279203
_cell_formula_units_Z   6
loop_
 _symmetry_equiv_pos_site_id
 _symmetry_equiv_pos_as_xyz
  1  'x, y, z'
loop_
 _atom_site_type_symbol
 _atom_site_label
 _atom_site_symmetry_multiplicity
 _atom_site_fract_x
 _atom_site_fract_y
 _atom_site_fract_z
 _atom_site_occupancy
  C  C0  1  0.94263200  0.05736800  0.75000000  1
  C  C1  1  0.05736800  0.94263200  0.25000000  1
  C  C2  1  0.59813400  0.65193500  0.50843700  1
  C  C3  1  0.34806500  0.40186600  0.99156300  1
  C  C4  1  0.40186600  0.34806500  0.49156300  1
  C  C5  1  0.65193500  0.59813400  0.00843700  1
  C  C6  1  0.61532900  0.01430300  0.08988500  1
  C  C7  1  0.98569700  0.38467100  0.41011500  1
  C  C8  1  0.38467100  0.98569700  0.91011500  1
  C  C9  1  0.01430300  0.61532900  0.58988500  1
  C  C10  1  0.40717600  0.06998500  0.24698100  1
  C  C11  1  0.93001500  0.59282400  0.25301900  1
  C  C12  1  0.59282400  0.93001500  0.75301900  1
  C  C13  1  0.06998500  0.40717600  0.74698100  1
  Ni  Ni14  1  0.26163800  0.88476300  0.60449900  1
  Ni  Ni15  1  0.11523700  0.73836200  0.89550100  1
  Ni  Ni16  1  0.73836200  0.11523700  0.39550100  1
  Ni  Ni17  1  0.88476300  0.26163800  0.10449900  1
  Ni  Ni18  1  0.49701200  0.50298800  0.75000000  1
  Ni  Ni19  1  0.50298800  0.49701200  0.25000000  1
  Cu  Cu20  1  0.09431900  0.90568100  0.75000000  1
  Cu  Cu21  1  0.90568100  0.09431900  0.25000000  1
  Cu  Cu22  1  0.46037300  0.68025100  0.61136400  1
  Cu  Cu23  1  0.31974900  0.53962700  0.88863600  1
  Cu  Cu24  1  0.53962700  0.31974900  0.38863600  1
  Cu  Cu25  1  0.68025100  0.46037300  0.11136400  1
  C  C26  1  0.23352500  0.04108300  0.47688900  1
  C  C27  1  0.95891700  0.76647500  0.02311100  1
  C  C28  1  0.76647500  0.95891700  0.52311100  1
  C  C29  1  0.04108300  0.23352500  0.97688900  1
  C  C30  1  0.67887100  0.32112900  0.75000000  1
  C  C31  1  0.32112900  0.67887100  0.25000000  1
  C  C32  1  0.47110000  0.13785300  0.13517600  1
  C  C33  1  0.86214700  0.52890000  0.36482400  1
  C  C34  1  0.52890000  0.86214700  0.86482400  1
  C  C35  1  0.13785300  0.47110000  0.63517600  1
