# generated using pymatgen
data_Cu4NiC
_symmetry_space_group_name_H-M   'P 1'
_cell_length_a   9.42520500
_cell_length_b   8.94153700
_cell_length_c   15.62356200
_cell_angle_alpha   55.67572777
_cell_angle_beta   90.00000000
_cell_angle_gamma   90.00000000
_symmetry_Int_Tables_number   1
_chemical_formula_structural   Cu4NiC
_chemical_formula_sum   'Cu48 Ni12 C12'
_cell_volume   1087.39968697
_cell_formula_units_Z   12
loop_
 _symmetry_equiv_pos_site_id
 _symmetry_equiv_pos_as_xyz
  1  'x, y, z'
loop_
 _atom_site_type_symbol
 _atom_site_label
 _atom_site_symmetry_multiplicity
 _atom_site_fract_x
 _atom_site_fract_y
 _atom_site_fract_z
 _atom_site_occupancy
  C  C0  1  0.77863900  0.99338700  0.31619300  1
  C  C1  1  0.27863900  0.00661300  0.18380700  1
  C  C2  1  0.72136100  0.99338700  0.81619300  1
  C  C3  1  0.22136100  0.00661300  0.68380700  1
  C  C4  1  0.53215100  0.37146400  0.88155900  1
  C  C5  1  0.95625600  0.16500100  0.09627600  1
  C  C6  1  0.03215100  0.62853600  0.61844100  1
  C  C7  1  0.45625600  0.83499900  0.40372400  1
  C  C8  1  0.54374400  0.16500100  0.59627600  1
  C  C9  1  0.96784900  0.37146400  0.38155900  1
  C  C10  1  0.04374400  0.83499900  0.90372400  1
  C  C11  1  0.46784900  0.62853600  0.11844100  1
  Ni  Ni12  1  0.26481800  0.43692500  0.01228800  1
  Ni  Ni13  1  0.37086700  0.74403700  0.65961300  1
  Ni  Ni14  1  0.10491800  0.03320200  0.35443900  1
  Ni  Ni15  1  0.60491800  0.96679800  0.14556100  1
  Ni  Ni16  1  0.87086700  0.25596300  0.84038700  1
  Ni  Ni17  1  0.76481800  0.56307500  0.48771200  1
  Ni  Ni18  1  0.23518200  0.43692500  0.51228800  1
  Ni  Ni19  1  0.12913300  0.74403700  0.15961300  1
  Ni  Ni20  1  0.39508200  0.03320200  0.85443900  1
  Ni  Ni21  1  0.89508200  0.96679800  0.64556100  1
  Ni  Ni22  1  0.62913300  0.25596300  0.34038700  1
  Ni  Ni23  1  0.73518200  0.56307500  0.98771200  1
  Cu  Cu24  1  0.86141600  0.45268800  0.04451900  1
  Cu  Cu25  1  0.87372300  0.83044000  0.61978000  1
  Cu  Cu26  1  0.60199000  0.13114800  0.30772400  1
  Cu  Cu27  1  0.69480800  0.53836300  0.90350000  1
  Cu  Cu28  1  0.38423600  0.49524600  0.93636100  1
  Cu  Cu29  1  0.21962700  0.68181600  0.68903600  1
  Cu  Cu30  1  0.39106900  0.84241900  0.54593700  1
  Cu  Cu31  1  0.97764900  0.08062500  0.28729500  1
  Cu  Cu32  1  0.22973100  0.24267800  0.06032900  1
  Cu  Cu33  1  0.23453500  0.02990000  0.30060000  1
  Cu  Cu34  1  0.08669600  0.84808500  0.45132700  1
  Cu  Cu35  1  0.47067400  0.58637600  0.71252300  1
  Cu  Cu36  1  0.97067400  0.41362400  0.78747700  1
  Cu  Cu37  1  0.58669600  0.15191500  0.04867300  1
  Cu  Cu38  1  0.73453500  0.97010000  0.19940000  1
  Cu  Cu39  1  0.72973100  0.75732200  0.43967100  1
  Cu  Cu40  1  0.89106900  0.15758100  0.95406300  1
  Cu  Cu41  1  0.47764900  0.91937500  0.21270500  1
  Cu  Cu42  1  0.71962700  0.31818400  0.81096400  1
  Cu  Cu43  1  0.88423600  0.50475400  0.56363900  1
  Cu  Cu44  1  0.19480800  0.46163700  0.59650000  1
  Cu  Cu45  1  0.37372300  0.16956000  0.88022000  1
  Cu  Cu46  1  0.10199000  0.86885200  0.19227600  1
  Cu  Cu47  1  0.36141600  0.54731200  0.45548100  1
  Cu  Cu48  1  0.63858400  0.45268800  0.54451900  1
  Cu  Cu49  1  0.89801000  0.13114800  0.80772400  1
  Cu  Cu50  1  0.62627700  0.83044000  0.11978000  1
  Cu  Cu51  1  0.80519200  0.53836300  0.40350000  1
  Cu  Cu52  1  0.11576400  0.49524600  0.43636100  1
  Cu  Cu53  1  0.28037300  0.68181600  0.18903600  1
  Cu  Cu54  1  0.52235100  0.08062500  0.78729500  1
  Cu  Cu55  1  0.10893100  0.84241900  0.04593700  1
  Cu  Cu56  1  0.27026900  0.24267800  0.56032900  1
  Cu  Cu57  1  0.26546500  0.02990000  0.80060000  1
  Cu  Cu58  1  0.41330400  0.84808500  0.95132700  1
  Cu  Cu59  1  0.02932600  0.58637600  0.21252300  1
  Cu  Cu60  1  0.52932600  0.41362400  0.28747700  1
  Cu  Cu61  1  0.91330400  0.15191500  0.54867300  1
  Cu  Cu62  1  0.76546500  0.97010000  0.69940000  1
  Cu  Cu63  1  0.77026900  0.75732200  0.93967100  1
  Cu  Cu64  1  0.02235100  0.91937500  0.71270500  1
  Cu  Cu65  1  0.60893100  0.15758100  0.45406300  1
  Cu  Cu66  1  0.78037300  0.31818400  0.31096400  1
  Cu  Cu67  1  0.61576400  0.50475400  0.06363900  1
  Cu  Cu68  1  0.30519200  0.46163700  0.09650000  1
  Cu  Cu69  1  0.39801000  0.86885200  0.69227600  1
  Cu  Cu70  1  0.12627700  0.16956000  0.38022000  1
  Cu  Cu71  1  0.13858400  0.54731200  0.95548100  1
