# generated using pymatgen
data_Cu2NiC17
_symmetry_space_group_name_H-M   'P 1'
_cell_length_a   7.57980955
_cell_length_b   7.59621850
_cell_length_c   7.78341186
_cell_angle_alpha   85.85454045
_cell_angle_beta   94.83751600
_cell_angle_gamma   94.25841539
_symmetry_Int_Tables_number   1
_chemical_formula_structural   Cu2NiC17
_chemical_formula_sum   'Cu4 Ni2 C34'
_cell_volume   444.33906793
_cell_formula_units_Z   2
loop_
 _symmetry_equiv_pos_site_id
 _symmetry_equiv_pos_as_xyz
  1  'x, y, z'
loop_
 _atom_site_type_symbol
 _atom_site_label
 _atom_site_symmetry_multiplicity
 _atom_site_fract_x
 _atom_site_fract_y
 _atom_site_fract_z
 _atom_site_occupancy
  C  C0  1  0.20696500  0.78717500  0.27246400  1
  C  C1  1  0.70700200  0.28713000  0.27245700  1
  C  C2  1  0.71417700  0.77644200  0.81177200  1
  C  C3  1  0.21417000  0.27644600  0.81184800  1
  C  C4  1  0.71399500  0.28966800  0.81020700  1
  C  C5  1  0.21399600  0.78966000  0.81022200  1
  C  C6  1  0.21334400  0.29987200  0.27295700  1
  C  C7  1  0.71337500  0.79990000  0.27303400  1
  Ni  Ni8  1  0.00411000  0.00922800  0.02143400  1
  Ni  Ni9  1  0.50423200  0.50919600  0.02175000  1
  C  C10  1  0.98700000  0.51343300  0.51587200  1
  C  C11  1  0.48697400  0.01346200  0.51583400  1
  Cu  Cu12  1  0.99495700  0.00210200  0.52066500  1
  Cu  Cu13  1  0.49632000  0.99769900  0.00320900  1
  Cu  Cu14  1  0.99645500  0.49766600  0.00324200  1
  Cu  Cu15  1  0.49489500  0.50213200  0.52065500  1
  C  C16  1  0.93828200  0.75602200  0.42232100  1
  C  C17  1  0.43820400  0.25601000  0.42231400  1
  C  C18  1  0.93421300  0.93301900  0.73893100  1
  C  C19  1  0.43411800  0.43306800  0.73880500  1
  C  C20  1  0.75107400  0.94602600  0.04159800  1
  C  C21  1  0.25116400  0.44613000  0.04153900  1
  C  C22  1  0.78205900  0.06818300  0.41129900  1
  C  C23  1  0.28200900  0.56819100  0.41128100  1
  C  C24  1  0.46186400  0.75116100  0.92186300  1
  C  C25  1  0.96177700  0.25118100  0.92182900  1
  C  C26  1  0.55857300  0.07320800  0.75191300  1
  C  C27  1  0.05864200  0.57325600  0.75199100  1
  C  C28  1  0.44845800  0.91119300  0.22311000  1
  C  C29  1  0.94846100  0.41118500  0.22309500  1
  C  C30  1  0.55165100  0.24186100  0.04793800  1
  C  C31  1  0.05168400  0.74180500  0.04799800  1
  C  C32  1  0.24239300  0.90967700  0.55350100  1
  C  C33  1  0.74235500  0.40960800  0.55347500  1
  C  C34  1  0.25172800  0.03628900  0.92937900  1
  C  C35  1  0.75172800  0.53629200  0.92941500  1
  C  C36  1  0.07746400  0.04730300  0.23558900  1
  C  C37  1  0.57759700  0.54734600  0.23583700  1
  C  C38  1  0.10005400  0.22157400  0.56488700  1
  C  C39  1  0.60008200  0.72160200  0.56487200  1
