# generated using pymatgen
data_CuNi9C10
_symmetry_space_group_name_H-M   'P 1'
_cell_length_a   6.50581100
_cell_length_b   7.71254300
_cell_length_c   16.17257200
_cell_angle_alpha   90.00000000
_cell_angle_beta   90.00000000
_cell_angle_gamma   90.00000000
_symmetry_Int_Tables_number   1
_chemical_formula_structural   CuNi9C10
_chemical_formula_sum   'Cu4 Ni36 C40'
_cell_volume   811.48058597
_cell_formula_units_Z   4
loop_
 _symmetry_equiv_pos_site_id
 _symmetry_equiv_pos_as_xyz
  1  'x, y, z'
loop_
 _atom_site_type_symbol
 _atom_site_label
 _atom_site_symmetry_multiplicity
 _atom_site_fract_x
 _atom_site_fract_y
 _atom_site_fract_z
 _atom_site_occupancy
  Ni  Ni0  1  0.00009800  0.04036700  0.56962200  1
  Ni  Ni1  1  0.49990200  0.04036700  0.56962200  1
  Ni  Ni2  1  0.75000000  0.86215300  0.64645100  1
  Ni  Ni3  1  0.99910200  0.62960100  0.62717700  1
  Ni  Ni4  1  0.50089800  0.62960100  0.62717700  1
  Ni  Ni5  1  0.25000000  0.84977300  0.64658000  1
  Ni  Ni6  1  0.75000000  0.33147400  0.69647800  1
  Ni  Ni7  1  0.50919700  0.08249000  0.71090400  1
  Ni  Ni8  1  0.99080300  0.08249000  0.71090400  1
  Ni  Ni9  1  0.00919700  0.58249000  0.78909600  1
  Ni  Ni10  1  0.49080300  0.58249000  0.78909600  1
  Ni  Ni11  1  0.25000000  0.83147400  0.80352200  1
  Ni  Ni12  1  0.75000000  0.34977300  0.85342000  1
  Ni  Ni13  1  0.00089800  0.12960100  0.87282300  1
  Ni  Ni14  1  0.49910200  0.12960100  0.87282300  1
  Ni  Ni15  1  0.25000000  0.36215300  0.85354900  1
  Ni  Ni16  1  0.50009800  0.54036700  0.93037800  1
  Ni  Ni17  1  0.99990200  0.54036700  0.93037800  1
  Ni  Ni18  1  0.00009800  0.45963300  0.06962200  1
  Ni  Ni19  1  0.49990200  0.45963300  0.06962200  1
  Ni  Ni20  1  0.75000000  0.63784700  0.14645100  1
  Ni  Ni21  1  0.50089800  0.87039900  0.12717700  1
  Ni  Ni22  1  0.99910200  0.87039900  0.12717700  1
  Ni  Ni23  1  0.25000000  0.65022700  0.14658000  1
  Ni  Ni24  1  0.75000000  0.16852600  0.19647800  1
  Ni  Ni25  1  0.50919700  0.41751000  0.21090400  1
  Ni  Ni26  1  0.99080300  0.41751000  0.21090400  1
  Ni  Ni27  1  0.00919700  0.91751000  0.28909600  1
  Ni  Ni28  1  0.49080300  0.91751000  0.28909600  1
  Ni  Ni29  1  0.25000000  0.66852600  0.30352200  1
  Ni  Ni30  1  0.75000000  0.15022700  0.35342000  1
  Ni  Ni31  1  0.00089800  0.37039900  0.37282300  1
  Ni  Ni32  1  0.49910200  0.37039900  0.37282300  1
  Ni  Ni33  1  0.25000000  0.13784700  0.35354900  1
  Ni  Ni34  1  0.50009800  0.95963300  0.43037800  1
  Ni  Ni35  1  0.99990200  0.95963300  0.43037800  1
  Cu  Cu36  1  0.25000000  0.32544600  0.52128300  1
  Cu  Cu37  1  0.75000000  0.82544600  0.97871700  1
  Cu  Cu38  1  0.25000000  0.17455400  0.02128300  1
  Cu  Cu39  1  0.75000000  0.67455400  0.47871700  1
  C  C40  1  0.75000000  0.27899800  0.53399400  1
  C  C41  1  0.25000000  0.33079800  0.70386900  1
  C  C42  1  0.75000000  0.83079800  0.79613100  1
  C  C43  1  0.25000000  0.77899800  0.96600600  1
  C  C44  1  0.75000000  0.22100200  0.03399400  1
  C  C45  1  0.25000000  0.16920200  0.20386900  1
  C  C46  1  0.75000000  0.66920200  0.29613100  1
  C  C47  1  0.25000000  0.72100200  0.46600600  1
  C  C48  1  0.01197700  0.80830100  0.53233400  1
  C  C49  1  0.48802300  0.80830100  0.53233400  1
  C  C50  1  0.75000000  0.50318300  0.59376200  1
  C  C51  1  0.75000000  0.11046700  0.63156900  1
  C  C52  1  0.25000000  0.11718600  0.63121600  1
  C  C53  1  0.25000000  0.51385700  0.62075800  1
  C  C54  1  0.50651800  0.80785600  0.72192600  1
  C  C55  1  0.99348200  0.80785600  0.72192600  1
  C  C56  1  0.00651800  0.30785600  0.77807400  1
  C  C57  1  0.49348200  0.30785600  0.77807400  1
  C  C58  1  0.75000000  0.01385700  0.87924200  1
  C  C59  1  0.75000000  0.61718600  0.86878400  1
  C  C60  1  0.25000000  0.61046700  0.86843100  1
  C  C61  1  0.25000000  0.00318300  0.90623800  1
  C  C62  1  0.51197700  0.30830100  0.96766600  1
  C  C63  1  0.98802300  0.30830100  0.96766600  1
  C  C64  1  0.01197700  0.69169900  0.03233400  1
  C  C65  1  0.48802300  0.69169900  0.03233400  1
  C  C66  1  0.75000000  0.99681700  0.09376200  1
  C  C67  1  0.75000000  0.38953300  0.13156900  1
  C  C68  1  0.25000000  0.38281400  0.13121600  1
  C  C69  1  0.25000000  0.98614300  0.12075800  1
  C  C70  1  0.50651800  0.69214400  0.22192600  1
  C  C71  1  0.99348200  0.69214400  0.22192600  1
  C  C72  1  0.00651800  0.19214400  0.27807400  1
  C  C73  1  0.49348200  0.19214400  0.27807400  1
  C  C74  1  0.75000000  0.48614300  0.37924200  1
  C  C75  1  0.75000000  0.88281400  0.36878400  1
  C  C76  1  0.25000000  0.88953300  0.36843100  1
  C  C77  1  0.25000000  0.49681700  0.40623800  1
  C  C78  1  0.51197700  0.19169900  0.46766600  1
  C  C79  1  0.98802300  0.19169900  0.46766600  1
