# generated using pymatgen
data_Cu5NiC20
_symmetry_space_group_name_H-M   'P 1'
_cell_length_a   6.63730300
_cell_length_b   8.64248930
_cell_length_c   10.04152962
_cell_angle_alpha   88.17531242
_cell_angle_beta   89.93779447
_cell_angle_gamma   89.63093063
_symmetry_Int_Tables_number   1
_chemical_formula_structural   Cu5NiC20
_chemical_formula_sum   'Cu10 Ni2 C40'
_cell_volume   575.70621453
_cell_formula_units_Z   2
loop_
 _symmetry_equiv_pos_site_id
 _symmetry_equiv_pos_as_xyz
  1  'x, y, z'
loop_
 _atom_site_type_symbol
 _atom_site_label
 _atom_site_symmetry_multiplicity
 _atom_site_fract_x
 _atom_site_fract_y
 _atom_site_fract_z
 _atom_site_occupancy
  Ni  Ni0  1  0.74921600  0.91367100  0.12349300  1
  Ni  Ni1  1  0.50026300  0.24851900  0.62401700  1
  Cu  Cu2  1  0.76333100  0.91834900  0.62765900  1
  Cu  Cu3  1  0.97211900  0.73326200  0.38913000  1
  Cu  Cu4  1  0.52863800  0.73377600  0.39012400  1
  Cu  Cu5  1  0.97628000  0.73153000  0.88338900  1
  Cu  Cu6  1  0.52296400  0.73363700  0.88261400  1
  Cu  Cu7  1  0.47243200  0.26840100  0.11470000  1
  Cu  Cu8  1  0.02935100  0.26973700  0.11377400  1
  Cu  Cu9  1  0.02083600  0.26693400  0.61444700  1
  Cu  Cu10  1  0.24322600  0.08380700  0.37035600  1
  Cu  Cu11  1  0.23733800  0.08659800  0.87263500  1
  C  C12  1  0.24892000  0.64778600  0.11328100  1
  C  C13  1  0.25033800  0.64619300  0.61094400  1
  C  C14  1  0.75527400  0.35125700  0.38330100  1
  C  C15  1  0.75184500  0.35431100  0.88867000  1
  C  C16  1  0.74909600  0.58474700  0.14422700  1
  C  C17  1  0.75490300  0.59453800  0.64355100  1
  C  C18  1  0.25091800  0.40804400  0.35158300  1
  C  C19  1  0.24580900  0.41170000  0.85454200  1
  C  C20  1  0.24950200  0.96216300  0.13579500  1
  C  C21  1  0.24075800  0.95711100  0.63894000  1
  C  C22  1  0.75083400  0.03844900  0.37136500  1
  C  C23  1  0.75272100  0.04709800  0.86075600  1
  C  C24  1  0.74911400  0.88983400  0.35386300  1
  C  C25  1  0.75080000  0.89744500  0.84587400  1
  C  C26  1  0.24704400  0.92001200  0.01287900  1
  C  C27  1  0.24817600  0.92020500  0.51502200  1
  C  C28  1  0.24855200  0.85790400  0.23262900  1
  C  C29  1  0.25455100  0.84993500  0.73354500  1
  C  C30  1  0.93352300  0.67525400  0.08803700  1
  C  C31  1  0.56386800  0.67657300  0.08882500  1
  C  C32  1  0.93369700  0.69755400  0.59471200  1
  C  C33  1  0.56579200  0.68286900  0.59014500  1
  C  C34  1  0.75065300  0.58467000  0.30025800  1
  C  C35  1  0.24635200  0.57782500  0.40024400  1
  C  C36  1  0.75069000  0.58530800  0.79988400  1
  C  C37  1  0.24983700  0.58108300  0.90252200  1
  C  C38  1  0.74775000  0.41249900  0.10311800  1
  C  C39  1  0.24448700  0.41720400  0.19540100  1
  C  C40  1  0.76946100  0.42681100  0.59381300  1
  C  C41  1  0.23086800  0.42017100  0.69936200  1
  C  C42  1  0.44008200  0.31568100  0.39736100  1
  C  C43  1  0.07147800  0.30935800  0.40560700  1
  C  C44  1  0.43457900  0.31569700  0.89930600  1
  C  C45  1  0.06725900  0.31583200  0.91329800  1
  C  C46  1  0.75567200  0.13401300  0.26890200  1
  C  C47  1  0.75833300  0.13867200  0.75560600  1
  C  C48  1  0.74848500  0.09127300  0.49090500  1
  C  C49  1  0.74949000  0.10691800  0.97699200  1
  C  C50  1  0.25262700  0.10772100  0.16536900  1
  C  C51  1  0.21986900  0.10006100  0.67322400  1
