# generated using pymatgen
data_Cu3NiC3
_symmetry_space_group_name_H-M   'P 1'
_cell_length_a   10.51850500
_cell_length_b   8.51688300
_cell_length_c   13.73167406
_cell_angle_alpha   88.50374121
_cell_angle_beta   90.00000000
_cell_angle_gamma   90.00000000
_symmetry_Int_Tables_number   1
_chemical_formula_structural   Cu3NiC3
_chemical_formula_sum   'Cu24 Ni8 C24'
_cell_volume   1229.73088194
_cell_formula_units_Z   8
loop_
 _symmetry_equiv_pos_site_id
 _symmetry_equiv_pos_as_xyz
  1  'x, y, z'
loop_
 _atom_site_type_symbol
 _atom_site_label
 _atom_site_symmetry_multiplicity
 _atom_site_fract_x
 _atom_site_fract_y
 _atom_site_fract_z
 _atom_site_occupancy
  C  C0  1  0.04178600  0.92942000  0.89580800  1
  C  C1  1  0.45821400  0.92942000  0.39580800  1
  C  C2  1  0.88516600  0.82828900  0.70281700  1
  C  C3  1  0.61483400  0.82828900  0.20281700  1
  C  C4  1  0.41414700  0.84279800  0.91895900  1
  C  C5  1  0.08585300  0.84279800  0.41895900  1
  C  C6  1  0.59273900  0.69729900  0.67489300  1
  C  C7  1  0.90726100  0.69729900  0.17489300  1
  C  C8  1  0.10653500  0.62732600  0.96158900  1
  C  C9  1  0.39346500  0.62732600  0.46158900  1
  C  C10  1  0.98001700  0.57176700  0.60513600  1
  C  C11  1  0.51998300  0.57176700  0.10513600  1
  C  C12  1  0.48001700  0.42823300  0.89486400  1
  C  C13  1  0.01998300  0.42823300  0.39486400  1
  C  C14  1  0.60653500  0.37267400  0.53841100  1
  C  C15  1  0.89346500  0.37267400  0.03841100  1
  C  C16  1  0.09273900  0.30270100  0.82510700  1
  C  C17  1  0.40726100  0.30270100  0.32510700  1
  C  C18  1  0.91414700  0.15720200  0.58104100  1
  C  C19  1  0.58585300  0.15720200  0.08104100  1
  C  C20  1  0.38516600  0.17171100  0.79718300  1
  C  C21  1  0.11483400  0.17171100  0.29718300  1
  C  C22  1  0.54178600  0.07058000  0.60419200  1
  C  C23  1  0.95821400  0.07058000  0.10419200  1
  Ni  Ni24  1  0.74625000  0.77089900  0.94238300  1
  Ni  Ni25  1  0.75375000  0.77089900  0.44238300  1
  Ni  Ni26  1  0.24869700  0.74974600  0.69328600  1
  Ni  Ni27  1  0.25130300  0.74974600  0.19328600  1
  Ni  Ni28  1  0.74869700  0.25025400  0.80671400  1
  Ni  Ni29  1  0.75130300  0.25025400  0.30671400  1
  Ni  Ni30  1  0.24625000  0.22910100  0.55761700  1
  Ni  Ni31  1  0.25375000  0.22910100  0.05761700  1
  Cu  Cu32  1  0.24644700  0.95358300  0.81745400  1
  Cu  Cu33  1  0.25355300  0.95358300  0.31745400  1
  Cu  Cu34  1  0.06491600  0.83423600  0.59441900  1
  Cu  Cu35  1  0.43508400  0.83423600  0.09441900  1
  Cu  Cu36  1  0.42460800  0.82720200  0.58085400  1
  Cu  Cu37  1  0.07539200  0.82720200  0.08085400  1
  Cu  Cu38  1  0.93257500  0.68103900  0.84915900  1
  Cu  Cu39  1  0.56865600  0.66966900  0.84665200  1
  Cu  Cu40  1  0.56742500  0.68103900  0.34915900  1
  Cu  Cu41  1  0.93134400  0.66966900  0.34665200  1
  Cu  Cu42  1  0.75521500  0.57493900  0.57912800  1
  Cu  Cu43  1  0.74478500  0.57493900  0.07912800  1
  Cu  Cu44  1  0.25521500  0.42506100  0.92087200  1
  Cu  Cu45  1  0.24478500  0.42506100  0.42087200  1
  Cu  Cu46  1  0.06865600  0.33033100  0.65334800  1
  Cu  Cu47  1  0.43257500  0.31896100  0.65084100  1
  Cu  Cu48  1  0.43134400  0.33033100  0.15334800  1
  Cu  Cu49  1  0.06742500  0.31896100  0.15084100  1
  Cu  Cu50  1  0.92460800  0.17279800  0.91914600  1
  Cu  Cu51  1  0.57539200  0.17279800  0.41914600  1
  Cu  Cu52  1  0.56491600  0.16576400  0.90558100  1
  Cu  Cu53  1  0.93508400  0.16576400  0.40558100  1
  Cu  Cu54  1  0.74644700  0.04641700  0.68254600  1
  Cu  Cu55  1  0.75355300  0.04641700  0.18254600  1
