# generated using pymatgen
data_Cu8Ni7C24
_symmetry_space_group_name_H-M   'P 1'
_cell_length_a   5.32354400
_cell_length_b   18.29251200
_cell_length_c   18.84108200
_cell_angle_alpha   90.00000000
_cell_angle_beta   90.00000000
_cell_angle_gamma   90.00000000
_symmetry_Int_Tables_number   1
_chemical_formula_structural   Cu8Ni7C24
_chemical_formula_sum   'Cu32 Ni28 C96'
_cell_volume   1834.76326498
_cell_formula_units_Z   4
loop_
 _symmetry_equiv_pos_site_id
 _symmetry_equiv_pos_as_xyz
  1  'x, y, z'
loop_
 _atom_site_type_symbol
 _atom_site_label
 _atom_site_symmetry_multiplicity
 _atom_site_fract_x
 _atom_site_fract_y
 _atom_site_fract_z
 _atom_site_occupancy
  Ni  Ni0  1  0.11817400  0.15651400  0.62487500  1
  Ni  Ni1  1  0.38182600  0.34348600  0.12487500  1
  Ni  Ni2  1  0.88182600  0.65651400  0.37512500  1
  Ni  Ni3  1  0.61817400  0.84348600  0.87512500  1
  Ni  Ni4  1  0.88182600  0.84348600  0.37512500  1
  Ni  Ni5  1  0.61817400  0.65651400  0.87512500  1
  Ni  Ni6  1  0.11817400  0.34348600  0.62487500  1
  Ni  Ni7  1  0.38182600  0.15651400  0.12487500  1
  Ni  Ni8  1  0.61700100  0.07166100  0.62462800  1
  Ni  Ni9  1  0.88299900  0.42833900  0.12462800  1
  Ni  Ni10  1  0.38299900  0.57166100  0.37537200  1
  Ni  Ni11  1  0.11700100  0.92833900  0.87537200  1
  Ni  Ni12  1  0.38299900  0.92833900  0.37537200  1
  Ni  Ni13  1  0.11700100  0.57166100  0.87537200  1
  Ni  Ni14  1  0.61700100  0.42833900  0.62462800  1
  Ni  Ni15  1  0.88299900  0.07166100  0.12462800  1
  Ni  Ni16  1  0.11768900  0.99151700  0.62540600  1
  Ni  Ni17  1  0.38231100  0.50848300  0.12540600  1
  Ni  Ni18  1  0.88231100  0.49151700  0.37459400  1
  Ni  Ni19  1  0.61768900  0.00848300  0.87459400  1
  Ni  Ni20  1  0.88231100  0.00848300  0.37459400  1
  Ni  Ni21  1  0.61768900  0.49151700  0.87459400  1
  Ni  Ni22  1  0.11768900  0.50848300  0.62540600  1
  Ni  Ni23  1  0.38231100  0.99151700  0.12540600  1
  Ni  Ni24  1  0.61981000  0.25000000  0.62657100  1
  Ni  Ni25  1  0.88019000  0.25000000  0.12657100  1
  Ni  Ni26  1  0.38019000  0.75000000  0.37342900  1
  Ni  Ni27  1  0.11981000  0.75000000  0.87342900  1
  Cu  Cu28  1  0.23222500  0.83385000  0.51728300  1
  Cu  Cu29  1  0.26777500  0.66615000  0.01728300  1
  Cu  Cu30  1  0.76777500  0.33385000  0.48271700  1
  Cu  Cu31  1  0.73222500  0.16615000  0.98271700  1
  Cu  Cu32  1  0.76777500  0.16615000  0.48271700  1
  Cu  Cu33  1  0.73222500  0.33385000  0.98271700  1
  Cu  Cu34  1  0.23222500  0.66615000  0.51728300  1
  Cu  Cu35  1  0.26777500  0.83385000  0.01728300  1
  Cu  Cu36  1  0.73123100  0.91907300  0.52428400  1
  Cu  Cu37  1  0.76876900  0.58092700  0.02428400  1
  Cu  Cu38  1  0.26876900  0.41907300  0.47571600  1
  Cu  Cu39  1  0.23123100  0.08092700  0.97571600  1
  Cu  Cu40  1  0.26876900  0.08092700  0.47571600  1
  Cu  Cu41  1  0.23123100  0.41907300  0.97571600  1
  Cu  Cu42  1  0.73123100  0.58092700  0.52428400  1
  Cu  Cu43  1  0.76876900  0.91907300  0.02428400  1
  Cu  Cu44  1  0.44744500  0.92110300  0.72674800  1
  Cu  Cu45  1  0.05255500  0.57889700  0.22674800  1
  Cu  Cu46  1  0.55255500  0.42110300  0.27325200  1
  Cu  Cu47  1  0.94744500  0.07889700  0.77325200  1
  Cu  Cu48  1  0.55255500  0.07889700  0.27325200  1
  Cu  Cu49  1  0.94744500  0.42110300  0.77325200  1
  Cu  Cu50  1  0.44744500  0.57889700  0.72674800  1
  Cu  Cu51  1  0.05255500  0.92110300  0.22674800  1
  Cu  Cu52  1  0.94620100  0.83469900  0.73115900  1
  Cu  Cu53  1  0.55379900  0.66530100  0.23115900  1
  Cu  Cu54  1  0.05379900  0.33469900  0.26884100  1
  Cu  Cu55  1  0.44620100  0.16530100  0.76884100  1
  Cu  Cu56  1  0.05379900  0.16530100  0.26884100  1
  Cu  Cu57  1  0.44620100  0.33469900  0.76884100  1
  Cu  Cu58  1  0.94620100  0.66530100  0.73115900  1
  Cu  Cu59  1  0.55379900  0.83469900  0.23115900  1
  C  C60  1  0.28038700  0.07306900  0.56300300  1
  C  C61  1  0.21961300  0.42693100  0.06300300  1
  C  C62  1  0.71961300  0.57306900  0.43699700  1
  C  C63  1  0.78038700  0.92693100  0.93699700  1
  C  C64  1  0.71961300  0.92693100  0.43699700  1
  C  C65  1  0.78038700  0.57306900  0.93699700  1
  C  C66  1  0.28038700  0.42693100  0.56300300  1
  C  C67  1  0.21961300  0.07306900  0.06300300  1
  C  C68  1  0.77138000  0.16095600  0.56912000  1
  C  C69  1  0.72862000  0.33904400  0.06912000  1
  C  C70  1  0.22862000  0.66095600  0.43088000  1
  C  C71  1  0.27138000  0.83904400  0.93088000  1
  C  C72  1  0.22862000  0.83904400  0.43088000  1
  C  C73  1  0.27138000  0.66095600  0.93088000  1
  C  C74  1  0.77138000  0.33904400  0.56912000  1
  C  C75  1  0.72862000  0.16095600  0.06912000  1
  C  C76  1  0.28479000  0.75000000  0.54352200  1
  C  C77  1  0.21521000  0.75000000  0.04352200  1
  C  C78  1  0.71521000  0.25000000  0.45647800  1
  C  C79  1  0.78479000  0.25000000  0.95647800  1
  C  C80  1  0.26175000  0.25000000  0.58108900  1
  C  C81  1  0.23825000  0.25000000  0.08108900  1
  C  C82  1  0.73825000  0.75000000  0.41891100  1
  C  C83  1  0.76175000  0.75000000  0.91891100  1
  C  C84  1  0.80016300  0.99244100  0.56771800  1
  C  C85  1  0.69983700  0.50755900  0.06771800  1
  C  C86  1  0.19983700  0.49244100  0.43228200  1
  C  C87  1  0.30016300  0.00755900  0.93228200  1
  C  C88  1  0.19983700  0.00755900  0.43228200  1
  C  C89  1  0.30016300  0.49244100  0.93228200  1
  C  C90  1  0.80016300  0.50755900  0.56771800  1
  C  C91  1  0.69983700  0.99244100  0.06771800  1
  C  C92  1  0.45274000  0.88739400  0.55025700  1
  C  C93  1  0.04726000  0.61260600  0.05025700  1
  C  C94  1  0.54726000  0.38739400  0.44974300  1
  C  C95  1  0.95274000  0.11260600  0.94974300  1
  C  C96  1  0.54726000  0.11260600  0.44974300  1
  C  C97  1  0.95274000  0.38739400  0.94974300  1
  C  C98  1  0.45274000  0.61260600  0.55025700  1
  C  C99  1  0.04726000  0.88739400  0.05025700  1
  C  C100  1  0.95914500  0.86148200  0.54712300  1
  C  C101  1  0.54085500  0.63851800  0.04712300  1
  C  C102  1  0.04085500  0.36148200  0.45287700  1
  C  C103  1  0.45914500  0.13851800  0.95287700  1
  C  C104  1  0.04085500  0.13851800  0.45287700  1
  C  C105  1  0.45914500  0.36148200  0.95287700  1
  C  C106  1  0.95914500  0.63851800  0.54712300  1
  C  C107  1  0.54085500  0.86148200  0.04712300  1
  C  C108  1  0.45833800  0.16122600  0.68253000  1
  C  C109  1  0.04166200  0.33877400  0.18253000  1
  C  C110  1  0.54166200  0.66122600  0.31747000  1
  C  C111  1  0.95833800  0.83877400  0.81747000  1
  C  C112  1  0.54166200  0.83877400  0.31747000  1
  C  C113  1  0.95833800  0.66122600  0.81747000  1
  C  C114  1  0.45833800  0.33877400  0.68253000  1
  C  C115  1  0.04166200  0.16122600  0.18253000  1
  C  C116  1  0.94738300  0.07409600  0.68615600  1
  C  C117  1  0.55261700  0.42590400  0.18615600  1
  C  C118  1  0.05261700  0.57409600  0.31384400  1
  C  C119  1  0.44738300  0.92590400  0.81384400  1
  C  C120  1  0.05261700  0.92590400  0.31384400  1
  C  C121  1  0.44738300  0.57409600  0.81384400  1
  C  C122  1  0.94738300  0.42590400  0.68615600  1
  C  C123  1  0.55261700  0.07409600  0.18615600  1
  C  C124  1  0.43396100  0.99792000  0.68515200  1
  C  C125  1  0.06603900  0.50208000  0.18515200  1
  C  C126  1  0.56603900  0.49792000  0.31484800  1
  C  C127  1  0.93396100  0.00208000  0.81484800  1
  C  C128  1  0.56603900  0.00208000  0.31484800  1
  C  C129  1  0.93396100  0.49792000  0.81484800  1
  C  C130  1  0.43396100  0.50208000  0.68515200  1
  C  C131  1  0.06603900  0.99792000  0.18515200  1
  C  C132  1  0.97357500  0.75000000  0.70445900  1
  C  C133  1  0.52642500  0.75000000  0.20445900  1
  C  C134  1  0.02642500  0.25000000  0.29554100  1
  C  C135  1  0.47357500  0.25000000  0.79554100  1
  C  C136  1  0.97783400  0.25000000  0.66925500  1
  C  C137  1  0.52216600  0.25000000  0.16925500  1
  C  C138  1  0.02216600  0.75000000  0.33074500  1
  C  C139  1  0.47783400  0.75000000  0.83074500  1
  C  C140  1  0.17799900  0.88366200  0.69701800  1
  C  C141  1  0.32200100  0.61633800  0.19701800  1
  C  C142  1  0.82200100  0.38366200  0.30298200  1
  C  C143  1  0.67799900  0.11633800  0.80298200  1
  C  C144  1  0.82200100  0.11633800  0.30298200  1
  C  C145  1  0.67799900  0.38366200  0.80298200  1
  C  C146  1  0.17799900  0.61633800  0.69701800  1
  C  C147  1  0.32200100  0.88366200  0.19701800  1
  C  C148  1  0.68550400  0.87032000  0.70149400  1
  C  C149  1  0.81449600  0.62968000  0.20149400  1
  C  C150  1  0.31449600  0.37032000  0.29850600  1
  C  C151  1  0.18550400  0.12968000  0.79850600  1
  C  C152  1  0.31449600  0.12968000  0.29850600  1
  C  C153  1  0.18550400  0.37032000  0.79850600  1
  C  C154  1  0.68550400  0.62968000  0.70149400  1
  C  C155  1  0.81449600  0.87032000  0.20149400  1
