# generated using pymatgen
data_CuNiC
_symmetry_space_group_name_H-M   'P 1'
_cell_length_a   3.12166000
_cell_length_b   4.74314200
_cell_length_c   14.19509236
_cell_angle_alpha   89.84889656
_cell_angle_beta   90.00000000
_cell_angle_gamma   90.00000000
_symmetry_Int_Tables_number   1
_chemical_formula_structural   CuNiC
_chemical_formula_sum   'Cu6 Ni6 C6'
_cell_volume   210.17857281
_cell_formula_units_Z   6
loop_
 _symmetry_equiv_pos_site_id
 _symmetry_equiv_pos_as_xyz
  1  'x, y, z'
loop_
 _atom_site_type_symbol
 _atom_site_label
 _atom_site_symmetry_multiplicity
 _atom_site_fract_x
 _atom_site_fract_y
 _atom_site_fract_z
 _atom_site_occupancy
  C  C0  1  0.00000000  0.97102800  0.99540900  1
  C  C1  1  0.00000000  0.97465700  0.32711300  1
  C  C2  1  0.00000000  0.96798400  0.65931700  1
  C  C3  1  0.50000000  0.48115700  0.18792000  1
  C  C4  1  0.50000000  0.54580000  0.49324400  1
  C  C5  1  0.50000000  0.54573500  0.82761400  1
  Ni  Ni6  1  0.50000000  0.80427900  0.26769600  1
  Ni  Ni7  1  0.50000000  0.81073400  0.60038100  1
  Ni  Ni8  1  0.50000000  0.80084700  0.93838500  1
  Ni  Ni9  1  0.00000000  0.70374500  0.76822200  1
  Ni  Ni10  1  0.00000000  0.70143000  0.43336600  1
  Ni  Ni11  1  0.00000000  0.29305300  0.23407600  1
  Cu  Cu12  1  0.00000000  0.69215400  0.10265900  1
  Cu  Cu13  1  0.00000000  0.30999300  0.56611800  1
  Cu  Cu14  1  0.00000000  0.30345500  0.89929100  1
  Cu  Cu15  1  0.50000000  0.19367300  0.06355200  1
  Cu  Cu16  1  0.50000000  0.19840200  0.40277800  1
  Cu  Cu17  1  0.50000000  0.20187300  0.73285800  1
