# generated using pymatgen
data_Cu5Ni3C11
_symmetry_space_group_name_H-M   'P 1'
_cell_length_a   6.95762137
_cell_length_b   6.95762137
_cell_length_c   12.41346814
_cell_angle_alpha   67.66335104
_cell_angle_beta   67.66335104
_cell_angle_gamma   62.89818823
_symmetry_Int_Tables_number   1
_chemical_formula_structural   Cu5Ni3C11
_chemical_formula_sum   'Cu10 Ni6 C22'
_cell_volume   478.92131715
_cell_formula_units_Z   2
loop_
 _symmetry_equiv_pos_site_id
 _symmetry_equiv_pos_as_xyz
  1  'x, y, z'
loop_
 _atom_site_type_symbol
 _atom_site_label
 _atom_site_symmetry_multiplicity
 _atom_site_fract_x
 _atom_site_fract_y
 _atom_site_fract_z
 _atom_site_occupancy
  C  C0  1  0.89660000  0.14339200  0.97480400  1
  C  C1  1  0.14339200  0.89660000  0.47480400  1
  C  C2  1  0.70826100  0.83835100  0.94298400  1
  C  C3  1  0.73390500  0.91756100  0.79475100  1
  C  C4  1  0.81767200  0.63957700  0.86633000  1
  C  C5  1  0.54114100  0.80528700  0.88689400  1
  C  C6  1  0.83835100  0.70826100  0.44298400  1
  C  C7  1  0.91756100  0.73390500  0.29475100  1
  C  C8  1  0.80528700  0.54114100  0.38689400  1
  C  C9  1  0.74287300  0.17281100  0.50936200  1
  C  C10  1  0.63957700  0.81767200  0.36633000  1
  C  C11  1  0.38744400  0.19367700  0.62802700  1
  C  C12  1  0.13579500  0.26379800  0.72871900  1
  C  C13  1  0.17492100  0.42812600  0.59266600  1
  C  C14  1  0.15832700  0.18298900  0.60925400  1
  C  C15  1  0.42812600  0.17492100  0.09266600  1
  C  C16  1  0.07085400  0.11466200  0.54179500  1
  C  C17  1  0.17281100  0.74287300  0.00936200  1
  C  C18  1  0.19367700  0.38744400  0.12802700  1
  C  C19  1  0.26379800  0.13579500  0.22871900  1
  C  C20  1  0.18298900  0.15832700  0.10925400  1
  C  C21  1  0.11466200  0.07085400  0.04179500  1
  Ni  Ni22  1  0.69967600  0.79968000  0.87208000  1
  Ni  Ni23  1  0.80392600  0.21320000  0.82497900  1
  Ni  Ni24  1  0.79968000  0.69967600  0.37208000  1
  Ni  Ni25  1  0.21518300  0.26403600  0.64012600  1
  Ni  Ni26  1  0.21320000  0.80392600  0.32497900  1
  Ni  Ni27  1  0.26403600  0.21518300  0.14012600  1
  Cu  Cu28  1  0.94377300  0.73676200  0.54121400  1
  Cu  Cu29  1  0.65161600  0.14863400  0.59869300  1
  Cu  Cu30  1  0.17421600  0.88714500  0.90304000  1
  Cu  Cu31  1  0.73676200  0.94377300  0.04121400  1
  Cu  Cu32  1  0.88714500  0.17421600  0.40304000  1
  Cu  Cu33  1  0.32198200  0.68147500  0.57167200  1
  Cu  Cu34  1  0.00617800  0.38449300  0.87059500  1
  Cu  Cu35  1  0.68147500  0.32198200  0.07167200  1
  Cu  Cu36  1  0.14863400  0.65161600  0.09869300  1
  Cu  Cu37  1  0.38449300  0.00617800  0.37059500  1
