# generated using pymatgen
data_Cu3Ni3C7
_symmetry_space_group_name_H-M   'P 1'
_cell_length_a   7.41468095
_cell_length_b   7.41468095
_cell_length_c   13.60830900
_cell_angle_alpha   90.00000000
_cell_angle_beta   90.00000000
_cell_angle_gamma   119.79791193
_symmetry_Int_Tables_number   1
_chemical_formula_structural   Cu3Ni3C7
_chemical_formula_sum   'Cu12 Ni12 C28'
_cell_volume   649.23289977
_cell_formula_units_Z   4
loop_
 _symmetry_equiv_pos_site_id
 _symmetry_equiv_pos_as_xyz
  1  'x, y, z'
loop_
 _atom_site_type_symbol
 _atom_site_label
 _atom_site_symmetry_multiplicity
 _atom_site_fract_x
 _atom_site_fract_y
 _atom_site_fract_z
 _atom_site_occupancy
  C  C0  1  0.82202000  0.17798000  0.25000000  1
  C  C1  1  0.17798000  0.82202000  0.75000000  1
  C  C2  1  0.50000000  0.50000000  0.00000000  1
  C  C3  1  0.50000000  0.50000000  0.50000000  1
  C  C4  1  0.36959200  0.98581700  0.19134200  1
  C  C5  1  0.98581700  0.36959200  0.80865800  1
  C  C6  1  0.36959200  0.98581700  0.30865800  1
  C  C7  1  0.98581700  0.36959200  0.69134200  1
  C  C8  1  0.63040800  0.01418300  0.80865800  1
  C  C9  1  0.01418300  0.63040800  0.19134200  1
  C  C10  1  0.63040800  0.01418300  0.69134200  1
  C  C11  1  0.01418300  0.63040800  0.30865800  1
  C  C12  1  0.18695300  0.81304700  0.03684900  1
  C  C13  1  0.81304700  0.18695300  0.96315100  1
  C  C14  1  0.18695300  0.81304700  0.46315100  1
  C  C15  1  0.81304700  0.18695300  0.53684900  1
  C  C16  1  0.07981200  0.92018800  0.09312000  1
  C  C17  1  0.92018800  0.07981200  0.90688000  1
  C  C18  1  0.07981200  0.92018800  0.40688000  1
  C  C19  1  0.92018800  0.07981200  0.59312000  1
  Ni  Ni20  1  0.35917900  0.26477700  0.91130300  1
  Ni  Ni21  1  0.26477700  0.35917900  0.08869700  1
  Ni  Ni22  1  0.35917900  0.26477700  0.58869700  1
  Ni  Ni23  1  0.26477700  0.35917900  0.41130300  1
  Ni  Ni24  1  0.64082100  0.73522300  0.08869700  1
  Ni  Ni25  1  0.73522300  0.64082100  0.91130300  1
  Ni  Ni26  1  0.64082100  0.73522300  0.41130300  1
  Ni  Ni27  1  0.73522300  0.64082100  0.58869700  1
  Ni  Ni28  1  0.63709000  0.36291000  0.05827000  1
  Ni  Ni29  1  0.36291000  0.63709000  0.94173000  1
  Ni  Ni30  1  0.63709000  0.36291000  0.44173000  1
  Ni  Ni31  1  0.36291000  0.63709000  0.55827000  1
  Cu  Cu32  1  0.72542400  0.87907400  0.14088000  1
  Cu  Cu33  1  0.87907400  0.72542400  0.85912000  1
  Cu  Cu34  1  0.72542400  0.87907400  0.35912000  1
  Cu  Cu35  1  0.87907400  0.72542400  0.64088000  1
  Cu  Cu36  1  0.27457600  0.12092600  0.85912000  1
  Cu  Cu37  1  0.12092600  0.27457600  0.14088000  1
  Cu  Cu38  1  0.27457600  0.12092600  0.64088000  1
  Cu  Cu39  1  0.12092600  0.27457600  0.35912000  1
  Cu  Cu40  1  0.71896000  0.28104000  0.09642100  1
  Cu  Cu41  1  0.28104000  0.71896000  0.90357900  1
  Cu  Cu42  1  0.71896000  0.28104000  0.40357900  1
  Cu  Cu43  1  0.28104000  0.71896000  0.59642100  1
  C  C44  1  0.45932300  0.04429600  0.25000000  1
  C  C45  1  0.04429600  0.45932300  0.75000000  1
  C  C46  1  0.54067700  0.95570400  0.75000000  1
  C  C47  1  0.95570400  0.54067700  0.25000000  1
  C  C48  1  0.15549500  0.84450500  0.10276400  1
  C  C49  1  0.84450500  0.15549500  0.89723600  1
  C  C50  1  0.15549500  0.84450500  0.39723600  1
  C  C51  1  0.84450500  0.15549500  0.60276400  1
