# generated using pymatgen
data_CuNiC6
_symmetry_space_group_name_H-M   'P 1'
_cell_length_a   5.35259929
_cell_length_b   5.35259787
_cell_length_c   6.39983300
_cell_angle_alpha   90.00000000
_cell_angle_beta   90.00000000
_cell_angle_gamma   89.41539218
_symmetry_Int_Tables_number   1
_chemical_formula_structural   CuNiC6
_chemical_formula_sum   'Cu2 Ni2 C12'
_cell_volume   183.34766510
_cell_formula_units_Z   2
loop_
 _symmetry_equiv_pos_site_id
 _symmetry_equiv_pos_as_xyz
  1  'x, y, z'
loop_
 _atom_site_type_symbol
 _atom_site_label
 _atom_site_symmetry_multiplicity
 _atom_site_fract_x
 _atom_site_fract_y
 _atom_site_fract_z
 _atom_site_occupancy
  C  C0  1  0.31638300  0.68361700  0.50000000  1
  C  C1  1  0.68361700  0.31638300  0.00000000  1
  C  C2  1  0.18545400  0.18545400  0.75000000  1
  C  C3  1  0.81454600  0.81454600  0.25000000  1
  Ni  Ni4  1  0.32587500  0.67412500  0.00000000  1
  Ni  Ni5  1  0.67412500  0.32587600  0.50000000  1
  Cu  Cu6  1  0.82488200  0.82488300  0.75000000  1
  Cu  Cu7  1  0.17511900  0.17511800  0.25000000  1
  C  C8  1  0.20085700  0.81907400  0.22748400  1
  C  C9  1  0.18092900  0.79914200  0.77251600  1
  C  C10  1  0.79914300  0.18092800  0.72748400  1
  C  C11  1  0.81907400  0.20085800  0.27251600  1
  C  C12  1  0.29558400  0.34214100  0.01057000  1
  C  C13  1  0.65785600  0.70441400  0.98943200  1
  C  C14  1  0.34214100  0.29558400  0.48943000  1
  C  C15  1  0.70441400  0.65785600  0.51056800  1
