# generated using pymatgen
data_CuNiC
_symmetry_space_group_name_H-M   'P 1'
_cell_length_a   3.10174700
_cell_length_b   4.75047000
_cell_length_c   18.96570098
_cell_angle_alpha   87.43128086
_cell_angle_beta   90.00000000
_cell_angle_gamma   90.00000000
_symmetry_Int_Tables_number   1
_chemical_formula_structural   CuNiC
_chemical_formula_sum   'Cu8 Ni8 C8'
_cell_volume   279.17417771
_cell_formula_units_Z   8
loop_
 _symmetry_equiv_pos_site_id
 _symmetry_equiv_pos_as_xyz
  1  'x, y, z'
loop_
 _atom_site_type_symbol
 _atom_site_label
 _atom_site_symmetry_multiplicity
 _atom_site_fract_x
 _atom_site_fract_y
 _atom_site_fract_z
 _atom_site_occupancy
  C  C0  1  0.00000000  0.96824800  0.24995700  1
  C  C1  1  0.00000000  0.00000000  0.00000000  1
  C  C2  1  0.00000000  0.00000000  0.50000000  1
  C  C3  1  0.00000000  0.03175200  0.75004300  1
  C  C4  1  0.50000000  0.42725500  0.12486600  1
  C  C5  1  0.50000000  0.57274500  0.87513400  1
  C  C6  1  0.50000000  0.48579200  0.37510200  1
  C  C7  1  0.50000000  0.51420800  0.62489800  1
  Ni  Ni8  1  0.50000000  0.81417000  0.95193000  1
  Ni  Ni9  1  0.00000000  0.73824500  0.82419200  1
  Ni  Ni10  1  0.00000000  0.70739100  0.57469300  1
  Ni  Ni11  1  0.00000000  0.67976600  0.32514000  1
  Ni  Ni12  1  0.00000000  0.26175500  0.17580800  1
  Ni  Ni13  1  0.00000000  0.29260900  0.42530700  1
  Ni  Ni14  1  0.00000000  0.32023400  0.67486000  1
  Ni  Ni15  1  0.50000000  0.18583000  0.04807000  1
  Cu  Cu16  1  0.50000000  0.76959400  0.19963700  1
  Cu  Cu17  1  0.50000000  0.80057400  0.45103100  1
  Cu  Cu18  1  0.50000000  0.82796800  0.70137700  1
  Cu  Cu19  1  0.00000000  0.67892800  0.07926000  1
  Cu  Cu20  1  0.00000000  0.32107200  0.92074000  1
  Cu  Cu21  1  0.50000000  0.17203200  0.29862300  1
  Cu  Cu22  1  0.50000000  0.19942600  0.54896900  1
  Cu  Cu23  1  0.50000000  0.23040600  0.80036300  1
