# generated using pymatgen
data_Cu14Ni2C23
_symmetry_space_group_name_H-M   'P 1'
_cell_length_a   14.50199200
_cell_length_b   7.34498600
_cell_length_c   9.55322109
_cell_angle_alpha   75.05680926
_cell_angle_beta   90.00000000
_cell_angle_gamma   90.00000000
_symmetry_Int_Tables_number   1
_chemical_formula_structural   Cu14Ni2C23
_chemical_formula_sum   'Cu28 Ni4 C46'
_cell_volume   983.16722494
_cell_formula_units_Z   2
loop_
 _symmetry_equiv_pos_site_id
 _symmetry_equiv_pos_as_xyz
  1  'x, y, z'
loop_
 _atom_site_type_symbol
 _atom_site_label
 _atom_site_symmetry_multiplicity
 _atom_site_fract_x
 _atom_site_fract_y
 _atom_site_fract_z
 _atom_site_occupancy
  C  C0  1  0.50000000  0.00000000  0.50000000  1
  C  C1  1  0.00000000  0.00000000  0.00000000  1
  C  C2  1  0.16837500  0.81027300  0.57744000  1
  C  C3  1  0.66837500  0.18972700  0.92256000  1
  C  C4  1  0.83162500  0.18972700  0.42256000  1
  C  C5  1  0.33162500  0.81027300  0.07744000  1
  C  C6  1  0.29117200  0.69501100  0.78528000  1
  C  C7  1  0.79117200  0.30498900  0.71472000  1
  C  C8  1  0.70882800  0.30498900  0.21472000  1
  C  C9  1  0.20882800  0.69501100  0.28528000  1
  C  C10  1  0.15752800  0.59868900  0.55264200  1
  C  C11  1  0.65752800  0.40131100  0.94735800  1
  C  C12  1  0.84247200  0.40131100  0.44735800  1
  C  C13  1  0.34247200  0.59868900  0.05264200  1
  C  C14  1  0.03550500  0.59627500  0.70976900  1
  C  C15  1  0.53550500  0.40372500  0.79023100  1
  C  C16  1  0.96449500  0.40372500  0.29023100  1
  C  C17  1  0.46449500  0.59627500  0.20976900  1
  C  C18  1  0.47246000  0.07017400  0.85088500  1
  C  C19  1  0.97246000  0.92982600  0.64911500  1
  C  C20  1  0.52754000  0.92982600  0.14911500  1
  C  C21  1  0.02754000  0.07017400  0.35088500  1
  C  C22  1  0.37555800  0.93610500  0.66607200  1
  C  C23  1  0.87555800  0.06389500  0.83392800  1
  C  C24  1  0.62444200  0.06389500  0.33392800  1
  C  C25  1  0.12444200  0.93610500  0.16607200  1
  C  C26  1  0.39982500  0.11396200  0.14079400  1
  C  C27  1  0.89982500  0.88603800  0.35920600  1
  C  C28  1  0.60017500  0.88603800  0.85920600  1
  C  C29  1  0.10017500  0.11396200  0.64079400  1
  C  C30  1  0.04299300  0.97109900  0.38578600  1
  C  C31  1  0.54299300  0.02890100  0.11421400  1
  C  C32  1  0.95700700  0.02890100  0.61421400  1
  C  C33  1  0.45700700  0.97109900  0.88578600  1
  C  C34  1  0.54060500  0.61624200  0.32402400  1
  C  C35  1  0.04060500  0.38375800  0.17597600  1
  C  C36  1  0.45939500  0.38375800  0.67597600  1
  C  C37  1  0.95939500  0.61624200  0.82402400  1
  C  C38  1  0.70062900  0.93774900  0.49163300  1
  C  C39  1  0.20062900  0.06225100  0.00836700  1
  C  C40  1  0.29937100  0.06225100  0.50836700  1
  C  C41  1  0.79937100  0.93774900  0.99163300  1
  C  C42  1  0.32114700  0.27972400  0.93156900  1
  C  C43  1  0.82114700  0.72027600  0.56843100  1
  C  C44  1  0.67885300  0.72027600  0.06843100  1
  C  C45  1  0.17885300  0.27972400  0.43156900  1
  Ni  Ni46  1  0.12814400  0.68969300  0.60646900  1
  Ni  Ni47  1  0.62814400  0.31030700  0.89353100  1
  Ni  Ni48  1  0.87185600  0.31030700  0.39353100  1
  Ni  Ni49  1  0.37185600  0.68969300  0.10646900  1
  Cu  Cu50  1  0.24336000  0.43254600  0.95510100  1
  Cu  Cu51  1  0.74336000  0.56745400  0.54489900  1
  Cu  Cu52  1  0.75664000  0.56745400  0.04489900  1
  Cu  Cu53  1  0.25664000  0.43254600  0.45510100  1
  Cu  Cu54  1  0.38336900  0.24741000  0.10558200  1
  Cu  Cu55  1  0.88336900  0.75259000  0.39441800  1
  Cu  Cu56  1  0.61663100  0.75259000  0.89441800  1
  Cu  Cu57  1  0.11663100  0.24741000  0.60558200  1
  Cu  Cu58  1  0.47551300  0.45757300  0.74384000  1
  Cu  Cu59  1  0.97551300  0.54242700  0.75616000  1
  Cu  Cu60  1  0.52448700  0.54242700  0.25616000  1
  Cu  Cu61  1  0.02448700  0.45757300  0.24384000  1
  Cu  Cu62  1  0.26556500  0.05194900  0.96807500  1
  Cu  Cu63  1  0.76556500  0.94805100  0.53192500  1
  Cu  Cu64  1  0.73443500  0.94805100  0.03192500  1
  Cu  Cu65  1  0.23443500  0.05194900  0.46807500  1
  Cu  Cu66  1  0.37118200  0.72098000  0.48330700  1
  Cu  Cu67  1  0.87118200  0.27902000  0.01669300  1
  Cu  Cu68  1  0.62881800  0.27902000  0.51669300  1
  Cu  Cu69  1  0.12881800  0.72098000  0.98330700  1
  Cu  Cu70  1  0.60458400  0.94993200  0.40710700  1
  Cu  Cu71  1  0.10458400  0.05006800  0.09289300  1
  Cu  Cu72  1  0.39541600  0.05006800  0.59289300  1
  Cu  Cu73  1  0.89541600  0.94993200  0.90710700  1
  Cu  Cu74  1  0.45429400  0.73821100  0.50950300  1
  Cu  Cu75  1  0.95429400  0.26178900  0.99049700  1
  Cu  Cu76  1  0.54570600  0.26178900  0.49049700  1
  Cu  Cu77  1  0.04570600  0.73821100  0.00950300  1
