# generated using pymatgen
data_Cu5NiC3
_symmetry_space_group_name_H-M   'P 1'
_cell_length_a   4.74463200
_cell_length_b   4.74750800
_cell_length_c   10.35771438
_cell_angle_alpha   62.86860316
_cell_angle_beta   90.00000000
_cell_angle_gamma   90.00000000
_symmetry_Int_Tables_number   1
_chemical_formula_structural   Cu5NiC3
_chemical_formula_sum   'Cu10 Ni2 C6'
_cell_volume   207.63671135
_cell_formula_units_Z   2
loop_
 _symmetry_equiv_pos_site_id
 _symmetry_equiv_pos_as_xyz
  1  'x, y, z'
loop_
 _atom_site_type_symbol
 _atom_site_label
 _atom_site_symmetry_multiplicity
 _atom_site_fract_x
 _atom_site_fract_y
 _atom_site_fract_z
 _atom_site_occupancy
  C  C0  1  0.25074100  0.00480300  0.00293100  1
  C  C1  1  0.74925900  0.00480300  0.50293100  1
  C  C2  1  0.23901600  0.68966200  0.32223800  1
  C  C3  1  0.22839800  0.30925900  0.66759700  1
  C  C4  1  0.76098400  0.68966200  0.82223800  1
  C  C5  1  0.77160200  0.30925900  0.16759700  1
  Ni  Ni6  1  0.05101700  0.02719500  0.17408900  1
  Ni  Ni7  1  0.94898300  0.02719500  0.67408900  1
  Cu  Cu8  1  0.05059900  0.37039900  0.83038000  1
  Cu  Cu9  1  0.06038700  0.69299100  0.49926500  1
  Cu  Cu10  1  0.93961300  0.69299100  0.99926500  1
  Cu  Cu11  1  0.94940100  0.37039900  0.33038000  1
  Cu  Cu12  1  0.56348300  0.32015200  0.99631600  1
  Cu  Cu13  1  0.53864500  0.61513500  0.67566300  1
  Cu  Cu14  1  0.55092900  0.97040200  0.33152000  1
  Cu  Cu15  1  0.44907100  0.97040200  0.83152000  1
  Cu  Cu16  1  0.43651700  0.32015200  0.49631600  1
  Cu  Cu17  1  0.46135500  0.61513500  0.17566300  1
