# generated using pymatgen
data_Cu54Ni2C13
_symmetry_space_group_name_H-M   'P 1'
_cell_length_a   10.53845597
_cell_length_b   10.53845597
_cell_length_c   10.53845636
_cell_angle_alpha   76.50065114
_cell_angle_beta   76.50065110
_cell_angle_gamma   76.50065218
_symmetry_Int_Tables_number   1
_chemical_formula_structural   Cu54Ni2C13
_chemical_formula_sum   'Cu54 Ni2 C13'
_cell_volume   1086.61565943
_cell_formula_units_Z   1
loop_
 _symmetry_equiv_pos_site_id
 _symmetry_equiv_pos_as_xyz
  1  'x, y, z'
loop_
 _atom_site_type_symbol
 _atom_site_label
 _atom_site_symmetry_multiplicity
 _atom_site_fract_x
 _atom_site_fract_y
 _atom_site_fract_z
 _atom_site_occupancy
  C  C0  1  0.00000000  0.00000000  0.00000000  1
  C  C1  1  0.14879734  0.06988121  0.65553856  1
  C  C2  1  0.06988121  0.65553856  0.14879734  1
  C  C3  1  0.65553856  0.14879734  0.06988121  1
  C  C4  1  0.85120266  0.93011879  0.34446144  1
  C  C5  1  0.93011879  0.34446144  0.85120266  1
  C  C6  1  0.34446144  0.85120266  0.93011879  1
  C  C7  1  0.83252373  0.06371108  0.71948435  1
  C  C8  1  0.06371108  0.71948435  0.83252373  1
  C  C9  1  0.71948435  0.83252373  0.06371108  1
  C  C10  1  0.16747627  0.93628892  0.28051565  1
  C  C11  1  0.93628892  0.28051565  0.16747627  1
  C  C12  1  0.28051565  0.16747627  0.93628892  1
  Ni  Ni13  1  0.63817488  0.63817488  0.63817488  1
  Ni  Ni14  1  0.36182512  0.36182512  0.36182512  1
  Cu  Cu15  1  0.21487114  0.20992815  0.57386159  1
  Cu  Cu16  1  0.20992815  0.57386159  0.21487114  1
  Cu  Cu17  1  0.57386159  0.21487114  0.20992815  1
  Cu  Cu18  1  0.78512886  0.79007185  0.42613841  1
  Cu  Cu19  1  0.79007185  0.42613841  0.78512886  1
  Cu  Cu20  1  0.42613841  0.78512886  0.79007185  1
  Cu  Cu21  1  0.96966305  0.17271087  0.79213242  1
  Cu  Cu22  1  0.17271087  0.79213242  0.96966305  1
  Cu  Cu23  1  0.79213242  0.96966305  0.17271087  1
  Cu  Cu24  1  0.03033695  0.82728913  0.20786758  1
  Cu  Cu25  1  0.82728913  0.20786758  0.03033695  1
  Cu  Cu26  1  0.20786758  0.03033695  0.82728913  1
  Cu  Cu27  1  0.25509112  0.93900739  0.58182879  1
  Cu  Cu28  1  0.93900739  0.58182879  0.25509112  1
  Cu  Cu29  1  0.58182879  0.25509112  0.93900739  1
  Cu  Cu30  1  0.74490888  0.06099261  0.41817121  1
  Cu  Cu31  1  0.06099261  0.41817121  0.74490888  1
  Cu  Cu32  1  0.41817121  0.74490888  0.06099261  1
  Cu  Cu33  1  0.02456179  0.91336359  0.78751341  1
  Cu  Cu34  1  0.91336359  0.78751341  0.02456179  1
  Cu  Cu35  1  0.78751341  0.02456179  0.91336359  1
  Cu  Cu36  1  0.97543821  0.08663641  0.21248659  1
  Cu  Cu37  1  0.08663641  0.21248659  0.97543821  1
  Cu  Cu38  1  0.21248659  0.97543821  0.08663641  1
  Cu  Cu39  1  0.99127639  0.09244147  0.57999590  1
  Cu  Cu40  1  0.09244147  0.57999590  0.99127639  1
  Cu  Cu41  1  0.57999590  0.99127639  0.09244147  1
  Cu  Cu42  1  0.00872361  0.90755853  0.42000410  1
  Cu  Cu43  1  0.90755853  0.42000410  0.00872361  1
  Cu  Cu44  1  0.42000410  0.00872361  0.90755853  1
  Cu  Cu45  1  0.72030186  0.20604423  0.67048579  1
  Cu  Cu46  1  0.20604423  0.67048579  0.72030186  1
  Cu  Cu47  1  0.67048579  0.72030186  0.20604423  1
  Cu  Cu48  1  0.27969814  0.79395577  0.32951421  1
  Cu  Cu49  1  0.79395577  0.32951421  0.27969814  1
  Cu  Cu50  1  0.32951421  0.27969814  0.79395577  1
  Cu  Cu51  1  0.77705365  0.93963279  0.67653174  1
  Cu  Cu52  1  0.93963279  0.67653174  0.77705365  1
  Cu  Cu53  1  0.67653174  0.77705365  0.93963279  1
  Cu  Cu54  1  0.22294635  0.06036721  0.32346826  1
  Cu  Cu55  1  0.06036721  0.32346826  0.22294635  1
  Cu  Cu56  1  0.32346826  0.22294635  0.06036721  1
  Cu  Cu57  1  0.88773729  0.48618825  0.46369852  1
  Cu  Cu58  1  0.48618825  0.46369852  0.88773729  1
  Cu  Cu59  1  0.46369852  0.88773729  0.48618825  1
  Cu  Cu60  1  0.11226271  0.51381175  0.53630148  1
  Cu  Cu61  1  0.51381175  0.53630148  0.11226271  1
  Cu  Cu62  1  0.53630148  0.11226271  0.51381175  1
  Cu  Cu63  1  0.49932601  0.49037597  0.76936774  1
  Cu  Cu64  1  0.49037597  0.76936773  0.49932601  1
  Cu  Cu65  1  0.76936773  0.49932601  0.49037597  1
  Cu  Cu66  1  0.50067399  0.50962403  0.23063226  1
  Cu  Cu67  1  0.50962403  0.23063227  0.50067399  1
  Cu  Cu68  1  0.23063227  0.50067399  0.50962403  1
