# generated using pymatgen
data_Cu3(NiC7)2
_symmetry_space_group_name_H-M   'P 1'
_cell_length_a   9.20909900
_cell_length_b   9.36440600
_cell_length_c   26.61450000
_cell_angle_alpha   90.00000000
_cell_angle_beta   90.00000000
_cell_angle_gamma   90.00000000
_symmetry_Int_Tables_number   1
_chemical_formula_structural   Cu3(NiC7)2
_chemical_formula_sum   'Cu24 Ni16 C112'
_cell_volume   2295.17438260
_cell_formula_units_Z   8
loop_
 _symmetry_equiv_pos_site_id
 _symmetry_equiv_pos_as_xyz
  1  'x, y, z'
loop_
 _atom_site_type_symbol
 _atom_site_label
 _atom_site_symmetry_multiplicity
 _atom_site_fract_x
 _atom_site_fract_y
 _atom_site_fract_z
 _atom_site_occupancy
  C  C0  1  0.04490000  0.62087800  0.28940700  1
  C  C1  1  0.04490000  0.87912200  0.78940700  1
  C  C2  1  0.12777100  0.92561700  0.01215800  1
  C  C3  1  0.12777100  0.57438300  0.51215800  1
  C  C4  1  0.37222900  0.07438300  0.51215800  1
  C  C5  1  0.37222900  0.42561700  0.01215800  1
  C  C6  1  0.45510000  0.12087800  0.28940700  1
  C  C7  1  0.45510000  0.37912200  0.78940700  1
  C  C8  1  0.54490000  0.62087800  0.21059300  1
  C  C9  1  0.54490000  0.87912200  0.71059300  1
  C  C10  1  0.62777100  0.57438300  0.98784200  1
  C  C11  1  0.62777100  0.92561700  0.48784200  1
  C  C12  1  0.87222900  0.42561700  0.48784200  1
  C  C13  1  0.87222900  0.07438300  0.98784200  1
  C  C14  1  0.95510000  0.12087800  0.21059300  1
  C  C15  1  0.95510000  0.37912200  0.71059300  1
  Ni  Ni16  1  0.00001700  0.40753100  0.07005500  1
  Ni  Ni17  1  0.00001700  0.09246900  0.57005500  1
  Ni  Ni18  1  0.99740700  0.78589400  0.17367300  1
  Ni  Ni19  1  0.99740700  0.71410600  0.67367300  1
  Ni  Ni20  1  0.50259300  0.28589400  0.17367300  1
  Ni  Ni21  1  0.50259300  0.21410600  0.67367300  1
  Ni  Ni22  1  0.49998300  0.59246900  0.57005500  1
  Ni  Ni23  1  0.49998300  0.90753100  0.07005500  1
  Ni  Ni24  1  0.50001700  0.40753100  0.42994500  1
  Ni  Ni25  1  0.50001700  0.09246900  0.92994500  1
  Ni  Ni26  1  0.49740700  0.71410600  0.82632700  1
  Ni  Ni27  1  0.49740700  0.78589400  0.32632700  1
  Ni  Ni28  1  0.00259300  0.28589400  0.32632700  1
  Ni  Ni29  1  0.00259300  0.21410600  0.82632700  1
  Ni  Ni30  1  0.99998300  0.90753100  0.42994500  1
  Ni  Ni31  1  0.99998300  0.59246900  0.92994500  1
  Cu  Cu32  1  0.14780000  0.94266000  0.29306200  1
  Cu  Cu33  1  0.14780000  0.55734000  0.79306200  1
  Cu  Cu34  1  0.15426400  0.26105200  0.45689800  1
  Cu  Cu35  1  0.15426400  0.23894800  0.95689800  1
  Cu  Cu36  1  0.17537600  0.08696400  0.11343700  1
  Cu  Cu37  1  0.17537600  0.41303600  0.61343700  1
  Cu  Cu38  1  0.32462400  0.58696400  0.11343700  1
  Cu  Cu39  1  0.32462400  0.91303600  0.61343700  1
  Cu  Cu40  1  0.34573600  0.76105200  0.45689800  1
  Cu  Cu41  1  0.34573600  0.73894800  0.95689800  1
  Cu  Cu42  1  0.35220000  0.44266000  0.29306200  1
  Cu  Cu43  1  0.35220000  0.05734000  0.79306200  1
  Cu  Cu44  1  0.64780000  0.55734000  0.70693800  1
  Cu  Cu45  1  0.64780000  0.94266000  0.20693800  1
  Cu  Cu46  1  0.65426400  0.26105200  0.04310200  1
  Cu  Cu47  1  0.65426400  0.23894800  0.54310200  1
  Cu  Cu48  1  0.67537600  0.08696400  0.38656300  1
  Cu  Cu49  1  0.67537600  0.41303600  0.88656300  1
  Cu  Cu50  1  0.82462400  0.58696400  0.38656300  1
  Cu  Cu51  1  0.82462400  0.91303600  0.88656300  1
  Cu  Cu52  1  0.84573600  0.76105200  0.04310200  1
  Cu  Cu53  1  0.84573600  0.73894800  0.54310200  1
  Cu  Cu54  1  0.85220000  0.44266000  0.20693800  1
  Cu  Cu55  1  0.85220000  0.05734000  0.70693800  1
  C  C56  1  0.08378900  0.39854100  0.47053200  1
  C  C57  1  0.08378900  0.10145900  0.97053200  1
  C  C58  1  0.07206500  0.06603500  0.26911100  1
  C  C59  1  0.07206500  0.43396500  0.76911100  1
  C  C60  1  0.08131900  0.13895600  0.48369400  1
  C  C61  1  0.08131900  0.36104400  0.98369400  1
  C  C62  1  0.09803100  0.92704800  0.34555600  1
  C  C63  1  0.09803100  0.57295200  0.84555600  1
  C  C64  1  0.08209800  0.18355000  0.08279600  1
  C  C65  1  0.08209800  0.31645000  0.58279600  1
  C  C66  1  0.11542100  0.80814200  0.26455700  1
  C  C67  1  0.11542100  0.69185800  0.76455700  1
  C  C68  1  0.08556500  0.03025400  0.15621600  1
  C  C69  1  0.08556500  0.46974600  0.65621600  1
  C  C70  1  0.14685200  0.23681900  0.40194900  1
  C  C71  1  0.14685200  0.26318100  0.90194900  1
  C  C72  1  0.19195200  0.46924500  0.29209700  1
  C  C73  1  0.19195200  0.03075500  0.79209700  1
  C  C74  1  0.19627800  0.66244500  0.13351900  1
  C  C75  1  0.19627800  0.83755500  0.63351900  1
  C  C76  1  0.19015800  0.76029700  0.47385900  1
  C  C77  1  0.19015800  0.73970300  0.97385900  1
  C  C78  1  0.27768400  0.03354900  0.58022900  1
  C  C79  1  0.27768400  0.46645100  0.08022900  1
  C  C80  1  0.22231600  0.53354900  0.58022900  1
  C  C81  1  0.22231600  0.96645100  0.08022900  1
  C  C82  1  0.30984200  0.23970300  0.97385900  1
  C  C83  1  0.30984200  0.26029700  0.47385900  1
  C  C84  1  0.30372200  0.16244500  0.13351900  1
  C  C85  1  0.30372200  0.33755500  0.63351900  1
  C  C86  1  0.30804800  0.96924500  0.29209700  1
  C  C87  1  0.30804800  0.53075500  0.79209700  1
  C  C88  1  0.35314800  0.73681900  0.40194900  1
  C  C89  1  0.35314800  0.76318100  0.90194900  1
  C  C90  1  0.41443500  0.96974600  0.65621600  1
  C  C91  1  0.41443500  0.53025400  0.15621600  1
  C  C92  1  0.38457900  0.30814200  0.26455700  1
  C  C93  1  0.38457900  0.19185800  0.76455700  1
  C  C94  1  0.41790200  0.68355000  0.08279600  1
  C  C95  1  0.41790200  0.81645000  0.58279600  1
  C  C96  1  0.40196900  0.07295200  0.84555600  1
  C  C97  1  0.40196900  0.42704800  0.34555600  1
  C  C98  1  0.41868100  0.86104400  0.98369400  1
  C  C99  1  0.41868100  0.63895600  0.48369400  1
  C  C100  1  0.42793500  0.56603500  0.26911100  1
  C  C101  1  0.42793500  0.93396500  0.76911100  1
  C  C102  1  0.41621100  0.60145900  0.97053200  1
  C  C103  1  0.41621100  0.89854100  0.47053200  1
  C  C104  1  0.58378900  0.39854100  0.02946800  1
  C  C105  1  0.58378900  0.10145900  0.52946800  1
  C  C106  1  0.57206500  0.06603500  0.23088900  1
  C  C107  1  0.57206500  0.43396500  0.73088900  1
  C  C108  1  0.58131900  0.13895600  0.01630600  1
  C  C109  1  0.58131900  0.36104400  0.51630600  1
  C  C110  1  0.59803100  0.57295200  0.65444400  1
  C  C111  1  0.59803100  0.92704800  0.15444400  1
  C  C112  1  0.58209800  0.18355000  0.41720400  1
  C  C113  1  0.58209800  0.31645000  0.91720400  1
  C  C114  1  0.61542100  0.80814200  0.23544300  1
  C  C115  1  0.61542100  0.69185800  0.73544300  1
  C  C116  1  0.58556500  0.03025400  0.34378400  1
  C  C117  1  0.58556500  0.46974600  0.84378400  1
  C  C118  1  0.64685200  0.23681900  0.09805100  1
  C  C119  1  0.64685200  0.26318100  0.59805100  1
  C  C120  1  0.69195200  0.46924500  0.20790300  1
  C  C121  1  0.69195200  0.03075500  0.70790300  1
  C  C122  1  0.69627800  0.66244500  0.36648100  1
  C  C123  1  0.69627800  0.83755500  0.86648100  1
  C  C124  1  0.69015800  0.76029700  0.02614100  1
  C  C125  1  0.69015800  0.73970300  0.52614100  1
  C  C126  1  0.77768400  0.46645100  0.41977100  1
  C  C127  1  0.77768400  0.03354900  0.91977100  1
  C  C128  1  0.72231600  0.96645100  0.41977100  1
  C  C129  1  0.72231600  0.53354900  0.91977100  1
  C  C130  1  0.80984200  0.26029700  0.02614100  1
  C  C131  1  0.80984200  0.23970300  0.52614100  1
  C  C132  1  0.80372200  0.16244500  0.36648100  1
  C  C133  1  0.80372200  0.33755500  0.86648100  1
  C  C134  1  0.80804800  0.53075500  0.70790300  1
  C  C135  1  0.80804800  0.96924500  0.20790300  1
  C  C136  1  0.85314800  0.73681900  0.09805100  1
  C  C137  1  0.85314800  0.76318100  0.59805100  1
  C  C138  1  0.91443500  0.53025400  0.34378400  1
  C  C139  1  0.91443500  0.96974600  0.84378400  1
  C  C140  1  0.88457900  0.30814200  0.23544300  1
  C  C141  1  0.88457900  0.19185800  0.73544300  1
  C  C142  1  0.91790200  0.68355000  0.41720400  1
  C  C143  1  0.91790200  0.81645000  0.91720400  1
  C  C144  1  0.90196900  0.42704800  0.15444400  1
  C  C145  1  0.90196900  0.07295200  0.65444400  1
  C  C146  1  0.91868100  0.63895600  0.01630600  1
  C  C147  1  0.91868100  0.86104400  0.51630600  1
  C  C148  1  0.92793500  0.56603500  0.23088900  1
  C  C149  1  0.92793500  0.93396500  0.73088900  1
  C  C150  1  0.91621100  0.60145900  0.52946800  1
  C  C151  1  0.91621100  0.89854100  0.02946800  1
