# generated using pymatgen
data_CuNi5C4
_symmetry_space_group_name_H-M   'P 1'
_cell_length_a   6.07286400
_cell_length_b   11.86886000
_cell_length_c   18.45776300
_cell_angle_alpha   90.00000000
_cell_angle_beta   90.00000000
_cell_angle_gamma   90.00000000
_symmetry_Int_Tables_number   1
_chemical_formula_structural   CuNi5C4
_chemical_formula_sum   'Cu8 Ni40 C32'
_cell_volume   1330.39813605
_cell_formula_units_Z   8
loop_
 _symmetry_equiv_pos_site_id
 _symmetry_equiv_pos_as_xyz
  1  'x, y, z'
loop_
 _atom_site_type_symbol
 _atom_site_label
 _atom_site_symmetry_multiplicity
 _atom_site_fract_x
 _atom_site_fract_y
 _atom_site_fract_z
 _atom_site_occupancy
  Ni  Ni0  1  0.10249500  0.07953100  0.42648300  1
  Ni  Ni1  1  0.39750500  0.07953100  0.92648300  1
  Ni  Ni2  1  0.58966400  0.05809700  0.76006200  1
  Ni  Ni3  1  0.91033600  0.05809700  0.26006200  1
  Ni  Ni4  1  0.86651000  0.18838900  0.98980500  1
  Ni  Ni5  1  0.63349000  0.18838900  0.48980500  1
  Ni  Ni6  1  0.08510800  0.19811500  0.81772800  1
  Ni  Ni7  1  0.41489200  0.19811500  0.31772800  1
  Ni  Ni8  1  0.57113100  0.19890400  0.15122900  1
  Ni  Ni9  1  0.92886900  0.19890400  0.65122900  1
  Ni  Ni10  1  0.07113100  0.30109600  0.15122900  1
  Ni  Ni11  1  0.42886900  0.30109600  0.65122900  1
  Ni  Ni12  1  0.91489200  0.30188500  0.31772800  1
  Ni  Ni13  1  0.58510800  0.30188500  0.81772800  1
  Ni  Ni14  1  0.36651000  0.31161100  0.98980500  1
  Ni  Ni15  1  0.13349000  0.31161100  0.48980500  1
  Ni  Ni16  1  0.41033600  0.44190300  0.26006200  1
  Ni  Ni17  1  0.08966400  0.44190300  0.76006200  1
  Ni  Ni18  1  0.89750500  0.42046900  0.92648300  1
  Ni  Ni19  1  0.60249500  0.42046900  0.42648300  1
  Ni  Ni20  1  0.10249500  0.57953100  0.07351700  1
  Ni  Ni21  1  0.39750500  0.57953100  0.57351700  1
  Ni  Ni22  1  0.91033600  0.55809700  0.23993800  1
  Ni  Ni23  1  0.58966400  0.55809700  0.73993800  1
  Ni  Ni24  1  0.63349000  0.68838900  0.01019500  1
  Ni  Ni25  1  0.86651000  0.68838900  0.51019500  1
  Ni  Ni26  1  0.41489200  0.69811500  0.18227200  1
  Ni  Ni27  1  0.08510800  0.69811500  0.68227200  1
  Ni  Ni28  1  0.57113100  0.69890400  0.34877100  1
  Ni  Ni29  1  0.92886900  0.69890400  0.84877100  1
  Ni  Ni30  1  0.07113100  0.80109600  0.34877100  1
  Ni  Ni31  1  0.42886900  0.80109600  0.84877100  1
  Ni  Ni32  1  0.58510800  0.80188500  0.68227200  1
  Ni  Ni33  1  0.91489200  0.80188500  0.18227200  1
  Ni  Ni34  1  0.36651000  0.81161100  0.51019500  1
  Ni  Ni35  1  0.13349000  0.81161100  0.01019500  1
  Ni  Ni36  1  0.08966400  0.94190300  0.73993800  1
  Ni  Ni37  1  0.41033600  0.94190300  0.23993800  1
  Ni  Ni38  1  0.89750500  0.92046900  0.57351700  1
  Ni  Ni39  1  0.60249500  0.92046900  0.07351700  1
  Cu  Cu40  1  0.13580300  0.04285500  0.11529800  1
  Cu  Cu41  1  0.36419700  0.04285500  0.61529800  1
  Cu  Cu42  1  0.63580300  0.45714500  0.11529800  1
  Cu  Cu43  1  0.86419700  0.45714500  0.61529800  1
  Cu  Cu44  1  0.13580300  0.54285500  0.38470200  1
  Cu  Cu45  1  0.36419700  0.54285500  0.88470200  1
  Cu  Cu46  1  0.63580300  0.95714500  0.38470200  1
  Cu  Cu47  1  0.86419700  0.95714500  0.88470200  1
  C  C48  1  0.79050000  0.04901700  0.13531600  1
  C  C49  1  0.70950000  0.04901700  0.63531600  1
  C  C50  1  0.24667100  0.13626600  0.21067700  1
  C  C51  1  0.25332900  0.13626600  0.71067700  1
  C  C52  1  0.22316600  0.14679400  0.02405700  1
  C  C53  1  0.27683400  0.14679400  0.52405700  1
  C  C54  1  0.76196900  0.13491400  0.37124800  1
  C  C55  1  0.73803100  0.13491400  0.87124800  1
  C  C56  1  0.26196900  0.36508600  0.37124800  1
  C  C57  1  0.23803100  0.36508600  0.87124800  1
  C  C58  1  0.72316600  0.35320600  0.02405700  1
  C  C59  1  0.77683400  0.35320600  0.52405700  1
  C  C60  1  0.74667100  0.36373400  0.21067700  1
  C  C61  1  0.75332900  0.36373400  0.71067700  1
  C  C62  1  0.29050000  0.45098300  0.13531600  1
  C  C63  1  0.20950000  0.45098300  0.63531600  1
  C  C64  1  0.70950000  0.54901700  0.86468400  1
  C  C65  1  0.79050000  0.54901700  0.36468400  1
  C  C66  1  0.25332900  0.63626600  0.78932300  1
  C  C67  1  0.24667100  0.63626600  0.28932300  1
  C  C68  1  0.27683400  0.64679400  0.97594300  1
  C  C69  1  0.22316600  0.64679400  0.47594300  1
  C  C70  1  0.76196900  0.63491400  0.12875200  1
  C  C71  1  0.73803100  0.63491400  0.62875200  1
  C  C72  1  0.23803100  0.86508600  0.62875200  1
  C  C73  1  0.26196900  0.86508600  0.12875200  1
  C  C74  1  0.72316600  0.85320600  0.47594300  1
  C  C75  1  0.77683400  0.85320600  0.97594300  1
  C  C76  1  0.74667100  0.86373400  0.28932300  1
  C  C77  1  0.75332900  0.86373400  0.78932300  1
  C  C78  1  0.29050000  0.95098300  0.36468400  1
  C  C79  1  0.20950000  0.95098300  0.86468400  1
