# generated using pymatgen
data_CuNiC5
_symmetry_space_group_name_H-M   'P 1'
_cell_length_a   8.19401200
_cell_length_b   9.42839400
_cell_length_c   18.27578000
_cell_angle_alpha   90.00000000
_cell_angle_beta   90.00000000
_cell_angle_gamma   90.00000000
_symmetry_Int_Tables_number   1
_chemical_formula_structural   CuNiC5
_chemical_formula_sum   'Cu16 Ni16 C80'
_cell_volume   1411.92048709
_cell_formula_units_Z   16
loop_
 _symmetry_equiv_pos_site_id
 _symmetry_equiv_pos_as_xyz
  1  'x, y, z'
loop_
 _atom_site_type_symbol
 _atom_site_label
 _atom_site_symmetry_multiplicity
 _atom_site_fract_x
 _atom_site_fract_y
 _atom_site_fract_z
 _atom_site_occupancy
  C  C0  1  0.62154000  0.32105900  0.37486300  1
  C  C1  1  0.12154000  0.17894100  0.62513700  1
  C  C2  1  0.37846000  0.82105900  0.12513700  1
  C  C3  1  0.87846000  0.67894100  0.87486300  1
  C  C4  1  0.37846000  0.67894100  0.62513700  1
  C  C5  1  0.87846000  0.82105900  0.37486300  1
  C  C6  1  0.62154000  0.17894100  0.87486300  1
  C  C7  1  0.12154000  0.32105900  0.12513700  1
  C  C8  1  0.36942500  0.68249000  0.38256700  1
  C  C9  1  0.86942500  0.81751000  0.61743300  1
  C  C10  1  0.63057500  0.18249000  0.11743300  1
  C  C11  1  0.13057500  0.31751000  0.88256700  1
  C  C12  1  0.63057500  0.31751000  0.61743300  1
  C  C13  1  0.13057500  0.18249000  0.38256700  1
  C  C14  1  0.36942500  0.81751000  0.88256700  1
  C  C15  1  0.86942500  0.68249000  0.11743300  1
  Ni  Ni16  1  0.75168500  0.07939800  0.49584100  1
  Ni  Ni17  1  0.25168500  0.42060200  0.50415900  1
  Ni  Ni18  1  0.24831500  0.57939800  0.00415900  1
  Ni  Ni19  1  0.74831500  0.92060200  0.99584100  1
  Ni  Ni20  1  0.24831500  0.92060200  0.50415900  1
  Ni  Ni21  1  0.74831500  0.57939800  0.49584100  1
  Ni  Ni22  1  0.75168500  0.42060200  0.99584100  1
  Ni  Ni23  1  0.25168500  0.07939800  0.00415900  1
  Ni  Ni24  1  0.01784100  0.47860600  0.29420600  1
  Ni  Ni25  1  0.51784100  0.02139400  0.70579400  1
  Ni  Ni26  1  0.98215900  0.97860600  0.20579400  1
  Ni  Ni27  1  0.48215900  0.52139400  0.79420600  1
  Ni  Ni28  1  0.98215900  0.52139400  0.70579400  1
  Ni  Ni29  1  0.48215900  0.97860600  0.29420600  1
  Ni  Ni30  1  0.01784100  0.02139400  0.79420600  1
  Ni  Ni31  1  0.51784100  0.47860600  0.20579400  1
  Cu  Cu32  1  0.58570200  0.88691500  0.49642500  1
  Cu  Cu33  1  0.08570200  0.61308500  0.50357500  1
  Cu  Cu34  1  0.41429800  0.38691500  0.00357500  1
  Cu  Cu35  1  0.91429800  0.11308500  0.99642500  1
  Cu  Cu36  1  0.41429800  0.11308500  0.50357500  1
  Cu  Cu37  1  0.91429800  0.38691500  0.49642500  1
  Cu  Cu38  1  0.58570200  0.61308500  0.99642500  1
  Cu  Cu39  1  0.08570200  0.88691500  0.00357500  1
  Cu  Cu40  1  0.28586000  0.42388200  0.28119300  1
  Cu  Cu41  1  0.78586000  0.07611800  0.71880700  1
  Cu  Cu42  1  0.71414000  0.92388200  0.21880700  1
  Cu  Cu43  1  0.21414000  0.57611800  0.78119300  1
  Cu  Cu44  1  0.71414000  0.57611800  0.71880700  1
  Cu  Cu45  1  0.21414000  0.92388200  0.28119300  1
  Cu  Cu46  1  0.28586000  0.07611800  0.78119300  1
  Cu  Cu47  1  0.78586000  0.42388200  0.21880700  1
  C  C48  1  0.59020200  0.16417700  0.49651200  1
  C  C49  1  0.09020200  0.33582300  0.50348800  1
  C  C50  1  0.40979800  0.66417700  0.00348800  1
  C  C51  1  0.90979800  0.83582300  0.99651200  1
  C  C52  1  0.40979800  0.83582300  0.50348800  1
  C  C53  1  0.90979800  0.66417700  0.49651200  1
  C  C54  1  0.59020200  0.33582300  0.99651200  1
  C  C55  1  0.09020200  0.16417700  0.00348800  1
  C  C56  1  0.84648800  0.10399000  0.42456300  1
  C  C57  1  0.34648800  0.39601000  0.57543700  1
  C  C58  1  0.15351200  0.60399000  0.07543700  1
  C  C59  1  0.65351200  0.89601000  0.92456300  1
  C  C60  1  0.15351200  0.89601000  0.57543700  1
  C  C61  1  0.65351200  0.60399000  0.42456300  1
  C  C62  1  0.84648800  0.39601000  0.92456300  1
  C  C63  1  0.34648800  0.10399000  0.07543700  1
  C  C64  1  0.84921800  0.10581900  0.56640000  1
  C  C65  1  0.34921800  0.39418100  0.43360000  1
  C  C66  1  0.15078200  0.60581900  0.93360000  1
  C  C67  1  0.65078200  0.89418100  0.06640000  1
  C  C68  1  0.15078200  0.89418100  0.43360000  1
  C  C69  1  0.65078200  0.60581900  0.56640000  1
  C  C70  1  0.84921800  0.39418100  0.06640000  1
  C  C71  1  0.34921800  0.10581900  0.93360000  1
  C  C72  1  0.70864600  0.91194400  0.49744100  1
  C  C73  1  0.20864600  0.58805600  0.50255900  1
  C  C74  1  0.29135400  0.41194400  0.00255900  1
  C  C75  1  0.79135400  0.08805600  0.99744100  1
  C  C76  1  0.29135400  0.08805600  0.50255900  1
  C  C77  1  0.79135400  0.41194400  0.49744100  1
  C  C78  1  0.70864600  0.58805600  0.99744100  1
  C  C79  1  0.20864600  0.91194400  0.00255900  1
  C  C80  1  0.07647400  0.61883700  0.32750900  1
  C  C81  1  0.57647400  0.88116300  0.67249100  1
  C  C82  1  0.92352600  0.11883700  0.17249100  1
  C  C83  1  0.42352600  0.38116300  0.82750900  1
  C  C84  1  0.92352600  0.38116300  0.67249100  1
  C  C85  1  0.42352600  0.11883700  0.32750900  1
  C  C86  1  0.07647400  0.88116300  0.82750900  1
  C  C87  1  0.57647400  0.61883700  0.17249100  1
  C  C88  1  0.17192200  0.37415300  0.27893200  1
  C  C89  1  0.67192200  0.12584700  0.72106800  1
  C  C90  1  0.82807800  0.87415300  0.22106800  1
  C  C91  1  0.32807800  0.62584700  0.77893200  1
  C  C92  1  0.82807800  0.62584700  0.72106800  1
  C  C93  1  0.32807800  0.87415300  0.27893200  1
  C  C94  1  0.17192200  0.12584700  0.77893200  1
  C  C95  1  0.67192200  0.37415300  0.22106800  1
  C  C96  1  0.94159100  0.49932600  0.21663400  1
  C  C97  1  0.44159100  0.00067400  0.78336600  1
  C  C98  1  0.05840900  0.99932600  0.28336600  1
  C  C99  1  0.55840900  0.50067400  0.71663400  1
  C  C100  1  0.05840900  0.50067400  0.78336600  1
  C  C101  1  0.55840900  0.99932600  0.21663400  1
  C  C102  1  0.94159100  0.00067400  0.71663400  1
  C  C103  1  0.44159100  0.49932600  0.28336600  1
  C  C104  1  0.90913100  0.38774600  0.34301400  1
  C  C105  1  0.40913100  0.11225400  0.65698600  1
  C  C106  1  0.09086900  0.88774600  0.15698600  1
  C  C107  1  0.59086900  0.61225400  0.84301400  1
  C  C108  1  0.09086900  0.61225400  0.65698600  1
  C  C109  1  0.59086900  0.88774600  0.34301400  1
  C  C110  1  0.90913100  0.11225400  0.84301400  1
  C  C111  1  0.40913100  0.38774600  0.15698600  1
