# generated using pymatgen
data_Cu2Ni7C6
_symmetry_space_group_name_H-M   'P 1'
_cell_length_a   6.91238600
_cell_length_b   10.59377900
_cell_length_c   10.85367700
_cell_angle_alpha   90.00000000
_cell_angle_beta   90.00000000
_cell_angle_gamma   90.00000000
_symmetry_Int_Tables_number   1
_chemical_formula_structural   Cu2Ni7C6
_chemical_formula_sum   'Cu8 Ni28 C24'
_cell_volume   794.79620309
_cell_formula_units_Z   4
loop_
 _symmetry_equiv_pos_site_id
 _symmetry_equiv_pos_as_xyz
  1  'x, y, z'
loop_
 _atom_site_type_symbol
 _atom_site_label
 _atom_site_symmetry_multiplicity
 _atom_site_fract_x
 _atom_site_fract_y
 _atom_site_fract_z
 _atom_site_occupancy
  C  C0  1  0.33307200  0.99902000  0.75075700  1
  C  C1  1  0.66692800  0.50098000  0.75075700  1
  C  C2  1  0.83307200  0.00098000  0.74924300  1
  C  C3  1  0.16692800  0.49902000  0.74924300  1
  C  C4  1  0.16692800  0.99902000  0.25075700  1
  C  C5  1  0.83307200  0.50098000  0.25075700  1
  C  C6  1  0.33307200  0.49902000  0.24924300  1
  C  C7  1  0.66692800  0.00098000  0.24924300  1
  C  C8  1  0.00000000  0.00000000  0.00000000  1
  C  C9  1  0.00000000  0.50000000  0.00000000  1
  C  C10  1  0.00000000  0.25000000  0.82372400  1
  C  C11  1  0.50000000  0.75000000  0.67627600  1
  C  C12  1  0.50000000  0.00000000  0.50000000  1
  C  C13  1  0.50000000  0.50000000  0.50000000  1
  C  C14  1  0.50000000  0.25000000  0.32372400  1
  C  C15  1  0.00000000  0.75000000  0.17627600  1
  C  C16  1  0.28773000  0.75164800  0.93850600  1
  C  C17  1  0.71227000  0.74835200  0.93850600  1
  C  C18  1  0.78773000  0.24835200  0.56149400  1
  C  C19  1  0.21227000  0.25164800  0.56149400  1
  C  C20  1  0.21227000  0.75164800  0.43850600  1
  C  C21  1  0.78773000  0.74835200  0.43850600  1
  C  C22  1  0.28773000  0.25164800  0.06149400  1
  C  C23  1  0.71227000  0.24835200  0.06149400  1
  Ni  Ni24  1  0.16747400  0.32949300  0.96849600  1
  Ni  Ni25  1  0.83252600  0.17050700  0.96849600  1
  Ni  Ni26  1  0.50000000  0.75000000  0.00486300  1
  Ni  Ni27  1  0.21480400  0.61593900  0.92520600  1
  Ni  Ni28  1  0.78519600  0.88406100  0.92520600  1
  Ni  Ni29  1  0.31264300  0.81726800  0.81445400  1
  Ni  Ni30  1  0.68735700  0.68273200  0.81445400  1
  Ni  Ni31  1  0.81264300  0.18273200  0.68554600  1
  Ni  Ni32  1  0.18735700  0.31726800  0.68554600  1
  Ni  Ni33  1  0.28519600  0.11593900  0.57479400  1
  Ni  Ni34  1  0.71480400  0.38406100  0.57479400  1
  Ni  Ni35  1  0.00000000  0.25000000  0.49513700  1
  Ni  Ni36  1  0.66747400  0.67050700  0.53150400  1
  Ni  Ni37  1  0.33252600  0.82949300  0.53150400  1
  Ni  Ni38  1  0.33252600  0.32949300  0.46849600  1
  Ni  Ni39  1  0.66747400  0.17050700  0.46849600  1
  Ni  Ni40  1  0.00000000  0.75000000  0.50486300  1
  Ni  Ni41  1  0.28519600  0.61593900  0.42520600  1
  Ni  Ni42  1  0.71480400  0.88406100  0.42520600  1
  Ni  Ni43  1  0.81264300  0.68273200  0.31445400  1
  Ni  Ni44  1  0.18735700  0.81726800  0.31445400  1
  Ni  Ni45  1  0.31264300  0.31726800  0.18554600  1
  Ni  Ni46  1  0.68735700  0.18273200  0.18554600  1
  Ni  Ni47  1  0.21480400  0.11593900  0.07479400  1
  Ni  Ni48  1  0.78519600  0.38406100  0.07479400  1
  Ni  Ni49  1  0.50000000  0.25000000  0.99513700  1
  Ni  Ni50  1  0.16747400  0.82949300  0.03150400  1
  Ni  Ni51  1  0.83252600  0.67050700  0.03150400  1
  Cu  Cu52  1  0.08949100  0.04127800  0.80817100  1
  Cu  Cu53  1  0.91050900  0.45872200  0.80817100  1
  Cu  Cu54  1  0.41050900  0.54127800  0.69182900  1
  Cu  Cu55  1  0.58949100  0.95872200  0.69182900  1
  Cu  Cu56  1  0.41050900  0.04127800  0.30817100  1
  Cu  Cu57  1  0.58949100  0.45872200  0.30817100  1
  Cu  Cu58  1  0.08949100  0.54127800  0.19182900  1
  Cu  Cu59  1  0.91050900  0.95872200  0.19182900  1
