# generated using pymatgen
data_Cu6NiC3
_symmetry_space_group_name_H-M   'P 1'
_cell_length_a   4.83223684
_cell_length_b   10.23445471
_cell_length_c   11.63230511
_cell_angle_alpha   65.57027848
_cell_angle_beta   79.68233131
_cell_angle_gamma   89.62003598
_symmetry_Int_Tables_number   1
_chemical_formula_structural   Cu6NiC3
_chemical_formula_sum   'Cu24 Ni4 C12'
_cell_volume   513.84188792
_cell_formula_units_Z   4
loop_
 _symmetry_equiv_pos_site_id
 _symmetry_equiv_pos_as_xyz
  1  'x, y, z'
loop_
 _atom_site_type_symbol
 _atom_site_label
 _atom_site_symmetry_multiplicity
 _atom_site_fract_x
 _atom_site_fract_y
 _atom_site_fract_z
 _atom_site_occupancy
  C  C0  1  0.98316400  0.01222900  0.98137000  1
  C  C1  1  0.96379100  0.16101200  0.20879700  1
  C  C2  1  0.83264100  0.81571100  0.35102900  1
  C  C3  1  0.51285500  0.51020500  0.97342800  1
  C  C4  1  0.57970300  0.87293000  0.78623000  1
  C  C5  1  0.67391100  0.68791700  0.64333900  1
  C  C6  1  0.68096900  0.46766400  0.51847100  1
  C  C7  1  0.27772900  0.98400500  0.49802300  1
  C  C8  1  0.37147700  0.66931400  0.19007200  1
  C  C9  1  0.11391000  0.36887000  0.79798100  1
  C  C10  1  0.15127600  0.18665800  0.65300900  1
  C  C11  1  0.31718900  0.32279300  0.33396800  1
  Ni  Ni12  1  0.58824100  0.67609000  0.49279600  1
  Ni  Ni13  1  0.47554200  0.85299000  0.64164800  1
  Ni  Ni14  1  0.34539600  0.34217700  0.65797100  1
  Ni  Ni15  1  0.13305900  0.15326400  0.34787700  1
  Cu  Cu16  1  0.86671800  0.20099500  0.79004900  1
  Cu  Cu17  1  0.89605400  0.51357700  0.65566300  1
  Cu  Cu18  1  0.94817700  0.02764300  0.64284300  1
  Cu  Cu19  1  0.74344400  0.90265000  0.91191600  1
  Cu  Cu20  1  0.84526100  0.40484000  0.91930800  1
  Cu  Cu21  1  0.98899700  0.33109000  0.49261900  1
  Cu  Cu22  1  0.82318100  0.70525500  0.78029000  1
  Cu  Cu23  1  0.67344400  0.29114000  0.23612200  1
  Cu  Cu24  1  0.77663000  0.11860800  0.09468000  1
  Cu  Cu25  1  0.62289100  0.97665100  0.36123900  1
  Cu  Cu26  1  0.64590900  0.60369500  0.09153400  1
  Cu  Cu27  1  0.51794900  0.47343700  0.36096800  1
  Cu  Cu28  1  0.62145500  0.79393300  0.21287200  1
  Cu  Cu29  1  0.25192200  0.19742200  0.92335800  1
  Cu  Cu30  1  0.38593000  0.52159200  0.79218700  1
  Cu  Cu31  1  0.32644000  0.02694500  0.78647300  1
  Cu  Cu32  1  0.32485100  0.70237800  0.91337000  1
  Cu  Cu33  1  0.43905900  0.17216900  0.50923200  1
  Cu  Cu34  1  0.23845100  0.33156600  0.09151600  1
  Cu  Cu35  1  0.14851400  0.50539700  0.21388800  1
  Cu  Cu36  1  0.07572200  0.66461800  0.34079100  1
  Cu  Cu37  1  0.02806900  0.82549700  0.50033800  1
  Cu  Cu38  1  0.18112500  0.83437600  0.07723900  1
  Cu  Cu39  1  0.11141200  0.96785000  0.23438300  1
