# generated using pymatgen
data_Cu4(Ni4C3)3
_symmetry_space_group_name_H-M   'P 1'
_cell_length_a   8.69690500
_cell_length_b   9.63508100
_cell_length_c   13.22117152
_cell_angle_alpha   79.03058140
_cell_angle_beta   90.00000000
_cell_angle_gamma   90.00000000
_symmetry_Int_Tables_number   1
_chemical_formula_structural   Cu4(Ni4C3)3
_chemical_formula_sum   'Cu8 Ni24 C18'
_cell_volume   1087.63107055
_cell_formula_units_Z   2
loop_
 _symmetry_equiv_pos_site_id
 _symmetry_equiv_pos_as_xyz
  1  'x, y, z'
loop_
 _atom_site_type_symbol
 _atom_site_label
 _atom_site_symmetry_multiplicity
 _atom_site_fract_x
 _atom_site_fract_y
 _atom_site_fract_z
 _atom_site_occupancy
  Ni  Ni0  1  0.50491800  0.73785200  0.17033100  1
  Ni  Ni1  1  0.00491800  0.26214800  0.82966900  1
  Ni  Ni2  1  0.49508200  0.26214800  0.82966900  1
  Ni  Ni3  1  0.99508200  0.73785200  0.17033100  1
  Ni  Ni4  1  0.52783100  0.67105800  0.29534800  1
  Ni  Ni5  1  0.02783100  0.32894200  0.70465200  1
  Ni  Ni6  1  0.47216900  0.32894200  0.70465200  1
  Ni  Ni7  1  0.97216900  0.67105800  0.29534800  1
  Ni  Ni8  1  0.62474200  0.60524600  0.20660700  1
  Ni  Ni9  1  0.12474200  0.39475400  0.79339300  1
  Ni  Ni10  1  0.37525800  0.39475400  0.79339300  1
  Ni  Ni11  1  0.87525800  0.60524600  0.20660700  1
  Ni  Ni12  1  0.60535700  0.07165300  0.28102900  1
  Ni  Ni13  1  0.10535700  0.92834700  0.71897100  1
  Ni  Ni14  1  0.39464300  0.92834700  0.71897100  1
  Ni  Ni15  1  0.89464300  0.07165300  0.28102900  1
  Ni  Ni16  1  0.52528600  0.02965200  0.17727900  1
  Ni  Ni17  1  0.02528600  0.97034800  0.82272100  1
  Ni  Ni18  1  0.47471400  0.97034800  0.82272100  1
  Ni  Ni19  1  0.97471400  0.02965200  0.17727900  1
  Ni  Ni20  1  0.48486800  0.93685500  0.29283700  1
  Ni  Ni21  1  0.98486800  0.06314500  0.70716300  1
  Ni  Ni22  1  0.51513200  0.06314500  0.70716300  1
  Ni  Ni23  1  0.01513200  0.93685500  0.29283700  1
  C  C24  1  0.75000000  0.84571000  0.23605500  1
  C  C25  1  0.25000000  0.15429000  0.76394500  1
  C  C26  1  0.75000000  0.21066200  0.59291100  1
  C  C27  1  0.25000000  0.78933800  0.40708900  1
  C  C28  1  0.75000000  0.89508000  0.55442100  1
  C  C29  1  0.25000000  0.10492000  0.44557900  1
  C  C30  1  0.75000000  0.60912600  0.52885600  1
  C  C31  1  0.25000000  0.39087400  0.47114400  1
  C  C32  1  0.75000000  0.08160800  0.95544300  1
  C  C33  1  0.25000000  0.91839200  0.04455700  1
  C  C34  1  0.75000000  0.79230300  0.91021700  1
  C  C35  1  0.25000000  0.20769700  0.08978300  1
  C  C36  1  0.75000000  0.50116300  0.86865900  1
  C  C37  1  0.25000000  0.49883700  0.13134100  1
  C  C38  1  0.75000000  0.38885200  0.11743400  1
  C  C39  1  0.25000000  0.61114800  0.88256600  1
  C  C40  1  0.75000000  0.30754500  0.33738400  1
  C  C41  1  0.25000000  0.69245500  0.66261600  1
  Cu  Cu42  1  0.58354400  0.69723000  0.22564300  1
  Cu  Cu43  1  0.08354400  0.30277000  0.77435700  1
  Cu  Cu44  1  0.41645600  0.30277000  0.77435700  1
  Cu  Cu45  1  0.91645600  0.69723000  0.22564300  1
  Cu  Cu46  1  0.57237400  0.98765000  0.24756700  1
  Cu  Cu47  1  0.07237400  0.01235000  0.75243300  1
  Cu  Cu48  1  0.42762600  0.01235000  0.75243300  1
  Cu  Cu49  1  0.92762600  0.98765000  0.24756700  1
