# generated using pymatgen
data_Cu16Ni4C7
_symmetry_space_group_name_H-M   'P 1'
_cell_length_a   9.99942444
_cell_length_b   9.96750341
_cell_length_c   9.77142939
_cell_angle_alpha   60.86347250
_cell_angle_beta   60.53701690
_cell_angle_gamma   58.59951061
_symmetry_Int_Tables_number   1
_chemical_formula_structural   Cu16Ni4C7
_chemical_formula_sum   'Cu32 Ni8 C14'
_cell_volume   688.03912181
_cell_formula_units_Z   2
loop_
 _symmetry_equiv_pos_site_id
 _symmetry_equiv_pos_as_xyz
  1  'x, y, z'
loop_
 _atom_site_type_symbol
 _atom_site_label
 _atom_site_symmetry_multiplicity
 _atom_site_fract_x
 _atom_site_fract_y
 _atom_site_fract_z
 _atom_site_occupancy
  C  C0  1  0.96020000  0.53980000  0.96020000  1
  C  C1  1  0.54001400  0.95998600  0.95998600  1
  C  C2  1  0.29001400  0.70998600  0.70998600  1
  C  C3  1  0.71020000  0.28980000  0.71020000  1
  C  C4  1  0.53980000  0.96020000  0.53980000  1
  C  C5  1  0.95998600  0.54001400  0.54001400  1
  C  C6  1  0.70998600  0.29001400  0.29001400  1
  C  C7  1  0.28980000  0.71020000  0.28980000  1
  C  C8  1  0.12500000  0.12500000  0.12500000  1
  C  C9  1  0.12500000  0.12500000  0.62500000  1
  C  C10  1  0.12500000  0.62500000  0.12500000  1
  C  C11  1  0.62500000  0.12500000  0.12500000  1
  C  C12  1  0.50000000  0.50000000  0.50000000  1
  C  C13  1  0.75000000  0.75000000  0.75000000  1
  Ni  Ni14  1  0.91664200  0.91332100  0.90327100  1
  Ni  Ni15  1  0.33667900  0.33335800  0.98323400  1
  Ni  Ni16  1  0.90327100  0.26676600  0.91664200  1
  Ni  Ni17  1  0.26676600  0.90327100  0.91332100  1
  Ni  Ni18  1  0.98323400  0.34672900  0.33667900  1
  Ni  Ni19  1  0.34672900  0.98323400  0.33335800  1
  Ni  Ni20  1  0.91332100  0.91664200  0.26676600  1
  Ni  Ni21  1  0.33335800  0.33667900  0.34672900  1
  Cu  Cu22  1  0.94513200  0.76867100  0.01469300  1
  Cu  Cu23  1  0.30815600  0.57013300  0.55977400  1
  Cu  Cu24  1  0.03195300  0.94171600  0.76515800  1
  Cu  Cu25  1  0.30828400  0.21804700  0.98882800  1
  Cu  Cu26  1  0.76515800  0.26117200  0.03195300  1
  Cu  Cu27  1  0.22168600  0.48056400  0.97797900  1
  Cu  Cu28  1  0.55977400  0.56193700  0.30815600  1
  Cu  Cu29  1  0.57013300  0.30815600  0.56193700  1
  Cu  Cu30  1  0.31977100  0.97797900  0.48056400  1
  Cu  Cu31  1  0.26117200  0.76515800  0.94171600  1
  Cu  Cu32  1  0.48132900  0.30486800  0.97849700  1
  Cu  Cu33  1  0.56193700  0.55977400  0.57013300  1
  Cu  Cu34  1  0.01469300  0.27150300  0.94513200  1
  Cu  Cu35  1  0.27150300  0.01469300  0.76867100  1
  Cu  Cu36  1  0.76943600  0.02831400  0.93022900  1
  Cu  Cu37  1  0.97797900  0.31977100  0.22168600  1
  Cu  Cu38  1  0.27202100  0.93022900  0.02831400  1
  Cu  Cu39  1  0.48056400  0.22168600  0.31977100  1
  Cu  Cu40  1  0.97849700  0.23530700  0.48132900  1
  Cu  Cu41  1  0.23530700  0.97849700  0.30486800  1
  Cu  Cu42  1  0.68806300  0.69022600  0.67986700  1
  Cu  Cu43  1  0.76867100  0.94513200  0.27150300  1
  Cu  Cu44  1  0.98882800  0.48484200  0.30828400  1
  Cu  Cu45  1  0.93022900  0.27202100  0.76943600  1
  Cu  Cu46  1  0.67986700  0.94184400  0.68806300  1
  Cu  Cu47  1  0.69022600  0.68806300  0.94184400  1
  Cu  Cu48  1  0.02831400  0.76943600  0.27202100  1
  Cu  Cu49  1  0.48484200  0.98882800  0.21804700  1
  Cu  Cu50  1  0.94171600  0.03195300  0.26117200  1
  Cu  Cu51  1  0.21804700  0.30828400  0.48484200  1
  Cu  Cu52  1  0.94184400  0.67986700  0.69022600  1
  Cu  Cu53  1  0.30486800  0.48132900  0.23530700  1
