# generated using pymatgen
data_Cu3(NiC7)2
_symmetry_space_group_name_H-M   'P 1'
_cell_length_a   6.52787100
_cell_length_b   7.75764294
_cell_length_c   7.80574425
_cell_angle_alpha   95.60699508
_cell_angle_beta   89.77316499
_cell_angle_gamma   114.41843829
_symmetry_Int_Tables_number   1
_chemical_formula_structural   Cu3(NiC7)2
_chemical_formula_sum   'Cu6 Ni4 C28'
_cell_volume   357.91974261
_cell_formula_units_Z   2
loop_
 _symmetry_equiv_pos_site_id
 _symmetry_equiv_pos_as_xyz
  1  'x, y, z'
loop_
 _atom_site_type_symbol
 _atom_site_label
 _atom_site_symmetry_multiplicity
 _atom_site_fract_x
 _atom_site_fract_y
 _atom_site_fract_z
 _atom_site_occupancy
  C  C0  1  0.19077700  0.60523600  0.40114900  1
  C  C1  1  0.88774400  0.19591500  0.30194100  1
  C  C2  1  0.75195400  0.51005900  0.24761800  1
  C  C3  1  0.24804600  0.48994100  0.75238200  1
  C  C4  1  0.11225600  0.80408500  0.69805900  1
  C  C5  1  0.80922300  0.39476400  0.59885100  1
  C  C6  1  0.68188800  0.59967000  0.91322800  1
  C  C7  1  0.31811200  0.40033000  0.08677200  1
  Ni  Ni8  1  0.64348600  0.69556200  0.54412400  1
  Ni  Ni9  1  0.35651400  0.30443800  0.45587600  1
  Ni  Ni10  1  0.17223900  0.69074400  0.05071100  1
  Ni  Ni11  1  0.82776100  0.30925600  0.94928900  1
  Cu  Cu12  1  0.04580600  0.90150400  0.34429800  1
  Cu  Cu13  1  0.95419400  0.09849600  0.65570200  1
  Cu  Cu14  1  0.50000000  0.00000000  0.50000000  1
  Cu  Cu15  1  0.00000000  0.00000000  0.00000000  1
  Cu  Cu16  1  0.54535400  0.90253700  0.84879600  1
  Cu  Cu17  1  0.45464600  0.09746300  0.15120400  1
  C  C18  1  0.20806400  0.04180000  0.55089000  1
  C  C19  1  0.08279600  0.32565000  0.53897800  1
  C  C20  1  0.91720400  0.67435000  0.46102200  1
  C  C21  1  0.60450100  0.24148500  0.38305000  1
  C  C22  1  0.79193600  0.95820000  0.44911000  1
  C  C23  1  0.46143200  0.53080600  0.34743700  1
  C  C24  1  0.09046600  0.22373900  0.87263300  1
  C  C25  1  0.30641600  0.84847400  0.27374700  1
  C  C26  1  0.69358400  0.15152600  0.72625300  1
  C  C27  1  0.97130000  0.54298000  0.84565400  1
  C  C28  1  0.53856800  0.46919400  0.65256300  1
  C  C29  1  0.82469700  0.86145800  0.76119000  1
  C  C30  1  0.17530300  0.13854200  0.23881000  1
  C  C31  1  0.39549900  0.75851500  0.61695000  1
  C  C32  1  0.02870000  0.45702000  0.15434600  1
  C  C33  1  0.74223400  0.06786000  0.06104000  1
  C  C34  1  0.90953400  0.77626100  0.12736700  1
  C  C35  1  0.58721900  0.34611500  0.03350300  1
  C  C36  1  0.41278100  0.65388500  0.96649700  1
  C  C37  1  0.25776600  0.93214000  0.93896000  1
