# generated using pymatgen
data_Cu3NiC12
_symmetry_space_group_name_H-M   'P 1'
_cell_length_a   5.95795616
_cell_length_b   5.95795616
_cell_length_c   5.90544564
_cell_angle_alpha   60.53089605
_cell_angle_beta   60.53089605
_cell_angle_gamma   59.27015554
_symmetry_Int_Tables_number   1
_chemical_formula_structural   Cu3NiC12
_chemical_formula_sum   'Cu3 Ni1 C12'
_cell_volume   148.55288803
_cell_formula_units_Z   1
loop_
 _symmetry_equiv_pos_site_id
 _symmetry_equiv_pos_as_xyz
  1  'x, y, z'
loop_
 _atom_site_type_symbol
 _atom_site_label
 _atom_site_symmetry_multiplicity
 _atom_site_fract_x
 _atom_site_fract_y
 _atom_site_fract_z
 _atom_site_occupancy
  C  C0  1  0.50000000  0.50000000  0.00000000  1
  C  C1  1  0.00000000  0.50000000  0.50000000  1
  C  C2  1  0.50000000  0.00000000  0.50000000  1
  C  C3  1  0.00000000  0.00000000  0.00000000  1
  Ni  Ni4  1  0.00000000  0.00000000  0.50000000  1
  Cu  Cu5  1  0.50000000  0.00000000  0.00000000  1
  Cu  Cu6  1  0.00000000  0.50000000  0.00000000  1
  Cu  Cu7  1  0.50000000  0.50000000  0.50000000  1
  C  C8  1  0.73826500  0.73826500  0.24768500  1
  C  C9  1  0.23220500  0.74482400  0.74162800  1
  C  C10  1  0.74482400  0.23220500  0.74162800  1
  C  C11  1  0.26173500  0.26173500  0.75231500  1
  C  C12  1  0.25836700  0.25836600  0.22520100  1
  C  C13  1  0.76779500  0.25517600  0.25837200  1
  C  C14  1  0.25517600  0.76779500  0.25837200  1
  C  C15  1  0.74163400  0.74163400  0.77479900  1
