# generated using pymatgen
data_Cu2(NiC4)3
_symmetry_space_group_name_H-M   'P 1'
_cell_length_a   13.92024000
_cell_length_b   15.20030200
_cell_length_c   15.54126049
_cell_angle_alpha   89.45872715
_cell_angle_beta   90.00000000
_cell_angle_gamma   90.00000000
_symmetry_Int_Tables_number   1
_chemical_formula_structural   Cu2(NiC4)3
_chemical_formula_sum   'Cu8 Ni12 C48'
_cell_volume   3288.25735130
_cell_formula_units_Z   4
loop_
 _symmetry_equiv_pos_site_id
 _symmetry_equiv_pos_as_xyz
  1  'x, y, z'
loop_
 _atom_site_type_symbol
 _atom_site_label
 _atom_site_symmetry_multiplicity
 _atom_site_fract_x
 _atom_site_fract_y
 _atom_site_fract_z
 _atom_site_occupancy
  Ni  Ni0  1  0.78001800  0.04573200  0.21998000  1
  Ni  Ni1  1  0.40225000  0.00507600  0.29165900  1
  Ni  Ni2  1  0.01211600  0.18650800  0.49387300  1
  Ni  Ni3  1  0.51211600  0.31349200  0.00612700  1
  Ni  Ni4  1  0.90225000  0.49492400  0.20834100  1
  Ni  Ni5  1  0.28001800  0.45426800  0.28002000  1
  Ni  Ni6  1  0.71998200  0.54573200  0.71998000  1
  Ni  Ni7  1  0.09775000  0.50507600  0.79165900  1
  Ni  Ni8  1  0.48788400  0.68650800  0.99387300  1
  Ni  Ni9  1  0.98788400  0.81349200  0.50612700  1
  Ni  Ni10  1  0.59775000  0.99492400  0.70834100  1
  Ni  Ni11  1  0.21998200  0.95426800  0.78002000  1
  Cu  Cu12  1  0.14528900  0.19159000  0.07340900  1
  Cu  Cu13  1  0.83367400  0.18777900  0.85091000  1
  Cu  Cu14  1  0.64528900  0.30841000  0.42659100  1
  Cu  Cu15  1  0.33367400  0.31222100  0.64909000  1
  Cu  Cu16  1  0.66632600  0.68777900  0.35091000  1
  Cu  Cu17  1  0.35471100  0.69159000  0.57340900  1
  Cu  Cu18  1  0.16632600  0.81222100  0.14909000  1
  Cu  Cu19  1  0.85471100  0.80841000  0.92659100  1
  C  C20  1  0.25567900  0.99978700  0.10121300  1
  C  C21  1  0.86308000  0.00844500  0.43229600  1
  C  C22  1  0.55145600  0.09869900  0.14611300  1
  C  C23  1  0.55892100  0.11945400  0.44930200  1
  C  C24  1  0.88503900  0.09406300  0.68144100  1
  C  C25  1  0.37820800  0.11034900  0.68305000  1
  C  C26  1  0.03565200  0.10187500  0.91550800  1
  C  C27  1  0.01528600  0.13162700  0.22462800  1
  C  C28  1  0.31268300  0.19215900  0.94024600  1
  C  C29  1  0.61996200  0.21467900  0.79117700  1
  C  C30  1  0.76291900  0.24254600  0.03552300  1
  C  C31  1  0.29658200  0.23460600  0.21284900  1
  C  C32  1  0.79658200  0.26539400  0.28715100  1
  C  C33  1  0.26291900  0.25745400  0.46447700  1
  C  C34  1  0.11996200  0.28532100  0.70882300  1
  C  C35  1  0.81268300  0.30784100  0.55975400  1
  C  C36  1  0.51528600  0.36837300  0.27537200  1
  C  C37  1  0.53565200  0.39812500  0.58449200  1
  C  C38  1  0.87820800  0.38965100  0.81695000  1
  C  C39  1  0.05892100  0.38054600  0.05069800  1
  C  C40  1  0.38503900  0.40593700  0.81855900  1
  C  C41  1  0.05145600  0.40130100  0.35388700  1
  C  C42  1  0.36308000  0.49155500  0.06770400  1
  C  C43  1  0.75567900  0.50021300  0.39878700  1
  C  C44  1  0.24432100  0.49978700  0.60121300  1
  C  C45  1  0.63692000  0.50844500  0.93229600  1
  C  C46  1  0.94854400  0.59869900  0.64611300  1
  C  C47  1  0.61496100  0.59406300  0.18144100  1
  C  C48  1  0.94107900  0.61945400  0.94930200  1
  C  C49  1  0.12179200  0.61034900  0.18305000  1
  C  C50  1  0.46434800  0.60187500  0.41550800  1
  C  C51  1  0.48471400  0.63162700  0.72462800  1
  C  C52  1  0.18731700  0.69215900  0.44024600  1
  C  C53  1  0.88003800  0.71467900  0.29117700  1
  C  C54  1  0.73708100  0.74254600  0.53552300  1
  C  C55  1  0.20341800  0.73460600  0.71284900  1
  C  C56  1  0.70341800  0.76539400  0.78715100  1
  C  C57  1  0.23708100  0.75745400  0.96447700  1
  C  C58  1  0.38003800  0.78532100  0.20882300  1
  C  C59  1  0.68731700  0.80784100  0.05975400  1
  C  C60  1  0.98471400  0.86837300  0.77537200  1
  C  C61  1  0.96434800  0.89812500  0.08449200  1
  C  C62  1  0.62179200  0.88965100  0.31695000  1
  C  C63  1  0.11496100  0.90593700  0.31855900  1
  C  C64  1  0.44107900  0.88054600  0.55069800  1
  C  C65  1  0.44854400  0.90130100  0.85388700  1
  C  C66  1  0.13692000  0.99155500  0.56770400  1
  C  C67  1  0.74432100  0.00021300  0.89878700  1
