# generated using pymatgen
data_Cu12NiC29
_symmetry_space_group_name_H-M   'P 1'
_cell_length_a   5.99481828
_cell_length_b   5.99481828
_cell_length_c   14.75757100
_cell_angle_alpha   90.00000000
_cell_angle_beta   90.00000000
_cell_angle_gamma   120.00000307
_symmetry_Int_Tables_number   1
_chemical_formula_structural   Cu12NiC29
_chemical_formula_sum   'Cu12 Ni1 C29'
_cell_volume   459.30116307
_cell_formula_units_Z   1
loop_
 _symmetry_equiv_pos_site_id
 _symmetry_equiv_pos_as_xyz
  1  'x, y, z'
loop_
 _atom_site_type_symbol
 _atom_site_label
 _atom_site_symmetry_multiplicity
 _atom_site_fract_x
 _atom_site_fract_y
 _atom_site_fract_z
 _atom_site_occupancy
  C  C0  1  0.66666700  0.33333300  0.04218800  1
  C  C1  1  0.66666700  0.33333300  0.29011900  1
  C  C2  1  0.33333300  0.66666700  0.37590800  1
  C  C3  1  0.33333300  0.66666700  0.62026300  1
  C  C4  1  0.00000000  0.00000000  0.96180400  1
  Ni  Ni5  1  0.66666700  0.33333300  0.66372300  1
  Cu  Cu6  1  0.16684800  0.33369600  0.16694700  1
  Cu  Cu7  1  0.82923100  0.17076900  0.49879000  1
  Cu  Cu8  1  0.16684800  0.83315200  0.16694700  1
  Cu  Cu9  1  0.00000000  0.00000000  0.33288600  1
  Cu  Cu10  1  0.33333300  0.66666700  0.00183600  1
  Cu  Cu11  1  0.66630400  0.83315200  0.16694700  1
  Cu  Cu12  1  0.34153800  0.17076900  0.49879000  1
  Cu  Cu13  1  0.82923100  0.65846200  0.49879000  1
  Cu  Cu14  1  0.00896800  0.50448400  0.83806200  1
  Cu  Cu15  1  0.00000000  0.00000000  0.70976800  1
  Cu  Cu16  1  0.49551600  0.50448400  0.83806200  1
  Cu  Cu17  1  0.49551600  0.99103200  0.83806200  1
  C  C18  1  0.03326800  0.51663400  0.08826700  1
  C  C19  1  0.48336600  0.51663400  0.08826700  1
  C  C20  1  0.00000000  0.00000000  0.09673200  1
  C  C21  1  0.85064500  0.14935500  0.24586100  1
  C  C22  1  0.85064500  0.70128900  0.24586100  1
  C  C23  1  0.29871100  0.14935500  0.24586100  1
  C  C24  1  0.97124600  0.48562300  0.57413800  1
  C  C25  1  0.48336600  0.96673200  0.08826700  1
  C  C26  1  0.14798800  0.29597600  0.42084300  1
  C  C27  1  0.14798800  0.85201200  0.42084300  1
  C  C28  1  0.33333300  0.66666700  0.23700900  1
  C  C29  1  0.00000000  0.00000000  0.57925100  1
  C  C30  1  0.66666700  0.33333300  0.42668700  1
  C  C31  1  0.51437700  0.48562300  0.57413800  1
  C  C32  1  0.51437700  0.02875400  0.57413800  1
  C  C33  1  0.18188100  0.36376200  0.91316200  1
  C  C34  1  0.70402400  0.85201200  0.42084300  1
  C  C35  1  0.34456000  0.17228000  0.75295900  1
  C  C36  1  0.82772000  0.65544000  0.75295900  1
  C  C37  1  0.82772000  0.17228000  0.75295900  1
  C  C38  1  0.66666700  0.33333300  0.90168300  1
  C  C39  1  0.33333300  0.66666700  0.76305600  1
  C  C40  1  0.18188100  0.81811900  0.91316200  1
  C  C41  1  0.63623800  0.81811900  0.91316200  1
