# generated using pymatgen
data_Cu6NiC8
_symmetry_space_group_name_H-M   'P 1'
_cell_length_a   8.34788201
_cell_length_b   8.34788201
_cell_length_c   6.44823289
_cell_angle_alpha   71.67254182
_cell_angle_beta   71.67254182
_cell_angle_gamma   91.80278914
_symmetry_Int_Tables_number   1
_chemical_formula_structural   Cu6NiC8
_chemical_formula_sum   'Cu12 Ni2 C16'
_cell_volume   400.66957358
_cell_formula_units_Z   2
loop_
 _symmetry_equiv_pos_site_id
 _symmetry_equiv_pos_as_xyz
  1  'x, y, z'
loop_
 _atom_site_type_symbol
 _atom_site_label
 _atom_site_symmetry_multiplicity
 _atom_site_fract_x
 _atom_site_fract_y
 _atom_site_fract_z
 _atom_site_occupancy
  C  C0  1  0.50000000  0.50000000  0.00000000  1
  C  C1  1  0.76921400  0.23078600  0.50000000  1
  C  C2  1  0.23078600  0.76921400  0.50000000  1
  C  C3  1  0.87306100  0.54561100  0.97847200  1
  C  C4  1  0.54561100  0.87306100  0.97847200  1
  C  C5  1  0.37717300  0.86973200  0.92346300  1
  C  C6  1  0.86973200  0.37717300  0.92346300  1
  C  C7  1  0.62282700  0.13026800  0.07653700  1
  C  C8  1  0.13026800  0.62282700  0.07653700  1
  C  C9  1  0.45438900  0.12693900  0.02152800  1
  C  C10  1  0.12693900  0.45438900  0.02152800  1
  C  C11  1  0.00000000  0.00000000  0.00000000  1
  C  C12  1  0.70277900  0.83176200  0.39229100  1
  C  C13  1  0.83176200  0.70277900  0.39229100  1
  C  C14  1  0.29722100  0.16823800  0.60770900  1
  C  C15  1  0.16823800  0.29722100  0.60770900  1
  Ni  Ni16  1  0.86140300  0.86140300  0.82067400  1
  Ni  Ni17  1  0.13859700  0.13859700  0.17932600  1
  Cu  Cu18  1  0.57299400  0.18183000  0.95556700  1
  Cu  Cu19  1  0.18183000  0.57299400  0.95556700  1
  Cu  Cu20  1  0.78727600  0.55487200  0.53226800  1
  Cu  Cu21  1  0.55487200  0.78727600  0.53226800  1
  Cu  Cu22  1  0.76263900  0.98515900  0.24003800  1
  Cu  Cu23  1  0.98515900  0.76263900  0.24003800  1
  Cu  Cu24  1  0.23736100  0.01484100  0.75996200  1
  Cu  Cu25  1  0.01484100  0.23736100  0.75996200  1
  Cu  Cu26  1  0.44512800  0.21272400  0.46773200  1
  Cu  Cu27  1  0.21272400  0.44512800  0.46773200  1
  Cu  Cu28  1  0.81817000  0.42700600  0.04443300  1
  Cu  Cu29  1  0.42700600  0.81817000  0.04443300  1
