# generated using pymatgen
data_Cu2Ni3C19
_symmetry_space_group_name_H-M   'P 1'
_cell_length_a   5.15911142
_cell_length_b   5.15911142
_cell_length_c   19.14171039
_cell_angle_alpha   87.33181192
_cell_angle_beta   87.33181192
_cell_angle_gamma   120.70495238
_symmetry_Int_Tables_number   1
_chemical_formula_structural   Cu2Ni3C19
_chemical_formula_sum   'Cu4 Ni6 C38'
_cell_volume   436.11438212
_cell_formula_units_Z   2
loop_
 _symmetry_equiv_pos_site_id
 _symmetry_equiv_pos_as_xyz
  1  'x, y, z'
loop_
 _atom_site_type_symbol
 _atom_site_label
 _atom_site_symmetry_multiplicity
 _atom_site_fract_x
 _atom_site_fract_y
 _atom_site_fract_z
 _atom_site_occupancy
  C  C0  1  0.08351100  0.25031800  0.75003800  1
  C  C1  1  0.25031800  0.08351100  0.25003800  1
  Ni  Ni2  1  0.16602900  0.66328900  0.50002600  1
  Ni  Ni3  1  0.33318200  0.49989600  0.00003500  1
  Ni  Ni4  1  0.49989600  0.33318200  0.50003500  1
  Ni  Ni5  1  0.66328900  0.16602900  0.00002600  1
  Ni  Ni6  1  0.83394500  0.00321300  0.50001800  1
  Ni  Ni7  1  0.00321300  0.83394500  0.00001800  1
  Cu  Cu8  1  0.41716000  0.91677600  0.74997100  1
  Cu  Cu9  1  0.58306200  0.74917000  0.24997200  1
  Cu  Cu10  1  0.91677600  0.41716000  0.24997100  1
  Cu  Cu11  1  0.74917000  0.58306200  0.74997200  1
  C  C12  1  0.20925800  0.39764200  0.35330500  1
  C  C13  1  0.04615900  0.56451500  0.85324800  1
  C  C14  1  0.11872200  0.93672700  0.64681200  1
  C  C15  1  0.28523800  0.77587200  0.14677500  1
  C  C16  1  0.56451500  0.04615900  0.35324800  1
  C  C17  1  0.39764200  0.20925800  0.85330500  1
  C  C18  1  0.46589900  0.63463700  0.64697600  1
  C  C19  1  0.63463700  0.46589900  0.14697600  1
  C  C20  1  0.86737300  0.70069100  0.35302300  1
  C  C21  1  0.70069100  0.86737300  0.85302300  1
  C  C22  1  0.93672700  0.11872200  0.14681200  1
  C  C23  1  0.77587200  0.28523800  0.64677500  1
  C  C24  1  0.15805500  0.35440600  0.44592500  1
  C  C25  1  0.23096200  0.42773500  0.30155400  1
  C  C26  1  0.06429000  0.59493300  0.80166300  1
  C  C27  1  0.00944100  0.52061300  0.94864500  1
  C  C28  1  0.10196200  0.90472000  0.69825600  1
  C  C29  1  0.14781200  0.98210400  0.54998800  1
  C  C30  1  0.31215700  0.84211100  0.05413200  1
  C  C31  1  0.26904000  0.73728500  0.19824900  1
  C  C32  1  0.59493300  0.06429000  0.30166300  1
  C  C33  1  0.52061300  0.00944100  0.44864500  1
  C  C34  1  0.35440600  0.15805500  0.94592500  1
  C  C35  1  0.42773500  0.23096200  0.80155400  1
  C  C36  1  0.63130800  0.46435300  0.19847600  1
  C  C37  1  0.65708700  0.47944600  0.05140100  1
  C  C38  1  0.46435300  0.63130800  0.69847600  1
  C  C39  1  0.47944600  0.65708700  0.55140100  1
  C  C40  1  0.68421300  0.85201600  0.95005400  1
  C  C41  1  0.86905300  0.70252200  0.30161100  1
  C  C42  1  0.70252200  0.86905300  0.80161100  1
  C  C43  1  0.85201600  0.68421300  0.45005400  1
  C  C44  1  0.73728500  0.26904000  0.69824900  1
  C  C45  1  0.84211100  0.31215700  0.55413200  1
  C  C46  1  0.90472000  0.10196200  0.19825600  1
  C  C47  1  0.98210400  0.14781200  0.04998800  1
