# generated using pymatgen
data_Cu2Ni3C31
_symmetry_space_group_name_H-M   'P 1'
_cell_length_a   8.40978172
_cell_length_b   8.40978172
_cell_length_c   8.40978122
_cell_angle_alpha   61.64823861
_cell_angle_beta   61.64823861
_cell_angle_gamma   61.64823504
_symmetry_Int_Tables_number   1
_chemical_formula_structural   Cu2Ni3C31
_chemical_formula_sum   'Cu2 Ni3 C31'
_cell_volume   436.11516600
_cell_formula_units_Z   1
loop_
 _symmetry_equiv_pos_site_id
 _symmetry_equiv_pos_as_xyz
  1  'x, y, z'
loop_
 _atom_site_type_symbol
 _atom_site_label
 _atom_site_symmetry_multiplicity
 _atom_site_fract_x
 _atom_site_fract_y
 _atom_site_fract_z
 _atom_site_occupancy
  Ni  Ni0  1  0.85658600  0.85658600  0.85658600  1
  Ni  Ni1  1  0.64412100  0.64412100  0.64412100  1
  Ni  Ni2  1  0.35547900  0.35547900  0.35547900  1
  Cu  Cu3  1  0.00195400  0.00195400  0.00195400  1
  Cu  Cu4  1  0.50006100  0.50006100  0.50006100  1
  C  C5  1  0.14602700  0.14602700  0.14602700  1
  C  C6  1  0.95257000  0.24891900  0.54740100  1
  C  C7  1  0.54740100  0.95257000  0.24891900  1
  C  C8  1  0.24891900  0.54740100  0.95257000  1
  C  C9  1  0.75085600  0.45375300  0.04478000  1
  C  C10  1  0.45375300  0.04478000  0.75085600  1
  C  C11  1  0.04478000  0.75085600  0.45375300  1
  C  C12  1  0.88955400  0.67882500  0.49410800  1
  C  C13  1  0.67882500  0.49410800  0.88955400  1
  C  C14  1  0.93732900  0.09530200  0.75267600  1
  C  C15  1  0.49410800  0.88955400  0.67882500  1
  C  C16  1  0.98096600  0.18234500  0.39492700  1
  C  C17  1  0.74881100  0.40911600  0.56366600  1
  C  C18  1  0.75267600  0.93732900  0.09530200  1
  C  C19  1  0.56366600  0.74881100  0.40911600  1
  C  C20  1  0.81705800  0.60941300  0.01114900  1
  C  C21  1  0.40911600  0.56366600  0.74881100  1
  C  C22  1  0.90346200  0.25058600  0.05881900  1
  C  C23  1  0.60941300  0.01114900  0.81705800  1
  C  C24  1  0.39492700  0.98096600  0.18234500  1
  C  C25  1  0.09530200  0.75267600  0.93732900  1
  C  C26  1  0.59254900  0.44029100  0.24907400  1
  C  C27  1  0.18234500  0.39492700  0.98096600  1
  C  C28  1  0.44029100  0.24907400  0.59254900  1
  C  C29  1  0.25058600  0.05881900  0.90346200  1
  C  C30  1  0.24907400  0.59254900  0.44029100  1
  C  C31  1  0.01114900  0.81705800  0.60941300  1
  C  C32  1  0.51122100  0.10894200  0.31730300  1
  C  C33  1  0.05881900  0.90346200  0.25058600  1
  C  C34  1  0.31730300  0.51122100  0.10894200  1
  C  C35  1  0.10894200  0.31730300  0.51122100  1
