# generated using pymatgen
data_Cu9Ni2C3
_symmetry_space_group_name_H-M   'P 1'
_cell_length_a   8.38557800
_cell_length_b   10.26530600
_cell_length_c   10.51102959
_cell_angle_alpha   60.98663842
_cell_angle_beta   90.00000000
_cell_angle_gamma   90.00000000
_symmetry_Int_Tables_number   1
_chemical_formula_structural   Cu9Ni2C3
_chemical_formula_sum   'Cu36 Ni8 C12'
_cell_volume   791.24916523
_cell_formula_units_Z   4
loop_
 _symmetry_equiv_pos_site_id
 _symmetry_equiv_pos_as_xyz
  1  'x, y, z'
loop_
 _atom_site_type_symbol
 _atom_site_label
 _atom_site_symmetry_multiplicity
 _atom_site_fract_x
 _atom_site_fract_y
 _atom_site_fract_z
 _atom_site_occupancy
  C  C0  1  0.84325800  0.78619500  0.68007200  1
  C  C1  1  0.34325800  0.21380500  0.81992800  1
  C  C2  1  0.65674200  0.78619500  0.18007200  1
  C  C3  1  0.15674200  0.21380500  0.31992800  1
  C  C4  1  0.35705600  0.74253400  0.53733100  1
  C  C5  1  0.85705600  0.25746600  0.96266900  1
  C  C6  1  0.14294400  0.74253400  0.03733100  1
  C  C7  1  0.64294400  0.25746600  0.46266900  1
  C  C8  1  0.53270100  0.32207000  0.03832700  1
  C  C9  1  0.96729900  0.32207000  0.53832700  1
  C  C10  1  0.03270100  0.67793000  0.46167300  1
  C  C11  1  0.46729900  0.67793000  0.96167300  1
  Ni  Ni12  1  0.20137500  0.50002800  0.89703600  1
  Ni  Ni13  1  0.70137500  0.49997200  0.60296400  1
  Ni  Ni14  1  0.63587200  0.05725000  0.31903900  1
  Ni  Ni15  1  0.13587200  0.94275000  0.18096100  1
  Ni  Ni16  1  0.86412800  0.05725000  0.81903900  1
  Ni  Ni17  1  0.36412800  0.94275000  0.68096100  1
  Ni  Ni18  1  0.29862500  0.50002800  0.39703600  1
  Ni  Ni19  1  0.79862500  0.49997200  0.10296400  1
  Cu  Cu20  1  0.09419200  0.68693800  0.53661300  1
  Cu  Cu21  1  0.31259100  0.55624300  0.77068300  1
  Cu  Cu22  1  0.28965000  0.41653300  0.03424400  1
  Cu  Cu23  1  0.88353800  0.37018600  0.10624100  1
  Cu  Cu24  1  0.58597000  0.60031500  0.62028300  1
  Cu  Cu25  1  0.08597000  0.39968500  0.87971700  1
  Cu  Cu26  1  0.51465200  0.17364300  0.29111100  1
  Cu  Cu27  1  0.81259100  0.44375700  0.72931700  1
  Cu  Cu28  1  0.59419200  0.31306200  0.96338700  1
  Cu  Cu29  1  0.75746600  0.07007700  0.41755600  1
  Cu  Cu30  1  0.21035000  0.41653300  0.53424400  1
  Cu  Cu31  1  0.61646200  0.37018600  0.60624100  1
  Cu  Cu32  1  0.71446700  0.07955600  0.18261300  1
  Cu  Cu33  1  0.06392900  0.09431800  0.10912600  1
  Cu  Cu34  1  0.56392900  0.90568200  0.39087400  1
  Cu  Cu35  1  0.21446700  0.92044400  0.31738700  1
  Cu  Cu36  1  0.98534800  0.17364300  0.79111100  1
  Cu  Cu37  1  0.74253400  0.07007700  0.91755600  1
  Cu  Cu38  1  0.25746600  0.92992300  0.08244400  1
  Cu  Cu39  1  0.01465200  0.82635700  0.20888900  1
  Cu  Cu40  1  0.78553300  0.07955600  0.68261300  1
  Cu  Cu41  1  0.43607100  0.09431800  0.60912600  1
  Cu  Cu42  1  0.93607100  0.90568200  0.89087400  1
  Cu  Cu43  1  0.28553300  0.92044400  0.81738700  1
  Cu  Cu44  1  0.38353800  0.62981400  0.39375900  1
  Cu  Cu45  1  0.78965000  0.58346700  0.46575600  1
  Cu  Cu46  1  0.24253400  0.92992300  0.58244400  1
  Cu  Cu47  1  0.40580800  0.68693800  0.03661300  1
  Cu  Cu48  1  0.18740900  0.55624300  0.27068300  1
  Cu  Cu49  1  0.48534800  0.82635700  0.70888900  1
  Cu  Cu50  1  0.91403000  0.60031500  0.12028300  1
  Cu  Cu51  1  0.41403000  0.39968500  0.37971700  1
  Cu  Cu52  1  0.11646200  0.62981400  0.89375900  1
  Cu  Cu53  1  0.71035000  0.58346700  0.96575600  1
  Cu  Cu54  1  0.68740900  0.44375700  0.22931700  1
  Cu  Cu55  1  0.90580800  0.31306200  0.46338700  1
