# generated using pymatgen
data_Cu4NiC
_symmetry_space_group_name_H-M   'P 1'
_cell_length_a   6.85033500
_cell_length_b   4.75945800
_cell_length_c   9.89676935
_cell_angle_alpha   82.78185229
_cell_angle_beta   90.00000000
_cell_angle_gamma   90.00000000
_symmetry_Int_Tables_number   1
_chemical_formula_structural   Cu4NiC
_chemical_formula_sum   'Cu16 Ni4 C4'
_cell_volume   320.11589822
_cell_formula_units_Z   4
loop_
 _symmetry_equiv_pos_site_id
 _symmetry_equiv_pos_as_xyz
  1  'x, y, z'
loop_
 _atom_site_type_symbol
 _atom_site_label
 _atom_site_symmetry_multiplicity
 _atom_site_fract_x
 _atom_site_fract_y
 _atom_site_fract_z
 _atom_site_occupancy
  C  C0  1  0.75000000  0.11591300  0.63710000  1
  C  C1  1  0.25000000  0.88408700  0.36290000  1
  C  C2  1  0.25000000  0.85390200  0.82467900  1
  C  C3  1  0.75000000  0.14609800  0.17532100  1
  Ni  Ni4  1  0.75000000  0.64927700  0.92916800  1
  Ni  Ni5  1  0.25000000  0.35072300  0.07083200  1
  Ni  Ni6  1  0.25000000  0.33472000  0.60367200  1
  Ni  Ni7  1  0.75000000  0.66528000  0.39632800  1
  Cu  Cu8  1  0.25000000  0.33969600  0.45596400  1
  Cu  Cu9  1  0.75000000  0.66030400  0.54403600  1
  Cu  Cu10  1  0.25000000  0.63145800  0.63813000  1
  Cu  Cu11  1  0.75000000  0.36854200  0.36187000  1
  Cu  Cu12  1  0.07524600  0.23961000  0.14776200  1
  Cu  Cu13  1  0.57524600  0.76039000  0.85223800  1
  Cu  Cu14  1  0.92475400  0.76039000  0.85223800  1
  Cu  Cu15  1  0.42475400  0.23961000  0.14776200  1
  Cu  Cu16  1  0.75000000  0.33433400  0.94819700  1
  Cu  Cu17  1  0.25000000  0.66566600  0.05180300  1
  Cu  Cu18  1  0.75000000  0.73686000  0.06994700  1
  Cu  Cu19  1  0.25000000  0.26314000  0.93005300  1
  Cu  Cu20  1  0.57853100  0.82362800  0.32921700  1
  Cu  Cu21  1  0.07853100  0.17637200  0.67078300  1
  Cu  Cu22  1  0.42146900  0.17637200  0.67078300  1
  Cu  Cu23  1  0.92146900  0.82362800  0.32921700  1
