# generated using pymatgen
data_Cu3NiC36
_symmetry_space_group_name_H-M   'P 1'
_cell_length_a   8.44118100
_cell_length_b   8.47251886
_cell_length_c   8.63443261
_cell_angle_alpha   62.56437724
_cell_angle_beta   61.75591148
_cell_angle_gamma   62.43535135
_symmetry_Int_Tables_number   1
_chemical_formula_structural   Cu3NiC36
_chemical_formula_sum   'Cu3 Ni1 C36'
_cell_volume   458.55525000
_cell_formula_units_Z   1
loop_
 _symmetry_equiv_pos_site_id
 _symmetry_equiv_pos_as_xyz
  1  'x, y, z'
loop_
 _atom_site_type_symbol
 _atom_site_label
 _atom_site_symmetry_multiplicity
 _atom_site_fract_x
 _atom_site_fract_y
 _atom_site_fract_z
 _atom_site_occupancy
  C  C0  1  0.97607200  0.00772900  0.98683200  1
  C  C1  1  0.24827400  0.64687100  0.85826100  1
  C  C2  1  0.52401000  0.50266300  0.49504900  1
  C  C3  1  0.74517800  0.34879900  0.15645700  1
  C  C4  1  0.34144700  0.16085700  0.73090000  1
  C  C5  1  0.15930000  0.74128700  0.35597700  1
  Ni  Ni6  1  0.14610800  0.14249300  0.14991000  1
  Cu  Cu7  1  0.85491700  0.86219000  0.85157100  1
  Cu  Cu8  1  0.64644700  0.64762700  0.63662200  1
  Cu  Cu9  1  0.35196200  0.35057900  0.35003800  1
  C  C10  1  0.95180000  0.55018100  0.24613600  1
  C  C11  1  0.54788500  0.25271100  0.95091900  1
  C  C12  1  0.25167800  0.94731600  0.55220200  1
  C  C13  1  0.75079400  0.04538900  0.45995900  1
  C  C14  1  0.45650800  0.75007600  0.04062300  1
  C  C15  1  0.04204300  0.46203100  0.74515900  1
  C  C16  1  0.86946300  0.51431000  0.69242800  1
  C  C17  1  0.69446800  0.88565100  0.48634700  1
  C  C18  1  0.95932500  0.72961700  0.07695100  1
  C  C19  1  0.46901400  0.70401900  0.88216300  1
  C  C20  1  0.76064800  0.57050800  0.40367700  1
  C  C21  1  0.98303600  0.38452600  0.19036800  1
  C  C22  1  0.73645500  0.09301200  0.93148400  1
  C  C23  1  0.54776200  0.42075600  0.77128900  1
  C  C24  1  0.41066800  0.75438200  0.57881600  1
  C  C25  1  0.80766700  0.01189200  0.61871700  1
  C  C26  1  0.91444200  0.06638300  0.26534700  1
  C  C27  1  0.62843900  0.80030200  0.99759000  1
  C  C28  1  0.37867000  0.19724300  0.98670200  1
  C  C29  1  0.09347600  0.93026000  0.74524700  1
  C  C30  1  0.19492800  0.96852200  0.39875600  1
  C  C31  1  0.59104100  0.23975400  0.43672300  1
  C  C32  1  0.44130200  0.58826100  0.22911800  1
  C  C33  1  0.26283900  0.91182500  0.07397700  1
  C  C34  1  0.02588200  0.61700200  0.80323400  1
  C  C35  1  0.23281400  0.44238300  0.57901600  1
  C  C36  1  0.51785400  0.30767900  0.11495300  1
  C  C37  1  0.05775400  0.26751800  0.89613100  1
  C  C38  1  0.31203800  0.11219900  0.51658500  1
  C  C39  1  0.11558900  0.51220000  0.30876700  1
