# generated using pymatgen
data_Cu13Ni3C80
_symmetry_space_group_name_H-M   'P 1'
_cell_length_a   5.06372700
_cell_length_b   8.73273661
_cell_length_c   19.55448821
_cell_angle_alpha   98.39642951
_cell_angle_beta   94.94190422
_cell_angle_gamma   90.07561594
_symmetry_Int_Tables_number   1
_chemical_formula_structural   Cu13Ni3C80
_chemical_formula_sum   'Cu13 Ni3 C80'
_cell_volume   852.17011236
_cell_formula_units_Z   1
loop_
 _symmetry_equiv_pos_site_id
 _symmetry_equiv_pos_as_xyz
  1  'x, y, z'
loop_
 _atom_site_type_symbol
 _atom_site_label
 _atom_site_symmetry_multiplicity
 _atom_site_fract_x
 _atom_site_fract_y
 _atom_site_fract_z
 _atom_site_occupancy
  C  C0  1  0.99223000  0.16989500  0.24907000  1
  C  C1  1  0.87314100  0.37510200  0.37564100  1
  C  C2  1  0.74678800  0.25227300  0.00024900  1
  C  C3  1  0.74282500  0.92148300  0.00021800  1
  C  C4  1  0.99131700  0.16999100  0.74979800  1
  C  C5  1  0.75446500  0.57839100  0.50003600  1
  C  C6  1  0.87303900  0.37523100  0.87571100  1
  C  C7  1  0.74200000  0.25313700  0.50045600  1
  C  C8  1  0.74489700  0.92197800  0.50042500  1
  C  C9  1  0.62453700  0.12716000  0.12538600  1
  C  C10  1  0.75403000  0.57872100  0.00003700  1
  C  C11  1  0.51049000  0.33314800  0.24999500  1
  C  C12  1  0.62548800  0.12609500  0.62516600  1
  C  C13  1  0.50224600  0.99960500  0.25047800  1
  C  C14  1  0.48458700  0.66638600  0.24953000  1
  C  C15  1  0.51546200  0.33416400  0.75062200  1
  C  C16  1  0.37435500  0.87387600  0.37474800  1
  C  C17  1  0.50019400  0.99986700  0.75003200  1
  C  C18  1  0.25740600  0.74743100  0.99975000  1
  C  C19  1  0.48523700  0.66594000  0.74941800  1
  C  C20  1  0.24448800  0.42117800  0.00022300  1
  C  C21  1  0.37446500  0.87430700  0.87481800  1
  C  C22  1  0.25495200  0.07791100  0.49935400  1
  C  C23  1  0.25828800  0.74678000  0.49928500  1
  C  C24  1  0.12680100  0.62260400  0.12452300  1
  C  C25  1  0.24571600  0.42134100  0.49976100  1
  C  C26  1  0.00917600  0.83062000  0.25033300  1
  C  C27  1  0.25531200  0.07903400  0.00007700  1
  C  C28  1  0.12590300  0.62447200  0.62433000  1
  C  C29  1  0.00314300  0.49950100  0.24937300  1
  C  C30  1  0.00846400  0.82992100  0.75029900  1
  C  C31  1  0.99964500  0.49988100  0.74999000  1
  Ni  Ni32  1  0.87227500  0.71080100  0.37371200  1
  Ni  Ni33  1  0.87150000  0.71118600  0.87364900  1
  Ni  Ni34  1  0.12762800  0.28888400  0.62546400  1
  Cu  Cu35  1  0.87699200  0.04724200  0.37516700  1
  Cu  Cu36  1  0.87806600  0.04731600  0.87536600  1
  Cu  Cu37  1  0.62409300  0.79727500  0.12463400  1
  Cu  Cu38  1  0.62806000  0.46200600  0.12520800  1
  Cu  Cu39  1  0.62465500  0.79752200  0.62482100  1
  Cu  Cu40  1  0.62657800  0.46234700  0.62510100  1
  Cu  Cu41  1  0.37191100  0.53776200  0.37473000  1
  Cu  Cu42  1  0.37659900  0.20263000  0.37557800  1
  Cu  Cu43  1  0.37064200  0.53849700  0.87485300  1
  Cu  Cu44  1  0.37826800  0.20350400  0.87601000  1
  Cu  Cu45  1  0.12388800  0.95182200  0.12492900  1
  Cu  Cu46  1  0.12764000  0.28764200  0.12550800  1
  Cu  Cu47  1  0.12371300  0.95288400  0.62469300  1
  C  C48  1  0.96740300  0.10464600  0.06976900  1
  C  C49  1  0.93470500  0.78825200  0.06843500  1
  C  C50  1  0.91808000  0.42687500  0.06812600  1
  C  C51  1  0.96362900  0.10305700  0.56865900  1
  C  C52  1  0.81442300  0.96144500  0.18153500  1
  C  C53  1  0.83178300  0.32241000  0.18253800  1
  C  C54  1  0.93637700  0.78775200  0.56877000  1
  C  C55  1  0.92073700  0.42830300  0.56771300  1
  C  C56  1  0.78280500  0.64389000  0.18019500  1
  C  C57  1  0.71272800  0.86007600  0.31846500  1
  C  C58  1  0.81574500  0.96088000  0.68166400  1
  C  C59  1  0.82418800  0.32212600  0.68337400  1
  C  C60  1  0.67337200  0.53357400  0.31878900  1
  C  C61  1  0.68621000  0.17490300  0.31780300  1
  C  C62  1  0.78299800  0.64397700  0.68021200  1
  C  C63  1  0.71231300  0.85987800  0.81853800  1
  C  C64  1  0.46233700  0.61040200  0.06922100  1
  C  C65  1  0.56941400  0.71369800  0.43131500  1
  C  C66  1  0.56557300  0.07565100  0.43270000  1
  C  C67  1  0.67452700  0.53299500  0.81901400  1
  C  C68  1  0.68591600  0.17458300  0.81784200  1
  C  C69  1  0.43614100  0.92503000  0.06745700  1
  C  C70  1  0.42128400  0.28687400  0.06913600  1
  C  C71  1  0.53734100  0.38926500  0.43098400  1
  C  C72  1  0.46480600  0.60898900  0.56932600  1
  C  C73  1  0.56848300  0.71309500  0.93117900  1
  C  C74  1  0.56547800  0.07509200  0.93273700  1
  C  C75  1  0.31612800  0.82627100  0.18251700  1
  C  C76  1  0.32805600  0.46504000  0.18116600  1
  C  C77  1  0.43401200  0.92357200  0.56724300  1
  C  C78  1  0.42896600  0.28496500  0.56831500  1
  C  C79  1  0.53690000  0.38865600  0.93130200  1
  C  C80  1  0.28488500  0.14120600  0.18096000  1
  C  C81  1  0.21735300  0.35750600  0.32026000  1
  C  C82  1  0.31395000  0.82506900  0.68202400  1
  C  C83  1  0.32771300  0.46602000  0.68133500  1
  C  C84  1  0.17417200  0.67860600  0.31621600  1
  C  C85  1  0.18483700  0.03962300  0.31838700  1
  C  C86  1  0.28689200  0.14027600  0.68156200  1
  C  C87  1  0.21666000  0.35914400  0.81993100  1
  C  C88  1  0.08032000  0.57143000  0.43236700  1
  C  C89  1  0.06353100  0.21203200  0.43134100  1
  C  C90  1  0.17335300  0.67924000  0.81617600  1
  C  C91  1  0.18495700  0.04053100  0.81856300  1
  C  C92  1  0.03602500  0.89670200  0.43118900  1
  C  C93  1  0.08030600  0.57100500  0.93239400  1
  C  C94  1  0.06327200  0.21210600  0.93126600  1
  C  C95  1  0.03532500  0.89654100  0.93143800  1
