# generated using pymatgen
data_Cu2NiC36
_symmetry_space_group_name_H-M   'P 1'
_cell_length_a   11.82630786
_cell_length_b   11.82630786
_cell_length_c   9.08027300
_cell_angle_alpha   90.00000000
_cell_angle_beta   90.00000000
_cell_angle_gamma   119.99999922
_symmetry_Int_Tables_number   1
_chemical_formula_structural   Cu2NiC36
_chemical_formula_sum   'Cu6 Ni3 C108'
_cell_volume   1099.83592551
_cell_formula_units_Z   3
loop_
 _symmetry_equiv_pos_site_id
 _symmetry_equiv_pos_as_xyz
  1  'x, y, z'
loop_
 _atom_site_type_symbol
 _atom_site_label
 _atom_site_symmetry_multiplicity
 _atom_site_fract_x
 _atom_site_fract_y
 _atom_site_fract_z
 _atom_site_occupancy
  C  C0  1  0.00000000  0.00000000  0.99737700  1
  C  C1  1  0.66666700  0.33333300  0.05814300  1
  C  C2  1  0.33333300  0.66666700  0.05814300  1
  C  C3  1  0.80107300  0.88672100  0.50239000  1
  C  C4  1  0.08564800  0.19892700  0.50239000  1
  C  C5  1  0.11327900  0.91435200  0.50239000  1
  C  C6  1  0.19892700  0.08564800  0.50239000  1
  C  C7  1  0.88672100  0.80107300  0.50239000  1
  C  C8  1  0.91435200  0.11327900  0.50239000  1
  C  C9  1  0.43463900  0.86654400  0.55194500  1
  C  C10  1  0.43190500  0.56536100  0.55194500  1
  C  C11  1  0.13345600  0.56809500  0.55194500  1
  C  C12  1  0.56536100  0.43190500  0.55194500  1
  C  C13  1  0.86654400  0.43463900  0.55194500  1
  C  C14  1  0.56809500  0.13345600  0.55194500  1
  C  C15  1  0.53124600  0.79384800  0.55554300  1
  C  C16  1  0.26260200  0.46875400  0.55554300  1
  C  C17  1  0.20615200  0.73739800  0.55554300  1
  C  C18  1  0.46875400  0.26260200  0.55554300  1
  C  C19  1  0.79384800  0.53124600  0.55554300  1
  C  C20  1  0.73739800  0.20615200  0.55554300  1
  C  C21  1  0.79061700  0.91814000  0.84083800  1
  C  C22  1  0.12752300  0.20938300  0.84083800  1
  C  C23  1  0.08186000  0.87247700  0.84083800  1
  C  C24  1  0.20938300  0.12752300  0.84083800  1
  C  C25  1  0.91814000  0.79061700  0.84083800  1
  C  C26  1  0.87247700  0.08186000  0.84083800  1
  C  C27  1  0.79505700  0.87472500  0.16572700  1
  C  C28  1  0.07966800  0.20494300  0.16572700  1
  C  C29  1  0.12527500  0.92033200  0.16572700  1
  C  C30  1  0.20494300  0.07966800  0.16572700  1
  C  C31  1  0.87472500  0.79505700  0.16572700  1
  C  C32  1  0.92033200  0.12527500  0.16572700  1
  C  C33  1  0.53515400  0.79084000  0.89099100  1
  C  C34  1  0.25568600  0.46484600  0.89099100  1
  C  C35  1  0.20916000  0.74431400  0.89099100  1
  C  C36  1  0.46484600  0.25568600  0.89099100  1
  C  C37  1  0.79084000  0.53515400  0.89099100  1
  C  C38  1  0.74431400  0.20916000  0.89099100  1
  C  C39  1  0.46089100  0.87756700  0.89751800  1
  C  C40  1  0.41667600  0.53910900  0.89751800  1
  C  C41  1  0.12243300  0.58332400  0.89751800  1
  C  C42  1  0.53910900  0.41667600  0.89751800  1
  C  C43  1  0.87756700  0.46089100  0.89751800  1
  C  C44  1  0.58332400  0.12243300  0.89751800  1
  C  C45  1  0.54372900  0.74491100  0.21207500  1
  C  C46  1  0.20118200  0.45627100  0.21207500  1
  C  C47  1  0.25508900  0.79881800  0.21207500  1
  C  C48  1  0.45627100  0.20118200  0.21207500  1
  C  C49  1  0.74491100  0.54372900  0.21207500  1
  C  C50  1  0.79881800  0.25508900  0.21207500  1
  C  C51  1  0.45576000  0.58149800  0.21721600  1
  C  C52  1  0.12573800  0.54424000  0.21721600  1
  C  C53  1  0.41850200  0.87426200  0.21721600  1
  C  C54  1  0.54424000  0.12573800  0.21721600  1
  C  C55  1  0.58149800  0.45576000  0.21721600  1
  C  C56  1  0.87426200  0.41850200  0.21721600  1
  Ni  Ni57  1  0.00000000  0.00000000  0.50673600  1
  Ni  Ni58  1  0.66666700  0.33333300  0.55358900  1
  Ni  Ni59  1  0.33333300  0.66666700  0.55358900  1
  Cu  Cu60  1  0.34485200  0.00000000  0.75669700  1
  Cu  Cu61  1  0.65514800  0.65514800  0.75669700  1
  Cu  Cu62  1  0.00000000  0.34485200  0.75669700  1
  Cu  Cu63  1  0.68075800  0.00000000  0.31385600  1
  Cu  Cu64  1  0.31924200  0.31924200  0.31385600  1
  Cu  Cu65  1  0.00000000  0.68075800  0.31385600  1
  C  C66  1  0.11298600  0.00000000  0.50752400  1
  C  C67  1  0.88701400  0.88701400  0.50752400  1
  C  C68  1  0.00000000  0.11298600  0.50752400  1
  C  C69  1  0.21605200  0.65692900  0.55333800  1
  C  C70  1  0.44087700  0.78394800  0.55333800  1
  C  C71  1  0.34307100  0.55912300  0.55333800  1
  C  C72  1  0.78394800  0.44087700  0.55333800  1
  C  C73  1  0.65692900  0.21605200  0.55333800  1
  C  C74  1  0.55912300  0.34307100  0.55333800  1
  C  C75  1  0.45171000  0.00000000  0.84725800  1
  C  C76  1  0.54829000  0.54829000  0.84725800  1
  C  C77  1  0.00000000  0.45171000  0.84725800  1
  C  C78  1  0.55616400  0.00000000  0.28398500  1
  C  C79  1  0.44383600  0.44383600  0.28398500  1
  C  C80  1  0.00000000  0.55616400  0.28398500  1
  C  C81  1  0.37302600  0.00000000  0.59749400  1
  C  C82  1  0.62697400  0.62697400  0.59749400  1
  C  C83  1  0.00000000  0.37302600  0.59749400  1
  C  C84  1  0.70320100  0.00000000  0.47400500  1
  C  C85  1  0.29679900  0.29679900  0.47400500  1
  C  C86  1  0.00000000  0.70320100  0.47400500  1
  C  C87  1  0.66086700  0.78095000  0.79564900  1
  C  C88  1  0.12008300  0.33913300  0.79564900  1
  C  C89  1  0.21905000  0.87991700  0.79564900  1
  C  C90  1  0.33913300  0.12008300  0.79564900  1
  C  C91  1  0.78095000  0.66086700  0.79564900  1
  C  C92  1  0.87991700  0.21905000  0.79564900  1
  C  C93  1  0.67344200  0.88125300  0.24445600  1
  C  C94  1  0.20781100  0.32655800  0.24445600  1
  C  C95  1  0.11874700  0.79218900  0.24445600  1
  C  C96  1  0.32655800  0.20781100  0.24445600  1
  C  C97  1  0.88125300  0.67344200  0.24445600  1
  C  C98  1  0.79218900  0.11874700  0.24445600  1
  C  C99  1  0.13412400  0.00000000  0.11573300  1
  C  C100  1  0.86587600  0.86587600  0.11573300  1
  C  C101  1  0.00000000  0.13412400  0.11573300  1
  C  C102  1  0.86698500  0.00000000  0.88070600  1
  C  C103  1  0.13301500  0.13301500  0.88070600  1
  C  C104  1  0.00000000  0.86698500  0.88070600  1
  C  C105  1  0.19799900  0.66502700  0.94173200  1
  C  C106  1  0.46702800  0.80200100  0.94173200  1
  C  C107  1  0.33497300  0.53297200  0.94173200  1
  C  C108  1  0.80200100  0.46702800  0.94173200  1
  C  C109  1  0.66502700  0.19799900  0.94173200  1
  C  C110  1  0.53297200  0.33497300  0.94173200  1
  C  C111  1  0.33633800  0.80027100  0.17602200  1
  C  C112  1  0.46393200  0.66366200  0.17602200  1
  C  C113  1  0.19972900  0.53606800  0.17602200  1
  C  C114  1  0.66366200  0.46393200  0.17602200  1
  C  C115  1  0.80027100  0.33633800  0.17602200  1
  C  C116  1  0.53606800  0.19972900  0.17602200  1
