# generated using pymatgen
data_Cu5Ni5C2
_symmetry_space_group_name_H-M   'P 1'
_cell_length_a   7.69049700
_cell_length_b   9.49134230
_cell_length_c   13.11616445
_cell_angle_alpha   80.62050785
_cell_angle_beta   72.98406802
_cell_angle_gamma   73.58247046
_symmetry_Int_Tables_number   1
_chemical_formula_structural   Cu5Ni5C2
_chemical_formula_sum   'Cu20 Ni20 C8'
_cell_volume   874.78388310
_cell_formula_units_Z   4
loop_
 _symmetry_equiv_pos_site_id
 _symmetry_equiv_pos_as_xyz
  1  'x, y, z'
loop_
 _atom_site_type_symbol
 _atom_site_label
 _atom_site_symmetry_multiplicity
 _atom_site_fract_x
 _atom_site_fract_y
 _atom_site_fract_z
 _atom_site_occupancy
  C  C0  1  0.68149800  0.74664500  0.34507900  1
  C  C1  1  0.31850200  0.25335500  0.65492100  1
  C  C2  1  0.70343800  0.96143500  0.26384800  1
  C  C3  1  0.29656200  0.03856500  0.73615200  1
  C  C4  1  0.64520800  0.75649700  0.17059700  1
  C  C5  1  0.35479200  0.24350300  0.82940300  1
  C  C6  1  0.93592400  0.61366000  0.25006300  1
  C  C7  1  0.06407600  0.38634000  0.74993700  1
  Ni  Ni8  1  0.56625300  0.70237900  0.44936100  1
  Ni  Ni9  1  0.43374700  0.29762100  0.55063900  1
  Ni  Ni10  1  0.83441700  0.08540100  0.15251600  1
  Ni  Ni11  1  0.16558300  0.91459900  0.84748400  1
  Ni  Ni12  1  0.49145200  0.11470600  0.30990100  1
  Ni  Ni13  1  0.50854800  0.88529400  0.69009900  1
  Ni  Ni14  1  0.79082900  0.98448600  0.38066000  1
  Ni  Ni15  1  0.20917100  0.01551400  0.61934000  1
  Ni  Ni16  1  0.64745300  0.77939000  0.02364700  1
  Ni  Ni17  1  0.35254700  0.22061000  0.97635300  1
  Ni  Ni18  1  0.59850900  0.56476900  0.19321100  1
  Ni  Ni19  1  0.40149100  0.43523100  0.80678900  1
  Ni  Ni20  1  0.39175000  0.86992000  0.21242100  1
  Ni  Ni21  1  0.60825000  0.13008000  0.78757900  1
  Ni  Ni22  1  0.95620000  0.41123400  0.28688300  1
  Ni  Ni23  1  0.04380000  0.58876600  0.71311700  1
  Ni  Ni24  1  0.14871700  0.59235500  0.12436800  1
  Ni  Ni25  1  0.85128300  0.40764500  0.87563200  1
  Ni  Ni26  1  0.05950500  0.61087200  0.35704200  1
  Ni  Ni27  1  0.94049500  0.38912800  0.64295800  1
  Cu  Cu28  1  0.47246000  0.66492000  0.53053500  1
  Cu  Cu29  1  0.52754000  0.33508000  0.46946500  1
  Cu  Cu30  1  0.91908700  0.16298900  0.09407300  1
  Cu  Cu31  1  0.08091300  0.83701100  0.90592700  1
  Cu  Cu32  1  0.35281300  0.20465400  0.33758100  1
  Cu  Cu33  1  0.64718700  0.79534600  0.66241900  1
  Cu  Cu34  1  0.83784100  0.99463700  0.45507600  1
  Cu  Cu35  1  0.16215900  0.00536300  0.54492400  1
  Cu  Cu36  1  0.64734100  0.79415600  0.93340700  1
  Cu  Cu37  1  0.35265900  0.20584400  0.06659300  1
  Cu  Cu38  1  0.55213000  0.45463800  0.21745800  1
  Cu  Cu39  1  0.44787000  0.54536200  0.78254200  1
  Cu  Cu40  1  0.23321900  0.92452800  0.24762800  1
  Cu  Cu41  1  0.76678100  0.07547200  0.75237200  1
  Cu  Cu42  1  0.95528900  0.28737500  0.30791500  1
  Cu  Cu43  1  0.04471100  0.71262500  0.69208500  1
  Cu  Cu44  1  0.28640000  0.57984500  0.05566900  1
  Cu  Cu45  1  0.71360000  0.42015500  0.94433100  1
  Cu  Cu46  1  0.13134500  0.60916600  0.42412300  1
  Cu  Cu47  1  0.86865500  0.39083400  0.57587700  1
