# generated using pymatgen
data_Cu7Ni13C63
_symmetry_space_group_name_H-M   'P 1'
_cell_length_a   9.60988700
_cell_length_b   9.61193421
_cell_length_c   13.90189473
_cell_angle_alpha   90.01842219
_cell_angle_beta   89.99240419
_cell_angle_gamma   119.85800694
_symmetry_Int_Tables_number   1
_chemical_formula_structural   Cu7Ni13C63
_chemical_formula_sum   'Cu7 Ni13 C63'
_cell_volume   1113.66172535
_cell_formula_units_Z   1
loop_
 _symmetry_equiv_pos_site_id
 _symmetry_equiv_pos_as_xyz
  1  'x, y, z'
loop_
 _atom_site_type_symbol
 _atom_site_label
 _atom_site_symmetry_multiplicity
 _atom_site_fract_x
 _atom_site_fract_y
 _atom_site_fract_z
 _atom_site_occupancy
  Ni  Ni0  1  0.00897900  0.72566700  0.87629400  1
  Ni  Ni1  1  0.01097200  0.73835000  0.37594100  1
  Ni  Ni2  1  0.71613700  0.98973500  0.87629900  1
  Ni  Ni3  1  0.72527700  0.98771300  0.37603000  1
  Ni  Ni4  1  0.33309800  0.66767300  0.99321900  1
  Ni  Ni5  1  0.33380100  0.67324200  0.49341200  1
  Ni  Ni6  1  0.33304600  0.66752600  0.75818400  1
  Ni  Ni7  1  0.33406100  0.67346900  0.25434700  1
  Ni  Ni8  1  0.27382800  0.28397700  0.87643600  1
  Ni  Ni9  1  0.66737800  0.33363300  0.75528500  1
  Ni  Ni10  1  0.67317300  0.33542700  0.25190600  1
  Ni  Ni11  1  0.67307800  0.33634200  0.49956500  1
  Ni  Ni12  1  0.66757100  0.33377600  0.99681100  1
  Cu  Cu13  1  0.75669800  0.75312500  0.62371000  1
  Cu  Cu14  1  0.76008800  0.75689500  0.12701300  1
  Cu  Cu15  1  0.25996400  0.26764300  0.37437300  1
  Cu  Cu16  1  0.24648000  0.00150600  0.62606400  1
  Cu  Cu17  1  0.24281800  0.00084600  0.12506400  1
  Cu  Cu18  1  0.99374100  0.24315700  0.62476800  1
  Cu  Cu19  1  0.99381800  0.23988500  0.12580800  1
  C  C20  1  0.61016000  0.97305700  0.62531800  1
  C  C21  1  0.60688100  0.97234400  0.12385400  1
  C  C22  1  0.02728700  0.63684500  0.62541400  1
  C  C23  1  0.02798200  0.63419000  0.12366700  1
  C  C24  1  0.64322200  0.61976500  0.87486500  1
  C  C25  1  0.63095000  0.60465200  0.37569200  1
  C  C26  1  0.36382800  0.38911700  0.62435300  1
  C  C27  1  0.36681700  0.39281700  0.12459100  1
  C  C28  1  0.97646900  0.35598700  0.87495800  1
  C  C29  1  0.97387300  0.36580000  0.37589300  1
  C  C30  1  0.37996600  0.02416900  0.87506000  1
  C  C31  1  0.39486900  0.03122300  0.37620300  1
  C  C32  1  0.99824800  0.99880100  0.32842000  1
  C  C33  1  0.08759500  0.74649600  0.54049500  1
  C  C34  1  0.08643100  0.74316000  0.03836400  1
  C  C35  1  0.08514300  0.74332400  0.71185700  1
  C  C36  1  0.08838500  0.74108500  0.20988000  1
  C  C37  1  0.31725200  0.84851800  0.87472600  1
  C  C38  1  0.32255300  0.85486500  0.37400300  1
  C  C39  1  0.43237800  0.90317300  0.62472800  1
  C  C40  1  0.42925800  0.90295000  0.12259700  1
  C  C41  1  0.65882600  0.91468400  0.71143400  1
  C  C42  1  0.65343400  0.91271700  0.21035200  1
  C  C43  1  0.65927200  0.91320800  0.54003000  1
  C  C44  1  0.65710600  0.91317200  0.03880100  1
  C  C45  1  0.09759000  0.52908100  0.62485500  1
  C  C46  1  0.09781800  0.52620100  0.12203200  1
  C  C47  1  0.52997600  0.68264900  0.87468200  1
  C  C48  1  0.52135000  0.67195100  0.37435300  1
  C  C49  1  0.15236100  0.46824400  0.87471800  1
  C  C50  1  0.15327800  0.46663400  0.37375000  1
  C  C51  1  0.46905900  0.56627200  0.62358000  1
  C  C52  1  0.47221800  0.56973500  0.12330700  1
  C  C53  1  0.75008200  0.67818100  0.96122500  1
  C  C54  1  0.74985600  0.67796200  0.78818100  1
  C  C55  1  0.74141200  0.66647300  0.45975300  1
  C  C56  1  0.72559800  0.64202800  0.28536200  1
  C  C57  1  0.25394700  0.33908500  0.70885200  1
  C  C58  1  0.25556600  0.33849600  0.53771400  1
  C  C59  1  0.26167700  0.34530200  0.21255800  1
  C  C60  1  0.25424600  0.34078300  0.04137400  1
  C  C61  1  0.55349500  0.44060500  0.87472900  1
  C  C62  1  0.53523500  0.42476600  0.38400000  1
  C  C63  1  0.84846600  0.54123400  0.62477600  1
  C  C64  1  0.84920900  0.53973000  0.12413600  1
  C  C65  1  0.46000600  0.30640700  0.62442900  1
  C  C66  1  0.46184300  0.30899900  0.12426000  1
  C  C67  1  0.88718900  0.44603000  0.87484500  1
  C  C68  1  0.89660500  0.46543500  0.38633900  1
  C  C69  1  0.32111400  0.07255900  0.96140100  1
  C  C70  1  0.32773100  0.08076300  0.45906100  1
  C  C71  1  0.32110900  0.07275600  0.78860700  1
  C  C72  1  0.35582600  0.09217400  0.28661000  1
  C  C73  1  0.55899100  0.11350000  0.87487700  1
  C  C74  1  0.57205800  0.11272200  0.38584900  1
  C  C75  1  0.69296400  0.15202100  0.62505600  1
  C  C76  1  0.69060000  0.15123800  0.12376100  1
  C  C77  1  0.92795100  0.24892200  0.78845400  1
  C  C78  1  0.92807800  0.24898500  0.96123000  1
  C  C79  1  0.91559300  0.27239000  0.28479000  1
  C  C80  1  0.92691600  0.25259600  0.45912900  1
  C  C81  1  0.00055600  0.00087400  0.62638500  1
  C  C82  1  0.00024100  0.00051000  0.10389600  1
