# generated using pymatgen
data_Cu(NiC3)3
_symmetry_space_group_name_H-M   'P 1'
_cell_length_a   7.98608800
_cell_length_b   8.59639500
_cell_length_c   33.67320559
_cell_angle_alpha   88.08005920
_cell_angle_beta   90.00000000
_cell_angle_gamma   90.00000000
_symmetry_Int_Tables_number   1
_chemical_formula_structural   Cu(NiC3)3
_chemical_formula_sum   'Cu4 Ni12 C36'
_cell_volume   2310.42056700
_cell_formula_units_Z   4
loop_
 _symmetry_equiv_pos_site_id
 _symmetry_equiv_pos_as_xyz
  1  'x, y, z'
loop_
 _atom_site_type_symbol
 _atom_site_label
 _atom_site_symmetry_multiplicity
 _atom_site_fract_x
 _atom_site_fract_y
 _atom_site_fract_z
 _atom_site_occupancy
  Ni  Ni0  1  0.97039300  0.68099600  0.93319800  1
  Ni  Ni1  1  0.00225100  0.70746300  0.69174400  1
  Ni  Ni2  1  0.02960700  0.68099600  0.43319800  1
  Ni  Ni3  1  0.99774900  0.70746300  0.19174400  1
  Ni  Ni4  1  0.98556800  0.31716200  0.57063300  1
  Ni  Ni5  1  0.98177900  0.28529200  0.80832200  1
  Ni  Ni6  1  0.01443200  0.31716200  0.07063300  1
  Ni  Ni7  1  0.01822100  0.28529200  0.30832200  1
  Ni  Ni8  1  0.52898200  0.21613100  0.69197100  1
  Ni  Ni9  1  0.51851600  0.17787500  0.93039200  1
  Ni  Ni10  1  0.47101800  0.21613100  0.19197100  1
  Ni  Ni11  1  0.48148400  0.17787500  0.43039200  1
  Cu  Cu12  1  0.51687300  0.80009900  0.80631300  1
  Cu  Cu13  1  0.54503900  0.82564300  0.56622700  1
  Cu  Cu14  1  0.48312700  0.80009900  0.30631300  1
  Cu  Cu15  1  0.45496100  0.82564300  0.06622700  1
  C  C16  1  0.79472900  0.97514600  0.86746800  1
  C  C17  1  0.81205400  0.97931900  0.75372300  1
  C  C18  1  0.80709300  0.98730400  0.62613800  1
  C  C19  1  0.20527100  0.97514600  0.36746800  1
  C  C20  1  0.18794600  0.97931900  0.25372300  1
  C  C21  1  0.69807700  0.88765700  0.99526400  1
  C  C22  1  0.19290700  0.98730400  0.12613800  1
  C  C23  1  0.33653700  0.84457800  0.89089400  1
  C  C24  1  0.30192300  0.88765700  0.49526400  1
  C  C25  1  0.40094000  0.84012300  0.70855800  1
  C  C26  1  0.66346300  0.84457800  0.39089400  1
  C  C27  1  0.59906000  0.84012300  0.20855800  1
  C  C28  1  0.17310600  0.64868900  0.79650600  1
  C  C29  1  0.22302500  0.65501200  0.59831500  1
  C  C30  1  0.82689400  0.64868900  0.29650600  1
  C  C31  1  0.77697500  0.65501200  0.09831500  1
  C  C32  1  0.73538800  0.59505500  0.51290300  1
  C  C33  1  0.67365700  0.51523400  0.86571700  1
  C  C34  1  0.68784700  0.52051300  0.75332100  1
  C  C35  1  0.69480900  0.53187700  0.62748300  1
  C  C36  1  0.26461200  0.59505500  0.01290300  1
  C  C37  1  0.32634300  0.51523400  0.36571700  1
  C  C38  1  0.31215300  0.52051300  0.25332100  1
  C  C39  1  0.30519100  0.53187700  0.12748300  1
  C  C40  1  0.76332000  0.39758700  0.99026600  1
  C  C41  1  0.23668000  0.39758700  0.49026600  1
  C  C42  1  0.14912800  0.34226400  0.90113500  1
  C  C43  1  0.10737000  0.31909500  0.69839800  1
  C  C44  1  0.85087200  0.34226400  0.40113500  1
  C  C45  1  0.89263000  0.31909500  0.19839800  1
  C  C46  1  0.39520100  0.13970600  0.79797200  1
  C  C47  1  0.35912000  0.11763800  0.59784300  1
  C  C48  1  0.60479900  0.13970600  0.29797200  1
  C  C49  1  0.64088000  0.11763800  0.09784300  1
  C  C50  1  0.75198000  0.06180800  0.51110900  1
  C  C51  1  0.24802000  0.06180800  0.01110900  1
