# generated using pymatgen
data_Cu10Ni4C13
_symmetry_space_group_name_H-M   'P 1'
_cell_length_a   10.51898100
_cell_length_b   8.30276900
_cell_length_c   15.79618623
_cell_angle_alpha   85.35952739
_cell_angle_beta   90.00000000
_cell_angle_gamma   90.00000000
_symmetry_Int_Tables_number   1
_chemical_formula_structural   Cu10Ni4C13
_chemical_formula_sum   'Cu40 Ni16 C52'
_cell_volume   1375.06398107
_cell_formula_units_Z   4
loop_
 _symmetry_equiv_pos_site_id
 _symmetry_equiv_pos_as_xyz
  1  'x, y, z'
loop_
 _atom_site_type_symbol
 _atom_site_label
 _atom_site_symmetry_multiplicity
 _atom_site_fract_x
 _atom_site_fract_y
 _atom_site_fract_z
 _atom_site_occupancy
  C  C0  1  0.57102500  0.87789400  0.25222500  1
  C  C1  1  0.07102500  0.62210600  0.74777500  1
  C  C2  1  0.42897500  0.12210600  0.74777500  1
  C  C3  1  0.92897500  0.37789400  0.25222500  1
  C  C4  1  0.90463700  0.96866400  0.15039700  1
  C  C5  1  0.40463700  0.53133600  0.84960300  1
  C  C6  1  0.09536300  0.03133600  0.84960300  1
  C  C7  1  0.59536300  0.46866400  0.15039700  1
  C  C8  1  0.68511900  0.18738800  0.41424500  1
  C  C9  1  0.18511900  0.31261200  0.58575500  1
  C  C10  1  0.31488100  0.81261200  0.58575500  1
  C  C11  1  0.81488100  0.68738800  0.41424500  1
  C  C12  1  0.34633400  0.48676700  0.40678300  1
  C  C13  1  0.84633400  0.01323300  0.59321700  1
  C  C14  1  0.65366600  0.51323300  0.59321700  1
  C  C15  1  0.15366600  0.98676700  0.40678300  1
  C  C16  1  0.48413400  0.59083400  0.37501800  1
  C  C17  1  0.98413400  0.90916600  0.62498200  1
  C  C18  1  0.51586600  0.40916600  0.62498200  1
  C  C19  1  0.01586600  0.09083400  0.37501800  1
  C  C20  1  0.14933800  0.57260800  0.35463500  1
  C  C21  1  0.64933800  0.92739200  0.64536500  1
  C  C22  1  0.85066200  0.42739200  0.64536500  1
  C  C23  1  0.35066200  0.07260800  0.35463500  1
  C  C24  1  0.13906300  0.74680900  0.28394900  1
  C  C25  1  0.63906300  0.75319100  0.71605100  1
  C  C26  1  0.86093700  0.25319100  0.71605100  1
  C  C27  1  0.36093700  0.24680900  0.28394900  1
  C  C28  1  0.34449900  0.17253100  0.98452200  1
  C  C29  1  0.84449900  0.32746900  0.01547800  1
  C  C30  1  0.65550100  0.82746900  0.01547800  1
  C  C31  1  0.15550100  0.67253100  0.98452200  1
  C  C32  1  0.49567700  0.23886400  0.01039100  1
  C  C33  1  0.99567700  0.26113600  0.98960900  1
  C  C34  1  0.50432300  0.76113600  0.98960900  1
  C  C35  1  0.00432300  0.73886400  0.01039100  1
  C  C36  1  0.24479900  0.97361000  0.06968900  1
  C  C37  1  0.74479900  0.52639000  0.93031100  1
  C  C38  1  0.75520100  0.02639000  0.93031100  1
  C  C39  1  0.25520100  0.47361000  0.06968900  1
  C  C40  1  0.31647600  0.88675400  0.16196700  1
  C  C41  1  0.81647600  0.61324600  0.83803300  1
  C  C42  1  0.68352400  0.11324600  0.83803300  1
  C  C43  1  0.18352400  0.38675400  0.16196700  1
  C  C44  1  0.31858000  0.68633700  0.32309600  1
  C  C45  1  0.81858000  0.81366300  0.67690400  1
  C  C46  1  0.68142000  0.31366300  0.67690400  1
  C  C47  1  0.18142000  0.18633700  0.32309600  1
  C  C48  1  0.42320200  0.06136700  0.09442900  1
  C  C49  1  0.92320200  0.43863300  0.90557100  1
  C  C50  1  0.57679800  0.93863300  0.90557100  1
  C  C51  1  0.07679800  0.56136700  0.09442900  1
  Ni  Ni52  1  0.38871700  0.57622900  0.36903600  1
  Ni  Ni53  1  0.88871700  0.92377100  0.63096400  1
  Ni  Ni54  1  0.61128300  0.42377100  0.63096400  1
  Ni  Ni55  1  0.11128300  0.07622900  0.36903600  1
  Ni  Ni56  1  0.19129400  0.67111800  0.32410000  1
  Ni  Ni57  1  0.69129400  0.82888200  0.67590000  1
  Ni  Ni58  1  0.80870600  0.32888200  0.67590000  1
  Ni  Ni59  1  0.30870600  0.17111800  0.32410000  1
  Ni  Ni60  1  0.41844800  0.16985700  0.02583900  1
  Ni  Ni61  1  0.91844800  0.33014300  0.97416100  1
  Ni  Ni62  1  0.58155200  0.83014300  0.97416100  1
  Ni  Ni63  1  0.08155200  0.66985700  0.02583900  1
  Ni  Ni64  1  0.32256400  0.96174000  0.10753900  1
  Ni  Ni65  1  0.82256400  0.53826000  0.89246100  1
  Ni  Ni66  1  0.67743600  0.03826000  0.89246100  1
  Ni  Ni67  1  0.17743600  0.46174000  0.10753900  1
  Cu  Cu68  1  0.79051700  0.89194700  0.22459900  1
  Cu  Cu69  1  0.29051700  0.60805300  0.77540100  1
  Cu  Cu70  1  0.20948300  0.10805300  0.77540100  1
  Cu  Cu71  1  0.70948300  0.39194700  0.22459900  1
  Cu  Cu72  1  0.90937100  0.18151600  0.15062100  1
  Cu  Cu73  1  0.40937100  0.31848400  0.84937900  1
  Cu  Cu74  1  0.09062900  0.81848400  0.84937900  1
  Cu  Cu75  1  0.59062900  0.68151600  0.15062100  1
  Cu  Cu76  1  0.86533600  0.91802400  0.04783500  1
  Cu  Cu77  1  0.36533600  0.58197600  0.95216500  1
  Cu  Cu78  1  0.13466400  0.08197600  0.95216500  1
  Cu  Cu79  1  0.63466400  0.41802400  0.04783500  1
  Cu  Cu80  1  0.05346100  0.89275500  0.18035700  1
  Cu  Cu81  1  0.55346100  0.60724500  0.81964300  1
  Cu  Cu82  1  0.94653900  0.10724500  0.81964300  1
  Cu  Cu83  1  0.44653900  0.39275500  0.18035700  1
  Cu  Cu84  1  0.58890500  0.06968200  0.35095700  1
  Cu  Cu85  1  0.08890500  0.43031800  0.64904300  1
  Cu  Cu86  1  0.41109500  0.93031800  0.64904300  1
  Cu  Cu87  1  0.91109500  0.56968200  0.35095700  1
  Cu  Cu88  1  0.83892200  0.21615300  0.37040000  1
  Cu  Cu89  1  0.33892200  0.28384700  0.62960000  1
  Cu  Cu90  1  0.16107800  0.78384700  0.62960000  1
  Cu  Cu91  1  0.66107800  0.71615300  0.37040000  1
  Cu  Cu92  1  0.69589100  0.09053200  0.51659000  1
  Cu  Cu93  1  0.19589100  0.40946800  0.48341000  1
  Cu  Cu94  1  0.30410900  0.90946800  0.48341000  1
  Cu  Cu95  1  0.80410900  0.59053200  0.51659000  1
  Cu  Cu96  1  0.61302300  0.37369300  0.42236900  1
  Cu  Cu97  1  0.11302300  0.12630700  0.57763100  1
  Cu  Cu98  1  0.38697700  0.62630700  0.57763100  1
  Cu  Cu99  1  0.88697700  0.87369300  0.42236900  1
  Cu  Cu100  1  0.36857100  0.80628000  0.27790300  1
  Cu  Cu101  1  0.86857100  0.69372000  0.72209700  1
  Cu  Cu102  1  0.63142900  0.19372000  0.72209700  1
  Cu  Cu103  1  0.13142900  0.30628000  0.27790300  1
  Cu  Cu104  1  0.52084400  0.05718200  0.14270200  1
  Cu  Cu105  1  0.02084400  0.44281800  0.85729800  1
  Cu  Cu106  1  0.47915600  0.94281800  0.85729800  1
  Cu  Cu107  1  0.97915600  0.55718200  0.14270200  1
