# generated using pymatgen
data_Cu4Ni2C11
_symmetry_space_group_name_H-M   'P 1'
_cell_length_a   10.49325311
_cell_length_b   12.95089943
_cell_length_c   12.95089943
_cell_angle_alpha   74.61603477
_cell_angle_beta   66.32716233
_cell_angle_gamma   66.32716233
_symmetry_Int_Tables_number   1
_chemical_formula_structural   Cu4Ni2C11
_chemical_formula_sum   'Cu32 Ni16 C88'
_cell_volume   1464.84833073
_cell_formula_units_Z   8
loop_
 _symmetry_equiv_pos_site_id
 _symmetry_equiv_pos_as_xyz
  1  'x, y, z'
loop_
 _atom_site_type_symbol
 _atom_site_label
 _atom_site_symmetry_multiplicity
 _atom_site_fract_x
 _atom_site_fract_y
 _atom_site_fract_z
 _atom_site_occupancy
  C  C0  1  0.59158026  0.98632229  0.86336710  1
  C  C1  1  0.90841974  0.13663290  0.01367771  1
  C  C2  1  0.40841974  0.01367771  0.13663290  1
  C  C3  1  0.09158026  0.86336710  0.98632229  1
  C  C4  1  0.90643223  0.00950277  0.65192576  1
  C  C5  1  0.59356777  0.34807424  0.99049723  1
  C  C6  1  0.09356777  0.99049723  0.34807424  1
  C  C7  1  0.40643223  0.65192576  0.00950277  1
  C  C8  1  0.75000000  0.29652722  0.70347278  1
  C  C9  1  0.25000000  0.70347278  0.29652722  1
  C  C10  1  0.25000000  0.18770316  0.81229684  1
  C  C11  1  0.75000000  0.81229684  0.18770316  1
  C  C12  1  0.74817520  0.69196940  0.80455931  1
  C  C13  1  0.75182480  0.19544069  0.30803060  1
  C  C14  1  0.25182480  0.30803060  0.19544069  1
  C  C15  1  0.24817520  0.80455931  0.69196940  1
  Ni  Ni16  1  0.42336299  0.89331708  0.81497520  1
  Ni  Ni17  1  0.07663701  0.18502480  0.10668292  1
  Ni  Ni18  1  0.57663701  0.10668292  0.18502480  1
  Ni  Ni19  1  0.92336299  0.81497520  0.89331708  1
  Ni  Ni20  1  0.04887093  0.07471868  0.75417735  1
  Ni  Ni21  1  0.45112907  0.24582265  0.92528132  1
  Ni  Ni22  1  0.95112907  0.92528132  0.24582265  1
  Ni  Ni23  1  0.54887093  0.75417735  0.07471868  1
  Ni  Ni24  1  0.96914485  0.24144626  0.41433741  1
  Ni  Ni25  1  0.53085515  0.58566259  0.75855374  1
  Ni  Ni26  1  0.03085515  0.75855374  0.58566259  1
  Ni  Ni27  1  0.46914485  0.41433741  0.24144626  1
  Ni  Ni28  1  0.58316389  0.18407718  0.62211834  1
  Ni  Ni29  1  0.91683611  0.37788166  0.81592282  1
  Ni  Ni30  1  0.41683611  0.81592282  0.37788166  1
  Ni  Ni31  1  0.08316389  0.62211834  0.18407718  1
  Cu  Cu32  1  0.29108273  0.10005632  0.55270761  1
  Cu  Cu33  1  0.20891727  0.44729239  0.89994368  1
  Cu  Cu34  1  0.70891727  0.89994368  0.44729239  1
  Cu  Cu35  1  0.79108273  0.55270761  0.10005632  1
  Cu  Cu36  1  0.25175992  0.15641109  0.43198195  1
  Cu  Cu37  1  0.24824008  0.56801805  0.84358891  1
  Cu  Cu38  1  0.74824008  0.84358891  0.56801805  1
  Cu  Cu39  1  0.75175992  0.43198195  0.15641109  1
  Cu  Cu40  1  0.49261703  0.12196466  0.36967181  1
  Cu  Cu41  1  0.00738297  0.63032819  0.87803534  1
  Cu  Cu42  1  0.50738297  0.87803534  0.63032819  1
  Cu  Cu43  1  0.99261703  0.36967181  0.12196466  1
  Cu  Cu44  1  0.30387585  0.93532985  0.50660221  1
  Cu  Cu45  1  0.19612415  0.49339779  0.06467015  1
  Cu  Cu46  1  0.69612415  0.06467015  0.49339779  1
  Cu  Cu47  1  0.80387585  0.50660221  0.93532985  1
  Cu  Cu48  1  0.83246779  0.71770933  0.43740469  1
  Cu  Cu49  1  0.66753221  0.56259531  0.28229067  1
  Cu  Cu50  1  0.16753221  0.28229067  0.56259531  1
  Cu  Cu51  1  0.33246779  0.43740469  0.71770933  1
  Cu  Cu52  1  0.94449260  0.36637783  0.51356546  1
  Cu  Cu53  1  0.55550740  0.48643454  0.63362217  1
  Cu  Cu54  1  0.05550740  0.63362217  0.48643454  1
  Cu  Cu55  1  0.44449260  0.51356546  0.36637783  1
  Cu  Cu56  1  0.65722915  0.74815694  0.44607046  1
  Cu  Cu57  1  0.84277085  0.55392954  0.25184306  1
  Cu  Cu58  1  0.34277085  0.25184306  0.55392954  1
  Cu  Cu59  1  0.15722915  0.44607046  0.74815694  1
  Cu  Cu60  1  0.70898866  0.68511110  0.57080606  1
  Cu  Cu61  1  0.79101134  0.42919394  0.31488890  1
  Cu  Cu62  1  0.29101134  0.31488890  0.42919394  1
  Cu  Cu63  1  0.20898866  0.57080606  0.68511110  1
  C  C64  1  0.31944818  0.14848777  0.47536299  1
  C  C65  1  0.18055182  0.52463701  0.85151223  1
  C  C66  1  0.68055182  0.85151223  0.52463701  1
  C  C67  1  0.81944818  0.47536299  0.14848777  1
  C  C68  1  0.72541745  0.73972170  0.49343842  1
  C  C69  1  0.77458255  0.50656158  0.26027830  1
  C  C70  1  0.27458255  0.26027830  0.50656158  1
  C  C71  1  0.22541745  0.49343842  0.73972170  1
  C  C72  1  0.59068244  0.85345592  0.79649402  1
  C  C73  1  0.90931756  0.20350598  0.14654408  1
  C  C74  1  0.40931756  0.14654408  0.20350598  1
  C  C75  1  0.09068244  0.79649402  0.85345592  1
  C  C76  1  0.36739150  0.01565669  0.83736024  1
  C  C77  1  0.13260850  0.16263976  0.98434331  1
  C  C78  1  0.63260850  0.98434331  0.16263976  1
  C  C79  1  0.86739150  0.83736024  0.01565669  1
  C  C80  1  0.33561641  0.81938928  0.90597402  1
  C  C81  1  0.16438359  0.09402598  0.18061072  1
  C  C82  1  0.66438359  0.18061072  0.09402598  1
  C  C83  1  0.83561641  0.90597402  0.81938928  1
  C  C84  1  0.41095339  0.88455780  0.69697529  1
  C  C85  1  0.08904661  0.30302471  0.11544220  1
  C  C86  1  0.58904661  0.11544220  0.30302471  1
  C  C87  1  0.91095339  0.69697529  0.88455780  1
  C  C88  1  0.11826552  0.97409340  0.68059862  1
  C  C89  1  0.38173448  0.31940138  0.02590660  1
  C  C90  1  0.88173448  0.02590660  0.31940138  1
  C  C91  1  0.61826552  0.68059862  0.97409340  1
  C  C92  1  0.89997311  0.13733116  0.72805477  1
  C  C93  1  0.60002689  0.27194523  0.86266884  1
  C  C94  1  0.10002689  0.86266884  0.27194523  1
  C  C95  1  0.39997311  0.72805477  0.13733116  1
  C  C96  1  0.01322641  0.03342116  0.88465562  1
  C  C97  1  0.48677359  0.11534438  0.96657884  1
  C  C98  1  0.98677359  0.96657884  0.11534438  1
  C  C99  1  0.51322641  0.88465562  0.03342116  1
  C  C100  1  0.14871276  0.14657900  0.71555343  1
  C  C101  1  0.35128724  0.28444657  0.85342100  1
  C  C102  1  0.85128724  0.85342100  0.28444657  1
  C  C103  1  0.64871276  0.71555343  0.14657900  1
  C  C104  1  0.00232188  0.11369426  0.46099055  1
  C  C105  1  0.49767812  0.53900945  0.88630574  1
  C  C106  1  -0.00232188  0.88630574  0.53900945  1
  C  C107  1  0.50232188  0.46099055  0.11369426  1
  C  C108  1  0.10874000  0.27286071  0.34992946  1
  C  C109  1  0.39126000  0.65007054  0.72713929  1
  C  C110  1  0.89126000  0.72713929  0.65007054  1
  C  C111  1  0.60874000  0.34992946  0.27286071  1
  C  C112  1  0.89559711  0.31250437  0.52468538  1
  C  C113  1  0.60440289  0.47531462  0.68749563  1
  C  C114  1  0.10440289  0.68749563  0.47531462  1
  C  C115  1  0.39559711  0.52468538  0.31250437  1
  C  C116  1  0.85528000  0.28501321  0.35486936  1
  C  C117  1  0.64472000  0.64513064  0.71498679  1
  C  C118  1  0.14472000  0.71498679  0.64513064  1
  C  C119  1  0.35528000  0.35486936  0.28501321  1
  C  C120  1  0.66362305  0.07762962  0.69063317  1
  C  C121  1  0.83637695  0.30936683  0.92237038  1
  C  C122  1  0.33637695  0.92237038  0.30936683  1
  C  C123  1  0.16362305  0.69063317  0.07762962  1
  C  C124  1  0.65821293  0.14685552  0.49198172  1
  C  C125  1  0.84178707  0.50801828  0.85314448  1
  C  C126  1  0.34178707  0.85314448  0.50801828  1
  C  C127  1  0.15821293  0.49198172  0.14685552  1
  C  C128  1  0.61771914  0.28891231  0.61565313  1
  C  C129  1  0.88228086  0.38434687  0.71108769  1
  C  C130  1  0.38228086  0.71108769  0.38434687  1
  C  C131  1  0.11771914  0.61565313  0.28891231  1
  C  C132  1  0.41912742  0.20653082  0.64877732  1
  C  C133  1  0.08087258  0.35122268  0.79346918  1
  C  C134  1  0.58087258  0.79346918  0.35122268  1
  C  C135  1  0.91912742  0.64877732  0.20653082  1
