# generated using pymatgen
data_Cu11NiC6
_symmetry_space_group_name_H-M   'P 1'
_cell_length_a   5.83781750
_cell_length_b   5.83781750
_cell_length_c   7.50707481
_cell_angle_alpha   73.92788423
_cell_angle_beta   73.92788423
_cell_angle_gamma   71.67692815
_symmetry_Int_Tables_number   1
_chemical_formula_structural   Cu11NiC6
_chemical_formula_sum   'Cu11 Ni1 C6'
_cell_volume   228.26924566
_cell_formula_units_Z   1
loop_
 _symmetry_equiv_pos_site_id
 _symmetry_equiv_pos_as_xyz
  1  'x, y, z'
loop_
 _atom_site_type_symbol
 _atom_site_label
 _atom_site_symmetry_multiplicity
 _atom_site_fract_x
 _atom_site_fract_y
 _atom_site_fract_z
 _atom_site_occupancy
  C  C0  1  0.33109500  0.33109500  0.16320800  1
  C  C1  1  0.66363600  0.66363600  0.34571500  1
  C  C2  1  0.35367500  0.35367500  0.66564500  1
  C  C3  1  0.66056200  0.66056200  0.82799700  1
  C  C4  1  0.00300600  0.00300600  0.50262400  1
  C  C5  1  0.99660600  0.99660600  0.99817500  1
  Ni  Ni6  1  0.55471100  0.55471100  0.63901500  1
  Cu  Cu7  1  0.96584800  0.36398100  0.32486300  1
  Cu  Cu8  1  0.63133400  0.04173400  0.66862800  1
  Cu  Cu9  1  0.11957100  0.11957100  0.68983300  1
  Cu  Cu10  1  0.76240600  0.76240600  0.03239800  1
  Cu  Cu11  1  0.41852200  0.41852200  0.37932300  1
  Cu  Cu12  1  0.24080700  0.24080700  0.94953500  1
  Cu  Cu13  1  0.89934400  0.89934400  0.30387700  1
  Cu  Cu14  1  0.04173400  0.63133400  0.66862800  1
  Cu  Cu15  1  0.36398100  0.96584800  0.32486300  1
  Cu  Cu16  1  0.70123600  0.29192600  0.00783600  1
  Cu  Cu17  1  0.29192600  0.70123600  0.00783600  1
