# generated using pymatgen
data_CuNiC
_symmetry_space_group_name_H-M   'P 1'
_cell_length_a   3.09815500
_cell_length_b   9.45686100
_cell_length_c   14.19824090
_cell_angle_alpha   89.77559813
_cell_angle_beta   90.00000000
_cell_angle_gamma   90.00000000
_symmetry_Int_Tables_number   1
_chemical_formula_structural   CuNiC
_chemical_formula_sum   'Cu12 Ni12 C12'
_cell_volume   415.98853072
_cell_formula_units_Z   12
loop_
 _symmetry_equiv_pos_site_id
 _symmetry_equiv_pos_as_xyz
  1  'x, y, z'
loop_
 _atom_site_type_symbol
 _atom_site_label
 _atom_site_symmetry_multiplicity
 _atom_site_fract_x
 _atom_site_fract_y
 _atom_site_fract_z
 _atom_site_occupancy
  C  C0  1  0.00000000  0.00277300  0.99979500  1
  C  C1  1  0.00000000  0.49640800  0.99179100  1
  C  C2  1  0.50000000  0.28004600  0.83327800  1
  C  C3  1  0.50000000  0.75030000  0.85256500  1
  C  C4  1  0.00000000  0.00490000  0.66241900  1
  C  C5  1  0.00000000  0.48781800  0.66071900  1
  C  C6  1  0.50000000  0.75389900  0.47903700  1
  C  C7  1  0.50000000  0.24620600  0.51105300  1
  C  C8  1  0.00000000  0.98995300  0.32438700  1
  C  C9  1  0.00000000  0.51440900  0.33392800  1
  C  C10  1  0.50000000  0.22081900  0.16913900  1
  C  C11  1  0.50000000  0.74514300  0.18098200  1
  Ni  Ni12  1  0.50000000  0.39896700  0.94167300  1
  Ni  Ni13  1  0.50000000  0.90918100  0.93185600  1
  Ni  Ni14  1  0.00000000  0.64970800  0.89832000  1
  Ni  Ni15  1  0.00000000  0.35097600  0.76510100  1
  Ni  Ni16  1  0.50000000  0.40819000  0.59522600  1
  Ni  Ni17  1  0.00000000  0.14692100  0.57030400  1
  Ni  Ni18  1  0.00000000  0.85564100  0.43714200  1
  Ni  Ni19  1  0.50000000  0.58824400  0.40095000  1
  Ni  Ni20  1  0.50000000  0.89925300  0.26792500  1
  Ni  Ni21  1  0.00000000  0.15253300  0.23638300  1
  Ni  Ni22  1  0.00000000  0.64696100  0.23011300  1
  Ni  Ni23  1  0.50000000  0.09890700  0.06152000  1
  Cu  Cu24  1  0.00000000  0.15489300  0.88878300  1
  Cu  Cu25  1  0.00000000  0.85210800  0.76140600  1
  Cu  Cu26  1  0.50000000  0.09163800  0.73345400  1
  Cu  Cu27  1  0.50000000  0.60619900  0.72701600  1
  Cu  Cu28  1  0.50000000  0.90033200  0.60498300  1
  Cu  Cu29  1  0.00000000  0.66330400  0.56841300  1
  Cu  Cu30  1  0.00000000  0.33603900  0.43372900  1
  Cu  Cu31  1  0.50000000  0.10261200  0.40268300  1
  Cu  Cu32  1  0.50000000  0.39930500  0.27007900  1
  Cu  Cu33  1  0.00000000  0.35575600  0.10710700  1
  Cu  Cu34  1  0.00000000  0.83982700  0.10017700  1
  Cu  Cu35  1  0.50000000  0.59983000  0.06656600  1
