# generated using pymatgen
data_CuNi16C11
_symmetry_space_group_name_H-M   'P 1'
_cell_length_a   9.90943796
_cell_length_b   9.90943796
_cell_length_c   29.41626800
_cell_angle_alpha   90.00000000
_cell_angle_beta   90.00000000
_cell_angle_gamma   119.99999974
_symmetry_Int_Tables_number   1
_chemical_formula_structural   CuNi16C11
_chemical_formula_sum   'Cu6 Ni96 C66'
_cell_volume   2501.59069328
_cell_formula_units_Z   6
loop_
 _symmetry_equiv_pos_site_id
 _symmetry_equiv_pos_as_xyz
  1  'x, y, z'
loop_
 _atom_site_type_symbol
 _atom_site_label
 _atom_site_symmetry_multiplicity
 _atom_site_fract_x
 _atom_site_fract_y
 _atom_site_fract_z
 _atom_site_occupancy
  C  C0  1  0.25980400  0.98814800  0.06261200  1
  C  C1  1  0.24297900  0.99176500  0.56164400  1
  C  C2  1  0.23864600  0.99302000  0.31342100  1
  C  C3  1  0.24322000  0.99174500  0.81169300  1
  C  C4  1  0.01185200  0.27165600  0.06261200  1
  C  C5  1  0.00698000  0.24562500  0.31342100  1
  C  C6  1  0.00823500  0.25121400  0.56164400  1
  C  C7  1  0.00825500  0.25147500  0.81169300  1
  C  C8  1  0.33333300  0.66666700  0.12643300  1
  C  C9  1  0.33333300  0.66666700  0.37517000  1
  C  C10  1  0.33333300  0.66666700  0.25085000  1
  C  C11  1  0.33333300  0.66666700  0.62474400  1
  C  C12  1  0.33333300  0.66666700  0.49931200  1
  C  C13  1  0.33333300  0.66666700  0.87472200  1
  C  C14  1  0.33333300  0.66666700  0.74913600  1
  C  C15  1  0.33333300  0.66666700  0.99942600  1
  C  C16  1  0.26649700  0.25461500  0.18723200  1
  C  C17  1  0.24977800  0.24163500  0.43647000  1
  C  C18  1  0.25146500  0.24321800  0.68668800  1
  C  C19  1  0.25105200  0.24289500  0.93705500  1
  C  C20  1  0.72834400  0.74019600  0.06261200  1
  C  C21  1  0.74852500  0.75678000  0.81169300  1
  C  C22  1  0.75437500  0.76135400  0.31342100  1
  C  C23  1  0.74878600  0.75702100  0.56164400  1
  C  C24  1  0.66666700  0.33333300  0.99769700  1
  C  C25  1  0.66666700  0.33333300  0.12446600  1
  C  C26  1  0.66666700  0.33333300  0.25196000  1
  C  C27  1  0.66666700  0.33333300  0.50002100  1
  C  C28  1  0.66666700  0.33333300  0.37532000  1
  C  C29  1  0.66666700  0.33333300  0.87372100  1
  C  C30  1  0.66666700  0.33333300  0.74964900  1
  C  C31  1  0.66666700  0.33333300  0.62415700  1
  C  C32  1  0.98811800  0.73350300  0.18723200  1
  C  C33  1  0.99185800  0.75022200  0.43647000  1
  C  C34  1  0.99175300  0.74853500  0.68668800  1
  C  C35  1  0.99184400  0.74894800  0.93705500  1
  C  C36  1  0.74538500  0.01188200  0.18723200  1
  C  C37  1  0.75836500  0.00814200  0.43647000  1
  C  C38  1  0.75678200  0.00824700  0.68668800  1
  C  C39  1  0.75710500  0.00815600  0.93705500  1
  C  C40  1  0.03537800  0.40620200  0.18764100  1
  C  C41  1  0.02965300  0.39857000  0.43779400  1
  C  C42  1  0.02934200  0.39777700  0.68760600  1
  C  C43  1  0.02962400  0.39754900  0.93744700  1
  C  C44  1  0.37082400  0.96462200  0.18764100  1
  C  C45  1  0.36891700  0.97034700  0.43779400  1
  C  C46  1  0.36843500  0.97065800  0.68760600  1
  C  C47  1  0.36792500  0.97037600  0.93744700  1
  C  C48  1  0.39827800  0.36544000  0.06174900  1
  C  C49  1  0.40441000  0.37330900  0.31295700  1
  C  C50  1  0.39771000  0.36841100  0.56256500  1
  C  C51  1  0.39771300  0.36841600  0.81263700  1
  C  C52  1  0.59379800  0.62917600  0.18764100  1
  C  C53  1  0.60143000  0.63108300  0.43779400  1
  C  C54  1  0.60222300  0.63156500  0.68760600  1
  C  C55  1  0.60245100  0.63207500  0.93744700  1
  C  C56  1  0.63456000  0.03283800  0.06174900  1
  C  C57  1  0.62669100  0.03110200  0.31295700  1
  C  C58  1  0.63158900  0.02930000  0.56256500  1
  C  C59  1  0.63158400  0.02929700  0.81263700  1
  C  C60  1  0.96716200  0.60172200  0.06174900  1
  C  C61  1  0.96889800  0.59559000  0.31295700  1
  C  C62  1  0.97070000  0.60229000  0.56256500  1
  C  C63  1  0.97070300  0.60228700  0.81263700  1
  C  C64  1  0.00000000  0.00000000  0.11118000  1
  C  C65  1  0.00000000  0.00000000  0.23692400  1
  Ni  Ni66  1  0.26499500  0.91307600  0.14464300  1
  Ni  Ni67  1  0.26814900  0.91027900  0.23081900  1
  Ni  Ni68  1  0.26221600  0.91891700  0.39499800  1
  Ni  Ni69  1  0.26153300  0.91964700  0.64488200  1
  Ni  Ni70  1  0.26211800  0.91823400  0.73053800  1
  Ni  Ni71  1  0.26226300  0.91760600  0.48058700  1
  Ni  Ni72  1  0.26111300  0.91890800  0.89472300  1
  Ni  Ni73  1  0.26142100  0.91754700  0.98032600  1
  Ni  Ni74  1  0.14714600  0.66790400  0.06279500  1
  Ni  Ni75  1  0.14942500  0.66879800  0.31287800  1
  Ni  Ni76  1  0.15084700  0.67082400  0.56281800  1
  Ni  Ni77  1  0.15085300  0.67074700  0.81285700  1
  Ni  Ni78  1  0.12324000  0.58829300  0.18653700  1
  Ni  Ni79  1  0.11710500  0.58063900  0.43761500  1
  Ni  Ni80  1  0.11731800  0.57991900  0.68749600  1
  Ni  Ni81  1  0.11665400  0.57962800  0.93764200  1
  Ni  Ni82  1  0.08692400  0.35191900  0.14464300  1
  Ni  Ni83  1  0.08108300  0.34329900  0.39499800  1
  Ni  Ni84  1  0.08972100  0.35787100  0.23081900  1
  Ni  Ni85  1  0.08035300  0.34188600  0.64488200  1
  Ni  Ni86  1  0.08239400  0.34465700  0.48058700  1
  Ni  Ni87  1  0.08109200  0.34220500  0.89472300  1
  Ni  Ni88  1  0.08176600  0.34388400  0.73053800  1
  Ni  Ni89  1  0.08245300  0.34387400  0.98032600  1
  Ni  Ni90  1  0.46353400  0.88289500  0.43761500  1
  Ni  Ni91  1  0.46505300  0.87676000  0.18653700  1
  Ni  Ni92  1  0.46297300  0.88334600  0.93764200  1
  Ni  Ni93  1  0.46260100  0.88268200  0.68749600  1
  Ni  Ni94  1  0.33209600  0.47924300  0.06279500  1
  Ni  Ni95  1  0.33120200  0.48062700  0.31287800  1
  Ni  Ni96  1  0.32917600  0.48002300  0.56281800  1
  Ni  Ni97  1  0.32925300  0.48010600  0.81285700  1
  Ni  Ni98  1  0.52075700  0.85285400  0.06279500  1
  Ni  Ni99  1  0.51937300  0.85057500  0.31287800  1
  Ni  Ni100  1  0.51989400  0.84914700  0.81285700  1
  Ni  Ni101  1  0.51997700  0.84915300  0.56281800  1
  Ni  Ni102  1  0.41170700  0.53494700  0.18653700  1
  Ni  Ni103  1  0.41936100  0.53646600  0.43761500  1
  Ni  Ni104  1  0.42008100  0.53739900  0.68749600  1
  Ni  Ni105  1  0.42037200  0.53702700  0.93764200  1
  Ni  Ni106  1  0.36587900  0.27079500  0.10645100  1
  Ni  Ni107  1  0.32534200  0.24976300  0.02135100  1
  Ni  Ni108  1  0.34751600  0.26432800  0.35517100  1
  Ni  Ni109  1  0.35742600  0.27036600  0.26931900  1
  Ni  Ni110  1  0.34192500  0.26163700  0.51981600  1
  Ni  Ni111  1  0.34382700  0.26203000  0.60548800  1
  Ni  Ni112  1  0.34192300  0.26167500  0.76986500  1
  Ni  Ni113  1  0.34383700  0.26204200  0.85554500  1
  Ni  Ni114  1  0.64808100  0.73500500  0.14464300  1
  Ni  Ni115  1  0.64212900  0.73185100  0.23081900  1
  Ni  Ni116  1  0.65670100  0.73778400  0.39499800  1
  Ni  Ni117  1  0.65534300  0.73773700  0.48058700  1
  Ni  Ni118  1  0.65811400  0.73846700  0.64488200  1
  Ni  Ni119  1  0.65611600  0.73788200  0.73053800  1
  Ni  Ni120  1  0.65779500  0.73888700  0.89472300  1
  Ni  Ni121  1  0.65612600  0.73857900  0.98032600  1
  Ni  Ni122  1  0.57938000  0.45896700  0.05635500  1
  Ni  Ni123  1  0.58621400  0.46964400  0.31420900  1
  Ni  Ni124  1  0.57989700  0.46262800  0.56248400  1
  Ni  Ni125  1  0.57988500  0.46259600  0.81247300  1
  Ni  Ni126  1  0.48280200  0.14500600  0.18727700  1
  Ni  Ni127  1  0.47980200  0.15059900  0.43800300  1
  Ni  Ni128  1  0.48003200  0.15082100  0.68780600  1
  Ni  Ni129  1  0.47876000  0.15059200  0.93739800  1
  Ni  Ni130  1  0.66220400  0.51719800  0.18727700  1
  Ni  Ni131  1  0.67079700  0.52019800  0.43800300  1
  Ni  Ni132  1  0.67079000  0.51996800  0.68780600  1
  Ni  Ni133  1  0.67183200  0.52124000  0.93739800  1
  Ni  Ni134  1  0.54103300  0.12041300  0.05635500  1
  Ni  Ni135  1  0.53035600  0.11656900  0.31420900  1
  Ni  Ni136  1  0.53740400  0.11728900  0.81247300  1
  Ni  Ni137  1  0.53737200  0.11726900  0.56248400  1
  Ni  Ni138  1  0.92442100  0.67465800  0.02135100  1
  Ni  Ni139  1  0.91294000  0.64257400  0.26931900  1
  Ni  Ni140  1  0.90491700  0.63412100  0.10645100  1
  Ni  Ni141  1  0.91975200  0.65807700  0.76986500  1
  Ni  Ni142  1  0.91681200  0.65248400  0.35517100  1
  Ni  Ni143  1  0.91971200  0.65807500  0.51981600  1
  Ni  Ni144  1  0.91820200  0.65617300  0.60548800  1
  Ni  Ni145  1  0.91820600  0.65616300  0.85554500  1
  Ni  Ni146  1  0.87958700  0.42062000  0.05635500  1
  Ni  Ni147  1  0.88343100  0.41378600  0.31420900  1
  Ni  Ni148  1  0.88273100  0.42010300  0.56248400  1
  Ni  Ni149  1  0.88271100  0.42011500  0.81247300  1
  Ni  Ni150  1  0.85499400  0.33779600  0.18727700  1
  Ni  Ni151  1  0.84940100  0.32920300  0.43800300  1
  Ni  Ni152  1  0.84940800  0.32816800  0.93739800  1
  Ni  Ni153  1  0.84917900  0.32921000  0.68780600  1
  Ni  Ni154  1  0.75023700  0.07557900  0.02135100  1
  Ni  Ni155  1  0.72920500  0.09508300  0.10645100  1
  Ni  Ni156  1  0.72963400  0.08706000  0.26931900  1
  Ni  Ni157  1  0.73836300  0.08028800  0.51981600  1
  Ni  Ni158  1  0.73567200  0.08318800  0.35517100  1
  Ni  Ni159  1  0.73797000  0.08179800  0.60548800  1
  Ni  Ni160  1  0.73832500  0.08024800  0.76986500  1
  Ni  Ni161  1  0.73795800  0.08179400  0.85554500  1
  Cu  Cu162  1  0.00000000  0.00000000  0.44244600  1
  Cu  Cu163  1  0.00000000  0.00000000  0.33778500  1
  Cu  Cu164  1  0.00000000  0.00000000  0.56347700  1
  Cu  Cu165  1  0.00000000  0.00000000  0.68826400  1
  Cu  Cu166  1  0.00000000  0.00000000  0.81336100  1
  Cu  Cu167  1  0.00000000  0.00000000  0.93964600  1
