# generated using pymatgen
data_Cu12Ni2C13
_symmetry_space_group_name_H-M   'P 1'
_cell_length_a   12.69511100
_cell_length_b   6.23985900
_cell_length_c   6.60187951
_cell_angle_alpha   86.15404209
_cell_angle_beta   90.00000000
_cell_angle_gamma   90.00000000
_symmetry_Int_Tables_number   1
_chemical_formula_structural   Cu12Ni2C13
_chemical_formula_sum   'Cu24 Ni4 C26'
_cell_volume   521.79478381
_cell_formula_units_Z   2
loop_
 _symmetry_equiv_pos_site_id
 _symmetry_equiv_pos_as_xyz
  1  'x, y, z'
loop_
 _atom_site_type_symbol
 _atom_site_label
 _atom_site_symmetry_multiplicity
 _atom_site_fract_x
 _atom_site_fract_y
 _atom_site_fract_z
 _atom_site_occupancy
  C  C0  1  0.50000000  0.00000000  0.50000000  1
  C  C1  1  0.00000000  0.00000000  0.00000000  1
  C  C2  1  0.71415300  0.92779000  0.50992500  1
  C  C3  1  0.21415300  0.07221000  0.99007500  1
  C  C4  1  0.28584700  0.07221000  0.49007500  1
  C  C5  1  0.78584700  0.92779000  0.00992500  1
  C  C6  1  0.69089300  0.18149400  0.48244600  1
  C  C7  1  0.19089300  0.81850600  0.01755400  1
  C  C8  1  0.30910700  0.81850600  0.51755400  1
  C  C9  1  0.80910700  0.18149400  0.98244600  1
  C  C10  1  0.48431800  0.63314500  0.76537200  1
  C  C11  1  0.98431800  0.36685500  0.73462800  1
  C  C12  1  0.51568200  0.36685500  0.23462800  1
  C  C13  1  0.01568200  0.63314500  0.26537200  1
  C  C14  1  0.57946400  0.59970400  0.61260600  1
  C  C15  1  0.07946400  0.40029600  0.88739400  1
  C  C16  1  0.42053600  0.40029600  0.38739400  1
  C  C17  1  0.92053600  0.59970400  0.11260600  1
  C  C18  1  0.56317800  0.80617700  0.15936500  1
  C  C19  1  0.06317800  0.19382300  0.34063500  1
  C  C20  1  0.43682200  0.19382300  0.84063500  1
  C  C21  1  0.93682200  0.80617700  0.65936500  1
  C  C22  1  0.43870200  0.80311100  0.14617800  1
  C  C23  1  0.93870200  0.19688900  0.35382200  1
  C  C24  1  0.56129800  0.19688900  0.85382200  1
  C  C25  1  0.06129800  0.80311100  0.64617800  1
  Ni  Ni26  1  0.79657900  0.52934400  0.54355100  1
  Ni  Ni27  1  0.29657900  0.47065600  0.95644900  1
  Ni  Ni28  1  0.20342100  0.47065600  0.45644900  1
  Ni  Ni29  1  0.70342100  0.52934400  0.04355100  1
  Cu  Cu30  1  0.66082400  0.03706700  0.46798100  1
  Cu  Cu31  1  0.16082400  0.96293300  0.03201900  1
  Cu  Cu32  1  0.33917600  0.96293300  0.53201900  1
  Cu  Cu33  1  0.83917600  0.03706700  0.96798100  1
  Cu  Cu34  1  0.52349600  0.69825600  0.64892000  1
  Cu  Cu35  1  0.02349600  0.30174400  0.85108000  1
  Cu  Cu36  1  0.47650400  0.30174400  0.35108000  1
  Cu  Cu37  1  0.97650400  0.69825600  0.14892000  1
  Cu  Cu38  1  0.49780500  0.85605600  0.22331000  1
  Cu  Cu39  1  0.99780500  0.14394400  0.27669000  1
  Cu  Cu40  1  0.50219500  0.14394400  0.77669000  1
  Cu  Cu41  1  0.00219500  0.85605600  0.72331000  1
  Cu  Cu42  1  0.70357700  0.46111400  0.51503900  1
  Cu  Cu43  1  0.20357700  0.53888600  0.98496100  1
  Cu  Cu44  1  0.29642300  0.53888600  0.48496100  1
  Cu  Cu45  1  0.79642300  0.46111400  0.01503900  1
  Cu  Cu46  1  0.81055200  0.72403500  0.58188200  1
  Cu  Cu47  1  0.31055200  0.27596500  0.91811800  1
  Cu  Cu48  1  0.18944800  0.27596500  0.41811800  1
  Cu  Cu49  1  0.68944800  0.72403500  0.08188200  1
  Cu  Cu50  1  0.87418600  0.40395800  0.53351600  1
  Cu  Cu51  1  0.37418600  0.59604200  0.96648400  1
  Cu  Cu52  1  0.12581400  0.59604200  0.46648400  1
  Cu  Cu53  1  0.62581400  0.40395800  0.03351600  1
