# generated using pymatgen
data_Cu9NiC30
_symmetry_space_group_name_H-M   'P 1'
_cell_length_a   5.00636700
_cell_length_b   7.61160649
_cell_length_c   9.81125426
_cell_angle_alpha   80.21382430
_cell_angle_beta   84.88144065
_cell_angle_gamma   71.29662188
_symmetry_Int_Tables_number   1
_chemical_formula_structural   Cu9NiC30
_chemical_formula_sum   'Cu9 Ni1 C30'
_cell_volume   348.73447103
_cell_formula_units_Z   1
loop_
 _symmetry_equiv_pos_site_id
 _symmetry_equiv_pos_as_xyz
  1  'x, y, z'
loop_
 _atom_site_type_symbol
 _atom_site_label
 _atom_site_symmetry_multiplicity
 _atom_site_fract_x
 _atom_site_fract_y
 _atom_site_fract_z
 _atom_site_occupancy
  C  C0  1  0.60013000  0.79800400  0.99731000  1
  C  C1  1  0.30235700  0.90084400  0.50443300  1
  C  C2  1  0.89658500  0.69822300  0.50045600  1
  C  C3  1  0.00322900  0.00293200  0.99788400  1
  C  C4  1  0.19958100  0.59988200  0.99880500  1
  C  C5  1  0.50689000  0.50134500  0.50351500  1
  C  C6  1  0.79846100  0.40392300  0.99768000  1
  C  C7  1  0.09651700  0.29812900  0.50112600  1
  C  C8  1  0.69082200  0.09998700  0.50340700  1
  C  C9  1  0.40447700  0.19691700  0.99554400  1
  Ni  Ni10  1  0.94881300  0.85153600  0.74993400  1
  Cu  Cu11  1  0.65059100  0.94794900  0.25026700  1
  Cu  Cu12  1  0.25167800  0.74844000  0.24834600  1
  Cu  Cu13  1  0.85381800  0.54939900  0.24901100  1
  Cu  Cu14  1  0.45379600  0.34698500  0.25061900  1
  Cu  Cu15  1  0.04806700  0.15407200  0.25232000  1
  Cu  Cu16  1  0.54843500  0.65029500  0.74991600  1
  Cu  Cu17  1  0.15047200  0.44959100  0.74956100  1
  Cu  Cu18  1  0.75115300  0.25029500  0.75021700  1
  Cu  Cu19  1  0.35108000  0.04865300  0.75030900  1
  C  C20  1  0.96957500  0.93218600  0.36680200  1
  C  C21  1  0.61976700  0.87223500  0.64260200  1
  C  C22  1  0.32375100  0.97172000  0.13344700  1
  C  C23  1  0.27891800  0.82646100  0.85757800  1
  C  C24  1  0.92547200  0.76658500  0.13330300  1
  C  C25  1  0.86513100  0.63298900  0.85990300  1
  C  C26  1  0.59201900  0.71817100  0.36180300  1
  C  C27  1  0.22555700  0.67719100  0.63797500  1
  C  C28  1  0.81475800  0.47443800  0.63944100  1
  C  C29  1  0.54301300  0.57189200  0.13751000  1
  C  C30  1  0.48443100  0.42660600  0.86071300  1
  C  C31  1  0.17175500  0.52740000  0.36246900  1
  C  C32  1  0.77212200  0.33802500  0.36575500  1
  C  C33  1  0.43513100  0.26458000  0.64104200  1
  C  C34  1  0.07742400  0.22161600  0.85975700  1
  C  C35  1  0.11307500  0.37388900  0.13537800  1
  C  C36  1  0.67290900  0.03027800  0.85710200  1
  C  C37  1  0.71023300  0.17724100  0.13176000  1
  C  C38  1  0.37290000  0.12406900  0.37109400  1
  C  C39  1  0.02512600  0.07503000  0.64391100  1
