# generated using pymatgen
data_CuNiC6
_symmetry_space_group_name_H-M   'P 1'
_cell_length_a   5.30138500
_cell_length_b   10.37409800
_cell_length_c   13.81865500
_cell_angle_alpha   90.00000000
_cell_angle_beta   90.00000000
_cell_angle_gamma   90.00000000
_symmetry_Int_Tables_number   1
_chemical_formula_structural   CuNiC6
_chemical_formula_sum   'Cu8 Ni8 C48'
_cell_volume   759.98577852
_cell_formula_units_Z   8
loop_
 _symmetry_equiv_pos_site_id
 _symmetry_equiv_pos_as_xyz
  1  'x, y, z'
loop_
 _atom_site_type_symbol
 _atom_site_label
 _atom_site_symmetry_multiplicity
 _atom_site_fract_x
 _atom_site_fract_y
 _atom_site_fract_z
 _atom_site_occupancy
  C  C0  1  0.00680200  0.97240100  0.55512600  1
  C  C1  1  0.50150100  0.97610300  0.94580900  1
  C  C2  1  0.87797200  0.20824500  0.21014400  1
  C  C3  1  0.37198100  0.20710300  0.28875000  1
  C  C4  1  0.87797200  0.29175500  0.71014400  1
  C  C5  1  0.37198100  0.29289700  0.78875000  1
  C  C6  1  0.50150100  0.52389700  0.44580900  1
  C  C7  1  0.00680200  0.52759900  0.05512600  1
  C  C8  1  0.49849900  0.47610300  0.94580900  1
  C  C9  1  0.99319800  0.47240100  0.55512600  1
  C  C10  1  0.62801900  0.70710300  0.28875000  1
  C  C11  1  0.12202800  0.70824500  0.21014400  1
  C  C12  1  0.62801900  0.79289700  0.78875000  1
  C  C13  1  0.12202800  0.79175500  0.71014400  1
  C  C14  1  0.99319800  0.02759900  0.05512600  1
  C  C15  1  0.49849900  0.02389700  0.44580900  1
  Ni  Ni16  1  0.00495300  0.03254200  0.80953200  1
  Ni  Ni17  1  0.49404700  0.21400200  0.06481200  1
  Ni  Ni18  1  0.49404700  0.28599800  0.56481200  1
  Ni  Ni19  1  0.00495300  0.46745800  0.30953200  1
  Ni  Ni20  1  0.99504700  0.53254200  0.80953200  1
  Ni  Ni21  1  0.50595300  0.71400200  0.06481200  1
  Ni  Ni22  1  0.50595300  0.78599800  0.56481200  1
  Ni  Ni23  1  0.99504700  0.96745800  0.30953200  1
  Cu  Cu24  1  0.50402300  0.03257200  0.68902400  1
  Cu  Cu25  1  0.99506000  0.21383700  0.43677200  1
  Cu  Cu26  1  0.99506000  0.28616300  0.93677200  1
  Cu  Cu27  1  0.50402300  0.46742800  0.18902400  1
  Cu  Cu28  1  0.49597700  0.53257200  0.68902400  1
  Cu  Cu29  1  0.00494000  0.71383700  0.43677200  1
  Cu  Cu30  1  0.00494000  0.78616300  0.93677200  1
  Cu  Cu31  1  0.49597700  0.96742800  0.18902400  1
  C  C32  1  0.31946500  0.01780700  0.30412000  1
  C  C33  1  0.84126400  0.02020900  0.20060800  1
  C  C34  1  0.35218700  0.06088500  0.08450900  1
  C  C35  1  0.85935800  0.04846400  0.41062300  1
  C  C36  1  0.05688600  0.20288500  0.81412100  1
  C  C37  1  0.55637500  0.21502100  0.68084900  1
  C  C38  1  0.30965100  0.17701100  0.49689100  1
  C  C39  1  0.78627400  0.17594800  0.00877300  1
  C  C40  1  0.30965100  0.32298900  0.99689100  1
  C  C41  1  0.78627400  0.32405200  0.50877300  1
  C  C42  1  0.55637500  0.28497900  0.18084900  1
  C  C43  1  0.05688600  0.29711500  0.31412100  1
  C  C44  1  0.35218700  0.43911500  0.58450900  1
  C  C45  1  0.85935800  0.45153600  0.91062300  1
  C  C46  1  0.31946500  0.48219300  0.80412000  1
  C  C47  1  0.84126400  0.47979100  0.70060800  1
  C  C48  1  0.15873600  0.52020900  0.20060800  1
  C  C49  1  0.68053500  0.51780700  0.30412000  1
  C  C50  1  0.14064200  0.54846400  0.41062300  1
  C  C51  1  0.64781300  0.56088500  0.08450900  1
  C  C52  1  0.44362500  0.71502100  0.68084900  1
  C  C53  1  0.94311400  0.70288500  0.81412100  1
  C  C54  1  0.21372600  0.67594800  0.00877300  1
  C  C55  1  0.69034900  0.67701100  0.49689100  1
  C  C56  1  0.21372600  0.82405200  0.50877300  1
  C  C57  1  0.69034900  0.82298900  0.99689100  1
  C  C58  1  0.44362500  0.78497900  0.18084900  1
  C  C59  1  0.94311400  0.79711500  0.31412100  1
  C  C60  1  0.14064200  0.95153600  0.91062300  1
  C  C61  1  0.64781300  0.93911500  0.58450900  1
  C  C62  1  0.15873600  0.97979100  0.70060800  1
  C  C63  1  0.68053500  0.98219300  0.80412000  1
