# generated using pymatgen
data_Cu19(NiC8)2
_symmetry_space_group_name_H-M   'P 1'
_cell_length_a   6.91562900
_cell_length_b   11.44715100
_cell_length_c   21.09466600
_cell_angle_alpha   90.00000000
_cell_angle_beta   90.00000000
_cell_angle_gamma   90.00000000
_symmetry_Int_Tables_number   1
_chemical_formula_structural   Cu19(NiC8)2
_chemical_formula_sum   'Cu76 Ni8 C64'
_cell_volume   1669.94340072
_cell_formula_units_Z   4
loop_
 _symmetry_equiv_pos_site_id
 _symmetry_equiv_pos_as_xyz
  1  'x, y, z'
loop_
 _atom_site_type_symbol
 _atom_site_label
 _atom_site_symmetry_multiplicity
 _atom_site_fract_x
 _atom_site_fract_y
 _atom_site_fract_z
 _atom_site_occupancy
  C  C0  1  0.19168800  0.00026800  0.42077500  1
  C  C1  1  0.80831200  0.50026800  0.57922500  1
  C  C2  1  0.19168800  0.50026800  0.07922500  1
  C  C3  1  0.80831200  0.00026800  0.92077500  1
  C  C4  1  0.70241900  0.61245900  0.29835400  1
  C  C5  1  0.29758100  0.11245900  0.70164600  1
  C  C6  1  0.70241900  0.11245900  0.20164600  1
  C  C7  1  0.29758100  0.61245900  0.79835400  1
  C  C8  1  0.47853400  0.46156000  0.20761200  1
  C  C9  1  0.52146600  0.96156000  0.79238800  1
  C  C10  1  0.47853400  0.96156000  0.29238800  1
  C  C11  1  0.52146600  0.46156000  0.70761200  1
  C  C12  1  0.38532300  0.41392100  0.27334800  1
  C  C13  1  0.61467700  0.91392100  0.72665200  1
  C  C14  1  0.38532300  0.91392100  0.22665200  1
  C  C15  1  0.61467700  0.41392100  0.77334800  1
  C  C16  1  0.39738900  0.18127100  0.50463600  1
  C  C17  1  0.60261100  0.68127100  0.49536400  1
  C  C18  1  0.39738900  0.68127100  0.99536400  1
  C  C19  1  0.60261100  0.18127100  0.00463600  1
  C  C20  1  0.53964200  0.16399600  0.44637600  1
  C  C21  1  0.46035800  0.66399600  0.55362400  1
  C  C22  1  0.53964200  0.66399600  0.05362400  1
  C  C23  1  0.46035800  0.16399600  0.94637600  1
  C  C24  1  0.19706500  0.25792400  0.31397700  1
  C  C25  1  0.80293500  0.75792400  0.68602300  1
  C  C26  1  0.19706500  0.75792400  0.18602300  1
  C  C27  1  0.80293500  0.25792400  0.81397700  1
  C  C28  1  0.23175300  0.36577200  0.35872300  1
  C  C29  1  0.76824700  0.86577200  0.64127700  1
  C  C30  1  0.23175300  0.86577200  0.14127700  1
  C  C31  1  0.76824700  0.36577200  0.85872300  1
  C  C32  1  0.96386800  0.14837400  0.52113000  1
  C  C33  1  0.03613200  0.64837400  0.47887000  1
  C  C34  1  0.96386800  0.64837400  0.97887000  1
  C  C35  1  0.03613200  0.14837400  0.02113000  1
  C  C36  1  0.91660700  0.18411000  0.44990300  1
  C  C37  1  0.08339300  0.68411000  0.55009700  1
  C  C38  1  0.91660700  0.68411000  0.05009700  1
  C  C39  1  0.08339300  0.18411000  0.94990300  1
  C  C40  1  0.84341800  0.39539100  0.22781100  1
  C  C41  1  0.15658200  0.89539100  0.77218900  1
  C  C42  1  0.84341800  0.89539100  0.27218900  1
  C  C43  1  0.15658200  0.39539100  0.72781100  1
  C  C44  1  0.00728900  0.40585700  0.28214200  1
  C  C45  1  0.99271100  0.90585700  0.71785800  1
  C  C46  1  0.00728900  0.90585700  0.21785800  1
  C  C47  1  0.99271100  0.40585700  0.78214200  1
  C  C48  1  0.30237100  0.37692100  0.46791100  1
  C  C49  1  0.69762900  0.87692100  0.53208900  1
  C  C50  1  0.30237100  0.87692100  0.03208900  1
  C  C51  1  0.69762900  0.37692100  0.96791100  1
  C  C52  1  0.26382400  0.49457600  0.42908300  1
  C  C53  1  0.73617600  0.99457600  0.57091700  1
  C  C54  1  0.26382400  0.99457600  0.07091700  1
  C  C55  1  0.73617600  0.49457600  0.92908300  1
  C  C56  1  0.73434100  0.82148900  0.07167600  1
  C  C57  1  0.26565900  0.32148900  0.92832400  1
  C  C58  1  0.73434100  0.32148900  0.42832400  1
  C  C59  1  0.26565900  0.82148900  0.57167600  1
  C  C60  1  0.72587800  0.73933600  0.13371000  1
  C  C61  1  0.27412200  0.23933600  0.86629000  1
  C  C62  1  0.72587800  0.23933600  0.36629000  1
  C  C63  1  0.27412200  0.73933600  0.63371000  1
  Ni  Ni64  1  0.68859300  0.88562400  0.39656200  1
  Ni  Ni65  1  0.31140700  0.38562400  0.60343800  1
  Ni  Ni66  1  0.68859300  0.38562400  0.10343800  1
  Ni  Ni67  1  0.31140700  0.88562400  0.89656200  1
  Ni  Ni68  1  0.19408100  0.70362300  0.34987100  1
  Ni  Ni69  1  0.80591900  0.20362300  0.65012900  1
  Ni  Ni70  1  0.19408100  0.20362300  0.15012900  1
  Ni  Ni71  1  0.80591900  0.70362300  0.84987100  1
  Cu  Cu72  1  0.18161500  0.10094500  0.35464300  1
  Cu  Cu73  1  0.81838500  0.60094500  0.64535700  1
  Cu  Cu74  1  0.18161500  0.60094500  0.14535700  1
  Cu  Cu75  1  0.81838500  0.10094500  0.85464300  1
  Cu  Cu76  1  0.19929300  0.90747100  0.48980300  1
  Cu  Cu77  1  0.80070700  0.40747100  0.51019700  1
  Cu  Cu78  1  0.19929300  0.40747100  0.01019700  1
  Cu  Cu79  1  0.80070700  0.90747100  0.98980300  1
  Cu  Cu80  1  0.70395700  0.54966600  0.37636200  1
  Cu  Cu81  1  0.29604300  0.04966600  0.62363800  1
  Cu  Cu82  1  0.70395700  0.04966600  0.12363800  1
  Cu  Cu83  1  0.29604300  0.54966600  0.87636200  1
  Cu  Cu84  1  0.70382100  0.67623000  0.21975800  1
  Cu  Cu85  1  0.29617900  0.17623000  0.78024200  1
  Cu  Cu86  1  0.70382100  0.17623000  0.28024200  1
  Cu  Cu87  1  0.29617900  0.67623000  0.71975800  1
  Cu  Cu88  1  0.51434000  0.95789000  0.37916200  1
  Cu  Cu89  1  0.48566000  0.45789000  0.62083800  1
  Cu  Cu90  1  0.51434000  0.45789000  0.12083800  1
  Cu  Cu91  1  0.48566000  0.95789000  0.87916200  1
  Cu  Cu92  1  0.73505000  0.81165500  0.33983800  1
  Cu  Cu93  1  0.26495000  0.31165500  0.66016200  1
  Cu  Cu94  1  0.73505000  0.31165500  0.16016200  1
  Cu  Cu95  1  0.26495000  0.81165500  0.83983800  1
  Cu  Cu96  1  0.65094400  0.81438500  0.45273700  1
  Cu  Cu97  1  0.34905600  0.31438500  0.54726300  1
  Cu  Cu98  1  0.65094400  0.31438500  0.04726300  1
  Cu  Cu99  1  0.34905600  0.81438500  0.95273700  1
  Cu  Cu100  1  0.85184100  0.96744500  0.40715500  1
  Cu  Cu101  1  0.14815900  0.46744500  0.59284500  1
  Cu  Cu102  1  0.85184100  0.46744500  0.09284500  1
  Cu  Cu103  1  0.14815900  0.96744500  0.90715500  1
  Cu  Cu104  1  0.38310500  0.68317600  0.31800000  1
  Cu  Cu105  1  0.61689500  0.18317600  0.68200000  1
  Cu  Cu106  1  0.38310500  0.18317600  0.18200000  1
  Cu  Cu107  1  0.61689500  0.68317600  0.81800000  1
  Cu  Cu108  1  0.03873100  0.65966500  0.30691600  1
  Cu  Cu109  1  0.96126900  0.15966500  0.69308400  1
  Cu  Cu110  1  0.03873100  0.15966500  0.19308400  1
  Cu  Cu111  1  0.96126900  0.65966500  0.80691600  1
  Cu  Cu112  1  0.18635500  0.64609500  0.41191300  1
  Cu  Cu113  1  0.81364500  0.14609500  0.58808700  1
  Cu  Cu114  1  0.18635500  0.14609500  0.08808700  1
  Cu  Cu115  1  0.81364500  0.64609500  0.91191300  1
  Cu  Cu116  1  0.16780600  0.83305400  0.35640900  1
  Cu  Cu117  1  0.83219400  0.33305400  0.64359100  1
  Cu  Cu118  1  0.16780600  0.33305400  0.14359100  1
  Cu  Cu119  1  0.83219400  0.83305400  0.85640900  1
  Cu  Cu120  1  0.48491200  0.46755400  0.25429500  1
  Cu  Cu121  1  0.51508800  0.96755400  0.74570500  1
  Cu  Cu122  1  0.48491200  0.96755400  0.24570500  1
  Cu  Cu123  1  0.51508800  0.46755400  0.75429500  1
  Cu  Cu124  1  0.43222500  0.12659200  0.47036600  1
  Cu  Cu125  1  0.56777500  0.62659200  0.52963400  1
  Cu  Cu126  1  0.43222500  0.62659200  0.02963400  1
  Cu  Cu127  1  0.56777500  0.12659200  0.97036600  1
  Cu  Cu128  1  0.20413800  0.34365100  0.31272500  1
  Cu  Cu129  1  0.79586200  0.84365100  0.68727500  1
  Cu  Cu130  1  0.20413800  0.84365100  0.18727500  1
  Cu  Cu131  1  0.79586200  0.34365100  0.81272500  1
  Cu  Cu132  1  0.01936300  0.14831600  0.47770100  1
  Cu  Cu133  1  0.98063700  0.64831600  0.52229900  1
  Cu  Cu134  1  0.01936300  0.64831600  0.02229900  1
  Cu  Cu135  1  0.98063700  0.14831600  0.97770100  1
  Cu  Cu136  1  0.88991400  0.44443100  0.26306200  1
  Cu  Cu137  1  0.11008600  0.94443100  0.73693800  1
  Cu  Cu138  1  0.88991400  0.94443100  0.23693800  1
  Cu  Cu139  1  0.11008600  0.44443100  0.76306200  1
  Cu  Cu140  1  0.29245900  0.41071700  0.42537900  1
  Cu  Cu141  1  0.70754100  0.91071700  0.57462100  1
  Cu  Cu142  1  0.29245900  0.91071700  0.07462100  1
  Cu  Cu143  1  0.70754100  0.41071700  0.92537900  1
  Cu  Cu144  1  0.73418700  0.74061900  0.08721400  1
  Cu  Cu145  1  0.26581300  0.24061900  0.91278600  1
  Cu  Cu146  1  0.73418700  0.24061900  0.41278600  1
  Cu  Cu147  1  0.26581300  0.74061900  0.58721400  1
