# generated using pymatgen
data_Cu12Ni3C4
_symmetry_space_group_name_H-M   'P 1'
_cell_length_a   8.05941095
_cell_length_b   8.05941095
_cell_length_c   8.91876903
_cell_angle_alpha   68.18786506
_cell_angle_beta   68.18786506
_cell_angle_gamma   66.98424618
_symmetry_Int_Tables_number   1
_chemical_formula_structural   Cu12Ni3C4
_chemical_formula_sum   'Cu24 Ni6 C8'
_cell_volume   477.34977191
_cell_formula_units_Z   2
loop_
 _symmetry_equiv_pos_site_id
 _symmetry_equiv_pos_as_xyz
  1  'x, y, z'
loop_
 _atom_site_type_symbol
 _atom_site_label
 _atom_site_symmetry_multiplicity
 _atom_site_fract_x
 _atom_site_fract_y
 _atom_site_fract_z
 _atom_site_occupancy
  C  C0  1  0.66647100  0.86970700  0.05278900  1
  C  C1  1  0.86970700  0.66647100  0.55278900  1
  C  C2  1  0.13029300  0.33352900  0.44721100  1
  C  C3  1  0.33352900  0.13029300  0.94721100  1
  C  C4  1  0.36524000  0.86945100  0.48471300  1
  C  C5  1  0.86945100  0.36524000  0.98471300  1
  C  C6  1  0.13054900  0.63476000  0.01528700  1
  C  C7  1  0.63476000  0.13054900  0.51528700  1
  Ni  Ni8  1  0.75350600  0.54342700  0.31974000  1
  Ni  Ni9  1  0.54342700  0.75350600  0.81974000  1
  Ni  Ni10  1  0.06164000  0.93836000  0.25000000  1
  Ni  Ni11  1  0.93836000  0.06164000  0.75000000  1
  Ni  Ni12  1  0.45657300  0.24649400  0.18026000  1
  Ni  Ni13  1  0.24649400  0.45657300  0.68026000  1
  Cu  Cu14  1  0.87891600  0.94685900  0.38269600  1
  Cu  Cu15  1  0.94685900  0.87891600  0.88269600  1
  Cu  Cu16  1  0.87540700  0.50615400  0.42509300  1
  Cu  Cu17  1  0.61986600  0.73572900  0.30846900  1
  Cu  Cu18  1  0.86960200  0.54401100  0.14029300  1
  Cu  Cu19  1  0.50615400  0.87540700  0.92509300  1
  Cu  Cu20  1  0.21270700  0.90026800  0.32374900  1
  Cu  Cu21  1  0.65593000  0.40151800  0.38096900  1
  Cu  Cu22  1  0.73572900  0.61986600  0.80846900  1
  Cu  Cu23  1  0.54401100  0.86960200  0.64029300  1
  Cu  Cu24  1  0.90026800  0.21270700  0.82374900  1
  Cu  Cu25  1  0.59848200  0.34407000  0.11903100  1
  Cu  Cu26  1  0.40151800  0.65593000  0.88096900  1
  Cu  Cu27  1  0.09973200  0.78729300  0.17625100  1
  Cu  Cu28  1  0.45598900  0.13039800  0.35970700  1
  Cu  Cu29  1  0.26427100  0.38013400  0.19153100  1
  Cu  Cu30  1  0.34407000  0.59848200  0.61903100  1
  Cu  Cu31  1  0.78729300  0.09973200  0.67625100  1
  Cu  Cu32  1  0.49384600  0.12459300  0.07490700  1
  Cu  Cu33  1  0.13039800  0.45598900  0.85970700  1
  Cu  Cu34  1  0.38013400  0.26427100  0.69153100  1
  Cu  Cu35  1  0.12459300  0.49384600  0.57490700  1
  Cu  Cu36  1  0.05314100  0.12108400  0.11730400  1
  Cu  Cu37  1  0.12108400  0.05314100  0.61730400  1
