# generated using pymatgen
data_Cu8Ni4C47
_symmetry_space_group_name_H-M   'P 1'
_cell_length_a   8.98056900
_cell_length_b   9.29055936
_cell_length_c   9.84376887
_cell_angle_alpha   102.13491465
_cell_angle_beta   90.39377823
_cell_angle_gamma   98.03000023
_symmetry_Int_Tables_number   1
_chemical_formula_structural   Cu8Ni4C47
_chemical_formula_sum   'Cu8 Ni4 C47'
_cell_volume   794.52791347
_cell_formula_units_Z   1
loop_
 _symmetry_equiv_pos_site_id
 _symmetry_equiv_pos_as_xyz
  1  'x, y, z'
loop_
 _atom_site_type_symbol
 _atom_site_label
 _atom_site_symmetry_multiplicity
 _atom_site_fract_x
 _atom_site_fract_y
 _atom_site_fract_z
 _atom_site_occupancy
  C  C0  1  0.86065000  0.93698200  0.78162200  1
  C  C1  1  0.13320100  0.88491600  0.14204600  1
  Ni  Ni2  1  0.47768000  0.72858600  0.89473000  1
  Ni  Ni3  1  0.80103500  0.67780800  0.50180600  1
  Ni  Ni4  1  0.54535900  0.26927500  0.17783700  1
  Ni  Ni5  1  0.38807700  0.27497700  0.52388400  1
  Cu  Cu6  1  0.23432300  0.03536600  0.51857800  1
  Cu  Cu7  1  0.60928200  0.08553900  0.32902900  1
  Cu  Cu8  1  0.12738500  0.43856000  0.37122700  1
  Cu  Cu9  1  0.34142600  0.40240600  0.12505600  1
  Cu  Cu10  1  0.58987400  0.42437700  0.80747500  1
  Cu  Cu11  1  0.86892000  0.51220200  0.65502200  1
  Cu  Cu12  1  0.36420200  0.92790000  0.80163500  1
  Cu  Cu13  1  0.77625600  0.89619000  0.39192300  1
  C  C14  1  0.86713500  0.90628700  0.03806000  1
  C  C15  1  0.52034300  0.82508400  0.23487400  1
  C  C16  1  0.34874500  0.83573400  0.55824200  1
  C  C17  1  0.20944500  0.44588500  0.58019200  1
  C  C18  1  0.56490400  0.29976800  0.87946100  1
  C  C19  1  0.07697000  0.57967700  0.43653000  1
  C  C20  1  0.30240600  0.44650400  0.99549400  1
  C  C21  1  0.90094200  0.25598800  0.13131600  1
  C  C22  1  0.30457100  0.13510400  0.93899900  1
  C  C23  1  0.91189600  0.29558000  0.39765600  1
  C  C24  1  0.02412900  0.34677200  0.69143900  1
  C  C25  1  0.76685200  0.46497700  0.10538200  1
  C  C26  1  0.92786700  0.06014300  0.29898000  1
  C  C27  1  0.15105100  0.14232500  0.77683600  1
  C  C28  1  0.20801300  0.45641300  0.22996000  1
  C  C29  1  0.32857200  0.93061800  0.61580400  1
  C  C30  1  0.57276300  0.89367500  0.31605600  1
  C  C31  1  0.75665200  0.86766600  0.55426300  1
  C  C32  1  0.55226500  0.99724200  0.82751300  1
  C  C33  1  0.56016400  0.57778400  0.90946200  1
  C  C34  1  0.90453600  0.69449100  0.67104400  1
  C  C35  1  0.36119600  0.74605100  0.75506700  1
  C  C36  1  0.91216900  0.95087100  0.28575200  1
  C  C37  1  0.31687500  0.91629000  0.98232300  1
  C  C38  1  0.35812400  0.78525000  0.03794200  1
  C  C39  1  0.79502500  0.71368700  0.33329300  1
  C  C40  1  0.25660200  0.40996700  0.48875500  1
  C  C41  1  0.50706700  0.45894400  0.20436500  1
  C  C42  1  0.96025600  0.91633300  0.98745800  1
  C  C43  1  0.48330400  0.38625000  0.66717100  1
  C  C44  1  0.78005900  0.48163800  0.50142900  1
  C  C45  1  0.02802800  0.43749300  0.65381900  1
  C  C46  1  0.73748600  0.35783500  0.10112600  1
  C  C47  1  0.86606300  0.28623700  0.04702500  1
  C  C48  1  0.06094000  0.03197500  0.59785100  1
  C  C49  1  0.49707000  0.21450100  0.37559500  1
  C  C50  1  0.99453800  0.29358600  0.33158600  1
  C  C51  1  0.35283900  0.22188300  0.09898100  1
  C  C52  1  0.63884900  0.11342500  0.17478000  1
  C  C53  1  0.21753600  0.93334900  0.36617400  1
  C  C54  1  0.28150900  0.08305100  0.83794800  1
  C  C55  1  0.74355100  0.09020800  0.44066500  1
  C  C56  1  0.77059900  0.44614900  0.77207800  1
  C  C57  1  0.62537500  0.88132600  0.87885000  1
  C  C58  1  0.05825000  0.15629800  0.72133200  1
