# generated using pymatgen
data_Cu2Ni3C31
_symmetry_space_group_name_H-M   'P 1'
_cell_length_a   8.62893180
_cell_length_b   8.62893117
_cell_length_c   8.62893122
_cell_angle_alpha   60.11517011
_cell_angle_beta   60.11517252
_cell_angle_gamma   60.11517279
_symmetry_Int_Tables_number   1
_chemical_formula_structural   Cu2Ni3C31
_chemical_formula_sum   'Cu2 Ni3 C31'
_cell_volume   455.49938294
_cell_formula_units_Z   1
loop_
 _symmetry_equiv_pos_site_id
 _symmetry_equiv_pos_as_xyz
  1  'x, y, z'
loop_
 _atom_site_type_symbol
 _atom_site_label
 _atom_site_symmetry_multiplicity
 _atom_site_fract_x
 _atom_site_fract_y
 _atom_site_fract_z
 _atom_site_occupancy
  Ni  Ni0  1  0.14499800  0.14499800  0.14499800  1
  Ni  Ni1  1  0.35502800  0.35502800  0.35502800  1
  Ni  Ni2  1  0.64358600  0.64358600  0.64358600  1
  Cu  Cu3  1  0.00709400  0.00709400  0.00709400  1
  Cu  Cu4  1  0.49995500  0.49995500  0.49995500  1
  C  C5  1  0.85703800  0.85703800  0.85703800  1
  C  C6  1  0.04587000  0.74669900  0.45372400  1
  C  C7  1  0.45372400  0.04587000  0.74669900  1
  C  C8  1  0.74669900  0.45372400  0.04587000  1
  C  C9  1  0.25267700  0.53910400  0.95502700  1
  C  C10  1  0.53910400  0.95502700  0.25267700  1
  C  C11  1  0.95502700  0.25267700  0.53910400  1
  C  C12  1  0.11389800  0.30542100  0.50904600  1
  C  C13  1  0.30542100  0.50904600  0.11389800  1
  C  C14  1  0.05963000  0.91325000  0.26353100  1
  C  C15  1  0.50904600  0.11389800  0.30542100  1
  C  C16  1  0.01198000  0.80754100  0.61537800  1
  C  C17  1  0.23884800  0.58422400  0.44390800  1
  C  C18  1  0.26353100  0.05963000  0.91325000  1
  C  C19  1  0.44390800  0.23884800  0.58422400  1
  C  C20  1  0.18645400  0.38612200  0.99336900  1
  C  C21  1  0.58422400  0.44390800  0.23884800  1
  C  C22  1  0.08324600  0.73928200  0.94063000  1
  C  C23  1  0.38612200  0.99336900  0.18645400  1
  C  C24  1  0.61537800  0.01198000  0.80754100  1
  C  C25  1  0.91325000  0.26353100  0.05963000  1
  C  C26  1  0.41152300  0.56072400  0.75905700  1
  C  C27  1  0.80754100  0.61537800  0.01198000  1
  C  C28  1  0.56072400  0.75905700  0.41152300  1
  C  C29  1  0.73928200  0.94063000  0.08324600  1
  C  C30  1  0.75905700  0.41152300  0.56072400  1
  C  C31  1  0.99336900  0.18645400  0.38612200  1
  C  C32  1  0.49884800  0.88427200  0.68902000  1
  C  C33  1  0.94063000  0.08324600  0.73928200  1
  C  C34  1  0.68902000  0.49884800  0.88427200  1
  C  C35  1  0.88427200  0.68902000  0.49884800  1
