# generated using pymatgen
data_CuNiC13
_symmetry_space_group_name_H-M   'P 1'
_cell_length_a   5.16401300
_cell_length_b   7.33488513
_cell_length_c   10.29207872
_cell_angle_alpha   102.99575489
_cell_angle_beta   99.14328915
_cell_angle_gamma   106.12411486
_symmetry_Int_Tables_number   1
_chemical_formula_structural   CuNiC13
_chemical_formula_sum   'Cu2 Ni2 C26'
_cell_volume   354.56005367
_cell_formula_units_Z   2
loop_
 _symmetry_equiv_pos_site_id
 _symmetry_equiv_pos_as_xyz
  1  'x, y, z'
loop_
 _atom_site_type_symbol
 _atom_site_label
 _atom_site_symmetry_multiplicity
 _atom_site_fract_x
 _atom_site_fract_y
 _atom_site_fract_z
 _atom_site_occupancy
  C  C0  1  0.85906400  0.60106900  0.78074500  1
  C  C1  1  0.14093600  0.39893100  0.21925500  1
  Ni  Ni2  1  0.50000000  0.50000000  0.50000000  1
  Ni  Ni3  1  0.00000000  0.00000000  0.00000000  1
  Cu  Cu4  1  0.75677000  0.75469600  0.25134800  1
  Cu  Cu5  1  0.24323000  0.24530400  0.74865200  1
  C  C6  1  0.87565800  0.20039800  0.44008000  1
  C  C7  1  0.38220800  0.69834600  0.94468700  1
  C  C8  1  0.61779200  0.30165400  0.05531300  1
  C  C9  1  0.12434200  0.79960200  0.55992000  1
  C  C10  1  0.69368600  0.34119100  0.43060900  1
  C  C11  1  0.43616000  0.68716200  0.09173300  1
  C  C12  1  0.20993400  0.84418500  0.93097300  1
  C  C13  1  0.69756700  0.00132000  0.33976300  1
  C  C14  1  0.34255800  0.22639700  0.10173800  1
  C  C15  1  0.94295800  0.20017800  0.58953900  1
  C  C16  1  0.18636100  0.50387300  0.83956900  1
  C  C17  1  0.85952100  0.70654100  0.60983400  1
  C  C18  1  0.14047900  0.29345900  0.39016600  1
  C  C19  1  0.81363900  0.49612700  0.16043100  1
  C  C20  1  0.05704200  0.79982200  0.41046100  1
  C  C21  1  0.65744200  0.77360300  0.89826200  1
  C  C22  1  0.30243300  0.99868000  0.66023700  1
  C  C23  1  0.79006600  0.15581500  0.06902700  1
  C  C24  1  0.56384000  0.31283800  0.90826700  1
  C  C25  1  0.30631400  0.65880900  0.56939100  1
  C  C26  1  0.48128600  0.60032200  0.33613000  1
  C  C27  1  0.98268700  0.10081300  0.84165800  1
  C  C28  1  0.01731300  0.89918700  0.15834200  1
  C  C29  1  0.51871400  0.39967800  0.66387000  1
