# generated using pymatgen
data_Cu5NiC8
_symmetry_space_group_name_H-M   'P 1'
_cell_length_a   7.60824900
_cell_length_b   6.87155200
_cell_length_c   11.45931395
_cell_angle_alpha   66.39236782
_cell_angle_beta   90.00000000
_cell_angle_gamma   90.00000000
_symmetry_Int_Tables_number   1
_chemical_formula_structural   Cu5NiC8
_chemical_formula_sum   'Cu20 Ni4 C32'
_cell_volume   548.95950733
_cell_formula_units_Z   4
loop_
 _symmetry_equiv_pos_site_id
 _symmetry_equiv_pos_as_xyz
  1  'x, y, z'
loop_
 _atom_site_type_symbol
 _atom_site_label
 _atom_site_symmetry_multiplicity
 _atom_site_fract_x
 _atom_site_fract_y
 _atom_site_fract_z
 _atom_site_occupancy
  C  C0  1  0.55813800  0.72135400  0.54372500  1
  C  C1  1  0.94186200  0.72135400  0.04372500  1
  C  C2  1  0.44186200  0.27864600  0.45627500  1
  C  C3  1  0.05813800  0.27864600  0.95627500  1
  C  C4  1  0.45359400  0.46324800  0.80710600  1
  C  C5  1  0.04640600  0.46324800  0.30710600  1
  C  C6  1  0.54640600  0.53675200  0.19289400  1
  C  C7  1  0.95359400  0.53675200  0.69289400  1
  C  C8  1  0.65782600  0.50248400  0.80764400  1
  C  C9  1  0.84217400  0.50248400  0.30764400  1
  C  C10  1  0.34217400  0.49751600  0.19235600  1
  C  C11  1  0.15782600  0.49751600  0.69235600  1
  C  C12  1  0.06587500  0.83378100  0.29517400  1
  C  C13  1  0.43412500  0.83378100  0.79517400  1
  C  C14  1  0.93412500  0.16621900  0.70482600  1
  C  C15  1  0.56587500  0.16621900  0.20482600  1
  C  C16  1  0.93599700  0.88404600  0.39404100  1
  C  C17  1  0.56400300  0.88404600  0.89404100  1
  C  C18  1  0.06400300  0.11595400  0.60595900  1
  C  C19  1  0.43599700  0.11595400  0.10595900  1
  C  C20  1  0.15197700  0.82322400  0.43444200  1
  C  C21  1  0.34802300  0.82322400  0.93444200  1
  C  C22  1  0.84802300  0.17677600  0.56555800  1
  C  C23  1  0.65197700  0.17677600  0.06555800  1
  C  C24  1  0.10184800  0.05705700  0.31844700  1
  C  C25  1  0.39815200  0.05705700  0.81844700  1
  C  C26  1  0.89815200  0.94294300  0.68155300  1
  C  C27  1  0.60184800  0.94294300  0.18155300  1
  C  C28  1  0.06477800  0.90039500  0.36135200  1
  C  C29  1  0.43522200  0.90039500  0.86135200  1
  C  C30  1  0.93522200  0.09960500  0.63864800  1
  C  C31  1  0.56477800  0.09960500  0.13864800  1
  Ni  Ni32  1  0.54689800  0.57134600  0.76532700  1
  Ni  Ni33  1  0.95310200  0.57134600  0.26532700  1
  Ni  Ni34  1  0.45310200  0.42865400  0.23467300  1
  Ni  Ni35  1  0.04689800  0.42865400  0.73467300  1
  Cu  Cu36  1  0.57110200  0.98866200  0.59669500  1
  Cu  Cu37  1  0.92889800  0.98866200  0.09669500  1
  Cu  Cu38  1  0.42889800  0.01133800  0.40330500  1
  Cu  Cu39  1  0.07110200  0.01133800  0.90330500  1
  Cu  Cu40  1  0.29738200  0.69191500  0.60067700  1
  Cu  Cu41  1  0.20261800  0.69191500  0.10067700  1
  Cu  Cu42  1  0.70261800  0.30808500  0.39932300  1
  Cu  Cu43  1  0.79738200  0.30808500  0.89932300  1
  Cu  Cu44  1  0.81689700  0.71341600  0.61125600  1
  Cu  Cu45  1  0.68310300  0.71341600  0.11125600  1
  Cu  Cu46  1  0.18310300  0.28658400  0.38874400  1
  Cu  Cu47  1  0.31689700  0.28658400  0.88874400  1
  Cu  Cu48  1  0.70823900  0.80791300  0.38366700  1
  Cu  Cu49  1  0.79176100  0.80791300  0.88366700  1
  Cu  Cu50  1  0.29176100  0.19208700  0.61633300  1
  Cu  Cu51  1  0.20823900  0.19208700  0.11633300  1
  Cu  Cu52  1  0.59824300  0.39635200  0.58772900  1
  Cu  Cu53  1  0.90175700  0.39635200  0.08772900  1
  Cu  Cu54  1  0.40175700  0.60364800  0.41227100  1
  Cu  Cu55  1  0.09824300  0.60364800  0.91227100  1
