# generated using pymatgen
data_CuNi8C19
_symmetry_space_group_name_H-M   'P 1'
_cell_length_a   13.19089500
_cell_length_b   12.48985400
_cell_length_c   13.15996226
_cell_angle_alpha   66.51575002
_cell_angle_beta   90.00000000
_cell_angle_gamma   90.00000000
_symmetry_Int_Tables_number   1
_chemical_formula_structural   CuNi8C19
_chemical_formula_sum   'Cu4 Ni32 C76'
_cell_volume   1988.54738715
_cell_formula_units_Z   4
loop_
 _symmetry_equiv_pos_site_id
 _symmetry_equiv_pos_as_xyz
  1  'x, y, z'
loop_
 _atom_site_type_symbol
 _atom_site_label
 _atom_site_symmetry_multiplicity
 _atom_site_fract_x
 _atom_site_fract_y
 _atom_site_fract_z
 _atom_site_occupancy
  Ni  Ni0  1  0.62276900  0.11247900  0.20589200  1
  Ni  Ni1  1  0.12276900  0.88752100  0.29410800  1
  Ni  Ni2  1  0.37723100  0.88752100  0.79410800  1
  Ni  Ni3  1  0.87723100  0.11247900  0.70589200  1
  Ni  Ni4  1  0.62342900  0.31630300  0.42978000  1
  Ni  Ni5  1  0.12342900  0.68369700  0.07022000  1
  Ni  Ni6  1  0.37657100  0.68369700  0.57022000  1
  Ni  Ni7  1  0.87657100  0.31630300  0.92978000  1
  Ni  Ni8  1  0.69281700  0.06099100  0.58083300  1
  Ni  Ni9  1  0.19281700  0.93900900  0.91916700  1
  Ni  Ni10  1  0.30718300  0.93900900  0.41916700  1
  Ni  Ni11  1  0.80718300  0.06099100  0.08083300  1
  Ni  Ni12  1  0.75418800  0.49009900  0.50259600  1
  Ni  Ni13  1  0.25418800  0.50990100  0.99740400  1
  Ni  Ni14  1  0.24581200  0.50990100  0.49740400  1
  Ni  Ni15  1  0.74581200  0.49009900  0.00259600  1
  Ni  Ni16  1  0.39448000  0.08948700  0.19849100  1
  Ni  Ni17  1  0.89448000  0.91051300  0.30150900  1
  Ni  Ni18  1  0.60552000  0.91051300  0.80150900  1
  Ni  Ni19  1  0.10552000  0.08948700  0.69849100  1
  Ni  Ni20  1  0.38424900  0.33667300  0.20359300  1
  Ni  Ni21  1  0.88424900  0.66332700  0.29640700  1
  Ni  Ni22  1  0.61575100  0.66332700  0.79640700  1
  Ni  Ni23  1  0.11575100  0.33667300  0.70359300  1
  Ni  Ni24  1  0.38363800  0.32635100  0.44874300  1
  Ni  Ni25  1  0.88363800  0.67364900  0.05125700  1
  Ni  Ni26  1  0.61636200  0.67364900  0.55125700  1
  Ni  Ni27  1  0.11636200  0.32635100  0.94874300  1
  Ni  Ni28  1  0.29466800  0.07398700  0.57040000  1
  Ni  Ni29  1  0.79466800  0.92601300  0.92960000  1
  Ni  Ni30  1  0.70533200  0.92601300  0.42960000  1
  Ni  Ni31  1  0.20533200  0.07398700  0.07040000  1
  Cu  Cu32  1  0.61295100  0.35380800  0.19274400  1
  Cu  Cu33  1  0.11295100  0.64619200  0.30725600  1
  Cu  Cu34  1  0.38704900  0.64619200  0.80725600  1
  Cu  Cu35  1  0.88704900  0.35380800  0.69274400  1
  C  C36  1  0.47991400  0.26384500  0.83617100  1
  C  C37  1  0.97991400  0.73615500  0.66382900  1
  C  C38  1  0.52008600  0.73615500  0.16382900  1
  C  C39  1  0.02008600  0.26384500  0.33617100  1
  C  C40  1  0.63308200  0.01613500  0.33316200  1
  C  C41  1  0.13308200  0.98386500  0.16683800  1
  C  C42  1  0.36691800  0.98386500  0.66683800  1
  C  C43  1  0.86691800  0.01613500  0.83316200  1
  C  C44  1  0.51069700  0.10511700  0.15696000  1
  C  C45  1  0.01069700  0.89488300  0.34304000  1
  C  C46  1  0.48930300  0.89488300  0.84304000  1
  C  C47  1  0.98930300  0.10511700  0.65696000  1
  C  C48  1  0.69783700  0.07737700  0.12710000  1
  C  C49  1  0.19783700  0.92262300  0.37290000  1
  C  C50  1  0.30216300  0.92262300  0.87290000  1
  C  C51  1  0.80216300  0.07737700  0.62710000  1
  C  C52  1  0.64910400  0.24078400  0.20069500  1
  C  C53  1  0.14910400  0.75921600  0.29930500  1
  C  C54  1  0.35089600  0.75921600  0.79930500  1
  C  C55  1  0.85089600  0.24078400  0.70069500  1
  C  C56  1  0.63244300  0.37080700  0.29537100  1
  C  C57  1  0.13244300  0.62919300  0.20462900  1
  C  C58  1  0.36755700  0.62919300  0.70462900  1
  C  C59  1  0.86755700  0.37080700  0.79537100  1
  C  C60  1  0.66458500  0.44620800  0.10225000  1
  C  C61  1  0.16458500  0.55379200  0.39775000  1
  C  C62  1  0.33541500  0.55379200  0.89775000  1
  C  C63  1  0.83541500  0.44620800  0.60225000  1
  C  C64  1  0.50281700  0.36662300  0.17466400  1
  C  C65  1  0.00281700  0.63337700  0.32533600  1
  C  C66  1  0.49718300  0.63337700  0.82533600  1
  C  C67  1  0.99718300  0.36662300  0.67466400  1
  C  C68  1  0.50597400  0.32446500  0.46520100  1
  C  C69  1  0.00597400  0.67553500  0.03479900  1
  C  C70  1  0.49402600  0.67553500  0.53479900  1
  C  C71  1  0.99402600  0.32446500  0.96520100  1
  C  C72  1  0.69744100  0.38544400  0.48108300  1
  C  C73  1  0.19744100  0.61455600  0.01891700  1
  C  C74  1  0.30255900  0.61455600  0.51891700  1
  C  C75  1  0.80255900  0.38544400  0.98108300  1
  C  C76  1  0.65640800  0.17944600  0.48058300  1
  C  C77  1  0.15640800  0.82055400  0.01941700  1
  C  C78  1  0.34359200  0.82055400  0.51941700  1
  C  C79  1  0.84359200  0.17944600  0.98058300  1
  C  C80  1  0.70022800  0.95557700  0.53839800  1
  C  C81  1  0.20022800  0.04442300  0.96160200  1
  C  C82  1  0.29977200  0.04442300  0.46160200  1
  C  C83  1  0.79977200  0.95557700  0.03839800  1
  C  C84  1  0.61126400  0.02121900  0.68215400  1
  C  C85  1  0.11126400  0.97878100  0.81784600  1
  C  C86  1  0.38873600  0.97878100  0.31784600  1
  C  C87  1  0.88873600  0.02121900  0.18215400  1
  C  C88  1  0.81442400  0.56812800  0.38964400  1
  C  C89  1  0.31442400  0.43187200  0.11035600  1
  C  C90  1  0.18557600  0.43187200  0.61035600  1
  C  C91  1  0.68557600  0.56812800  0.88964400  1
  C  C92  1  0.66473500  0.56554300  0.52938700  1
  C  C93  1  0.16473500  0.43445700  0.97061300  1
  C  C94  1  0.33526500  0.43445700  0.47061300  1
  C  C95  1  0.83526500  0.56554300  0.02938700  1
  C  C96  1  0.35479700  0.20826700  0.20814200  1
  C  C97  1  0.85479700  0.79173300  0.29185800  1
  C  C98  1  0.64520300  0.79173300  0.79185800  1
  C  C99  1  0.14520300  0.20826700  0.70814200  1
  C  C100  1  0.32299300  0.06382200  0.11010900  1
  C  C101  1  0.82299300  0.93617800  0.38989100  1
  C  C102  1  0.67700700  0.93617800  0.88989100  1
  C  C103  1  0.17700700  0.06382200  0.61010900  1
  C  C104  1  0.35814700  0.33933800  0.32345700  1
  C  C105  1  0.85814700  0.66066200  0.17654300  1
  C  C106  1  0.64185300  0.66066200  0.67654300  1
  C  C107  1  0.14185300  0.33933800  0.82345700  1
  C  C108  1  0.33567400  0.20600800  0.53882000  1
  C  C109  1  0.83567400  0.79399200  0.96118000  1
  C  C110  1  0.66432600  0.79399200  0.46118000  1
  C  C111  1  0.16432600  0.20600800  0.03882000  1
