# generated using pymatgen
data_Cu6NiC29
_symmetry_space_group_name_H-M   'P 1'
_cell_length_a   8.52810856
_cell_length_b   8.52810856
_cell_length_c   8.52810877
_cell_angle_alpha   61.13950541
_cell_angle_beta   61.13950541
_cell_angle_gamma   61.13951028
_symmetry_Int_Tables_number   1
_chemical_formula_structural   Cu6NiC29
_chemical_formula_sum   'Cu6 Ni1 C29'
_cell_volume   449.82061514
_cell_formula_units_Z   1
loop_
 _symmetry_equiv_pos_site_id
 _symmetry_equiv_pos_as_xyz
  1  'x, y, z'
loop_
 _atom_site_type_symbol
 _atom_site_label
 _atom_site_symmetry_multiplicity
 _atom_site_fract_x
 _atom_site_fract_y
 _atom_site_fract_z
 _atom_site_occupancy
  C  C0  1  0.85512900  0.85512900  0.85512900  1
  C  C1  1  0.64482900  0.64482900  0.64482900  1
  C  C2  1  0.35650500  0.35650500  0.35650500  1
  C  C3  1  0.99465400  0.99465400  0.99465400  1
  C  C4  1  0.50083900  0.50083900  0.50083900  1
  Ni  Ni5  1  0.14402600  0.14402600  0.14402600  1
  Cu  Cu6  1  0.04714800  0.74396300  0.46105200  1
  Cu  Cu7  1  0.74396300  0.46105200  0.04714800  1
  Cu  Cu8  1  0.46105200  0.04714800  0.74396300  1
  Cu  Cu9  1  0.55444200  0.94866100  0.25402500  1
  Cu  Cu10  1  0.25402500  0.55444200  0.94866100  1
  Cu  Cu11  1  0.94866100  0.25402500  0.55444200  1
  C  C12  1  0.49621400  0.89104400  0.68134100  1
  C  C13  1  0.89104400  0.68134100  0.49621400  1
  C  C14  1  0.74602700  0.93932900  0.09137800  1
  C  C15  1  0.68134100  0.49621400  0.89104400  1
  C  C16  1  0.39859000  0.97526500  0.18569600  1
  C  C17  1  0.56537400  0.75323800  0.41027100  1
  C  C18  1  0.09137800  0.74602700  0.93932900  1
  C  C19  1  0.41027100  0.56537400  0.75323800  1
  C  C20  1  0.00455100  0.82119200  0.60934700  1
  C  C21  1  0.75323800  0.41027100  0.56537400  1
  C  C22  1  0.05639800  0.90811300  0.25637100  1
  C  C23  1  0.82119200  0.60934700  0.00455100  1
  C  C24  1  0.18569600  0.39859000  0.97526500  1
  C  C25  1  0.93932900  0.09137800  0.74602700  1
  C  C26  1  0.24570800  0.59208300  0.43972800  1
  C  C27  1  0.97526500  0.18569600  0.39859000  1
  C  C28  1  0.59208300  0.43972800  0.24570800  1
  C  C29  1  0.90811300  0.25637100  0.05639800  1
  C  C30  1  0.43972800  0.24570800  0.59208300  1
  C  C31  1  0.60934700  0.00455100  0.82119200  1
  C  C32  1  0.31694700  0.49881000  0.11171100  1
  C  C33  1  0.25637100  0.05639800  0.90811300  1
  C  C34  1  0.11171100  0.31694700  0.49881000  1
  C  C35  1  0.49881000  0.11171100  0.31694700  1
