# generated using pymatgen
data_Cu9Ni2C17
_symmetry_space_group_name_H-M   'P 1'
_cell_length_a   6.05239163
_cell_length_b   6.05239163
_cell_length_c   10.47543555
_cell_angle_alpha   72.91039446
_cell_angle_beta   72.91039446
_cell_angle_gamma   59.90173561
_symmetry_Int_Tables_number   1
_chemical_formula_structural   Cu9Ni2C17
_chemical_formula_sum   'Cu9 Ni2 C17'
_cell_volume   312.31309655
_cell_formula_units_Z   1
loop_
 _symmetry_equiv_pos_site_id
 _symmetry_equiv_pos_as_xyz
  1  'x, y, z'
loop_
 _atom_site_type_symbol
 _atom_site_label
 _atom_site_symmetry_multiplicity
 _atom_site_fract_x
 _atom_site_fract_y
 _atom_site_fract_z
 _atom_site_occupancy
  C  C0  1  0.12436900  0.12436900  0.62430400  1
  Ni  Ni1  1  0.06407100  0.06407100  0.31408100  1
  Ni  Ni2  1  0.31159000  0.31159000  0.06274300  1
  Cu  Cu3  1  0.00047500  0.00047500  0.99619400  1
  Cu  Cu4  1  0.62826900  0.62826900  0.12933000  1
  Cu  Cu5  1  0.49663900  0.49663900  0.49883900  1
  Cu  Cu6  1  0.55637100  0.06651600  0.31336200  1
  Cu  Cu7  1  0.06651600  0.55637100  0.31336200  1
  Cu  Cu8  1  0.56475100  0.56475100  0.81062500  1
  Cu  Cu9  1  0.80887300  0.80887300  0.56922500  1
  Cu  Cu10  1  0.05871400  0.56496900  0.80946900  1
  Cu  Cu11  1  0.56496900  0.05871400  0.80946900  1
  C  C12  1  0.44108200  0.94950300  0.19127700  1
  C  C13  1  0.94950300  0.44108200  0.19127700  1
  C  C14  1  0.43165200  0.43165200  0.19480200  1
  C  C15  1  0.20010900  0.20010900  0.41682200  1
  C  C16  1  0.93223000  0.93223000  0.19474500  1
  C  C17  1  0.69682000  0.69682000  0.43513200  1
  C  C18  1  0.68802100  0.16717000  0.43852200  1
  C  C19  1  0.16717000  0.68802100  0.43852200  1
  C  C20  1  0.91702700  0.46550000  0.69688000  1
  C  C21  1  0.46550000  0.91702700  0.69688000  1
  C  C22  1  0.91808100  0.91808100  0.69368200  1
  C  C23  1  0.69209100  0.69209100  0.93002900  1
  C  C24  1  0.43231400  0.43231400  0.69775800  1
  C  C25  1  0.19755200  0.19755200  0.92890400  1
  C  C26  1  0.67636500  0.19887900  0.92688400  1
  C  C27  1  0.19887900  0.67636500  0.92688400  1
