# generated using pymatgen
data_Cu(NiC6)5
_symmetry_space_group_name_H-M   'P 1'
_cell_length_a   8.58177707
_cell_length_b   8.70699460
_cell_length_c   8.70699408
_cell_angle_alpha   60.00000239
_cell_angle_beta   59.51614748
_cell_angle_gamma   59.51614058
_symmetry_Int_Tables_number   1
_chemical_formula_structural   Cu(NiC6)5
_chemical_formula_sum   'Cu1 Ni5 C30'
_cell_volume   456.65007940
_cell_formula_units_Z   1
loop_
 _symmetry_equiv_pos_site_id
 _symmetry_equiv_pos_as_xyz
  1  'x, y, z'
loop_
 _atom_site_type_symbol
 _atom_site_label
 _atom_site_symmetry_multiplicity
 _atom_site_fract_x
 _atom_site_fract_y
 _atom_site_fract_z
 _atom_site_occupancy
  Ni  Ni0  1  0.01633900  0.99455400  0.99455400  1
  Ni  Ni1  1  0.07068700  0.64310500  0.64310500  1
  Ni  Ni2  1  0.50187800  0.49937400  0.49937400  1
  Ni  Ni3  1  0.43426200  0.85524700  0.85524700  1
  Ni  Ni4  1  0.92871300  0.35709500  0.35709500  1
  C  C5  1  0.24375300  0.25380400  0.54730400  1
  C  C6  1  0.24375300  0.95514000  0.25380400  1
  C  C7  1  0.24375300  0.54730400  0.95514000  1
  C  C8  1  0.74957100  0.46180100  0.04332800  1
  C  C9  1  0.74957100  0.04332800  0.74530000  1
  C  C10  1  0.74957100  0.74530000  0.46180100  1
  Cu  Cu11  1  0.57320900  0.14226400  0.14226400  1
  C  C12  1  0.06755900  0.11118700  0.32061100  1
  C  C13  1  0.06755900  0.50064300  0.11118700  1
  C  C14  1  0.06755900  0.32061100  0.50064300  1
  C  C15  1  0.22890500  0.09100200  0.73853700  1
  C  C16  1  0.43142800  0.18034700  0.38792400  1
  C  C17  1  0.27612000  0.41009300  0.55275800  1
  C  C18  1  0.22890500  0.94155600  0.09100200  1
  C  C19  1  0.27612000  0.76102900  0.41009300  1
  C  C20  1  0.56657900  0.61153600  0.00265200  1
  C  C21  1  0.27612000  0.55275800  0.76102900  1
  C  C22  1  0.76696100  0.25974400  0.06395400  1
  C  C23  1  0.56657900  0.00265200  0.81923200  1
  C  C24  1  0.43142800  0.00030100  0.18034700  1
  C  C25  1  0.22890500  0.73853700  0.94155600  1
  C  C26  1  0.72809800  0.44071300  0.24005000  1
  C  C27  1  0.43142800  0.38792400  0.00030100  1
  C  C28  1  0.72809800  0.24005000  0.59113800  1
  C  C29  1  0.76696100  0.06395400  0.90934200  1
  C  C30  1  0.72809800  0.59113800  0.44071300  1
  C  C31  1  0.56657900  0.81923200  0.61153600  1
  C  C32  1  0.76696100  0.90934200  0.25974400  1
  C  C33  1  0.93266200  0.68909600  0.49297600  1
  C  C34  1  0.93266200  0.49297600  0.88526600  1
  C  C35  1  0.93266200  0.88526600  0.68909600  1
