# generated using pymatgen
data_Cu2NiC16
_symmetry_space_group_name_H-M   'P 1'
_cell_length_a   6.47192700
_cell_length_b   8.68452313
_cell_length_c   8.75474875
_cell_angle_alpha   92.72092999
_cell_angle_beta   106.69930886
_cell_angle_gamma   106.28241413
_symmetry_Int_Tables_number   1
_chemical_formula_structural   Cu2NiC16
_chemical_formula_sum   'Cu4 Ni2 C32'
_cell_volume   448.00148450
_cell_formula_units_Z   2
loop_
 _symmetry_equiv_pos_site_id
 _symmetry_equiv_pos_as_xyz
  1  'x, y, z'
loop_
 _atom_site_type_symbol
 _atom_site_label
 _atom_site_symmetry_multiplicity
 _atom_site_fract_x
 _atom_site_fract_y
 _atom_site_fract_z
 _atom_site_occupancy
  C  C0  1  0.00144700  0.49831800  0.50089900  1
  C  C1  1  0.75350200  0.01083100  0.99014700  1
  Ni  Ni2  1  0.25278000  0.26987600  0.72989900  1
  Ni  Ni3  1  0.74589700  0.72311500  0.27727100  1
  Cu  Cu4  1  0.36484600  0.93450400  0.62172900  1
  Cu  Cu5  1  0.87188400  0.62998600  0.93298800  1
  Cu  Cu6  1  0.13593900  0.37608000  0.06760400  1
  Cu  Cu7  1  0.62730600  0.06560300  0.37176700  1
  C  C8  1  0.37498300  0.65658300  0.86930600  1
  C  C9  1  0.87008800  0.86608900  0.65147700  1
  C  C10  1  0.24860400  0.71287900  0.28536500  1
  C  C11  1  0.75099900  0.28658500  0.71524700  1
  C  C12  1  0.12065500  0.13260800  0.34552100  1
  C  C13  1  0.63365600  0.34714600  0.13116800  1
  C  C14  1  0.10325600  0.99504000  0.66578200  1
  C  C15  1  0.18693000  0.60983400  0.95496700  1
  C  C16  1  0.40514100  0.82992800  0.81988700  1
  C  C17  1  0.60704900  0.66914200  0.99793300  1
  C  C18  1  0.67931100  0.95039300  0.59472000  1
  C  C19  1  0.87525900  0.82252500  0.82240300  1
  C  C20  1  0.31000900  0.52542100  0.72724100  1
  C  C21  1  0.23682800  0.74178700  0.45870700  1
  C  C22  1  0.03043700  0.73699900  0.16905300  1
  C  C23  1  0.46709700  0.83005300  0.26425700  1
  C  C24  1  0.82746000  0.72111900  0.52947800  1
  C  C25  1  0.74609700  0.46181300  0.74308600  1
  C  C26  1  0.25717700  0.53782600  0.25862300  1
  C  C27  1  0.16814400  0.27457100  0.47238500  1
  C  C28  1  0.53506300  0.16729200  0.74035700  1
  C  C29  1  0.96600800  0.25744000  0.83372400  1
  C  C30  1  0.76018100  0.25675800  0.54184300  1
  C  C31  1  0.69367000  0.47311800  0.27662600  1
  C  C32  1  0.09397900  0.17817600  0.17195300  1
  C  C33  1  0.31582700  0.05154000  0.39778000  1
  C  C34  1  0.39869600  0.33605200  0.00761800  1
  C  C35  1  0.62560300  0.17590100  0.17863000  1
  C  C36  1  0.81776000  0.39882600  0.04282600  1
  C  C37  1  0.89043300  0.99892400  0.32906000  1
