# generated using pymatgen
data_CuNi2C15
_symmetry_space_group_name_H-M   'P 1'
_cell_length_a   8.65622388
_cell_length_b   8.65622388
_cell_length_c   8.65622362
_cell_angle_alpha   60.00301086
_cell_angle_beta   60.00301086
_cell_angle_gamma   60.00301231
_symmetry_Int_Tables_number   1
_chemical_formula_structural   CuNi2C15
_chemical_formula_sum   'Cu2 Ni4 C30'
_cell_volume   458.66972973
_cell_formula_units_Z   2
loop_
 _symmetry_equiv_pos_site_id
 _symmetry_equiv_pos_as_xyz
  1  'x, y, z'
loop_
 _atom_site_type_symbol
 _atom_site_label
 _atom_site_symmetry_multiplicity
 _atom_site_fract_x
 _atom_site_fract_y
 _atom_site_fract_z
 _atom_site_occupancy
  Ni  Ni0  1  0.85833500  0.85833500  0.85833500  1
  Ni  Ni1  1  0.64166500  0.64166500  0.64166500  1
  Ni  Ni2  1  0.35833500  0.35833500  0.35833500  1
  Ni  Ni3  1  0.14166500  0.14166500  0.14166500  1
  Cu  Cu4  1  0.00000000  0.00000000  0.00000000  1
  Cu  Cu5  1  0.50000000  0.50000000  0.50000000  1
  C  C6  1  0.96098600  0.25000000  0.53901400  1
  C  C7  1  0.53901400  0.96098600  0.25000000  1
  C  C8  1  0.25000000  0.53901400  0.96098600  1
  C  C9  1  0.75000000  0.46098600  0.03901400  1
  C  C10  1  0.46098600  0.03901400  0.75000000  1
  C  C11  1  0.03901400  0.75000000  0.46098600  1
  C  C12  1  0.87435200  0.69698500  0.50034700  1
  C  C13  1  0.69698500  0.50034700  0.87435200  1
  C  C14  1  0.94204500  0.08333000  0.72880500  1
  C  C15  1  0.50034700  0.87435200  0.69698500  1
  C  C16  1  0.00034700  0.19698500  0.37435200  1
  C  C17  1  0.77119500  0.41667000  0.55795500  1
  C  C18  1  0.72880500  0.94204500  0.08333000  1
  C  C19  1  0.55795500  0.77119500  0.41667000  1
  C  C20  1  0.80301500  0.62564800  0.99965300  1
  C  C21  1  0.41667000  0.55795500  0.77119500  1
  C  C22  1  0.91667000  0.27119500  0.05795500  1
  C  C23  1  0.62564800  0.99965300  0.80301500  1
  C  C24  1  0.37435200  0.00034700  0.19698500  1
  C  C25  1  0.08333000  0.72880500  0.94204500  1
  C  C26  1  0.58333000  0.44204500  0.22880500  1
  C  C27  1  0.19698500  0.37435200  0.00034700  1
  C  C28  1  0.44204500  0.22880500  0.58333000  1
  C  C29  1  0.27119500  0.05795500  0.91667000  1
  C  C30  1  0.22880500  0.58333000  0.44204500  1
  C  C31  1  0.99965300  0.80301500  0.62564800  1
  C  C32  1  0.49965300  0.12564800  0.30301500  1
  C  C33  1  0.05795500  0.91667000  0.27119500  1
  C  C34  1  0.30301500  0.49965300  0.12564800  1
  C  C35  1  0.12564800  0.30301500  0.49965300  1
