# generated using pymatgen
data_Cu3NiC12
_symmetry_space_group_name_H-M   'P 1'
_cell_length_a   5.10927585
_cell_length_b   5.86610636
_cell_length_c   10.57097287
_cell_angle_alpha   106.07405861
_cell_angle_beta   85.42351089
_cell_angle_gamma   73.33288084
_symmetry_Int_Tables_number   1
_chemical_formula_structural   Cu3NiC12
_chemical_formula_sum   'Cu6 Ni2 C24'
_cell_volume   287.25675850
_cell_formula_units_Z   2
loop_
 _symmetry_equiv_pos_site_id
 _symmetry_equiv_pos_as_xyz
  1  'x, y, z'
loop_
 _atom_site_type_symbol
 _atom_site_label
 _atom_site_symmetry_multiplicity
 _atom_site_fract_x
 _atom_site_fract_y
 _atom_site_fract_z
 _atom_site_occupancy
  C  C0  1  0.99998200  0.12498600  0.74978700  1
  C  C1  1  0.99968500  0.99991400  0.00106300  1
  C  C2  1  0.00059100  0.24855000  0.49884700  1
  C  C3  1  0.99997000  0.37502300  0.25000400  1
  C  C4  1  0.00004600  0.62499400  0.75020200  1
  C  C5  1  0.99939400  0.50143700  0.00114500  1
  C  C6  1  0.00031500  0.75009100  0.49893000  1
  C  C7  1  0.99998100  0.87501100  0.25001100  1
  Ni  Ni8  1  0.50023500  0.81271100  0.37320000  1
  Ni  Ni9  1  0.49974200  0.93728500  0.12680100  1
  Cu  Cu10  1  0.49987200  0.06234100  0.87713200  1
  Cu  Cu11  1  0.49980700  0.18575100  0.62359400  1
  Cu  Cu12  1  0.49966500  0.31031900  0.37326600  1
  Cu  Cu13  1  0.50022600  0.56424300  0.87640500  1
  Cu  Cu14  1  0.50026100  0.43969500  0.12674400  1
  Cu  Cu15  1  0.50017400  0.68764600  0.62286900  1
  C  C16  1  0.28303300  0.07394700  0.30670400  1
  C  C17  1  0.72024000  0.02878900  0.43613900  1
  C  C18  1  0.27288200  0.33697300  0.81108300  1
  C  C19  1  0.72735300  0.28865400  0.94049900  1
  C  C20  1  0.72013600  0.15408600  0.18673800  1
  C  C21  1  0.27808500  0.20419700  0.06518600  1
  C  C22  1  0.27265500  0.46138100  0.55951700  1
  C  C23  1  0.72717700  0.41300600  0.68891100  1
  C  C24  1  0.27977400  0.59594500  0.31327000  1
  C  C25  1  0.72187500  0.54577800  0.43480300  1
  C  C26  1  0.27280900  0.83704000  0.81006200  1
  C  C27  1  0.72152300  0.79276700  0.94770900  1
  C  C28  1  0.27977300  0.72122000  0.06385200  1
  C  C29  1  0.27854200  0.95722600  0.55228800  1
  C  C30  1  0.71693400  0.67604400  0.19330700  1
  C  C31  1  0.72726600  0.91295000  0.68993200  1
