# generated using pymatgen
data_CuNi5C4
_symmetry_space_group_name_H-M   'P 1'
_cell_length_a   5.81744800
_cell_length_b   11.57151700
_cell_length_c   11.72515900
_cell_angle_alpha   90.00000000
_cell_angle_beta   90.00000000
_cell_angle_gamma   90.00000000
_symmetry_Int_Tables_number   1
_chemical_formula_structural   CuNi5C4
_chemical_formula_sum   'Cu8 Ni40 C32'
_cell_volume   789.29899243
_cell_formula_units_Z   8
loop_
 _symmetry_equiv_pos_site_id
 _symmetry_equiv_pos_as_xyz
  1  'x, y, z'
loop_
 _atom_site_type_symbol
 _atom_site_label
 _atom_site_symmetry_multiplicity
 _atom_site_fract_x
 _atom_site_fract_y
 _atom_site_fract_z
 _atom_site_occupancy
  C  C0  1  0.50000000  0.50000000  0.00000000  1
  C  C1  1  0.00000000  0.00000000  0.50000000  1
  C  C2  1  0.00000000  0.00000000  0.00000000  1
  C  C3  1  0.50000000  0.50000000  0.50000000  1
  Ni  Ni4  1  0.72359300  0.46111700  0.75990400  1
  Ni  Ni5  1  0.77640700  0.03888300  0.25990400  1
  Ni  Ni6  1  0.22359300  0.03888300  0.24009600  1
  Ni  Ni7  1  0.27640700  0.46111700  0.74009600  1
  Ni  Ni8  1  0.27640700  0.53888300  0.24009600  1
  Ni  Ni9  1  0.22359300  0.96111700  0.74009600  1
  Ni  Ni10  1  0.77640700  0.96111700  0.75990400  1
  Ni  Ni11  1  0.72359300  0.53888300  0.25990400  1
  Ni  Ni12  1  0.83817100  0.57793400  0.80806300  1
  Ni  Ni13  1  0.66182900  0.92206600  0.30806300  1
  Ni  Ni14  1  0.33817100  0.92206600  0.19193700  1
  Ni  Ni15  1  0.16182900  0.57793400  0.69193700  1
  Ni  Ni16  1  0.16182900  0.42206600  0.19193700  1
  Ni  Ni17  1  0.33817100  0.07793400  0.69193700  1
  Ni  Ni18  1  0.66182900  0.07793400  0.80806300  1
  Ni  Ni19  1  0.83817100  0.42206600  0.30806300  1
  Ni  Ni20  1  0.85027500  0.70624900  0.03424100  1
  Ni  Ni21  1  0.64972500  0.79375100  0.53424100  1
  Ni  Ni22  1  0.35027500  0.79375100  0.96575900  1
  Ni  Ni23  1  0.14972500  0.70624900  0.46575900  1
  Ni  Ni24  1  0.14972500  0.29375100  0.96575900  1
  Ni  Ni25  1  0.35027500  0.20624900  0.46575900  1
  Ni  Ni26  1  0.64972500  0.20624900  0.03424100  1
  Ni  Ni27  1  0.85027500  0.29375100  0.53424100  1
  Ni  Ni28  1  0.97836700  0.58470400  0.08356200  1
  Ni  Ni29  1  0.52163300  0.91529600  0.58356200  1
  Ni  Ni30  1  0.47836700  0.91529600  0.91643800  1
  Ni  Ni31  1  0.02163300  0.58470400  0.41643800  1
  Ni  Ni32  1  0.02163300  0.41529600  0.91643800  1
  Ni  Ni33  1  0.47836700  0.08470400  0.41643800  1
  Ni  Ni34  1  0.52163300  0.08470400  0.08356200  1
  Ni  Ni35  1  0.97836700  0.41529600  0.58356200  1
  Ni  Ni36  1  0.08007200  0.74062500  0.80234600  1
  Ni  Ni37  1  0.41992800  0.75937500  0.30234600  1
  Ni  Ni38  1  0.58007200  0.75937500  0.19765400  1
  Ni  Ni39  1  0.91992800  0.74062500  0.69765400  1
  Ni  Ni40  1  0.91992800  0.25937500  0.19765400  1
  Ni  Ni41  1  0.58007200  0.24062500  0.69765400  1
  Ni  Ni42  1  0.41992800  0.24062500  0.80234600  1
  Ni  Ni43  1  0.08007200  0.25937500  0.30234600  1
  Cu  Cu44  1  0.82639100  0.62042900  0.05562800  1
  Cu  Cu45  1  0.67360900  0.87957100  0.55562800  1
  Cu  Cu46  1  0.32639100  0.87957100  0.94437200  1
  Cu  Cu47  1  0.17360900  0.62042900  0.44437200  1
  Cu  Cu48  1  0.17360900  0.37957100  0.94437200  1
  Cu  Cu49  1  0.32639100  0.12042900  0.44437200  1
  Cu  Cu50  1  0.67360900  0.12042900  0.05562800  1
  Cu  Cu51  1  0.82639100  0.37957100  0.55562800  1
  C  C52  1  0.34002300  0.62628900  0.94627100  1
  C  C53  1  0.15997700  0.87371100  0.44627100  1
  C  C54  1  0.84002300  0.87371100  0.05372900  1
  C  C55  1  0.65997700  0.62628900  0.55372900  1
  C  C56  1  0.65997700  0.37371100  0.05372900  1
  C  C57  1  0.84002300  0.12628900  0.55372900  1
  C  C58  1  0.15997700  0.12628900  0.94627100  1
  C  C59  1  0.34002300  0.37371100  0.44627100  1
  C  C60  1  0.65996000  0.61476500  0.14381100  1
  C  C61  1  0.84004000  0.88523500  0.64381100  1
  C  C62  1  0.15996000  0.88523500  0.85618900  1
  C  C63  1  0.34004000  0.61476500  0.35618900  1
  C  C64  1  0.34004000  0.38523500  0.85618900  1
  C  C65  1  0.15996000  0.11476500  0.35618900  1
  C  C66  1  0.84004000  0.11476500  0.14381100  1
  C  C67  1  0.65996000  0.38523500  0.64381100  1
  C  C68  1  0.76297700  0.50396300  0.83242600  1
  C  C69  1  0.73702300  0.99603700  0.33242600  1
  C  C70  1  0.26297700  0.99603700  0.16757400  1
  C  C71  1  0.23702300  0.50396300  0.66757400  1
  C  C72  1  0.23702300  0.49603700  0.16757400  1
  C  C73  1  0.26297700  0.00396300  0.66757400  1
  C  C74  1  0.73702300  0.00396300  0.83242600  1
  C  C75  1  0.76297700  0.49603700  0.33242600  1
  C  C76  1  0.00000000  0.68662300  0.75000000  1
  C  C77  1  0.50000000  0.81337700  0.25000000  1
  C  C78  1  0.00000000  0.31337700  0.25000000  1
  C  C79  1  0.50000000  0.18662300  0.75000000  1
