# generated using pymatgen
data_Cu3NiC30
_symmetry_space_group_name_H-M   'P 1'
_cell_length_a   8.74469218
_cell_length_b   8.74469218
_cell_length_c   8.74469277
_cell_angle_alpha   58.30199064
_cell_angle_beta   58.30199064
_cell_angle_gamma   58.30198818
_symmetry_Int_Tables_number   1
_chemical_formula_structural   Cu3NiC30
_chemical_formula_sum   'Cu3 Ni1 C30'
_cell_volume   454.45761419
_cell_formula_units_Z   1
loop_
 _symmetry_equiv_pos_site_id
 _symmetry_equiv_pos_as_xyz
  1  'x, y, z'
loop_
 _atom_site_type_symbol
 _atom_site_label
 _atom_site_symmetry_multiplicity
 _atom_site_fract_x
 _atom_site_fract_y
 _atom_site_fract_z
 _atom_site_occupancy
  Ni  Ni0  1  0.85567000  0.85567000  0.85567000  1
  Cu  Cu1  1  0.14282800  0.14282800  0.14282800  1
  Cu  Cu2  1  0.35708300  0.35708300  0.35708300  1
  Cu  Cu3  1  0.64213600  0.64213600  0.64213600  1
  C  C4  1  0.03287500  0.46784400  0.75019400  1
  C  C5  1  0.46784400  0.75019400  0.03287500  1
  C  C6  1  0.75019400  0.03287500  0.46784400  1
  C  C7  1  0.24713800  0.96569600  0.53603600  1
  C  C8  1  0.53603600  0.24713800  0.96569600  1
  C  C9  1  0.96569600  0.53603600  0.24713800  1
  C  C10  1  0.13631400  0.50888800  0.27899000  1
  C  C11  1  0.27899000  0.13631400  0.50888800  1
  C  C12  1  0.06174500  0.28223600  0.92346300  1
  C  C13  1  0.50888800  0.27899000  0.13631400  1
  C  C14  1  0.21771700  0.43754500  0.57743700  1
  C  C15  1  0.01139600  0.64055400  0.77479600  1
  C  C16  1  0.28223600  0.92346300  0.06174500  1
  C  C17  1  0.43754500  0.57743700  0.21771700  1
  C  C18  1  0.57743700  0.21771700  0.43754500  1
  C  C19  1  0.21950500  0.99100800  0.36371600  1
  C  C20  1  0.07303700  0.94080200  0.72053400  1
  C  C21  1  0.36371600  0.21950500  0.99100800  1
  C  C22  1  0.64055400  0.77479600  0.01139600  1
  C  C23  1  0.92346300  0.06174500  0.28223600  1
  C  C24  1  0.77479600  0.01139600  0.64055400  1
  C  C25  1  0.42231000  0.78180400  0.56304800  1
  C  C26  1  0.56304800  0.42231000  0.78180400  1
  C  C27  1  0.72053400  0.07303700  0.94080200  1
  C  C28  1  0.99100800  0.36371600  0.21950500  1
  C  C29  1  0.78180400  0.56304800  0.42231000  1
  C  C30  1  0.49224900  0.72168600  0.86172000  1
  C  C31  1  0.94080200  0.72053400  0.07303700  1
  C  C32  1  0.72168600  0.86172000  0.49224900  1
  C  C33  1  0.86172000  0.49224900  0.72168600  1
