# generated using pymatgen
data_Cu7NiC4
_symmetry_space_group_name_H-M   'P 1'
_cell_length_a   5.84111594
_cell_length_b   5.84111594
_cell_length_c   9.30339359
_cell_angle_alpha   87.90472414
_cell_angle_beta   87.90472414
_cell_angle_gamma   72.45604279
_symmetry_Int_Tables_number   1
_chemical_formula_structural   Cu7NiC4
_chemical_formula_sum   'Cu14 Ni2 C8'
_cell_volume   302.34363068
_cell_formula_units_Z   2
loop_
 _symmetry_equiv_pos_site_id
 _symmetry_equiv_pos_as_xyz
  1  'x, y, z'
loop_
 _atom_site_type_symbol
 _atom_site_label
 _atom_site_symmetry_multiplicity
 _atom_site_fract_x
 _atom_site_fract_y
 _atom_site_fract_z
 _atom_site_occupancy
  C  C0  1  0.11822500  0.11822500  0.37087500  1
  C  C1  1  0.88177500  0.88177500  0.62912500  1
  C  C2  1  0.73107600  0.73107600  0.24624000  1
  C  C3  1  0.00000000  0.00000000  0.00000000  1
  C  C4  1  0.50000000  0.50000000  0.50000000  1
  C  C5  1  0.61446700  0.61446700  0.85902500  1
  C  C6  1  0.38553300  0.38553300  0.14097500  1
  C  C7  1  0.26892400  0.26892400  0.75376000  1
  Ni  Ni8  1  0.47620100  0.47620100  0.71203900  1
  Ni  Ni9  1  0.52379900  0.52379900  0.28796100  1
  Cu  Cu10  1  0.19767500  0.80232500  0.50000000  1
  Cu  Cu11  1  0.05338700  0.44067900  0.24454000  1
  Cu  Cu12  1  0.80232500  0.19767500  0.50000000  1
  Cu  Cu13  1  0.23119700  0.23119700  0.97445400  1
  Cu  Cu14  1  0.96095600  0.96095600  0.22544700  1
  Cu  Cu15  1  0.72652900  0.72652900  0.47576200  1
  Cu  Cu16  1  0.76880300  0.76880300  0.02554600  1
  Cu  Cu17  1  0.03904400  0.03904400  0.77455300  1
  Cu  Cu18  1  0.27347100  0.27347100  0.52423800  1
  Cu  Cu19  1  0.69537800  0.30462200  0.00000000  1
  Cu  Cu20  1  0.44067900  0.05338700  0.24454000  1
  Cu  Cu21  1  0.94661300  0.55932100  0.75546000  1
  Cu  Cu22  1  0.30462200  0.69537800  0.00000000  1
  Cu  Cu23  1  0.55932100  0.94661300  0.75546000  1
