# generated using pymatgen
data_Cu3Ni3C22
_symmetry_space_group_name_H-M   'P 1'
_cell_length_a   6.14938645
_cell_length_b   6.14938645
_cell_length_c   9.87946155
_cell_angle_alpha   86.62628258
_cell_angle_beta   86.62628258
_cell_angle_gamma   58.86895166
_symmetry_Int_Tables_number   1
_chemical_formula_structural   Cu3Ni3C22
_chemical_formula_sum   'Cu3 Ni3 C22'
_cell_volume   319.05850508
_cell_formula_units_Z   1
loop_
 _symmetry_equiv_pos_site_id
 _symmetry_equiv_pos_as_xyz
  1  'x, y, z'
loop_
 _atom_site_type_symbol
 _atom_site_label
 _atom_site_symmetry_multiplicity
 _atom_site_fract_x
 _atom_site_fract_y
 _atom_site_fract_z
 _atom_site_occupancy
  C  C0  1  0.66708400  0.66708400  0.91216200  1
  C  C1  1  0.00526900  0.00526900  0.99986500  1
  C  C2  1  0.02564800  0.02564800  0.47861200  1
  C  C3  1  0.33745600  0.33745600  0.39487200  1
  C  C4  1  0.63653100  0.63653100  0.47270700  1
  C  C5  1  0.32450500  0.32450500  0.00894000  1
  Ni  Ni6  1  0.82371500  0.82371500  0.22859000  1
  Ni  Ni7  1  0.65905400  0.16026100  0.71796200  1
  Ni  Ni8  1  0.16026100  0.65905400  0.71796200  1
  Cu  Cu9  1  0.82942300  0.33804500  0.20421600  1
  Cu  Cu10  1  0.33804500  0.82942300  0.20421600  1
  Cu  Cu11  1  0.17137400  0.17137400  0.70653300  1
  C  C12  1  0.81150000  0.33673600  0.58730400  1
  C  C13  1  0.52186000  0.52186000  0.34719600  1
  C  C14  1  0.67199500  0.67199500  0.11258100  1
  C  C15  1  0.99750400  0.99750400  0.29206300  1
  C  C16  1  0.99852700  0.99852700  0.80960900  1
  C  C17  1  0.33673600  0.81150000  0.58730400  1
  C  C18  1  0.96761500  0.54215700  0.35948000  1
  C  C19  1  0.54215700  0.96761500  0.35948000  1
  C  C20  1  0.16583600  0.16583600  0.08675500  1
  C  C21  1  0.84490300  0.84490300  0.60954800  1
  C  C22  1  0.50147600  0.04170100  0.84867100  1
  C  C23  1  0.04170100  0.50147600  0.84867100  1
  C  C24  1  0.34626700  0.34626700  0.60288300  1
  C  C25  1  0.64349200  0.14709600  0.09011800  1
  C  C26  1  0.48431500  0.48431500  0.82944300  1
  C  C27  1  0.14709600  0.64349200  0.09011800  1
