# generated using pymatgen
data_CuNi2C3
_symmetry_space_group_name_H-M   'P 1'
_cell_length_a   5.21507526
_cell_length_b   5.21507526
_cell_length_c   9.86984659
_cell_angle_alpha   84.81619222
_cell_angle_beta   84.81619222
_cell_angle_gamma   120.90691939
_symmetry_Int_Tables_number   1
_chemical_formula_structural   CuNi2C3
_chemical_formula_sum   'Cu4 Ni8 C12'
_cell_volume   226.41523346
_cell_formula_units_Z   4
loop_
 _symmetry_equiv_pos_site_id
 _symmetry_equiv_pos_as_xyz
  1  'x, y, z'
loop_
 _atom_site_type_symbol
 _atom_site_label
 _atom_site_symmetry_multiplicity
 _atom_site_fract_x
 _atom_site_fract_y
 _atom_site_fract_z
 _atom_site_occupancy
  C  C0  1  0.81871300  0.62569900  0.99803300  1
  C  C1  1  0.50000000  0.00000000  0.00000000  1
  C  C2  1  0.18128700  0.37430100  0.00196700  1
  C  C3  1  0.73417300  0.26582700  0.25000000  1
  C  C4  1  0.00000000  0.50000000  0.50000000  1
  C  C5  1  0.37430100  0.18128700  0.50196700  1
  C  C6  1  0.62569900  0.81871300  0.49803300  1
  C  C7  1  0.26582700  0.73417300  0.75000000  1
  C  C8  1  0.41958000  0.58042000  0.25000000  1
  C  C9  1  0.10469900  0.89530100  0.25000000  1
  C  C10  1  0.89530100  0.10469900  0.75000000  1
  C  C11  1  0.58042000  0.41958000  0.75000000  1
  Ni  Ni12  1  0.57351600  0.71307700  0.86205600  1
  Ni  Ni13  1  0.14232800  0.63424900  0.13170900  1
  Ni  Ni14  1  0.71307700  0.57351600  0.36205600  1
  Ni  Ni15  1  0.63424900  0.14232800  0.63170900  1
  Ni  Ni16  1  0.85767200  0.36575100  0.86829100  1
  Ni  Ni17  1  0.42648400  0.28692300  0.13794400  1
  Ni  Ni18  1  0.36575100  0.85767200  0.36829100  1
  Ni  Ni19  1  0.28692300  0.42648400  0.63794400  1
  Cu  Cu20  1  0.20654600  0.04421200  0.87495600  1
  Cu  Cu21  1  0.04421200  0.20654600  0.37495600  1
  Cu  Cu22  1  0.79345400  0.95578800  0.12504400  1
  Cu  Cu23  1  0.95578800  0.79345400  0.62504400  1
