# generated using pymatgen
data_Cu3NiC11
_symmetry_space_group_name_H-M   'P 1'
_cell_length_a   6.27044700
_cell_length_b   7.85529700
_cell_length_c   29.68113400
_cell_angle_alpha   90.00000000
_cell_angle_beta   90.00000000
_cell_angle_gamma   90.00000000
_symmetry_Int_Tables_number   1
_chemical_formula_structural   Cu3NiC11
_chemical_formula_sum   'Cu12 Ni4 C44'
_cell_volume   1461.98057027
_cell_formula_units_Z   4
loop_
 _symmetry_equiv_pos_site_id
 _symmetry_equiv_pos_as_xyz
  1  'x, y, z'
loop_
 _atom_site_type_symbol
 _atom_site_label
 _atom_site_symmetry_multiplicity
 _atom_site_fract_x
 _atom_site_fract_y
 _atom_site_fract_z
 _atom_site_occupancy
  Ni  Ni0  1  0.22968700  0.90599100  0.20956100  1
  Ni  Ni1  1  0.27031300  0.09400900  0.70956100  1
  Ni  Ni2  1  0.72968700  0.59400900  0.79043900  1
  Ni  Ni3  1  0.77031300  0.40599100  0.29043900  1
  Cu  Cu4  1  0.24146700  0.25030900  0.08634800  1
  Cu  Cu5  1  0.24141000  0.58992100  0.96878700  1
  Cu  Cu6  1  0.23502700  0.94062600  0.85263100  1
  Cu  Cu7  1  0.26497300  0.05937400  0.35263100  1
  Cu  Cu8  1  0.25859000  0.41007900  0.46878700  1
  Cu  Cu9  1  0.25853300  0.74969100  0.58634800  1
  Cu  Cu10  1  0.74146700  0.24969100  0.91365200  1
  Cu  Cu11  1  0.74141000  0.91007900  0.03121300  1
  Cu  Cu12  1  0.73502700  0.55937400  0.14736900  1
  Cu  Cu13  1  0.76497300  0.44062600  0.64736900  1
  Cu  Cu14  1  0.75859000  0.08992100  0.53121300  1
  Cu  Cu15  1  0.75853300  0.75030900  0.41365200  1
  C  C16  1  0.02074100  0.10555800  0.89097600  1
  C  C17  1  0.01549900  0.42987200  0.11822900  1
  C  C18  1  0.09128000  0.23349600  0.30730900  1
  C  C19  1  0.00072900  0.75778600  0.00034500  1
  C  C20  1  0.01782100  0.58388600  0.43894700  1
  C  C21  1  0.02137800  0.93336700  0.55901900  1
  C  C22  1  0.04459200  0.30889200  0.67315600  1
  C  C23  1  0.22859900  0.10898600  0.79387300  1
  C  C24  1  0.24073700  0.13029600  0.15160300  1
  C  C25  1  0.23737800  0.42068200  0.02747100  1
  C  C26  1  0.24558100  0.24615400  0.40904900  1
  C  C27  1  0.25441900  0.75384600  0.90904900  1
  C  C28  1  0.26262200  0.57931800  0.52747100  1
  C  C29  1  0.25926300  0.86970400  0.65160300  1
  C  C30  1  0.27140100  0.89101400  0.29387300  1
  C  C31  1  0.45540800  0.69110800  0.17315600  1
  C  C32  1  0.47862200  0.06663300  0.05901900  1
  C  C33  1  0.48217900  0.41611400  0.93894700  1
  C  C34  1  0.49927100  0.24221400  0.50034500  1
  C  C35  1  0.40872000  0.76650400  0.80730900  1
  C  C36  1  0.48450100  0.57012800  0.61822900  1
  C  C37  1  0.47925900  0.89444200  0.39097600  1
  C  C38  1  0.52074100  0.39444200  0.10902400  1
  C  C39  1  0.51549900  0.07012800  0.88177100  1
  C  C40  1  0.59128000  0.26650400  0.69269100  1
  C  C41  1  0.50072900  0.74221400  0.99965500  1
  C  C42  1  0.51782100  0.91611400  0.56105300  1
  C  C43  1  0.52137800  0.56663300  0.44098100  1
  C  C44  1  0.54459200  0.19110800  0.32684400  1
  C  C45  1  0.72859900  0.39101400  0.20612700  1
  C  C46  1  0.74073700  0.36970400  0.84839700  1
  C  C47  1  0.73737800  0.07931800  0.97252900  1
  C  C48  1  0.74558100  0.25384600  0.59095100  1
  C  C49  1  0.75441900  0.74615400  0.09095100  1
  C  C50  1  0.76262200  0.92068200  0.47252900  1
  C  C51  1  0.75926300  0.63029600  0.34839700  1
  C  C52  1  0.77140100  0.60898600  0.70612700  1
  C  C53  1  0.95540800  0.80889200  0.82684400  1
  C  C54  1  0.97862200  0.43336700  0.94098100  1
  C  C55  1  0.98217900  0.08388600  0.06105300  1
  C  C56  1  0.99927100  0.25778600  0.49965500  1
  C  C57  1  0.90872000  0.73349600  0.19269100  1
  C  C58  1  0.98450100  0.92987200  0.38177100  1
  C  C59  1  0.97925900  0.60555800  0.60902400  1
