# generated using pymatgen
data_Cu(NiC2)2
_symmetry_space_group_name_H-M   'P 1'
_cell_length_a   6.78762429
_cell_length_b   6.78762429
_cell_length_c   6.78762429
_cell_angle_alpha   130.97790118
_cell_angle_beta   130.97790118
_cell_angle_gamma   71.84819177
_symmetry_Int_Tables_number   1
_chemical_formula_structural   Cu(NiC2)2
_chemical_formula_sum   'Cu1 Ni2 C4'
_cell_volume   174.34513513
_cell_formula_units_Z   1
loop_
 _symmetry_equiv_pos_site_id
 _symmetry_equiv_pos_as_xyz
  1  'x, y, z'
loop_
 _atom_site_type_symbol
 _atom_site_label
 _atom_site_symmetry_multiplicity
 _atom_site_fract_x
 _atom_site_fract_y
 _atom_site_fract_z
 _atom_site_occupancy
  Ni  Ni0  1  0.25000000  0.75000000  0.50000000  1
  Ni  Ni1  1  0.50000000  0.50000000  0.00000000  1
  Cu  Cu2  1  0.00000000  0.00000000  0.00000000  1
  C  C3  1  0.61932200  0.13072600  0.01414700  1
  C  C4  1  0.39482500  0.38067800  0.51140400  1
  C  C5  1  0.86927400  0.88342100  0.48859600  1
  C  C6  1  0.11657900  0.60517500  0.98585300  1
