# generated using pymatgen
data_Cu5NiC3
_symmetry_space_group_name_H-M   'P 1'
_cell_length_a   6.97895300
_cell_length_b   8.74821300
_cell_length_c   15.39392700
_cell_angle_alpha   90.00000000
_cell_angle_beta   90.00000000
_cell_angle_gamma   90.00000000
_symmetry_Int_Tables_number   1
_chemical_formula_structural   Cu5NiC3
_chemical_formula_sum   'Cu40 Ni8 C24'
_cell_volume   939.85108026
_cell_formula_units_Z   8
loop_
 _symmetry_equiv_pos_site_id
 _symmetry_equiv_pos_as_xyz
  1  'x, y, z'
loop_
 _atom_site_type_symbol
 _atom_site_label
 _atom_site_symmetry_multiplicity
 _atom_site_fract_x
 _atom_site_fract_y
 _atom_site_fract_z
 _atom_site_occupancy
  C  C0  1  0.29738700  0.63962500  0.68554900  1
  C  C1  1  0.20261300  0.86037500  0.18554900  1
  C  C2  1  0.79738700  0.86037500  0.31445100  1
  C  C3  1  0.70261300  0.63962500  0.81445100  1
  C  C4  1  0.70261300  0.36037500  0.31445100  1
  C  C5  1  0.79738700  0.13962500  0.81445100  1
  C  C6  1  0.20261300  0.13962500  0.68554900  1
  C  C7  1  0.29738700  0.36037500  0.18554900  1
  C  C8  1  0.16170300  0.67101300  0.95786900  1
  C  C9  1  0.33829700  0.82898700  0.45786900  1
  C  C10  1  0.66170300  0.82898700  0.04213100  1
  C  C11  1  0.83829700  0.67101300  0.54213100  1
  C  C12  1  0.83829700  0.32898700  0.04213100  1
  C  C13  1  0.66170300  0.17101300  0.54213100  1
  C  C14  1  0.33829700  0.17101300  0.95786900  1
  C  C15  1  0.16170300  0.32898700  0.45786900  1
  C  C16  1  0.55963000  0.90354600  0.70715100  1
  C  C17  1  0.94037000  0.59645400  0.20715100  1
  C  C18  1  0.05963000  0.59645400  0.29284900  1
  C  C19  1  0.44037000  0.90354600  0.79284900  1
  C  C20  1  0.44037000  0.09645400  0.29284900  1
  C  C21  1  0.05963000  0.40354600  0.79284900  1
  C  C22  1  0.94037000  0.40354600  0.70715100  1
  C  C23  1  0.55963000  0.09645400  0.20715100  1
  Ni  Ni24  1  0.50000000  0.46293400  0.75000000  1
  Ni  Ni25  1  0.00000000  0.03706600  0.25000000  1
  Ni  Ni26  1  0.50000000  0.53706600  0.25000000  1
  Ni  Ni27  1  0.00000000  0.96293400  0.75000000  1
  Ni  Ni28  1  0.50000000  0.83664600  0.75000000  1
  Ni  Ni29  1  0.00000000  0.66335400  0.25000000  1
  Ni  Ni30  1  0.50000000  0.16335400  0.25000000  1
  Ni  Ni31  1  0.00000000  0.33664600  0.75000000  1
  Cu  Cu32  1  0.15399000  0.66132300  0.82241600  1
  Cu  Cu33  1  0.34601000  0.83867700  0.32241600  1
  Cu  Cu34  1  0.65399000  0.83867700  0.17758400  1
  Cu  Cu35  1  0.84601000  0.66132300  0.67758400  1
  Cu  Cu36  1  0.84601000  0.33867700  0.17758400  1
  Cu  Cu37  1  0.65399000  0.16132300  0.67758400  1
  Cu  Cu38  1  0.34601000  0.16132300  0.82241600  1
  Cu  Cu39  1  0.15399000  0.33867700  0.32241600  1
  Cu  Cu40  1  0.98589200  0.79831200  0.07155500  1
  Cu  Cu41  1  0.51410800  0.70168800  0.57155500  1
  Cu  Cu42  1  0.48589200  0.70168800  0.92844500  1
  Cu  Cu43  1  0.01410800  0.79831200  0.42844500  1
  Cu  Cu44  1  0.01410800  0.20168800  0.92844500  1
  Cu  Cu45  1  0.48589200  0.29831200  0.42844500  1
  Cu  Cu46  1  0.51410800  0.29831200  0.07155500  1
  Cu  Cu47  1  0.98589200  0.20168800  0.57155500  1
  Cu  Cu48  1  0.35963000  0.71527900  0.07673000  1
  Cu  Cu49  1  0.14037000  0.78472100  0.57673000  1
  Cu  Cu50  1  0.85963000  0.78472100  0.92327000  1
  Cu  Cu51  1  0.64037000  0.71527900  0.42327000  1
  Cu  Cu52  1  0.64037000  0.28472100  0.92327000  1
  Cu  Cu53  1  0.85963000  0.21527900  0.42327000  1
  Cu  Cu54  1  0.14037000  0.21527900  0.07673000  1
  Cu  Cu55  1  0.35963000  0.28472100  0.57673000  1
  Cu  Cu56  1  0.91772900  0.49616800  0.92606500  1
  Cu  Cu57  1  0.58227100  0.00383200  0.42606500  1
  Cu  Cu58  1  0.41772900  0.00383200  0.07393500  1
  Cu  Cu59  1  0.08227100  0.49616800  0.57393500  1
  Cu  Cu60  1  0.08227100  0.50383200  0.07393500  1
  Cu  Cu61  1  0.41772900  0.99616800  0.57393500  1
  Cu  Cu62  1  0.58227100  0.99616800  0.92606500  1
  Cu  Cu63  1  0.91772900  0.50383200  0.42606500  1
  Cu  Cu64  1  0.21135900  0.92560600  0.93583900  1
  Cu  Cu65  1  0.28864100  0.57439400  0.43583900  1
  Cu  Cu66  1  0.71135900  0.57439400  0.06416100  1
  Cu  Cu67  1  0.78864100  0.92560600  0.56416100  1
  Cu  Cu68  1  0.78864100  0.07439400  0.06416100  1
  Cu  Cu69  1  0.71135900  0.42560600  0.56416100  1
  Cu  Cu70  1  0.28864100  0.42560600  0.93583900  1
  Cu  Cu71  1  0.21135900  0.07439400  0.43583900  1
