# generated using pymatgen
data_Cu2Ni4C9
_symmetry_space_group_name_H-M   'P 1'
_cell_length_a   5.61543372
_cell_length_b   5.61543372
_cell_length_c   10.84689200
_cell_angle_alpha   90.00000000
_cell_angle_beta   90.00000000
_cell_angle_gamma   119.32563974
_symmetry_Int_Tables_number   1
_chemical_formula_structural   Cu2Ni4C9
_chemical_formula_sum   'Cu4 Ni8 C18'
_cell_volume   298.20422531
_cell_formula_units_Z   2
loop_
 _symmetry_equiv_pos_site_id
 _symmetry_equiv_pos_as_xyz
  1  'x, y, z'
loop_
 _atom_site_type_symbol
 _atom_site_label
 _atom_site_symmetry_multiplicity
 _atom_site_fract_x
 _atom_site_fract_y
 _atom_site_fract_z
 _atom_site_occupancy
  C  C0  1  0.18842400  0.18842400  0.27323900  1
  C  C1  1  0.09769100  0.09769100  0.62809300  1
  C  C2  1  0.90230900  0.90230900  0.12809300  1
  C  C3  1  0.81157600  0.81157600  0.77323900  1
  C  C4  1  0.82986600  0.15470500  0.90348300  1
  C  C5  1  0.84529500  0.17013400  0.40348300  1
  C  C6  1  0.50251400  0.80686100  0.26389300  1
  C  C7  1  0.50564000  0.87834700  0.63750600  1
  C  C8  1  0.49436000  0.12165300  0.13750600  1
  C  C9  1  0.19313900  0.49748600  0.76389300  1
  C  C10  1  0.49748600  0.19313900  0.76389300  1
  C  C11  1  0.12165300  0.49436000  0.13750600  1
  C  C12  1  0.17013400  0.84529500  0.40348300  1
  C  C13  1  0.15470500  0.82986600  0.90348300  1
  C  C14  1  0.87834700  0.50564000  0.63750600  1
  C  C15  1  0.80686100  0.50251400  0.26389300  1
  C  C16  1  0.52831700  0.52831700  0.00386300  1
  C  C17  1  0.47168300  0.47168300  0.50386300  1
  Ni  Ni18  1  0.16283800  0.16283800  0.45148600  1
  Ni  Ni19  1  0.83716200  0.83716200  0.95148600  1
  Ni  Ni20  1  0.83357200  0.17167100  0.71913000  1
  Ni  Ni21  1  0.51360900  0.51360900  0.68127600  1
  Ni  Ni22  1  0.48639100  0.48639100  0.18127600  1
  Ni  Ni23  1  0.82832900  0.16642800  0.21913000  1
  Ni  Ni24  1  0.16642800  0.82832900  0.21913000  1
  Ni  Ni25  1  0.17167100  0.83357200  0.71913000  1
  Cu  Cu26  1  0.50789400  0.84362600  0.44986700  1
  Cu  Cu27  1  0.15637400  0.49210600  0.94986700  1
  Cu  Cu28  1  0.49210600  0.15637400  0.94986700  1
  Cu  Cu29  1  0.84362600  0.50789400  0.44986700  1
