# generated using pymatgen
data_Cu12Ni10C7
_symmetry_space_group_name_H-M   'P 1'
_cell_length_a   7.17941000
_cell_length_b   9.85242900
_cell_length_c   15.84947771
_cell_angle_alpha   52.44310602
_cell_angle_beta   90.00000000
_cell_angle_gamma   90.00000000
_symmetry_Int_Tables_number   1
_chemical_formula_structural   Cu12Ni10C7
_chemical_formula_sum   'Cu24 Ni20 C14'
_cell_volume   888.75576401
_cell_formula_units_Z   2
loop_
 _symmetry_equiv_pos_site_id
 _symmetry_equiv_pos_as_xyz
  1  'x, y, z'
loop_
 _atom_site_type_symbol
 _atom_site_label
 _atom_site_symmetry_multiplicity
 _atom_site_fract_x
 _atom_site_fract_y
 _atom_site_fract_z
 _atom_site_occupancy
  C  C0  1  0.81333500  0.56562700  0.49904100  1
  C  C1  1  0.18666500  0.43437300  0.50095900  1
  C  C2  1  0.81333500  0.43437300  0.00095900  1
  C  C3  1  0.18666500  0.56562700  0.99904100  1
  Ni  Ni4  1  0.76347700  0.42773600  0.81291900  1
  Ni  Ni5  1  0.23652300  0.57226400  0.18708100  1
  Ni  Ni6  1  0.76347700  0.57226400  0.68708100  1
  Ni  Ni7  1  0.23652300  0.42773600  0.31291900  1
  Ni  Ni8  1  0.84188900  0.38588900  0.43461000  1
  Ni  Ni9  1  0.15811100  0.61411100  0.56539000  1
  Ni  Ni10  1  0.84188900  0.61411100  0.06539000  1
  Ni  Ni11  1  0.15811100  0.38588900  0.93461000  1
  Ni  Ni12  1  0.38066000  0.13832400  0.68028400  1
  Ni  Ni13  1  0.61934000  0.86167600  0.31971600  1
  Ni  Ni14  1  0.38066000  0.86167600  0.81971600  1
  Ni  Ni15  1  0.61934000  0.13832400  0.18028400  1
  Ni  Ni16  1  0.49065300  0.20442000  0.29736800  1
  Ni  Ni17  1  0.50934700  0.79558000  0.70263200  1
  Ni  Ni18  1  0.49065300  0.79558000  0.20263200  1
  Ni  Ni19  1  0.50934700  0.20442000  0.79736800  1
  Ni  Ni20  1  0.57027900  0.38883400  0.19727500  1
  Ni  Ni21  1  0.42972100  0.61116600  0.80272500  1
  Ni  Ni22  1  0.57027900  0.61116600  0.30272500  1
  Ni  Ni23  1  0.42972100  0.38883400  0.69727500  1
  Cu  Cu24  1  0.46576800  0.16473600  0.54747000  1
  Cu  Cu25  1  0.53423200  0.83526400  0.45253000  1
  Cu  Cu26  1  0.46576800  0.83526400  0.95253000  1
  Cu  Cu27  1  0.53423200  0.16473600  0.04747000  1
  Cu  Cu28  1  0.50160600  0.70345300  0.04077700  1
  Cu  Cu29  1  0.49839400  0.29654700  0.95922300  1
  Cu  Cu30  1  0.50160600  0.29654700  0.45922300  1
  Cu  Cu31  1  0.49839400  0.70345300  0.54077700  1
  Cu  Cu32  1  0.29947900  0.29324300  0.47002500  1
  Cu  Cu33  1  0.70052100  0.70675700  0.52997500  1
  Cu  Cu34  1  0.29947900  0.70675700  0.02997500  1
  Cu  Cu35  1  0.70052100  0.29324300  0.97002500  1
  Cu  Cu36  1  0.51616600  0.72350800  0.28294400  1
  Cu  Cu37  1  0.48383400  0.27649200  0.71705600  1
  Cu  Cu38  1  0.51616600  0.27649200  0.21705600  1
  Cu  Cu39  1  0.48383400  0.72350800  0.78294400  1
  Cu  Cu40  1  0.96803500  0.21174400  0.80118000  1
  Cu  Cu41  1  0.03196500  0.78825600  0.19882000  1
  Cu  Cu42  1  0.96803500  0.78825600  0.69882000  1
  Cu  Cu43  1  0.03196500  0.21174400  0.30118000  1
  Cu  Cu44  1  0.91151100  0.75397900  0.77515900  1
  Cu  Cu45  1  0.08848900  0.24602100  0.22484100  1
  Cu  Cu46  1  0.91151100  0.24602100  0.72484100  1
  Cu  Cu47  1  0.08848900  0.75397900  0.27515900  1
  C  C48  1  0.68457300  0.50000000  0.75000000  1
  C  C49  1  0.31542700  0.50000000  0.25000000  1
  C  C50  1  0.90795900  0.41380900  0.47560600  1
  C  C51  1  0.09204100  0.58619100  0.52439400  1
  C  C52  1  0.90795900  0.58619100  0.02439400  1
  C  C53  1  0.09204100  0.41380900  0.97560600  1
  C  C54  1  0.67624400  0.19318900  0.20875800  1
  C  C55  1  0.32375600  0.80681100  0.79124200  1
  C  C56  1  0.67624400  0.80681100  0.29124200  1
  C  C57  1  0.32375600  0.19318900  0.70875800  1
