# generated using pymatgen
data_Cu7Ni4C25
_symmetry_space_group_name_H-M   'P 1'
_cell_length_a   11.00550326
_cell_length_b   11.13680466
_cell_length_c   11.62396838
_cell_angle_alpha   112.28091033
_cell_angle_beta   108.88945785
_cell_angle_gamma   104.86187664
_symmetry_Int_Tables_number   1
_chemical_formula_structural   Cu7Ni4C25
_chemical_formula_sum   'Cu14 Ni8 C50'
_cell_volume   1124.23905221
_cell_formula_units_Z   2
loop_
 _symmetry_equiv_pos_site_id
 _symmetry_equiv_pos_as_xyz
  1  'x, y, z'
loop_
 _atom_site_type_symbol
 _atom_site_label
 _atom_site_symmetry_multiplicity
 _atom_site_fract_x
 _atom_site_fract_y
 _atom_site_fract_z
 _atom_site_occupancy
  C  C0  1  0.03310500  0.32697500  0.61792500  1
  C  C1  1  0.96689500  0.67302500  0.38207500  1
  Ni  Ni2  1  0.24088400  0.82471200  0.74678500  1
  Ni  Ni3  1  0.07917700  0.71205600  0.06432100  1
  Ni  Ni4  1  0.37331400  0.23314900  0.88848800  1
  Ni  Ni5  1  0.42806700  0.59870900  0.40363400  1
  Ni  Ni6  1  0.57193300  0.40129100  0.59636600  1
  Ni  Ni7  1  0.62668600  0.76685100  0.11151200  1
  Ni  Ni8  1  0.92082300  0.28794400  0.93567900  1
  Ni  Ni9  1  0.75911600  0.17528800  0.25321500  1
  Cu  Cu10  1  0.99767600  0.97427400  0.77299800  1
  Cu  Cu11  1  0.22318300  0.81479000  0.42590000  1
  Cu  Cu12  1  0.07622000  0.33535600  0.29882900  1
  Cu  Cu13  1  0.51613300  0.72534800  0.76371300  1
  Cu  Cu14  1  0.24444200  0.11528200  0.50429900  1
  Cu  Cu15  1  0.39872900  0.96362900  0.14097500  1
  Cu  Cu16  1  0.29930100  0.52340100  0.03742700  1
  Cu  Cu17  1  0.70069900  0.47659900  0.96257300  1
  Cu  Cu18  1  0.60127100  0.03637100  0.85902500  1
  Cu  Cu19  1  0.75555800  0.88471800  0.49570100  1
  Cu  Cu20  1  0.48386700  0.27465200  0.23628700  1
  Cu  Cu21  1  0.92378000  0.66464400  0.70117100  1
  Cu  Cu22  1  0.77681700  0.18521000  0.57410000  1
  Cu  Cu23  1  0.00232400  0.02572600  0.22700200  1
  C  C24  1  0.01203600  0.65823500  0.82880500  1
  C  C25  1  0.99489400  0.65847200  0.60584400  1
  C  C26  1  0.32610600  0.91817300  0.98670200  1
  C  C27  1  0.02247100  0.91282100  0.12448200  1
  C  C28  1  0.15810000  0.80088100  0.52236700  1
  C  C29  1  0.09455600  0.72572900  0.27666800  1
  C  C30  1  0.25473100  0.36736700  0.92205300  1
  C  C31  1  0.15142800  0.00779300  0.79970700  1
  C  C32  1  0.28440600  0.98165600  0.46635400  1
  C  C33  1  0.35913800  0.68783200  0.72657700  1
  C  C34  1  0.08217900  0.05392800  0.38516300  1
  C  C35  1  0.07340800  0.17301800  0.23321100  1
  C  C36  1  0.23145900  0.44152500  0.38200600  1
  C  C37  1  0.23848100  0.16625600  0.64114500  1
  C  C38  1  0.15450300  0.53135300  0.02103100  1
  C  C39  1  0.34943900  0.77932900  0.44573100  1
  C  C40  1  0.31125900  0.87089100  0.18121100  1
  C  C41  1  0.60663100  0.74643800  0.90616300  1
  C  C42  1  0.58337400  0.87513500  0.76621300  1
  C  C43  1  0.34133900  0.22166700  0.48682800  1
  C  C44  1  0.52614100  0.61522700  0.64195200  1
  C  C45  1  0.44651500  0.02453500  0.80764600  1
  C  C46  1  0.61310600  0.36898000  0.99158300  1
  C  C47  1  0.39099800  0.55437600  0.18698500  1
  C  C48  1  0.60900200  0.44562400  0.81301500  1
  C  C49  1  0.38689400  0.63102000  0.00841700  1
  C  C50  1  0.55348500  0.97546500  0.19235400  1
  C  C51  1  0.47385900  0.38477300  0.35804800  1
  C  C52  1  0.65866100  0.77833300  0.51317200  1
  C  C53  1  0.41662600  0.12486500  0.23378700  1
  C  C54  1  0.39336900  0.25356200  0.09383700  1
  C  C55  1  0.68874100  0.12910900  0.81878900  1
  C  C56  1  0.65056100  0.22067100  0.55426900  1
  C  C57  1  0.84549700  0.46864700  0.97896900  1
  C  C58  1  0.76151900  0.83374400  0.35885500  1
  C  C59  1  0.76854100  0.55847500  0.61799400  1
  C  C60  1  0.92659200  0.82698200  0.76678900  1
  C  C61  1  0.91782100  0.94607200  0.61483700  1
  C  C62  1  0.64086200  0.31216800  0.27342300  1
  C  C63  1  0.71559400  0.01834400  0.53364600  1
  C  C64  1  0.84857200  0.99220700  0.20029300  1
  C  C65  1  0.74526900  0.63263300  0.07794700  1
  C  C66  1  0.90544400  0.27427100  0.72333200  1
  C  C67  1  0.84190000  0.19911900  0.47763300  1
  C  C68  1  0.97752900  0.08717900  0.87551800  1
  C  C69  1  0.67389400  0.08182700  0.01329800  1
  C  C70  1  0.00510600  0.34152800  0.39415600  1
  C  C71  1  0.98796400  0.34176500  0.17119500  1
