# generated using pymatgen
data_Cu10NiC11
_symmetry_space_group_name_H-M   'P 1'
_cell_length_a   7.37220900
_cell_length_b   7.57038300
_cell_length_c   11.07100500
_cell_angle_alpha   90.00000000
_cell_angle_beta   90.00000000
_cell_angle_gamma   90.00000000
_symmetry_Int_Tables_number   1
_chemical_formula_structural   Cu10NiC11
_chemical_formula_sum   'Cu20 Ni2 C22'
_cell_volume   617.87772324
_cell_formula_units_Z   2
loop_
 _symmetry_equiv_pos_site_id
 _symmetry_equiv_pos_as_xyz
  1  'x, y, z'
loop_
 _atom_site_type_symbol
 _atom_site_label
 _atom_site_symmetry_multiplicity
 _atom_site_fract_x
 _atom_site_fract_y
 _atom_site_fract_z
 _atom_site_occupancy
  C  C0  1  0.00000000  0.53978800  0.27330200  1
  C  C1  1  0.50000000  0.03978800  0.72669800  1
  C  C2  1  0.14398300  0.91395200  0.35775200  1
  C  C3  1  0.85601700  0.91395200  0.35775200  1
  C  C4  1  0.35601700  0.41395200  0.64224800  1
  C  C5  1  0.64398300  0.41395200  0.64224800  1
  C  C6  1  0.26892600  0.47323000  0.51566800  1
  C  C7  1  0.73107400  0.47323000  0.51566800  1
  C  C8  1  0.23107400  0.97323000  0.48433200  1
  C  C9  1  0.76892600  0.97323000  0.48433200  1
  C  C10  1  0.23673000  0.19968500  0.34931200  1
  C  C11  1  0.76327000  0.19968500  0.34931200  1
  C  C12  1  0.26327000  0.69968500  0.65068800  1
  C  C13  1  0.73673000  0.69968500  0.65068800  1
  C  C14  1  0.05084700  0.98589500  0.92329600  1
  C  C15  1  0.94915300  0.98589500  0.92329600  1
  C  C16  1  0.44915300  0.48589500  0.07670400  1
  C  C17  1  0.55084700  0.48589500  0.07670400  1
  C  C18  1  0.39353400  0.74943800  0.19257900  1
  C  C19  1  0.60646600  0.74943800  0.19257900  1
  C  C20  1  0.10646600  0.24943800  0.80742100  1
  C  C21  1  0.89353400  0.24943800  0.80742100  1
  Ni  Ni22  1  0.00000000  0.59550000  0.80499000  1
  Ni  Ni23  1  0.50000000  0.09550000  0.19501000  1
  Cu  Cu24  1  0.00000000  0.47511300  0.13298400  1
  Cu  Cu25  1  0.50000000  0.97511300  0.86701600  1
  Cu  Cu26  1  0.00000000  0.76391000  0.28567700  1
  Cu  Cu27  1  0.50000000  0.26391000  0.71432300  1
  Cu  Cu28  1  0.21476000  0.46238900  0.35077100  1
  Cu  Cu29  1  0.78524000  0.46238900  0.35077100  1
  Cu  Cu30  1  0.28524000  0.96238900  0.64922900  1
  Cu  Cu31  1  0.71476000  0.96238900  0.64922900  1
  Cu  Cu32  1  0.27038800  0.29815900  0.29096900  1
  Cu  Cu33  1  0.72961200  0.29815900  0.29096900  1
  Cu  Cu34  1  0.22961200  0.79815900  0.70903100  1
  Cu  Cu35  1  0.77038800  0.79815900  0.70903100  1
  Cu  Cu36  1  0.27046300  0.49765300  0.60320300  1
  Cu  Cu37  1  0.72953700  0.49765300  0.60320300  1
  Cu  Cu38  1  0.22953700  0.99765300  0.39679700  1
  Cu  Cu39  1  0.77046300  0.99765300  0.39679700  1
  Cu  Cu40  1  0.00000000  0.66025600  0.92763400  1
  Cu  Cu41  1  0.50000000  0.16025600  0.07236600  1
  Cu  Cu42  1  0.00000000  0.30990100  0.84085900  1
  Cu  Cu43  1  0.50000000  0.80990100  0.15914100  1
