# generated using pymatgen
data_CuNi2C15
_symmetry_space_group_name_H-M   'P 1'
_cell_length_a   8.58437284
_cell_length_b   8.58437284
_cell_length_c   8.58437258
_cell_angle_alpha   60.90825014
_cell_angle_beta   60.90825014
_cell_angle_gamma   60.90825075
_symmetry_Int_Tables_number   1
_chemical_formula_structural   CuNi2C15
_chemical_formula_sum   'Cu2 Ni4 C30'
_cell_volume   456.46903875
_cell_formula_units_Z   2
loop_
 _symmetry_equiv_pos_site_id
 _symmetry_equiv_pos_as_xyz
  1  'x, y, z'
loop_
 _atom_site_type_symbol
 _atom_site_label
 _atom_site_symmetry_multiplicity
 _atom_site_fract_x
 _atom_site_fract_y
 _atom_site_fract_z
 _atom_site_occupancy
  Ni  Ni0  1  0.35637500  0.35637500  0.35637500  1
  Ni  Ni1  1  0.85637500  0.85637500  0.85637500  1
  Ni  Ni2  1  0.14362500  0.14362500  0.14362500  1
  Ni  Ni3  1  0.64362500  0.64362500  0.64362500  1
  Cu  Cu4  1  0.00000000  0.00000000  0.00000000  1
  Cu  Cu5  1  0.50000000  0.50000000  0.50000000  1
  C  C6  1  0.75000000  0.04264400  0.45735600  1
  C  C7  1  0.04264400  0.45735600  0.75000000  1
  C  C8  1  0.45735600  0.75000000  0.04264400  1
  C  C9  1  0.54264400  0.25000000  0.95735600  1
  C  C10  1  0.95735600  0.54264400  0.25000000  1
  C  C11  1  0.25000000  0.95735600  0.54264400  1
  C  C12  1  0.88541300  0.50079600  0.68263200  1
  C  C13  1  0.50079600  0.68263200  0.88541300  1
  C  C14  1  0.68263200  0.88541300  0.50079600  1
  C  C15  1  0.90987000  0.05700200  0.26260700  1
  C  C16  1  0.81736800  0.99920400  0.61458700  1
  C  C17  1  0.59013000  0.23739300  0.44299800  1
  C  C18  1  0.05700200  0.26260700  0.90987000  1
  C  C19  1  0.23739300  0.44299800  0.59013000  1
  C  C20  1  0.38541300  0.18263200  0.00079600  1
  C  C21  1  0.44299800  0.59013000  0.23739300  1
  C  C22  1  0.73739300  0.09013000  0.94299800  1
  C  C23  1  0.00079600  0.38541300  0.18263200  1
  C  C24  1  0.99920400  0.61458700  0.81736800  1
  C  C25  1  0.26260700  0.90987000  0.05700200  1
  C  C26  1  0.55700200  0.40987000  0.76260700  1
  C  C27  1  0.61458700  0.81736800  0.99920400  1
  C  C28  1  0.76260700  0.55700200  0.40987000  1
  C  C29  1  0.94299800  0.73739300  0.09013000  1
  C  C30  1  0.40987000  0.76260700  0.55700200  1
  C  C31  1  0.18263200  0.00079600  0.38541300  1
  C  C32  1  0.09013000  0.94299800  0.73739300  1
  C  C33  1  0.31736800  0.11458700  0.49920400  1
  C  C34  1  0.49920400  0.31736800  0.11458700  1
  C  C35  1  0.11458700  0.49920400  0.31736800  1
