# generated using pymatgen
data_Cu4NiC26
_symmetry_space_group_name_H-M   'P 1'
_cell_length_a   2.94089800
_cell_length_b   9.19941500
_cell_length_c   25.44672000
_cell_angle_alpha   90.00000000
_cell_angle_beta   90.00000000
_cell_angle_gamma   90.00000000
_symmetry_Int_Tables_number   1
_chemical_formula_structural   Cu4NiC26
_chemical_formula_sum   'Cu8 Ni2 C52'
_cell_volume   688.44933400
_cell_formula_units_Z   2
loop_
 _symmetry_equiv_pos_site_id
 _symmetry_equiv_pos_as_xyz
  1  'x, y, z'
loop_
 _atom_site_type_symbol
 _atom_site_label
 _atom_site_symmetry_multiplicity
 _atom_site_fract_x
 _atom_site_fract_y
 _atom_site_fract_z
 _atom_site_occupancy
  C  C0  1  0.00000000  0.69381700  0.48937400  1
  C  C1  1  0.00000000  0.69599900  0.69089400  1
  C  C2  1  0.00000000  0.80400100  0.19089400  1
  C  C3  1  0.00000000  0.80618300  0.98937400  1
  C  C4  1  0.00000000  0.19381700  0.01062600  1
  C  C5  1  0.00000000  0.19599900  0.80910600  1
  C  C6  1  0.00000000  0.30400100  0.30910600  1
  C  C7  1  0.00000000  0.30618300  0.51062600  1
  C  C8  1  0.00000000  0.50561000  0.59982700  1
  C  C9  1  0.50000000  0.65254400  0.30964800  1
  C  C10  1  0.50000000  0.84745600  0.80964800  1
  C  C11  1  0.00000000  0.99439000  0.09982700  1
  C  C12  1  0.00000000  0.00561000  0.90017300  1
  C  C13  1  0.50000000  0.15254400  0.19035200  1
  C  C14  1  0.50000000  0.34745600  0.69035200  1
  C  C15  1  0.00000000  0.49439000  0.40017300  1
  Ni  Ni16  1  0.00000000  0.50000000  0.00000000  1
  Ni  Ni17  1  0.00000000  0.00000000  0.50000000  1
  Cu  Cu18  1  0.00000000  0.50620500  0.80541100  1
  Cu  Cu19  1  0.50000000  0.64396500  0.08773100  1
  Cu  Cu20  1  0.50000000  0.85603500  0.58773100  1
  Cu  Cu21  1  0.00000000  0.99379500  0.30541100  1
  Cu  Cu22  1  0.00000000  0.00620500  0.69458900  1
  Cu  Cu23  1  0.50000000  0.14396500  0.41226900  1
  Cu  Cu24  1  0.50000000  0.35603500  0.91226900  1
  Cu  Cu25  1  0.00000000  0.49379500  0.19458900  1
  C  C26  1  0.00000000  0.49732000  0.92436100  1
  C  C27  1  0.00000000  0.50268000  0.07563900  1
  C  C28  1  0.50000000  0.55895700  0.44293300  1
  C  C29  1  0.50000000  0.54932000  0.65607300  1
  C  C30  1  0.50000000  0.62094000  0.16592200  1
  C  C31  1  0.00000000  0.59644500  0.26125300  1
  C  C32  1  0.50000000  0.64112600  0.00401700  1
  C  C33  1  0.50000000  0.64563300  0.78880900  1
  C  C34  1  0.00000000  0.68357100  0.35763900  1
  C  C35  1  0.00000000  0.70250900  0.58098100  1
  C  C36  1  0.00000000  0.79749100  0.08098100  1
  C  C37  1  0.00000000  0.81642900  0.85763900  1
  C  C38  1  0.50000000  0.85436700  0.28880900  1
  C  C39  1  0.50000000  0.85887400  0.50401700  1
  C  C40  1  0.00000000  0.90355500  0.76125300  1
  C  C41  1  0.50000000  0.87906000  0.66592200  1
  C  C42  1  0.50000000  0.95068000  0.15607300  1
  C  C43  1  0.50000000  0.94104300  0.94293300  1
  C  C44  1  0.00000000  0.99732000  0.57563900  1
  C  C45  1  0.00000000  0.00268000  0.42436100  1
  C  C46  1  0.50000000  0.05895700  0.05706700  1
  C  C47  1  0.50000000  0.04932000  0.84392700  1
  C  C48  1  0.50000000  0.12094000  0.33407800  1
  C  C49  1  0.00000000  0.09644500  0.23874700  1
  C  C50  1  0.50000000  0.14112600  0.49598300  1
  C  C51  1  0.50000000  0.14563300  0.71119100  1
  C  C52  1  0.00000000  0.18357100  0.14236100  1
  C  C53  1  0.00000000  0.20250900  0.91901900  1
  C  C54  1  0.00000000  0.29749100  0.41901900  1
  C  C55  1  0.00000000  0.31642900  0.64236100  1
  C  C56  1  0.50000000  0.35436700  0.21119100  1
  C  C57  1  0.50000000  0.35887400  0.99598300  1
  C  C58  1  0.00000000  0.40355500  0.73874700  1
  C  C59  1  0.50000000  0.37906000  0.83407800  1
  C  C60  1  0.50000000  0.45068000  0.34392700  1
  C  C61  1  0.50000000  0.44104300  0.55706700  1
