# generated using pymatgen
data_Cu2Ni8C25
_symmetry_space_group_name_H-M   'P 1'
_cell_length_a   13.78453900
_cell_length_b   13.78453900
_cell_length_c   9.17549300
_cell_angle_alpha   90.00000000
_cell_angle_beta   90.00000000
_cell_angle_gamma   90.00000000
_symmetry_Int_Tables_number   1
_chemical_formula_structural   Cu2Ni8C25
_chemical_formula_sum   'Cu8 Ni32 C100'
_cell_volume   1743.46768085
_cell_formula_units_Z   4
loop_
 _symmetry_equiv_pos_site_id
 _symmetry_equiv_pos_as_xyz
  1  'x, y, z'
loop_
 _atom_site_type_symbol
 _atom_site_label
 _atom_site_symmetry_multiplicity
 _atom_site_fract_x
 _atom_site_fract_y
 _atom_site_fract_z
 _atom_site_occupancy
  C  C0  1  0.25000000  0.25000000  0.75000000  1
  C  C1  1  0.75000000  0.75000000  0.75000000  1
  C  C2  1  0.25000000  0.75000000  0.25000000  1
  C  C3  1  0.75000000  0.25000000  0.25000000  1
  C  C4  1  0.91878400  0.05674200  0.73782400  1
  C  C5  1  0.08121600  0.94325800  0.73782400  1
  C  C6  1  0.44325800  0.41878400  0.23782400  1
  C  C7  1  0.55674200  0.58121600  0.23782400  1
  C  C8  1  0.58121600  0.44325800  0.76217600  1
  C  C9  1  0.41878400  0.55674200  0.76217600  1
  C  C10  1  0.05674200  0.08121600  0.26217600  1
  C  C11  1  0.94325800  0.91878400  0.26217600  1
  C  C12  1  0.85779300  0.13730000  0.62002900  1
  C  C13  1  0.14220700  0.86270000  0.62002900  1
  C  C14  1  0.36270000  0.35779300  0.12002900  1
  C  C15  1  0.63730000  0.64220700  0.12002900  1
  C  C16  1  0.64220700  0.36270000  0.87997100  1
  C  C17  1  0.35779300  0.63730000  0.87997100  1
  C  C18  1  0.13730000  0.14220700  0.37997100  1
  C  C19  1  0.86270000  0.85779300  0.37997100  1
  C  C20  1  0.94335100  0.25124000  0.48910800  1
  C  C21  1  0.05664900  0.74876000  0.48910800  1
  C  C22  1  0.24876000  0.44335100  0.98910800  1
  C  C23  1  0.75124000  0.55664900  0.98910800  1
  C  C24  1  0.55664900  0.24876000  0.01089200  1
  C  C25  1  0.44335100  0.75124000  0.01089200  1
  C  C26  1  0.25124000  0.05664900  0.51089200  1
  C  C27  1  0.74876000  0.94335100  0.51089200  1
  C  C28  1  0.06580800  0.27121600  0.53246500  1
  C  C29  1  0.93419200  0.72878400  0.53246500  1
  C  C30  1  0.22878400  0.56580800  0.03246500  1
  C  C31  1  0.77121600  0.43419200  0.03246500  1
  C  C32  1  0.43419200  0.22878400  0.96753500  1
  C  C33  1  0.56580800  0.77121600  0.96753500  1
  C  C34  1  0.27121600  0.93419200  0.46753500  1
  C  C35  1  0.72878400  0.06580800  0.46753500  1
  C  C36  1  0.32892800  0.85797200  0.82456400  1
  C  C37  1  0.67107200  0.14202800  0.82456400  1
  C  C38  1  0.64202800  0.82892800  0.32456400  1
  C  C39  1  0.35797200  0.17107200  0.32456400  1
  C  C40  1  0.17107200  0.64202800  0.67543600  1
  C  C41  1  0.82892800  0.35797200  0.67543600  1
  C  C42  1  0.85797200  0.67107200  0.17543600  1
  C  C43  1  0.14202800  0.32892800  0.17543600  1
  C  C44  1  0.40569000  0.91513000  0.69809400  1
  C  C45  1  0.59431000  0.08487000  0.69809400  1
  C  C46  1  0.58487000  0.90569000  0.19809400  1
  C  C47  1  0.41513000  0.09431000  0.19809400  1
  C  C48  1  0.09431000  0.58487000  0.80190600  1
  C  C49  1  0.90569000  0.41513000  0.80190600  1
  C  C50  1  0.91513000  0.59431000  0.30190600  1
  C  C51  1  0.08487000  0.40569000  0.30190600  1
  C  C52  1  0.24777700  0.07966100  0.97423900  1
  C  C53  1  0.75222300  0.92033900  0.97423900  1
  C  C54  1  0.42033900  0.74777700  0.47423900  1
  C  C55  1  0.57966100  0.25222300  0.47423900  1
  C  C56  1  0.25222300  0.42033900  0.52576100  1
  C  C57  1  0.74777700  0.57966100  0.52576100  1
  C  C58  1  0.07966100  0.75222300  0.02576100  1
  C  C59  1  0.92033900  0.24777700  0.02576100  1
  C  C60  1  0.24455700  0.95230200  0.99399300  1
  C  C61  1  0.75544300  0.04769800  0.99399300  1
  C  C62  1  0.54769800  0.74455700  0.49399300  1
  C  C63  1  0.45230200  0.25544300  0.49399300  1
  C  C64  1  0.25544300  0.54769800  0.50600700  1
  C  C65  1  0.74455700  0.45230200  0.50600700  1
  C  C66  1  0.95230200  0.75544300  0.00600700  1
  C  C67  1  0.04769800  0.24455700  0.00600700  1
  C  C68  1  0.00243200  0.16454400  0.65117800  1
  C  C69  1  0.99756800  0.83545600  0.65117800  1
  C  C70  1  0.33545600  0.50243200  0.15117800  1
  C  C71  1  0.66454400  0.49756800  0.15117800  1
  C  C72  1  0.49756800  0.33545600  0.84882200  1
  C  C73  1  0.50243200  0.66454400  0.84882200  1
  C  C74  1  0.16454400  0.99756800  0.34882200  1
  C  C75  1  0.83545600  0.00243200  0.34882200  1
  C  C76  1  0.32547500  0.00722900  0.82223200  1
  C  C77  1  0.67452500  0.99277100  0.82223200  1
  C  C78  1  0.49277100  0.82547500  0.32223200  1
  C  C79  1  0.50722900  0.17452500  0.32223200  1
  C  C80  1  0.17452500  0.49277100  0.67776800  1
  C  C81  1  0.82547500  0.50722900  0.67776800  1
  C  C82  1  0.00722900  0.67452500  0.17776800  1
  C  C83  1  0.99277100  0.32547500  0.17776800  1
  C  C84  1  0.10448400  0.13263300  0.74830000  1
  C  C85  1  0.89551600  0.86736700  0.74830000  1
  C  C86  1  0.36736700  0.60448400  0.24830000  1
  C  C87  1  0.63263300  0.39551600  0.24830000  1
  C  C88  1  0.39551600  0.36736700  0.75170000  1
  C  C89  1  0.60448400  0.63263300  0.75170000  1
  C  C90  1  0.13263300  0.89551600  0.25170000  1
  C  C91  1  0.86736700  0.10448400  0.25170000  1
  C  C92  1  0.36525200  0.11007400  0.73347700  1
  C  C93  1  0.63474800  0.88992600  0.73347700  1
  C  C94  1  0.38992600  0.86525200  0.23347700  1
  C  C95  1  0.61007400  0.13474800  0.23347700  1
  C  C96  1  0.13474800  0.38992600  0.76652300  1
  C  C97  1  0.86525200  0.61007400  0.76652300  1
  C  C98  1  0.11007400  0.63474800  0.26652300  1
  C  C99  1  0.88992600  0.36525200  0.26652300  1
  Ni  Ni100  1  0.91887200  0.11835900  0.67679400  1
  Ni  Ni101  1  0.08112800  0.88164100  0.67679400  1
  Ni  Ni102  1  0.38164100  0.41887200  0.17679400  1
  Ni  Ni103  1  0.61835900  0.58112800  0.17679400  1
  Ni  Ni104  1  0.58112800  0.38164100  0.82320600  1
  Ni  Ni105  1  0.41887200  0.61835900  0.82320600  1
  Ni  Ni106  1  0.11835900  0.08112800  0.32320600  1
  Ni  Ni107  1  0.88164100  0.91887200  0.32320600  1
  Ni  Ni108  1  0.00324800  0.23412500  0.54961200  1
  Ni  Ni109  1  0.99675200  0.76587500  0.54961200  1
  Ni  Ni110  1  0.26587500  0.50324800  0.04961200  1
  Ni  Ni111  1  0.73412500  0.49675200  0.04961200  1
  Ni  Ni112  1  0.49675200  0.26587500  0.95038800  1
  Ni  Ni113  1  0.50324800  0.73412500  0.95038800  1
  Ni  Ni114  1  0.23412500  0.99675200  0.45038800  1
  Ni  Ni115  1  0.76587500  0.00324800  0.45038800  1
  Ni  Ni116  1  0.35209900  0.91960700  0.77301600  1
  Ni  Ni117  1  0.64790100  0.08039300  0.77301600  1
  Ni  Ni118  1  0.58039300  0.85209900  0.27301600  1
  Ni  Ni119  1  0.41960700  0.14790100  0.27301600  1
  Ni  Ni120  1  0.14790100  0.58039300  0.72698400  1
  Ni  Ni121  1  0.85209900  0.41960700  0.72698400  1
  Ni  Ni122  1  0.91960700  0.64790100  0.22698400  1
  Ni  Ni123  1  0.08039300  0.35209900  0.22698400  1
  Ni  Ni124  1  0.26766100  0.01236900  0.93842900  1
  Ni  Ni125  1  0.73233900  0.98763100  0.93842900  1
  Ni  Ni126  1  0.48763100  0.76766100  0.43842900  1
  Ni  Ni127  1  0.51236900  0.23233900  0.43842900  1
  Ni  Ni128  1  0.23233900  0.48763100  0.56157100  1
  Ni  Ni129  1  0.76766100  0.51236900  0.56157100  1
  Ni  Ni130  1  0.01236900  0.73233900  0.06157100  1
  Ni  Ni131  1  0.98763100  0.26766100  0.06157100  1
  Cu  Cu132  1  0.24959000  0.24067900  0.02765900  1
  Cu  Cu133  1  0.75041000  0.75932100  0.02765900  1
  Cu  Cu134  1  0.25932100  0.74959000  0.52765900  1
  Cu  Cu135  1  0.74067900  0.25041000  0.52765900  1
  Cu  Cu136  1  0.25041000  0.25932100  0.47234100  1
  Cu  Cu137  1  0.74959000  0.74067900  0.47234100  1
  Cu  Cu138  1  0.24067900  0.75041000  0.97234100  1
  Cu  Cu139  1  0.75932100  0.24959000  0.97234100  1
