# generated using pymatgen
data_CuNi2C33
_symmetry_space_group_name_H-M   'P 1'
_cell_length_a   8.38893770
_cell_length_b   8.38893770
_cell_length_c   8.38893814
_cell_angle_alpha   61.96869910
_cell_angle_beta   61.96869910
_cell_angle_gamma   61.96869908
_symmetry_Int_Tables_number   1
_chemical_formula_structural   CuNi2C33
_chemical_formula_sum   'Cu1 Ni2 C33'
_cell_volume   435.83805460
_cell_formula_units_Z   1
loop_
 _symmetry_equiv_pos_site_id
 _symmetry_equiv_pos_as_xyz
  1  'x, y, z'
loop_
 _atom_site_type_symbol
 _atom_site_label
 _atom_site_symmetry_multiplicity
 _atom_site_fract_x
 _atom_site_fract_y
 _atom_site_fract_z
 _atom_site_occupancy
  C  C0  1  0.35466600  0.35466600  0.35466600  1
  C  C1  1  0.14387900  0.14387900  0.14387900  1
  C  C2  1  0.64442500  0.64442500  0.64442500  1
  Ni  Ni3  1  0.99878700  0.99878700  0.99878700  1
  Ni  Ni4  1  0.49932900  0.49932900  0.49932900  1
  Cu  Cu5  1  0.85479900  0.85479900  0.85479900  1
  C  C6  1  0.45483100  0.75006300  0.04668400  1
  C  C7  1  0.75006300  0.04668400  0.45483100  1
  C  C8  1  0.04668400  0.45483100  0.75006300  1
  C  C9  1  0.95170500  0.54728500  0.24850200  1
  C  C10  1  0.24850200  0.95170500  0.54728500  1
  C  C11  1  0.54728500  0.24850200  0.95170500  1
  C  C12  1  0.67797300  0.89075400  0.49811100  1
  C  C13  1  0.89075400  0.49811100  0.67797300  1
  C  C14  1  0.49811100  0.67797300  0.89075400  1
  C  C15  1  0.25216000  0.90524800  0.05932600  1
  C  C16  1  0.60988500  0.81784000  0.01642300  1
  C  C17  1  0.43560000  0.59504900  0.25039600  1
  C  C18  1  0.90524800  0.05932600  0.25216000  1
  C  C19  1  0.59504900  0.25039600  0.43560000  1
  C  C20  1  0.99399000  0.39161100  0.17667400  1
  C  C21  1  0.25039600  0.43560000  0.59504900  1
  C  C22  1  0.94138300  0.74974200  0.09272200  1
  C  C23  1  0.17667400  0.99399000  0.39161100  1
  C  C24  1  0.81784000  0.01642300  0.60988500  1
  C  C25  1  0.05932600  0.25216000  0.90524800  1
  C  C26  1  0.74935600  0.56293800  0.40340200  1
  C  C27  1  0.01642300  0.60988500  0.81784000  1
  C  C28  1  0.40340200  0.74935600  0.56293800  1
  C  C29  1  0.09272200  0.94138300  0.74974200  1
  C  C30  1  0.56293800  0.40340200  0.74935600  1
  C  C31  1  0.39161100  0.17667400  0.99399000  1
  C  C32  1  0.74974200  0.09272200  0.94138300  1
  C  C33  1  0.50617100  0.32080100  0.10751300  1
  C  C34  1  0.10751300  0.50617100  0.32080100  1
  C  C35  1  0.32080100  0.10751300  0.50617100  1
