# generated using pymatgen
data_CuNi3C32
_symmetry_space_group_name_H-M   'P 1'
_cell_length_a   8.57360038
_cell_length_b   8.57360038
_cell_length_c   8.57360080
_cell_angle_alpha   60.51250767
_cell_angle_beta   60.51250767
_cell_angle_gamma   60.51250585
_symmetry_Int_Tables_number   1
_chemical_formula_structural   CuNi3C32
_chemical_formula_sum   'Cu1 Ni3 C32'
_cell_volume   450.79145946
_cell_formula_units_Z   1
loop_
 _symmetry_equiv_pos_site_id
 _symmetry_equiv_pos_as_xyz
  1  'x, y, z'
loop_
 _atom_site_type_symbol
 _atom_site_label
 _atom_site_symmetry_multiplicity
 _atom_site_fract_x
 _atom_site_fract_y
 _atom_site_fract_z
 _atom_site_occupancy
  Ni  Ni0  1  0.35734700  0.35734700  0.35734700  1
  Ni  Ni1  1  0.14201000  0.14201000  0.14201000  1
  Ni  Ni2  1  0.64292300  0.64292300  0.64292300  1
  Cu  Cu3  1  0.85908500  0.85908500  0.85908500  1
  C  C4  1  0.99983600  0.99983600  0.99983600  1
  C  C5  1  0.49923300  0.49923300  0.49923300  1
  C  C6  1  0.46011300  0.75085800  0.04173300  1
  C  C7  1  0.75085800  0.04173300  0.46011300  1
  C  C8  1  0.04173300  0.46011300  0.75085800  1
  C  C9  1  0.95765900  0.54258800  0.24906200  1
  C  C10  1  0.24906200  0.95765900  0.54258800  1
  C  C11  1  0.54258800  0.24906200  0.95765900  1
  C  C12  1  0.68895300  0.87796200  0.50375300  1
  C  C13  1  0.87796200  0.50375200  0.68895300  1
  C  C14  1  0.50375200  0.68895300  0.87796200  1
  C  C15  1  0.26388900  0.91310000  0.05660500  1
  C  C16  1  0.61720200  0.80875600  0.00864900  1
  C  C17  1  0.43674300  0.58643900  0.23556300  1
  C  C18  1  0.91310000  0.05660500  0.26388900  1
  C  C19  1  0.58643900  0.23556300  0.43674300  1
  C  C20  1  0.00283900  0.37920400  0.18687300  1
  C  C21  1  0.23556300  0.43674300  0.58643900  1
  C  C22  1  0.94527100  0.73582500  0.08813600  1
  C  C23  1  0.18687300  0.00283900  0.37920400  1
  C  C24  1  0.80875600  0.00864900  0.61720200  1
  C  C25  1  0.05660500  0.26388900  0.91310000  1
  C  C26  1  0.76456100  0.55511700  0.41379200  1
  C  C27  1  0.00864900  0.61720200  0.80875600  1
  C  C28  1  0.41379200  0.76456100  0.55511700  1
  C  C29  1  0.08813600  0.94527100  0.73582500  1
  C  C30  1  0.55511700  0.41379200  0.76456100  1
  C  C31  1  0.37920400  0.18687300  0.00283900  1
  C  C32  1  0.73582500  0.08813600  0.94527100  1
  C  C33  1  0.49459400  0.31484200  0.11888400  1
  C  C34  1  0.11888400  0.49459400  0.31484200  1
  C  C35  1  0.31484200  0.11888400  0.49459400  1
