# generated using pymatgen
data_Cu3(NiC6)2
_symmetry_space_group_name_H-M   'P 1'
_cell_length_a   9.20329900
_cell_length_b   9.35342900
_cell_length_c   25.75542100
_cell_angle_alpha   90.00000000
_cell_angle_beta   90.00000000
_cell_angle_gamma   90.00000000
_symmetry_Int_Tables_number   1
_chemical_formula_structural   Cu3(NiC6)2
_chemical_formula_sum   'Cu24 Ni16 C96'
_cell_volume   2217.08854959
_cell_formula_units_Z   8
loop_
 _symmetry_equiv_pos_site_id
 _symmetry_equiv_pos_as_xyz
  1  'x, y, z'
loop_
 _atom_site_type_symbol
 _atom_site_label
 _atom_site_symmetry_multiplicity
 _atom_site_fract_x
 _atom_site_fract_y
 _atom_site_fract_z
 _atom_site_occupancy
  Ni  Ni0  1  0.99987700  0.39454600  0.06509300  1
  Ni  Ni1  1  0.99987700  0.10545400  0.56509300  1
  Ni  Ni2  1  0.99470700  0.79994900  0.18010300  1
  Ni  Ni3  1  0.99470700  0.70005100  0.68010300  1
  Ni  Ni4  1  0.50529300  0.29994900  0.18010300  1
  Ni  Ni5  1  0.50529300  0.20005100  0.68010300  1
  Ni  Ni6  1  0.50012300  0.60545400  0.56509300  1
  Ni  Ni7  1  0.50012300  0.89454600  0.06509300  1
  Ni  Ni8  1  0.49987700  0.39454600  0.43490700  1
  Ni  Ni9  1  0.49987700  0.10545400  0.93490700  1
  Ni  Ni10  1  0.49470700  0.70005100  0.81989700  1
  Ni  Ni11  1  0.49470700  0.79994900  0.31989700  1
  Ni  Ni12  1  0.00529300  0.29994900  0.31989700  1
  Ni  Ni13  1  0.00529300  0.20005100  0.81989700  1
  Ni  Ni14  1  0.00012300  0.89454600  0.43490700  1
  Ni  Ni15  1  0.00012300  0.60545400  0.93490700  1
  Cu  Cu16  1  0.14538300  0.94663300  0.29727800  1
  Cu  Cu17  1  0.14538300  0.55336700  0.79727800  1
  Cu  Cu18  1  0.14833600  0.25885700  0.44968900  1
  Cu  Cu19  1  0.14833600  0.24114300  0.94968900  1
  Cu  Cu20  1  0.19303900  0.08880700  0.11587900  1
  Cu  Cu21  1  0.19303900  0.41119300  0.61587900  1
  Cu  Cu22  1  0.30696100  0.58880700  0.11587900  1
  Cu  Cu23  1  0.30696100  0.91119300  0.61587900  1
  Cu  Cu24  1  0.35166400  0.75885700  0.44968900  1
  Cu  Cu25  1  0.35166400  0.74114300  0.94968900  1
  Cu  Cu26  1  0.35461700  0.44663300  0.29727800  1
  Cu  Cu27  1  0.35461700  0.05336700  0.79727800  1
  Cu  Cu28  1  0.64538300  0.55336700  0.70272200  1
  Cu  Cu29  1  0.64538300  0.94663300  0.20272200  1
  Cu  Cu30  1  0.64833600  0.25885700  0.05031100  1
  Cu  Cu31  1  0.64833600  0.24114300  0.55031100  1
  Cu  Cu32  1  0.69303900  0.08880700  0.38412100  1
  Cu  Cu33  1  0.69303900  0.41119300  0.88412100  1
  Cu  Cu34  1  0.80696100  0.58880700  0.38412100  1
  Cu  Cu35  1  0.80696100  0.91119300  0.88412100  1
  Cu  Cu36  1  0.85166400  0.75885700  0.05031100  1
  Cu  Cu37  1  0.85166400  0.74114300  0.55031100  1
  Cu  Cu38  1  0.85461700  0.44663300  0.20272200  1
  Cu  Cu39  1  0.85461700  0.05336700  0.70272200  1
  C  C40  1  0.06630400  0.38433800  0.46303100  1
  C  C41  1  0.06630400  0.11566200  0.96303100  1
  C  C42  1  0.08542700  0.08420700  0.27780000  1
  C  C43  1  0.08542700  0.41579300  0.77780000  1
  C  C44  1  0.08474500  0.12373900  0.47750700  1
  C  C45  1  0.08474500  0.37626100  0.97750700  1
  C  C46  1  0.09293200  0.91776800  0.35077100  1
  C  C47  1  0.09293200  0.58223200  0.85077100  1
  C  C48  1  0.09603400  0.18119600  0.08379800  1
  C  C49  1  0.09603400  0.31880400  0.58379800  1
  C  C50  1  0.09909300  0.82633800  0.26303800  1
  C  C51  1  0.09909300  0.67366200  0.76303800  1
  C  C52  1  0.10185400  0.01544300  0.15540900  1
  C  C53  1  0.10185400  0.48455700  0.65540900  1
  C  C54  1  0.14470100  0.22167600  0.39283300  1
  C  C55  1  0.14470100  0.27832400  0.89283300  1
  C  C56  1  0.19215500  0.45573800  0.29703100  1
  C  C57  1  0.19215500  0.04426200  0.79703100  1
  C  C58  1  0.19562900  0.67645300  0.14263000  1
  C  C59  1  0.19562900  0.82354700  0.64263000  1
  C  C60  1  0.19582100  0.76382100  0.46665900  1
  C  C61  1  0.19582100  0.73617900  0.96665900  1
  C  C62  1  0.23793900  0.01689300  0.58064000  1
  C  C63  1  0.23793900  0.48310700  0.08064000  1
  C  C64  1  0.26206100  0.51689300  0.58064000  1
  C  C65  1  0.26206100  0.98310700  0.08064000  1
  C  C66  1  0.30417900  0.23617900  0.96665900  1
  C  C67  1  0.30417900  0.26382100  0.46665900  1
  C  C68  1  0.30437100  0.17645300  0.14263000  1
  C  C69  1  0.30437100  0.32354700  0.64263000  1
  C  C70  1  0.30784500  0.95573800  0.29703100  1
  C  C71  1  0.30784500  0.54426200  0.79703100  1
  C  C72  1  0.35529900  0.72167600  0.39283300  1
  C  C73  1  0.35529900  0.77832400  0.89283300  1
  C  C74  1  0.39814600  0.98455700  0.65540900  1
  C  C75  1  0.39814600  0.51544300  0.15540900  1
  C  C76  1  0.40090700  0.32633800  0.26303800  1
  C  C77  1  0.40090700  0.17366200  0.76303800  1
  C  C78  1  0.40396600  0.68119600  0.08379800  1
  C  C79  1  0.40396600  0.81880400  0.58379800  1
  C  C80  1  0.40706800  0.08223200  0.85077100  1
  C  C81  1  0.40706800  0.41776800  0.35077100  1
  C  C82  1  0.41525500  0.87626100  0.97750700  1
  C  C83  1  0.41525500  0.62373900  0.47750700  1
  C  C84  1  0.41457300  0.58420700  0.27780000  1
  C  C85  1  0.41457300  0.91579300  0.77780000  1
  C  C86  1  0.43369600  0.61566200  0.96303100  1
  C  C87  1  0.43369600  0.88433800  0.46303100  1
  C  C88  1  0.56630400  0.38433800  0.03696900  1
  C  C89  1  0.56630400  0.11566200  0.53696900  1
  C  C90  1  0.58542700  0.08420700  0.22220000  1
  C  C91  1  0.58542700  0.41579300  0.72220000  1
  C  C92  1  0.58474500  0.12373900  0.02249300  1
  C  C93  1  0.58474500  0.37626100  0.52249300  1
  C  C94  1  0.59293200  0.58223200  0.64922900  1
  C  C95  1  0.59293200  0.91776800  0.14922900  1
  C  C96  1  0.59603400  0.18119600  0.41620200  1
  C  C97  1  0.59603400  0.31880400  0.91620200  1
  C  C98  1  0.59909300  0.82633800  0.23696200  1
  C  C99  1  0.59909300  0.67366200  0.73696200  1
  C  C100  1  0.60185400  0.01544300  0.34459100  1
  C  C101  1  0.60185400  0.48455700  0.84459100  1
  C  C102  1  0.64470100  0.22167600  0.10716700  1
  C  C103  1  0.64470100  0.27832400  0.60716700  1
  C  C104  1  0.69215500  0.45573800  0.20296900  1
  C  C105  1  0.69215500  0.04426200  0.70296900  1
  C  C106  1  0.69562900  0.67645300  0.35737000  1
  C  C107  1  0.69562900  0.82354700  0.85737000  1
  C  C108  1  0.69582100  0.76382100  0.03334100  1
  C  C109  1  0.69582100  0.73617900  0.53334100  1
  C  C110  1  0.73793900  0.48310700  0.41936000  1
  C  C111  1  0.73793900  0.01689300  0.91936000  1
  C  C112  1  0.76206100  0.98310700  0.41936000  1
  C  C113  1  0.76206100  0.51689300  0.91936000  1
  C  C114  1  0.80417900  0.26382100  0.03334100  1
  C  C115  1  0.80417900  0.23617900  0.53334100  1
  C  C116  1  0.80437100  0.17645300  0.35737000  1
  C  C117  1  0.80437100  0.32354700  0.85737000  1
  C  C118  1  0.80784500  0.54426200  0.70296900  1
  C  C119  1  0.80784500  0.95573800  0.20296900  1
  C  C120  1  0.85529900  0.72167600  0.10716700  1
  C  C121  1  0.85529900  0.77832400  0.60716700  1
  C  C122  1  0.89814600  0.51544300  0.34459100  1
  C  C123  1  0.89814600  0.98455700  0.84459100  1
  C  C124  1  0.90090700  0.32633800  0.23696200  1
  C  C125  1  0.90090700  0.17366200  0.73696200  1
  C  C126  1  0.90396600  0.68119600  0.41620200  1
  C  C127  1  0.90396600  0.81880400  0.91620200  1
  C  C128  1  0.90706800  0.41776800  0.14922900  1
  C  C129  1  0.90706800  0.08223200  0.64922900  1
  C  C130  1  0.91525500  0.62373900  0.02249300  1
  C  C131  1  0.91525500  0.87626100  0.52249300  1
  C  C132  1  0.91457300  0.58420700  0.22220000  1
  C  C133  1  0.91457300  0.91579300  0.72220000  1
  C  C134  1  0.93369600  0.61566200  0.53696900  1
  C  C135  1  0.93369600  0.88433800  0.03696900  1
