# generated using pymatgen
data_CuNi3C32
_symmetry_space_group_name_H-M   'P 1'
_cell_length_a   8.64214453
_cell_length_b   8.64214453
_cell_length_c   8.64214509
_cell_angle_alpha   60.78104994
_cell_angle_beta   60.78104994
_cell_angle_gamma   60.78104689
_symmetry_Int_Tables_number   1
_chemical_formula_structural   CuNi3C32
_chemical_formula_sum   'Cu1 Ni3 C32'
_cell_volume   464.44551957
_cell_formula_units_Z   1
loop_
 _symmetry_equiv_pos_site_id
 _symmetry_equiv_pos_as_xyz
  1  'x, y, z'
loop_
 _atom_site_type_symbol
 _atom_site_label
 _atom_site_symmetry_multiplicity
 _atom_site_fract_x
 _atom_site_fract_y
 _atom_site_fract_z
 _atom_site_occupancy
  Ni  Ni0  1  0.14561800  0.14561800  0.14561800  1
  Ni  Ni1  1  0.35664600  0.35664600  0.35664600  1
  Ni  Ni2  1  0.64343300  0.64343300  0.64343300  1
  Cu  Cu3  1  0.85749500  0.85749500  0.85749500  1
  C  C4  1  0.00542500  0.00542500  0.00542500  1
  C  C5  1  0.50041300  0.50041300  0.50041300  1
  C  C6  1  0.45063000  0.74830200  0.04522400  1
  C  C7  1  0.53960800  0.25616600  0.95566200  1
  C  C8  1  0.95566200  0.53960800  0.25616600  1
  C  C9  1  0.25616600  0.95566200  0.53960800  1
  C  C10  1  0.74830200  0.04522400  0.45063000  1
  C  C11  1  0.04522400  0.45063000  0.74830200  1
  C  C12  1  0.31263000  0.11003000  0.51207300  1
  C  C13  1  0.51207300  0.31263000  0.11003000  1
  C  C14  1  0.91179300  0.05906400  0.26027700  1
  C  C15  1  0.11003000  0.51207300  0.31263000  1
  C  C16  1  0.81733800  0.99127000  0.61525600  1
  C  C17  1  0.59376700  0.23828400  0.44767100  1
  C  C18  1  0.05906400  0.26027700  0.91179300  1
  C  C19  1  0.23828400  0.44767100  0.59376700  1
  C  C20  1  0.38754300  0.19083100  0.98887400  1
  C  C21  1  0.44767100  0.59376700  0.23828400  1
  C  C22  1  0.73851900  0.09055700  0.93560800  1
  C  C23  1  0.98887400  0.38754300  0.19083100  1
  C  C24  1  0.99127000  0.61525600  0.81733800  1
  C  C25  1  0.26027700  0.91179300  0.05906400  1
  C  C26  1  0.55984300  0.41082300  0.75840900  1
  C  C27  1  0.61525600  0.81733800  0.99127000  1
  C  C28  1  0.75840900  0.55984300  0.41082300  1
  C  C29  1  0.93560800  0.73851900  0.09055700  1
  C  C30  1  0.41082300  0.75840900  0.55984300  1
  C  C31  1  0.19083100  0.98887400  0.38754300  1
  C  C32  1  0.88822200  0.48853800  0.68815400  1
  C  C33  1  0.09055700  0.93560800  0.73851900  1
  C  C34  1  0.48853800  0.68815400  0.88822200  1
  C  C35  1  0.68815400  0.88822200  0.48853800  1
