# generated using pymatgen
data_CuNiC17
_symmetry_space_group_name_H-M   'P 1'
_cell_length_a   9.94478900
_cell_length_b   9.94202100
_cell_length_c   19.88968914
_cell_angle_alpha   89.92930240
_cell_angle_beta   90.00000000
_cell_angle_gamma   90.00000000
_symmetry_Int_Tables_number   1
_chemical_formula_structural   CuNiC17
_chemical_formula_sum   'Cu8 Ni8 C136'
_cell_volume   1966.51794641
_cell_formula_units_Z   8
loop_
 _symmetry_equiv_pos_site_id
 _symmetry_equiv_pos_as_xyz
  1  'x, y, z'
loop_
 _atom_site_type_symbol
 _atom_site_label
 _atom_site_symmetry_multiplicity
 _atom_site_fract_x
 _atom_site_fract_y
 _atom_site_fract_z
 _atom_site_occupancy
  Ni  Ni0  1  0.93321500  0.06690300  0.40834500  1
  Ni  Ni1  1  0.70375900  0.29857600  0.02324700  1
  Ni  Ni2  1  0.06588800  0.43368800  0.15773200  1
  Ni  Ni3  1  0.06710500  0.43364800  0.65847400  1
  Ni  Ni4  1  0.56710500  0.56635200  0.34152600  1
  Ni  Ni5  1  0.56588800  0.56631200  0.84226800  1
  Ni  Ni6  1  0.20375900  0.70142400  0.97675300  1
  Ni  Ni7  1  0.43321500  0.93309700  0.59165500  1
  Cu  Cu8  1  0.93143100  0.06920500  0.90971700  1
  Cu  Cu9  1  0.29440300  0.20662000  0.27266700  1
  Cu  Cu10  1  0.29650900  0.20712000  0.77258700  1
  Cu  Cu11  1  0.70528600  0.29486300  0.52231900  1
  Cu  Cu12  1  0.20528600  0.70513700  0.47768100  1
  Cu  Cu13  1  0.79650900  0.79288000  0.22741300  1
  Cu  Cu14  1  0.79440300  0.79338000  0.72733300  1
  Cu  Cu15  1  0.43143100  0.93079500  0.09028300  1
  C  C16  1  0.08632000  0.08853200  0.08214000  1
  C  C17  1  0.08709700  0.08652100  0.58136400  1
  C  C18  1  0.64842600  0.14976100  0.19830400  1
  C  C19  1  0.64650800  0.14717400  0.69869600  1
  C  C20  1  0.35310700  0.35517500  0.94901600  1
  C  C21  1  0.35302800  0.35309400  0.44851400  1
  C  C22  1  0.91290000  0.41354700  0.33136700  1
  C  C23  1  0.91390600  0.41489900  0.83190400  1
  C  C24  1  0.41390600  0.58510100  0.16809600  1
  C  C25  1  0.41290000  0.58645300  0.66863300  1
  C  C26  1  0.85310700  0.64482500  0.05098400  1
  C  C27  1  0.85302800  0.64690600  0.55148600  1
  C  C28  1  0.14650800  0.85282600  0.30130400  1
  C  C29  1  0.14842600  0.85023900  0.80169600  1
  C  C30  1  0.58632000  0.91146800  0.91786000  1
  C  C31  1  0.58709700  0.91347900  0.41863600  1
  C  C32  1  0.27444500  0.03995400  0.93846400  1
  C  C33  1  0.27436900  0.04024000  0.43871000  1
  C  C34  1  0.95965300  0.12764500  0.23795500  1
  C  C35  1  0.95978100  0.12773400  0.73732700  1
  C  C36  1  0.62752800  0.22571500  0.35486600  1
  C  C37  1  0.62678200  0.22671800  0.85539500  1
  C  C38  1  0.37311400  0.27527700  0.10422900  1
  C  C39  1  0.37238900  0.27436900  0.60482300  1
  C  C40  1  0.04027100  0.37247000  0.48775900  1
  C  C41  1  0.04062900  0.37417100  0.98832600  1
  C  C42  1  0.72593000  0.45922400  0.18837200  1
  C  C43  1  0.72558700  0.45969600  0.68879100  1
  C  C44  1  0.22593000  0.54077600  0.81162800  1
  C  C45  1  0.22558700  0.54030400  0.31120900  1
  C  C46  1  0.54062900  0.62582900  0.01167400  1
  C  C47  1  0.54027100  0.62753000  0.51224100  1
  C  C48  1  0.87311400  0.72472300  0.89577100  1
  C  C49  1  0.87238900  0.72563100  0.39517700  1
  C  C50  1  0.12678200  0.77328200  0.14460500  1
  C  C51  1  0.12752800  0.77428500  0.64513400  1
  C  C52  1  0.45978100  0.87226600  0.26267300  1
  C  C53  1  0.45965300  0.87235500  0.76204500  1
  C  C54  1  0.77444500  0.96004600  0.06153600  1
  C  C55  1  0.77436900  0.95976000  0.56129000  1
  C  C56  1  0.42246500  0.00499700  0.95185400  1
  C  C57  1  0.42223000  0.00545300  0.45111300  1
  C  C58  1  0.19875200  0.01482700  0.00548400  1
  C  C59  1  0.19792100  0.01315800  0.50513400  1
  C  C60  1  0.05257900  0.02336400  0.27259700  1
  C  C61  1  0.05143100  0.02338100  0.77338200  1
  C  C62  1  0.70283500  0.04940300  0.11389600  1
  C  C63  1  0.70504300  0.05241800  0.61339800  1
  C  C64  1  0.65214000  0.07770800  0.37224000  1
  C  C65  1  0.65405400  0.07742100  0.87229600  1
  C  C66  1  0.81217800  0.07626800  0.24509600  1
  C  C67  1  0.81242200  0.07612600  0.74545800  1
  C  C68  1  0.99448900  0.15209000  0.16398100  1
  C  C69  1  0.99463100  0.15229500  0.66371100  1
  C  C70  1  0.25946900  0.18745200  0.91301300  1
  C  C71  1  0.25979500  0.18796100  0.41312700  1
  C  C72  1  0.24088100  0.19633900  0.11876900  1
  C  C73  1  0.23962400  0.19776400  0.61830900  1
  C  C74  1  0.47519600  0.20232200  0.15142400  1
  C  C75  1  0.47661000  0.20479500  0.65119800  1
  C  C76  1  0.01331300  0.23962900  0.52610100  1
  C  C77  1  0.01421600  0.23764400  0.02457100  1
  C  C78  1  0.57647400  0.23952400  0.78106900  1
  C  C79  1  0.57599600  0.24016900  0.28112600  1
  C  C80  1  0.42199500  0.25809700  0.03099500  1
  C  C81  1  0.42378900  0.25972100  0.53106000  1
  C  C82  1  0.98687700  0.26030200  0.27611300  1
  C  C83  1  0.98647800  0.25926000  0.77678200  1
  C  C84  1  0.52130300  0.29464700  0.89992300  1
  C  C85  1  0.52332600  0.29508200  0.40123300  1
  C  C86  1  0.76031700  0.30203400  0.36838000  1
  C  C87  1  0.76223000  0.29939700  0.86742900  1
  C  C88  1  0.74092200  0.31193000  0.16403300  1
  C  C89  1  0.74026300  0.31205900  0.66317600  1
  C  C90  1  0.00537900  0.34789500  0.41387600  1
  C  C91  1  0.00511900  0.34570900  0.91385200  1
  C  C92  1  0.18824400  0.42174600  0.99520700  1
  C  C93  1  0.18789100  0.42376100  0.49511100  1
  C  C94  1  0.34756900  0.42203100  0.12261300  1
  C  C95  1  0.34779700  0.42218000  0.62219000  1
  C  C96  1  0.29516100  0.44755700  0.36338300  1
  C  C97  1  0.29538900  0.44625600  0.86277200  1
  C  C98  1  0.94873000  0.47698000  0.02275600  1
  C  C99  1  0.94761300  0.47662100  0.52257500  1
  C  C100  1  0.80169300  0.48722300  0.25528600  1
  C  C101  1  0.80220000  0.48687900  0.75508100  1
  C  C102  1  0.57782200  0.49464900  0.20124900  1
  C  C103  1  0.57778400  0.49442500  0.70107000  1
  C  C104  1  0.07778400  0.50557500  0.29893000  1
  C  C105  1  0.07782200  0.50535100  0.79875100  1
  C  C106  1  0.30220000  0.51312100  0.24491900  1
  C  C107  1  0.30169300  0.51277700  0.74471400  1
  C  C108  1  0.44873000  0.52302000  0.97724400  1
  C  C109  1  0.44761300  0.52337900  0.47742500  1
  C  C110  1  0.79538900  0.55374400  0.13722800  1
  C  C111  1  0.79516100  0.55244300  0.63661700  1
  C  C112  1  0.84756900  0.57796900  0.87738700  1
  C  C113  1  0.84779700  0.57782000  0.37781000  1
  C  C114  1  0.68824400  0.57825400  0.00479300  1
  C  C115  1  0.68789100  0.57623900  0.50488900  1
  C  C116  1  0.50511900  0.65429100  0.08614800  1
  C  C117  1  0.50537900  0.65210500  0.58612400  1
  C  C118  1  0.24026300  0.68794100  0.33682400  1
  C  C119  1  0.24092200  0.68807000  0.83596700  1
  C  C120  1  0.26223000  0.70060300  0.13257100  1
  C  C121  1  0.26031700  0.69796600  0.63162000  1
  C  C122  1  0.02130300  0.70535300  0.10007700  1
  C  C123  1  0.02332600  0.70491800  0.59876700  1
  C  C124  1  0.48647800  0.74074000  0.22321800  1
  C  C125  1  0.48687700  0.73969800  0.72388700  1
  C  C126  1  0.92199500  0.74190300  0.96900500  1
  C  C127  1  0.92378900  0.74027900  0.46894000  1
  C  C128  1  0.07647400  0.76047600  0.21893100  1
  C  C129  1  0.07599600  0.75983100  0.71887400  1
  C  C130  1  0.51421600  0.76235600  0.97542900  1
  C  C131  1  0.51331300  0.76037100  0.47389900  1
  C  C132  1  0.97661000  0.79520500  0.34880200  1
  C  C133  1  0.97519600  0.79767800  0.84857600  1
  C  C134  1  0.74088100  0.80366100  0.88123100  1
  C  C135  1  0.73962400  0.80223600  0.38169100  1
  C  C136  1  0.75946900  0.81254800  0.08698700  1
  C  C137  1  0.75979500  0.81203900  0.58687300  1
  C  C138  1  0.49463100  0.84770500  0.33628900  1
  C  C139  1  0.49448900  0.84791000  0.83601900  1
  C  C140  1  0.31242200  0.92387400  0.25454200  1
  C  C141  1  0.31217800  0.92373200  0.75490400  1
  C  C142  1  0.15405400  0.92257900  0.12770400  1
  C  C143  1  0.15214000  0.92229200  0.62776000  1
  C  C144  1  0.20283500  0.95059700  0.88610400  1
  C  C145  1  0.20504300  0.94758200  0.38660200  1
  C  C146  1  0.55143100  0.97661900  0.22661800  1
  C  C147  1  0.55257900  0.97663600  0.72740300  1
  C  C148  1  0.69875200  0.98517300  0.99451600  1
  C  C149  1  0.69792100  0.98684200  0.49486600  1
  C  C150  1  0.92246500  0.99500300  0.04814600  1
  C  C151  1  0.92223000  0.99454700  0.54888700  1
