# generated using pymatgen
data_Cu2NiC8
_symmetry_space_group_name_H-M   'P 1'
_cell_length_a   10.80030300
_cell_length_b   7.44329500
_cell_length_c   8.58728133
_cell_angle_alpha   65.55333561
_cell_angle_beta   90.00000000
_cell_angle_gamma   90.00000000
_symmetry_Int_Tables_number   1
_chemical_formula_structural   Cu2NiC8
_chemical_formula_sum   'Cu8 Ni4 C32'
_cell_volume   628.43994747
_cell_formula_units_Z   4
loop_
 _symmetry_equiv_pos_site_id
 _symmetry_equiv_pos_as_xyz
  1  'x, y, z'
loop_
 _atom_site_type_symbol
 _atom_site_label
 _atom_site_symmetry_multiplicity
 _atom_site_fract_x
 _atom_site_fract_y
 _atom_site_fract_z
 _atom_site_occupancy
  C  C0  1  0.84405100  0.88373400  0.57716600  1
  C  C1  1  0.65594900  0.88373400  0.07716600  1
  C  C2  1  0.34405100  0.11626600  0.92283400  1
  C  C3  1  0.15594900  0.11626600  0.42283400  1
  Ni  Ni4  1  0.39290100  0.76997300  0.73056000  1
  Ni  Ni5  1  0.10709900  0.76997300  0.23056000  1
  Ni  Ni6  1  0.89290100  0.23002700  0.76944000  1
  Ni  Ni7  1  0.60709900  0.23002700  0.26944000  1
  Cu  Cu8  1  0.09065700  0.86560800  0.78859300  1
  Cu  Cu9  1  0.40934300  0.86560800  0.28859300  1
  Cu  Cu10  1  0.14901900  0.52650600  0.71571700  1
  Cu  Cu11  1  0.64901900  0.47349400  0.78428300  1
  Cu  Cu12  1  0.35098100  0.52650600  0.21571700  1
  Cu  Cu13  1  0.85098100  0.47349400  0.28428300  1
  Cu  Cu14  1  0.59065700  0.13439200  0.71140700  1
  Cu  Cu15  1  0.90934300  0.13439200  0.21140700  1
  C  C16  1  0.96313500  0.94019300  0.71120900  1
  C  C17  1  0.19706300  0.96369100  0.66228300  1
  C  C18  1  0.53686500  0.94019300  0.21120900  1
  C  C19  1  0.39091900  0.89155900  0.45535000  1
  C  C20  1  0.30293700  0.96369100  0.16228300  1
  C  C21  1  0.09711900  0.63118700  0.83786500  1
  C  C22  1  0.58043500  0.67156600  0.71840900  1
  C  C23  1  0.10908100  0.89155900  0.95535000  1
  C  C24  1  0.12035200  0.66408700  0.53126900  1
  C  C25  1  0.28934700  0.49032900  0.75819600  1
  C  C26  1  0.40288100  0.63118700  0.33786500  1
  C  C27  1  0.91956500  0.67156600  0.21840900  1
  C  C28  1  0.78934700  0.50967100  0.74180400  1
  C  C29  1  0.37964800  0.66408700  0.03126900  1
  C  C30  1  0.62035200  0.33591300  0.96873100  1
  C  C31  1  0.21065300  0.49032900  0.25819600  1
  C  C32  1  0.08043500  0.32843400  0.78159100  1
  C  C33  1  0.59711900  0.36881300  0.66213500  1
  C  C34  1  0.71065300  0.50967100  0.24180400  1
  C  C35  1  0.87964800  0.33591300  0.46873100  1
  C  C36  1  0.89091900  0.10844100  0.04465000  1
  C  C37  1  0.41956500  0.32843400  0.28159100  1
  C  C38  1  0.90288100  0.36881300  0.16213500  1
  C  C39  1  0.69706300  0.03630900  0.83771700  1
  C  C40  1  0.60908100  0.10844100  0.54465000  1
  C  C41  1  0.46313500  0.05980700  0.78879100  1
  C  C42  1  0.80293700  0.03630900  0.33771700  1
  C  C43  1  0.03686500  0.05980700  0.28879100  1
