# generated using pymatgen
data_Cu2Ni2C21
_symmetry_space_group_name_H-M   'P 1'
_cell_length_a   6.49010900
_cell_length_b   9.41754623
_cell_length_c   10.09764020
_cell_angle_alpha   117.03311286
_cell_angle_beta   89.83454082
_cell_angle_gamma   91.05525809
_symmetry_Int_Tables_number   1
_chemical_formula_structural   Cu2Ni2C21
_chemical_formula_sum   'Cu4 Ni4 C42'
_cell_volume   549.64294367
_cell_formula_units_Z   2
loop_
 _symmetry_equiv_pos_site_id
 _symmetry_equiv_pos_as_xyz
  1  'x, y, z'
loop_
 _atom_site_type_symbol
 _atom_site_label
 _atom_site_symmetry_multiplicity
 _atom_site_fract_x
 _atom_site_fract_y
 _atom_site_fract_z
 _atom_site_occupancy
  C  C0  1  0.25370000  0.10702400  0.44013400  1
  C  C1  1  0.25926000  0.08857600  0.92455100  1
  C  C2  1  0.03882500  0.27758700  0.27015900  1
  C  C3  1  0.48440200  0.27085200  0.75882200  1
  C  C4  1  0.01129200  0.27038600  0.75908800  1
  C  C5  1  0.51559800  0.72914800  0.24117800  1
  C  C6  1  0.98870800  0.72961400  0.24091200  1
  C  C7  1  0.96117500  0.72241300  0.72984100  1
  C  C8  1  0.74074000  0.91142400  0.07544900  1
  C  C9  1  0.74630000  0.89297600  0.55986600  1
  C  C10  1  0.74451700  0.33051200  0.07029900  1
  C  C11  1  0.74500700  0.33139400  0.55288100  1
  C  C12  1  0.25499300  0.66860600  0.44711900  1
  C  C13  1  0.25548300  0.66948800  0.92970100  1
  Ni  Ni14  1  0.24786300  0.41668000  0.06404600  1
  Ni  Ni15  1  0.23833600  0.41477300  0.57401300  1
  Ni  Ni16  1  0.76166400  0.58522700  0.42598700  1
  Ni  Ni17  1  0.75213700  0.58332000  0.93595400  1
  Cu  Cu18  1  0.75512200  0.03038800  0.36695300  1
  Cu  Cu19  1  0.76346800  0.04520100  0.86740900  1
  Cu  Cu20  1  0.23653200  0.95479900  0.13259100  1
  Cu  Cu21  1  0.24487800  0.96961200  0.63304700  1
  C  C22  1  0.75259400  0.07983900  0.00856100  1
  C  C23  1  0.73899500  0.06642600  0.50711100  1
  C  C24  1  0.21849800  0.09419900  0.23683500  1
  C  C25  1  0.77244500  0.14390400  0.32872100  1
  C  C26  1  0.24860500  0.11766500  0.73614600  1
  C  C27  1  0.75446200  0.17046800  0.84147700  1
  C  C28  1  0.06451100  0.30623300  0.06142300  1
  C  C29  1  0.43905200  0.31148500  0.04291900  1
  C  C30  1  0.05914100  0.30280600  0.57497500  1
  C  C31  1  0.43207100  0.32049800  0.57464800  1
  C  C32  1  0.77091000  0.42017800  0.28569100  1
  C  C33  1  0.22269100  0.44037900  0.43438000  1
  C  C34  1  0.74416700  0.42324300  0.79576100  1
  C  C35  1  0.23155600  0.45117000  0.92539300  1
  C  C36  1  0.76844400  0.54883000  0.07460700  1
  C  C37  1  0.25583300  0.57675700  0.20423900  1
  C  C38  1  0.77730900  0.55962100  0.56562000  1
  C  C39  1  0.22909000  0.57982200  0.71430900  1
  C  C40  1  0.56792900  0.67950200  0.42535200  1
  C  C41  1  0.94085900  0.69719400  0.42502500  1
  C  C42  1  0.93548900  0.69376700  0.93857700  1
  C  C43  1  0.56094800  0.68851500  0.95708100  1
  C  C44  1  0.24553800  0.82953200  0.15852300  1
  C  C45  1  0.75139500  0.88233500  0.26385400  1
  C  C46  1  0.22755500  0.85609600  0.67127900  1
  C  C47  1  0.78150200  0.90580100  0.76316500  1
  C  C48  1  0.26100500  0.93357400  0.49288900  1
  C  C49  1  0.24740600  0.92016100  0.99143900  1
