# generated using pymatgen
data_Cu2Ni12C7
_symmetry_space_group_name_H-M   'P 1'
_cell_length_a   7.48843483
_cell_length_b   7.48843483
_cell_length_c   7.48843497
_cell_angle_alpha   61.16398802
_cell_angle_beta   61.16398802
_cell_angle_gamma   61.16399414
_symmetry_Int_Tables_number   1
_chemical_formula_structural   Cu2Ni12C7
_chemical_formula_sum   'Cu2 Ni12 C7'
_cell_volume   304.70931504
_cell_formula_units_Z   1
loop_
 _symmetry_equiv_pos_site_id
 _symmetry_equiv_pos_as_xyz
  1  'x, y, z'
loop_
 _atom_site_type_symbol
 _atom_site_label
 _atom_site_symmetry_multiplicity
 _atom_site_fract_x
 _atom_site_fract_y
 _atom_site_fract_z
 _atom_site_occupancy
  C  C0  1  0.50000000  0.50000000  0.00000000  1
  C  C1  1  0.00000000  0.50000000  0.50000000  1
  C  C2  1  0.50000000  0.00000000  0.50000000  1
  C  C3  1  0.00000000  0.50000000  0.00000000  1
  C  C4  1  0.00000000  0.00000000  0.00000000  1
  C  C5  1  0.50000000  0.00000000  0.00000000  1
  C  C6  1  0.00000000  0.00000000  0.50000000  1
  Ni  Ni7  1  0.06712800  0.68581500  0.06712800  1
  Ni  Ni8  1  0.93287200  0.31418500  0.93287200  1
  Ni  Ni9  1  0.69077900  0.69077900  0.05179600  1
  Ni  Ni10  1  0.05179600  0.69077900  0.69077900  1
  Ni  Ni11  1  0.68581500  0.06712800  0.06712800  1
  Ni  Ni12  1  0.06712800  0.06712800  0.68581500  1
  Ni  Ni13  1  0.69077900  0.05179600  0.69077900  1
  Ni  Ni14  1  0.94820400  0.30922100  0.30922100  1
  Ni  Ni15  1  0.93287200  0.93287200  0.31418500  1
  Ni  Ni16  1  0.30922100  0.30922100  0.94820400  1
  Ni  Ni17  1  0.31418500  0.93287200  0.93287200  1
  Ni  Ni18  1  0.30922100  0.94820400  0.30922100  1
  Cu  Cu19  1  0.62498600  0.62498600  0.62498600  1
  Cu  Cu20  1  0.37501400  0.37501400  0.37501400  1
