# generated using pymatgen
data_Cu2NiC4
_symmetry_space_group_name_H-M   'P 1'
_cell_length_a   3.03404700
_cell_length_b   9.37785100
_cell_length_c   10.86744200
_cell_angle_alpha   90.00000000
_cell_angle_beta   90.00000000
_cell_angle_gamma   90.00000000
_symmetry_Int_Tables_number   1
_chemical_formula_structural   Cu2NiC4
_chemical_formula_sum   'Cu8 Ni4 C16'
_cell_volume   309.20959597
_cell_formula_units_Z   4
loop_
 _symmetry_equiv_pos_site_id
 _symmetry_equiv_pos_as_xyz
  1  'x, y, z'
loop_
 _atom_site_type_symbol
 _atom_site_label
 _atom_site_symmetry_multiplicity
 _atom_site_fract_x
 _atom_site_fract_y
 _atom_site_fract_z
 _atom_site_occupancy
  Ni  Ni0  1  0.75000000  0.25724400  0.15642800  1
  Ni  Ni1  1  0.75000000  0.75724400  0.34357200  1
  Ni  Ni2  1  0.25000000  0.24275600  0.65642800  1
  Ni  Ni3  1  0.25000000  0.74275600  0.84357200  1
  Cu  Cu4  1  0.25000000  0.58422900  0.10363900  1
  Cu  Cu5  1  0.75000000  0.93731700  0.11361800  1
  Cu  Cu6  1  0.75000000  0.43731700  0.38638200  1
  Cu  Cu7  1  0.25000000  0.08422900  0.39636100  1
  Cu  Cu8  1  0.75000000  0.91577100  0.60363900  1
  Cu  Cu9  1  0.25000000  0.56268300  0.61361800  1
  Cu  Cu10  1  0.25000000  0.06268300  0.88638200  1
  Cu  Cu11  1  0.75000000  0.41577100  0.89636100  1
  C  C12  1  0.25000000  0.38326600  0.02568200  1
  C  C13  1  0.25000000  0.08210100  0.07103500  1
  C  C14  1  0.25000000  0.79726900  0.16138500  1
  C  C15  1  0.75000000  0.53129600  0.21573100  1
  C  C16  1  0.75000000  0.03129600  0.28426900  1
  C  C17  1  0.25000000  0.29726900  0.33861500  1
  C  C18  1  0.25000000  0.58210100  0.42896500  1
  C  C19  1  0.25000000  0.88326600  0.47431800  1
  C  C20  1  0.75000000  0.11673400  0.52568200  1
  C  C21  1  0.75000000  0.41789900  0.57103500  1
  C  C22  1  0.75000000  0.70273100  0.66138500  1
  C  C23  1  0.25000000  0.96870400  0.71573100  1
  C  C24  1  0.25000000  0.46870400  0.78426900  1
  C  C25  1  0.75000000  0.20273100  0.83861500  1
  C  C26  1  0.75000000  0.91789900  0.92896500  1
  C  C27  1  0.75000000  0.61673400  0.97431800  1
