# generated using pymatgen
data_CuNiC5
_symmetry_space_group_name_H-M   'P 1'
_cell_length_a   8.97302756
_cell_length_b   8.97302756
_cell_length_c   8.97302732
_cell_angle_alpha   90.57230997
_cell_angle_beta   90.57230997
_cell_angle_gamma   90.57231102
_symmetry_Int_Tables_number   1
_chemical_formula_structural   CuNiC5
_chemical_formula_sum   'Cu6 Ni6 C30'
_cell_volume   722.35645083
_cell_formula_units_Z   6
loop_
 _symmetry_equiv_pos_site_id
 _symmetry_equiv_pos_as_xyz
  1  'x, y, z'
loop_
 _atom_site_type_symbol
 _atom_site_label
 _atom_site_symmetry_multiplicity
 _atom_site_fract_x
 _atom_site_fract_y
 _atom_site_fract_z
 _atom_site_occupancy
  C  C0  1  0.78150300  0.76871600  0.22622200  1
  C  C1  1  0.28150300  0.72622200  0.26871600  1
  C  C2  1  0.72622200  0.26871600  0.28150300  1
  C  C3  1  0.26871600  0.28150300  0.72622200  1
  C  C4  1  0.22622200  0.78150300  0.76871600  1
  C  C5  1  0.76871600  0.22622200  0.78150300  1
  Ni  Ni6  1  0.50387900  0.75254300  0.99087900  1
  Ni  Ni7  1  0.49087900  0.25254300  0.00387900  1
  Ni  Ni8  1  0.00387900  0.49087900  0.25254300  1
  Ni  Ni9  1  0.25254300  0.00387900  0.49087900  1
  Ni  Ni10  1  0.75254300  0.99087900  0.50387900  1
  Ni  Ni11  1  0.99087900  0.50387900  0.75254300  1
  Cu  Cu12  1  0.74667100  0.49287500  0.00913900  1
  Cu  Cu13  1  0.24667100  0.50913900  0.99287500  1
  Cu  Cu14  1  0.50913900  0.99287500  0.24667100  1
  Cu  Cu15  1  0.99287500  0.24667100  0.50913900  1
  Cu  Cu16  1  0.00913900  0.74667100  0.49287500  1
  Cu  Cu17  1  0.49287500  0.00913900  0.74667100  1
  C  C18  1  0.34517100  0.64129000  0.07943300  1
  C  C19  1  0.65358500  0.35876600  0.09513900  1
  C  C20  1  0.84517100  0.57943300  0.14129000  1
  C  C21  1  0.14134400  0.42783600  0.11483400  1
  C  C22  1  0.59513900  0.85876600  0.15358500  1
  C  C23  1  0.42783600  0.11483400  0.14134400  1
  C  C24  1  0.37774200  0.91102100  0.34631200  1
  C  C25  1  0.64129000  0.07943300  0.34517100  1
  C  C26  1  0.09513900  0.65358500  0.35876600  1
  C  C27  1  0.91102100  0.34631200  0.37774200  1
  C  C28  1  0.87774200  0.84631200  0.41102100  1
  C  C29  1  0.11483400  0.14134400  0.42783600  1
  C  C30  1  0.14129000  0.84517100  0.57943300  1
  C  C31  1  0.85876600  0.15358500  0.59513900  1
  C  C32  1  0.92783600  0.64134400  0.61483400  1
  C  C33  1  0.07943300  0.34517100  0.64129000  1
  C  C34  1  0.61483400  0.92783600  0.64134400  1
  C  C35  1  0.35876600  0.09513900  0.65358500  1
  C  C36  1  0.41102100  0.87774200  0.84631200  1
  C  C37  1  0.57943300  0.14129000  0.84517100  1
  C  C38  1  0.84631200  0.41102100  0.87774200  1
  C  C39  1  0.15358500  0.59513900  0.85876600  1
  C  C40  1  0.64134400  0.61483400  0.92783600  1
  C  C41  1  0.34631200  0.37774200  0.91102100  1
