# generated using pymatgen
data_Cu2Ni8C5
_symmetry_space_group_name_H-M   'P 1'
_cell_length_a   10.56805613
_cell_length_b   10.56805613
_cell_length_c   15.09042000
_cell_angle_alpha   90.00000000
_cell_angle_beta   90.00000000
_cell_angle_gamma   100.54939876
_symmetry_Int_Tables_number   1
_chemical_formula_structural   Cu2Ni8C5
_chemical_formula_sum   'Cu16 Ni64 C40'
_cell_volume   1656.86875588
_cell_formula_units_Z   8
loop_
 _symmetry_equiv_pos_site_id
 _symmetry_equiv_pos_as_xyz
  1  'x, y, z'
loop_
 _atom_site_type_symbol
 _atom_site_label
 _atom_site_symmetry_multiplicity
 _atom_site_fract_x
 _atom_site_fract_y
 _atom_site_fract_z
 _atom_site_occupancy
  C  C0  1  0.75099100  0.24900900  0.50000000  1
  C  C1  1  0.74900900  0.25099100  0.00000000  1
  C  C2  1  0.25099100  0.74900900  0.00000000  1
  C  C3  1  0.24900900  0.75099100  0.50000000  1
  C  C4  1  0.27700000  0.27700000  0.28078200  1
  C  C5  1  0.72300000  0.72300000  0.71921800  1
  C  C6  1  0.22300000  0.22300000  0.78078200  1
  C  C7  1  0.77700000  0.77700000  0.21921800  1
  Ni  Ni8  1  0.93153200  0.09101500  0.39189000  1
  Ni  Ni9  1  0.90898500  0.06846800  0.60811000  1
  Ni  Ni10  1  0.79368900  0.02262000  0.36492800  1
  Ni  Ni11  1  0.97738000  0.20631100  0.63507200  1
  Ni  Ni12  1  0.87706400  0.22617600  0.17938800  1
  Ni  Ni13  1  0.77382400  0.12293600  0.82061200  1
  Ni  Ni14  1  0.75436000  0.12277300  0.18678500  1
  Ni  Ni15  1  0.87722700  0.24564000  0.81321500  1
  Ni  Ni16  1  0.38750300  0.02781700  0.48918100  1
  Ni  Ni17  1  0.47218300  0.11249700  0.98918100  1
  Ni  Ni18  1  0.97218300  0.61249700  0.51081900  1
  Ni  Ni19  1  0.88750300  0.52781700  0.01081900  1
  Ni  Ni20  1  0.50513800  0.14928200  0.89255200  1
  Ni  Ni21  1  0.00513800  0.64928200  0.60744800  1
  Ni  Ni22  1  0.35071800  0.99486200  0.39255200  1
  Ni  Ni23  1  0.85071800  0.49486200  0.10744800  1
  Ni  Ni24  1  0.74564000  0.37722700  0.68678500  1
  Ni  Ni25  1  0.62277300  0.25436000  0.31321500  1
  Ni  Ni26  1  0.72617600  0.37706400  0.32061200  1
  Ni  Ni27  1  0.62293600  0.27382400  0.67938800  1
  Ni  Ni28  1  0.95272400  0.79780500  0.04054300  1
  Ni  Ni29  1  0.75834400  0.53952500  0.44539000  1
  Ni  Ni30  1  0.70219500  0.54727600  0.54054300  1
  Ni  Ni31  1  0.25834400  0.03952500  0.05461000  1
  Ni  Ni32  1  0.96047500  0.74165600  0.94539000  1
  Ni  Ni33  1  0.45272400  0.29780500  0.45945700  1
  Ni  Ni34  1  0.46047500  0.24165600  0.55461000  1
  Ni  Ni35  1  0.20219500  0.04727600  0.95945700  1
  Ni  Ni36  1  0.52262000  0.29368900  0.13507200  1
  Ni  Ni37  1  0.70631100  0.47738000  0.86492800  1
  Ni  Ni38  1  0.59101500  0.43153200  0.10811000  1
  Ni  Ni39  1  0.56846800  0.40898500  0.89189000  1
  Ni  Ni40  1  0.43153200  0.59101500  0.10811000  1
  Ni  Ni41  1  0.40898500  0.56846800  0.89189000  1
  Ni  Ni42  1  0.29368900  0.52262000  0.13507200  1
  Ni  Ni43  1  0.47738000  0.70631100  0.86492800  1
  Ni  Ni44  1  0.53952500  0.75834400  0.44539000  1
  Ni  Ni45  1  0.03952500  0.25834400  0.05461000  1
  Ni  Ni46  1  0.54727600  0.70219500  0.54054300  1
  Ni  Ni47  1  0.79780500  0.95272400  0.04054300  1
  Ni  Ni48  1  0.29780500  0.45272400  0.45945700  1
  Ni  Ni49  1  0.24165600  0.46047500  0.55461000  1
  Ni  Ni50  1  0.04727600  0.20219500  0.95945700  1
  Ni  Ni51  1  0.74165600  0.96047500  0.94539000  1
  Ni  Ni52  1  0.27382400  0.62293600  0.67938800  1
  Ni  Ni53  1  0.37706400  0.72617600  0.32061200  1
  Ni  Ni54  1  0.37722700  0.74564000  0.68678500  1
  Ni  Ni55  1  0.25436000  0.62277300  0.31321500  1
  Ni  Ni56  1  0.99486200  0.35071800  0.39255200  1
  Ni  Ni57  1  0.49486200  0.85071800  0.10744800  1
  Ni  Ni58  1  0.64928200  0.00513800  0.60744800  1
  Ni  Ni59  1  0.14928200  0.50513800  0.89255200  1
  Ni  Ni60  1  0.02781700  0.38750300  0.48918100  1
  Ni  Ni61  1  0.11249700  0.47218300  0.98918100  1
  Ni  Ni62  1  0.52781700  0.88750300  0.01081900  1
  Ni  Ni63  1  0.61249700  0.97218300  0.51081900  1
  Ni  Ni64  1  0.12277300  0.75436000  0.18678500  1
  Ni  Ni65  1  0.24564000  0.87722700  0.81321500  1
  Ni  Ni66  1  0.22617600  0.87706400  0.17938800  1
  Ni  Ni67  1  0.12293600  0.77382400  0.82061200  1
  Ni  Ni68  1  0.02262000  0.79368900  0.36492800  1
  Ni  Ni69  1  0.20631100  0.97738000  0.63507200  1
  Ni  Ni70  1  0.09101500  0.93153200  0.39189000  1
  Ni  Ni71  1  0.06846800  0.90898500  0.60811000  1
  Cu  Cu72  1  0.87826500  0.59563500  0.30241000  1
  Cu  Cu73  1  0.37826500  0.09563500  0.19759000  1
  Cu  Cu74  1  0.90436500  0.62173500  0.80241000  1
  Cu  Cu75  1  0.40436500  0.12173500  0.69759000  1
  Cu  Cu76  1  0.68746100  0.68746100  0.06384900  1
  Cu  Cu77  1  0.47488500  0.47488500  0.28997000  1
  Cu  Cu78  1  0.02511500  0.02511500  0.78997000  1
  Cu  Cu79  1  0.18746100  0.18746100  0.43615100  1
  Cu  Cu80  1  0.52511500  0.52511500  0.71003000  1
  Cu  Cu81  1  0.97488500  0.97488500  0.21003000  1
  Cu  Cu82  1  0.81253900  0.81253900  0.56384900  1
  Cu  Cu83  1  0.31253900  0.31253900  0.93615100  1
  Cu  Cu84  1  0.09563500  0.37826500  0.19759000  1
  Cu  Cu85  1  0.12173500  0.40436500  0.69759000  1
  Cu  Cu86  1  0.59563500  0.87826500  0.30241000  1
  Cu  Cu87  1  0.62173500  0.90436500  0.80241000  1
  C  C88  1  0.76116900  0.00972700  0.00035100  1
  C  C89  1  0.99027300  0.23883100  0.99964900  1
  C  C90  1  0.84092800  0.07907100  0.40987300  1
  C  C91  1  0.92092900  0.15907200  0.59012700  1
  C  C92  1  0.78943200  0.20270100  0.15593400  1
  C  C93  1  0.79729900  0.21056800  0.84406600  1
  C  C94  1  0.95669200  0.37435300  0.44736200  1
  C  C95  1  0.62564700  0.04330800  0.55263800  1
  C  C96  1  0.87435300  0.45669200  0.05263800  1
  C  C97  1  0.54330800  0.12564700  0.94736200  1
  C  C98  1  0.71056800  0.29729900  0.65593400  1
  C  C99  1  0.70270100  0.28943200  0.34406600  1
  C  C100  1  0.65907200  0.42092900  0.90987300  1
  C  C101  1  0.57907100  0.34092800  0.09012700  1
  C  C102  1  0.73883100  0.49027300  0.50035100  1
  C  C103  1  0.50972700  0.26116900  0.49964900  1
  C  C104  1  0.26116900  0.50972700  0.49964900  1
  C  C105  1  0.49027300  0.73883100  0.50035100  1
  C  C106  1  0.34092800  0.57907100  0.09012700  1
  C  C107  1  0.42092900  0.65907200  0.90987300  1
  C  C108  1  0.29729900  0.71056800  0.65593400  1
  C  C109  1  0.28943200  0.70270100  0.34406600  1
  C  C110  1  0.45669200  0.87435300  0.05263800  1
  C  C111  1  0.12564700  0.54330800  0.94736200  1
  C  C112  1  0.04330800  0.62564700  0.55263800  1
  C  C113  1  0.37435300  0.95669200  0.44736200  1
  C  C114  1  0.20270100  0.78943200  0.15593400  1
  C  C115  1  0.21056800  0.79729900  0.84406600  1
  C  C116  1  0.07907100  0.84092800  0.40987300  1
  C  C117  1  0.15907200  0.92092900  0.59012700  1
  C  C118  1  0.23883100  0.99027300  0.99964900  1
  C  C119  1  0.00972700  0.76116900  0.00035100  1
