# generated using pymatgen
data_Cu2(NiC5)3
_symmetry_space_group_name_H-M   'P 1'
_cell_length_a   5.35486313
_cell_length_b   8.12538444
_cell_length_c   10.63694544
_cell_angle_alpha   107.97638512
_cell_angle_beta   79.89936872
_cell_angle_gamma   108.22847117
_symmetry_Int_Tables_number   1
_chemical_formula_structural   Cu2(NiC5)3
_chemical_formula_sum   'Cu4 Ni6 C30'
_cell_volume   416.53704042
_cell_formula_units_Z   2
loop_
 _symmetry_equiv_pos_site_id
 _symmetry_equiv_pos_as_xyz
  1  'x, y, z'
loop_
 _atom_site_type_symbol
 _atom_site_label
 _atom_site_symmetry_multiplicity
 _atom_site_fract_x
 _atom_site_fract_y
 _atom_site_fract_z
 _atom_site_occupancy
  C  C0  1  0.49999100  0.50029800  0.49999000  1
  C  C1  1  0.50002900  0.49969400  0.99998700  1
  C  C2  1  0.22827600  0.40163800  0.24441800  1
  C  C3  1  0.22730100  0.40165400  0.74457900  1
  C  C4  1  0.77269600  0.59834700  0.75542600  1
  C  C5  1  0.77174200  0.59833800  0.25554800  1
  C  C6  1  0.38477800  0.78043600  0.74211300  1
  C  C7  1  0.38446100  0.78043600  0.24254500  1
  C  C8  1  0.61549700  0.21954800  0.25741500  1
  C  C9  1  0.61524800  0.21955100  0.75787400  1
  Ni  Ni10  1  0.99987400  0.00003400  0.25008700  1
  Ni  Ni11  1  0.69248000  0.89906600  0.50385100  1
  Ni  Ni12  1  0.30755400  0.10089600  0.99613600  1
  Ni  Ni13  1  0.99997700  0.99999000  0.75006400  1
  Ni  Ni14  1  0.69177700  0.89758900  0.00385400  1
  Ni  Ni15  1  0.30825300  0.10241900  0.49611900  1
  Cu  Cu16  1  0.09506000  0.68462700  0.49311000  1
  Cu  Cu17  1  0.09591800  0.68571700  0.99328800  1
  Cu  Cu18  1  0.90408900  0.31432500  0.50675300  1
  Cu  Cu19  1  0.90497100  0.31539600  0.00689500  1
  C  C20  1  0.04913300  0.83925900  0.87925000  1
  C  C21  1  0.04833500  0.83978900  0.38022500  1
  C  C22  1  0.95167300  0.16021000  0.11976200  1
  C  C23  1  0.95087200  0.16072600  0.62073300  1
  C  C24  1  0.32733900  0.92691300  0.61656800  1
  C  C25  1  0.32673900  0.92681300  0.11769200  1
  C  C26  1  0.67317500  0.07320000  0.38233300  1
  C  C27  1  0.67265600  0.07308000  0.88342400  1
  C  C28  1  0.15237800  0.54425400  0.61850700  1
  C  C29  1  0.15273300  0.54398200  0.11863700  1
  C  C30  1  0.84729300  0.45601000  0.38135500  1
  C  C31  1  0.84765100  0.45574600  0.88148500  1
  C  C32  1  0.22329200  0.25634600  0.38145200  1
  C  C33  1  0.22303200  0.25617600  0.88123500  1
  C  C34  1  0.77699500  0.74381700  0.61875900  1
  C  C35  1  0.77671300  0.74367600  0.11854800  1
  C  C36  1  0.42110000  0.65154400  0.38145600  1
  C  C37  1  0.42169900  0.65187900  0.88166800  1
  C  C38  1  0.57830300  0.34813600  0.61833600  1
  C  C39  1  0.57891700  0.34844500  0.11852300  1
