# generated using pymatgen
data_Cu21(NiC15)2
_symmetry_space_group_name_H-M   'P 1'
_cell_length_a   14.27135090
_cell_length_b   14.27135090
_cell_length_c   6.94056223
_cell_angle_alpha   82.40576396
_cell_angle_beta   82.40576396
_cell_angle_gamma   149.96795665
_symmetry_Int_Tables_number   1
_chemical_formula_structural   Cu21(NiC15)2
_chemical_formula_sum   'Cu21 Ni2 C30'
_cell_volume   608.52334467
_cell_formula_units_Z   1
loop_
 _symmetry_equiv_pos_site_id
 _symmetry_equiv_pos_as_xyz
  1  'x, y, z'
loop_
 _atom_site_type_symbol
 _atom_site_label
 _atom_site_symmetry_multiplicity
 _atom_site_fract_x
 _atom_site_fract_y
 _atom_site_fract_z
 _atom_site_occupancy
  C  C0  1  0.88936500  0.51033500  0.33849500  1
  C  C1  1  0.51033500  0.88936500  0.33849500  1
  C  C2  1  0.32062100  0.88037800  0.15917900  1
  C  C3  1  0.88037800  0.32062100  0.15917900  1
  C  C4  1  0.15242800  0.73134100  0.83349100  1
  C  C5  1  0.73134100  0.15242800  0.83349100  1
  C  C6  1  0.42668400  0.70050200  0.67399900  1
  C  C7  1  0.70050200  0.42668400  0.67399900  1
  C  C8  1  0.40571600  0.00414200  0.40732200  1
  C  C9  1  0.00414200  0.40571600  0.40732200  1
  C  C10  1  0.83477500  0.55888300  0.25396500  1
  C  C11  1  0.55888300  0.83477500  0.25396500  1
  C  C12  1  0.43698400  0.25929500  0.64683800  1
  C  C13  1  0.25929500  0.43698400  0.64683800  1
  C  C14  1  0.47820800  0.39641000  0.68723200  1
  C  C15  1  0.39641000  0.47820800  0.68723200  1
  C  C16  1  0.95775900  0.95775900  0.69928700  1
  C  C17  1  0.58627400  0.46037300  0.31616200  1
  C  C18  1  0.46037300  0.58627400  0.31616200  1
  C  C19  1  0.82272900  0.46277100  0.75344300  1
  C  C20  1  0.46277100  0.82272900  0.75344300  1
  C  C21  1  0.67667700  0.58472200  0.05712200  1
  C  C22  1  0.58472200  0.67667700  0.05712200  1
  C  C23  1  0.98612500  0.98612500  0.90775100  1
  C  C24  1  0.18138900  0.11380100  0.12893500  1
  C  C25  1  0.11380100  0.18138900  0.12893500  1
  C  C26  1  0.38843900  0.23993900  0.19400100  1
  C  C27  1  0.23993900  0.38843900  0.19400100  1
  C  C28  1  0.23807000  0.03417500  0.16384700  1
  C  C29  1  0.03417500  0.23807000  0.16384700  1
  Ni  Ni30  1  0.81083800  0.07254500  0.78686100  1
  Ni  Ni31  1  0.07254500  0.81083800  0.78686100  1
  Cu  Cu32  1  0.46872100  0.61004200  0.16522900  1
  Cu  Cu33  1  0.61004200  0.46872100  0.16522900  1
  Cu  Cu34  1  0.62965300  0.95452300  0.25525100  1
  Cu  Cu35  1  0.95452300  0.62965300  0.25525100  1
  Cu  Cu36  1  0.99061900  0.22614500  0.83584000  1
  Cu  Cu37  1  0.22614500  0.99061900  0.83584000  1
  Cu  Cu38  1  0.35064500  0.68555600  0.75725100  1
  Cu  Cu39  1  0.68555600  0.35064500  0.75725100  1
  Cu  Cu40  1  0.43182900  0.95041500  0.19028500  1
  Cu  Cu41  1  0.95041500  0.43182900  0.19028500  1
  Cu  Cu42  1  0.50805700  0.09913800  0.24471000  1
  Cu  Cu43  1  0.09913800  0.50805700  0.24471000  1
  Cu  Cu44  1  0.15820800  0.78050500  0.70802100  1
  Cu  Cu45  1  0.78050500  0.15820800  0.70802100  1
  Cu  Cu46  1  0.38542200  0.38542200  0.86217500  1
  Cu  Cu47  1  0.54417700  0.40681400  0.57271200  1
  Cu  Cu48  1  0.40681400  0.54417700  0.57271200  1
  Cu  Cu49  1  0.87897800  0.87897800  0.86255600  1
  Cu  Cu50  1  0.15628500  0.15628500  0.03171100  1
  Cu  Cu51  1  0.23435800  0.08801300  0.22927300  1
  Cu  Cu52  1  0.08801300  0.23435800  0.22927300  1
