# generated using pymatgen
data_Cu3Ni2C3
_symmetry_space_group_name_H-M   'P 1'
_cell_length_a   5.93994877
_cell_length_b   5.93994877
_cell_length_c   7.13783750
_cell_angle_alpha   71.06512047
_cell_angle_beta   71.06512047
_cell_angle_gamma   51.31498180
_symmetry_Int_Tables_number   1
_chemical_formula_structural   Cu3Ni2C3
_chemical_formula_sum   'Cu6 Ni4 C6'
_cell_volume   183.40816199
_cell_formula_units_Z   2
loop_
 _symmetry_equiv_pos_site_id
 _symmetry_equiv_pos_as_xyz
  1  'x, y, z'
loop_
 _atom_site_type_symbol
 _atom_site_label
 _atom_site_symmetry_multiplicity
 _atom_site_fract_x
 _atom_site_fract_y
 _atom_site_fract_z
 _atom_site_occupancy
  C  C0  1  0.58934500  0.36199800  0.98120200  1
  C  C1  1  0.36199800  0.58934500  0.48120200  1
  C  C2  1  0.79284000  0.81624600  0.87761800  1
  C  C3  1  0.81624600  0.79284000  0.37761800  1
  C  C4  1  0.18892200  0.20316100  0.62758300  1
  C  C5  1  0.20316100  0.18892200  0.12758300  1
  Ni  Ni6  1  0.98123600  0.63109400  0.63674800  1
  Ni  Ni7  1  0.63109400  0.98123600  0.13674800  1
  Ni  Ni8  1  0.37401700  0.04836100  0.86190100  1
  Ni  Ni9  1  0.04836100  0.37401700  0.36190100  1
  Cu  Cu10  1  0.15540500  0.85344400  0.26005900  1
  Cu  Cu11  1  0.55569600  0.19761800  0.46445500  1
  Cu  Cu12  1  0.19761800  0.55569600  0.96445500  1
  Cu  Cu13  1  0.79319700  0.45592900  0.04607300  1
  Cu  Cu14  1  0.45592900  0.79319700  0.54607300  1
  Cu  Cu15  1  0.85344400  0.15540500  0.76005900  1
