# generated using pymatgen
data_Cu(NiC)2
_symmetry_space_group_name_H-M   'P 1'
_cell_length_a   8.21096400
_cell_length_b   8.22237683
_cell_length_c   8.22249689
_cell_angle_alpha   109.60630720
_cell_angle_beta   109.41157774
_cell_angle_gamma   109.31778795
_symmetry_Int_Tables_number   1
_chemical_formula_structural   Cu(NiC)2
_chemical_formula_sum   'Cu8 Ni16 C16'
_cell_volume   427.74850680
_cell_formula_units_Z   8
loop_
 _symmetry_equiv_pos_site_id
 _symmetry_equiv_pos_as_xyz
  1  'x, y, z'
loop_
 _atom_site_type_symbol
 _atom_site_label
 _atom_site_symmetry_multiplicity
 _atom_site_fract_x
 _atom_site_fract_y
 _atom_site_fract_z
 _atom_site_occupancy
  C  C0  1  0.46428700  0.70654900  0.24664400  1
  C  C1  1  0.00912500  0.02045300  0.48958800  1
  C  C2  1  0.79294600  0.83618600  0.96193600  1
  C  C3  1  0.69756600  0.15406100  0.54114800  1
  C  C4  1  0.67174600  0.96108100  0.78504000  1
  C  C5  1  0.67896500  0.46299100  0.28879000  1
  C  C6  1  0.51050400  0.02028700  0.98737600  1
  C  C7  1  0.50546000  0.50257500  0.50352700  1
  C  C8  1  0.99708500  0.49476900  0.00384600  1
  C  C9  1  0.94414000  0.19798400  0.25515100  1
  C  C10  1  0.03735900  0.77734600  0.75975100  1
  C  C11  1  0.33541100  0.05134200  0.20590900  1
  C  C12  1  0.32710800  0.53786100  0.70684400  1
  C  C13  1  0.28306300  0.83221800  0.46134000  1
  C  C14  1  0.21925100  0.17430500  0.04215500  1
  C  C15  1  0.54757400  0.30009800  0.74684300  1
  Ni  Ni16  1  0.96481200  0.19069400  0.54245400  1
  Ni  Ni17  1  0.25239700  0.47612700  0.98572400  1
  Ni  Ni18  1  0.56055900  0.28517100  0.48813100  1
  Ni  Ni19  1  0.21545500  0.67521800  0.77605700  1
  Ni  Ni20  1  0.80963600  0.08299300  0.96459200  1
  Ni  Ni21  1  0.83047400  0.06613400  0.44620700  1
  Ni  Ni22  1  0.30812900  0.25461100  0.73334600  1
  Ni  Ni23  1  0.59431000  0.32885900  0.94678100  1
  Ni  Ni24  1  0.18363700  0.91113100  0.04155800  1
  Ni  Ni25  1  0.77933600  0.32097900  0.22650000  1
  Ni  Ni26  1  0.43674700  0.71116500  0.51144700  1
  Ni  Ni27  1  0.75172800  0.52582000  0.01166500  1
  Ni  Ni28  1  0.82278200  0.31090000  0.72621900  1
  Ni  Ni29  1  0.50691600  0.49624900  0.22723100  1
  Ni  Ni30  1  0.03099000  0.80429400  0.46084100  1
  Ni  Ni31  1  0.99632900  0.95412000  0.27593300  1
  Cu  Cu32  1  0.99473700  0.03787800  0.72860700  1
  Cu  Cu33  1  0.18075300  0.68930800  0.27567700  1
  Cu  Cu34  1  0.49066800  0.49892300  0.77364000  1
  Cu  Cu35  1  0.68863600  0.74442500  0.26609300  1
  Cu  Cu36  1  0.41318600  0.67640100  0.04844000  1
  Cu  Cu37  1  0.45152900  0.00272000  0.77103300  1
  Cu  Cu38  1  0.17063400  0.93407000  0.55278400  1
  Cu  Cu39  1  0.54403600  0.99170500  0.23314900  1
