# generated using pymatgen
data_Cu14Ni2C23
_symmetry_space_group_name_H-M   'P 1'
_cell_length_a   12.73871300
_cell_length_b   6.09557300
_cell_length_c   9.79440702
_cell_angle_alpha   73.18020082
_cell_angle_beta   90.00000000
_cell_angle_gamma   90.00000000
_symmetry_Int_Tables_number   1
_chemical_formula_structural   Cu14Ni2C23
_chemical_formula_sum   'Cu28 Ni4 C46'
_cell_volume   727.99735789
_cell_formula_units_Z   2
loop_
 _symmetry_equiv_pos_site_id
 _symmetry_equiv_pos_as_xyz
  1  'x, y, z'
loop_
 _atom_site_type_symbol
 _atom_site_label
 _atom_site_symmetry_multiplicity
 _atom_site_fract_x
 _atom_site_fract_y
 _atom_site_fract_z
 _atom_site_occupancy
  C  C0  1  0.50000000  0.00000000  0.50000000  1
  C  C1  1  0.00000000  0.00000000  0.00000000  1
  C  C2  1  0.15936300  0.77428200  0.55595900  1
  C  C3  1  0.65936300  0.22571800  0.94404100  1
  C  C4  1  0.84063700  0.22571800  0.44404100  1
  C  C5  1  0.34063700  0.77428200  0.05595900  1
  C  C6  1  0.19637100  0.58241600  0.71501500  1
  C  C7  1  0.69637100  0.41758400  0.78498500  1
  C  C8  1  0.80362900  0.41758400  0.28498500  1
  C  C9  1  0.30362900  0.58241600  0.21501500  1
  C  C10  1  0.13152800  0.49142800  0.59061200  1
  C  C11  1  0.63152800  0.50857200  0.90938800  1
  C  C12  1  0.86847200  0.50857200  0.40938800  1
  C  C13  1  0.36847200  0.49142800  0.09061200  1
  C  C14  1  0.06746000  0.64780900  0.68063300  1
  C  C15  1  0.56746000  0.35219100  0.81936700  1
  C  C16  1  0.93254000  0.35219100  0.31936700  1
  C  C17  1  0.43254000  0.64780900  0.18063300  1
  C  C18  1  0.41119100  0.67413300  0.69027700  1
  C  C19  1  0.91119100  0.32586700  0.80972300  1
  C  C20  1  0.58880900  0.32586700  0.30972300  1
  C  C21  1  0.08880900  0.67413300  0.19027700  1
  C  C22  1  0.37911000  0.91142000  0.72497200  1
  C  C23  1  0.87911000  0.08858000  0.77502800  1
  C  C24  1  0.62089000  0.08858000  0.27502800  1
  C  C25  1  0.12089000  0.91142000  0.22497200  1
  C  C26  1  0.39854900  0.05332400  0.22001300  1
  C  C27  1  0.89854900  0.94667600  0.27998700  1
  C  C28  1  0.60145100  0.94667600  0.77998700  1
  C  C29  1  0.10145100  0.05332400  0.72001300  1
  C  C30  1  0.31318500  0.98543500  0.34141600  1
  C  C31  1  0.81318500  0.01456500  0.15858400  1
  C  C32  1  0.68681500  0.01456500  0.65858400  1
  C  C33  1  0.18681500  0.98543500  0.84141600  1
  C  C34  1  0.11459300  0.67373200  0.38413200  1
  C  C35  1  0.61459300  0.32626800  0.11586800  1
  C  C36  1  0.88540700  0.32626800  0.61586800  1
  C  C37  1  0.38540700  0.67373200  0.88413200  1
  C  C38  1  0.63237500  0.71414500  0.53507900  1
  C  C39  1  0.13237500  0.28585500  0.96492100  1
  C  C40  1  0.36762500  0.28585500  0.46492100  1
  C  C41  1  0.86762500  0.71414500  0.03507900  1
  C  C42  1  0.35799300  0.25721700  0.89140900  1
  C  C43  1  0.85799300  0.74278300  0.60859100  1
  C  C44  1  0.64200700  0.74278300  0.10859100  1
  C  C45  1  0.14200700  0.25721700  0.39140900  1
  Ni  Ni46  1  0.13981700  0.62553000  0.63581400  1
  Ni  Ni47  1  0.63981700  0.37447000  0.86418600  1
  Ni  Ni48  1  0.86018300  0.37447000  0.36418600  1
  Ni  Ni49  1  0.36018300  0.62553000  0.13581400  1
  Cu  Cu50  1  0.26127500  0.40044600  0.88568500  1
  Cu  Cu51  1  0.76127500  0.59955400  0.61431500  1
  Cu  Cu52  1  0.73872500  0.59955400  0.11431500  1
  Cu  Cu53  1  0.23872500  0.40044600  0.38568500  1
  Cu  Cu54  1  0.41176300  0.22567600  0.03083100  1
  Cu  Cu55  1  0.91176300  0.77432400  0.46916900  1
  Cu  Cu56  1  0.58823700  0.77432400  0.96916900  1
  Cu  Cu57  1  0.08823700  0.22567600  0.53083100  1
  Cu  Cu58  1  0.42863100  0.37400100  0.77185500  1
  Cu  Cu59  1  0.92863100  0.62599900  0.72814500  1
  Cu  Cu60  1  0.57136900  0.62599900  0.22814500  1
  Cu  Cu61  1  0.07136900  0.37400100  0.27185500  1
  Cu  Cu62  1  0.32517700  0.02761200  0.87603300  1
  Cu  Cu63  1  0.82517700  0.97238800  0.62396700  1
  Cu  Cu64  1  0.67482300  0.97238800  0.12396700  1
  Cu  Cu65  1  0.17482300  0.02761200  0.37603300  1
  Cu  Cu66  1  0.39006300  0.83919700  0.64684400  1
  Cu  Cu67  1  0.89006300  0.16080300  0.85315600  1
  Cu  Cu68  1  0.60993700  0.16080300  0.35315600  1
  Cu  Cu69  1  0.10993700  0.83919700  0.14684400  1
  Cu  Cu70  1  0.38664400  0.95591500  0.31850100  1
  Cu  Cu71  1  0.88664400  0.04408500  0.18149900  1
  Cu  Cu72  1  0.61335600  0.04408500  0.68149900  1
  Cu  Cu73  1  0.11335600  0.95591500  0.81850100  1
  Cu  Cu74  1  0.55632200  0.72259700  0.51138800  1
  Cu  Cu75  1  0.05632200  0.27740300  0.98861200  1
  Cu  Cu76  1  0.44367800  0.27740300  0.48861200  1
  Cu  Cu77  1  0.94367800  0.72259700  0.01138800  1
