# generated using pymatgen
data_CuNi3C10
_symmetry_space_group_name_H-M   'P 1'
_cell_length_a   8.44077900
_cell_length_b   8.44077900
_cell_length_c   8.44077900
_cell_angle_alpha   90.00000000
_cell_angle_beta   90.00000000
_cell_angle_gamma   90.00000000
_symmetry_Int_Tables_number   1
_chemical_formula_structural   CuNi3C10
_chemical_formula_sum   'Cu4 Ni12 C40'
_cell_volume   601.37807229
_cell_formula_units_Z   4
loop_
 _symmetry_equiv_pos_site_id
 _symmetry_equiv_pos_as_xyz
  1  'x, y, z'
loop_
 _atom_site_type_symbol
 _atom_site_label
 _atom_site_symmetry_multiplicity
 _atom_site_fract_x
 _atom_site_fract_y
 _atom_site_fract_z
 _atom_site_occupancy
  C  C0  1  0.99974500  0.99974500  0.99974500  1
  C  C1  1  0.25025500  0.25025500  0.25025500  1
  C  C2  1  0.24974500  0.74974500  0.75025500  1
  C  C3  1  0.50025500  0.00025500  0.49974500  1
  C  C4  1  0.49974500  0.50025500  0.00025500  1
  C  C5  1  0.75025500  0.24974500  0.74974500  1
  C  C6  1  0.74974500  0.75025500  0.24974500  1
  C  C7  1  0.00025500  0.49974500  0.50025500  1
  Ni  Ni8  1  0.11537800  0.13462200  0.62500000  1
  Ni  Ni9  1  0.12500000  0.38462200  0.86537800  1
  Ni  Ni10  1  0.13462200  0.62500000  0.11537800  1
  Ni  Ni11  1  0.36537800  0.37500000  0.61537800  1
  Ni  Ni12  1  0.37500000  0.61537800  0.36537800  1
  Ni  Ni13  1  0.38462200  0.86537800  0.12500000  1
  Ni  Ni14  1  0.61537800  0.36537800  0.37500000  1
  Ni  Ni15  1  0.62500000  0.11537800  0.13462200  1
  Ni  Ni16  1  0.63462200  0.87500000  0.88462200  1
  Ni  Ni17  1  0.86537800  0.12500000  0.38462200  1
  Ni  Ni18  1  0.87500000  0.88462200  0.63462200  1
  Ni  Ni19  1  0.88462200  0.63462200  0.87500000  1
  Cu  Cu20  1  0.12500000  0.87500000  0.37500000  1
  Cu  Cu21  1  0.37500000  0.12500000  0.87500000  1
  Cu  Cu22  1  0.62500000  0.62500000  0.62500000  1
  Cu  Cu23  1  0.87500000  0.37500000  0.12500000  1
  C  C24  1  0.09476800  0.12731900  0.38266900  1
  C  C25  1  0.11733100  0.90523200  0.62731900  1
  C  C26  1  0.11487700  0.61487700  0.88512300  1
  C  C27  1  0.12268100  0.15523200  0.86733100  1
  C  C28  1  0.12731900  0.38266900  0.09476800  1
  C  C29  1  0.13512300  0.36487700  0.63512300  1
  C  C30  1  0.13266900  0.62268100  0.34476800  1
  C  C31  1  0.15523200  0.86733100  0.12268100  1
  C  C32  1  0.34476800  0.13266900  0.62268100  1
  C  C33  1  0.36733100  0.37731900  0.84476800  1
  C  C34  1  0.36487700  0.63512300  0.13512300  1
  C  C35  1  0.37268100  0.61733100  0.59476800  1
  C  C36  1  0.37731900  0.84476800  0.36733100  1
  C  C37  1  0.38512300  0.38512300  0.38512300  1
  C  C38  1  0.38266900  0.09476800  0.12731900  1
  C  C39  1  0.40523200  0.87268100  0.88266900  1
  C  C40  1  0.59476800  0.37268100  0.61733100  1
  C  C41  1  0.61733100  0.59476800  0.37268100  1
  C  C42  1  0.61487700  0.88512300  0.11487700  1
  C  C43  1  0.62268100  0.34476800  0.13266900  1
  C  C44  1  0.62731900  0.11733100  0.90523200  1
  C  C45  1  0.63512300  0.13512300  0.36487700  1
  C  C46  1  0.63266900  0.87731900  0.65523200  1
  C  C47  1  0.65523200  0.63266900  0.87731900  1
  C  C48  1  0.84476800  0.36733100  0.37731900  1
  C  C49  1  0.86733100  0.12268100  0.15523200  1
  C  C50  1  0.86487700  0.86487700  0.86487700  1
  C  C51  1  0.87268100  0.88266900  0.40523200  1
  C  C52  1  0.87731900  0.65523200  0.63266900  1
  C  C53  1  0.88512300  0.11487700  0.61487700  1
  C  C54  1  0.88266900  0.40523200  0.87268100  1
  C  C55  1  0.90523200  0.62731900  0.11733100  1
