# generated using pymatgen
data_Cu5NiC2
_symmetry_space_group_name_H-M   'P 1'
_cell_length_a   7.48732500
_cell_length_b   9.60603400
_cell_length_c   14.72622555
_cell_angle_alpha   52.80411727
_cell_angle_beta   90.00000000
_cell_angle_gamma   90.00000000
_symmetry_Int_Tables_number   1
_chemical_formula_structural   Cu5NiC2
_chemical_formula_sum   'Cu40 Ni8 C16'
_cell_volume   843.69996592
_cell_formula_units_Z   8
loop_
 _symmetry_equiv_pos_site_id
 _symmetry_equiv_pos_as_xyz
  1  'x, y, z'
loop_
 _atom_site_type_symbol
 _atom_site_label
 _atom_site_symmetry_multiplicity
 _atom_site_fract_x
 _atom_site_fract_y
 _atom_site_fract_z
 _atom_site_occupancy
  C  C0  1  0.46693900  0.20808900  0.90993400  1
  C  C1  1  0.96693900  0.79191100  0.59006600  1
  C  C2  1  0.03306100  0.20808900  0.40993400  1
  C  C3  1  0.53306100  0.79191100  0.09006600  1
  C  C4  1  0.25400300  0.96971100  0.09711800  1
  C  C5  1  0.10436000  0.73756000  0.43500400  1
  C  C6  1  0.26722900  0.70232100  0.51692200  1
  C  C7  1  0.76722900  0.29767900  0.98307800  1
  C  C8  1  0.60436000  0.26244000  0.06499600  1
  C  C9  1  0.75400300  0.03028900  0.40288200  1
  C  C10  1  0.24599700  0.96971100  0.59711800  1
  C  C11  1  0.39564000  0.73756000  0.93500400  1
  C  C12  1  0.23277100  0.70232100  0.01692200  1
  C  C13  1  0.73277100  0.29767900  0.48307800  1
  C  C14  1  0.89564000  0.26244000  0.56499600  1
  C  C15  1  0.74599700  0.03028900  0.90288200  1
  Ni  Ni16  1  0.85423500  0.85553700  0.23111500  1
  Ni  Ni17  1  0.62860400  0.50408400  0.63848700  1
  Ni  Ni18  1  0.12860400  0.49591600  0.86151300  1
  Ni  Ni19  1  0.35423500  0.14446300  0.26888500  1
  Ni  Ni20  1  0.64576500  0.85553700  0.73111500  1
  Ni  Ni21  1  0.87139600  0.50408400  0.13848700  1
  Ni  Ni22  1  0.37139600  0.49591600  0.36151300  1
  Ni  Ni23  1  0.14576500  0.14446300  0.76888500  1
  Cu  Cu24  1  0.29586600  0.22879000  0.79065500  1
  Cu  Cu25  1  0.38158000  0.61670800  0.38741100  1
  Cu  Cu26  1  0.94243100  0.71320200  0.33379600  1
  Cu  Cu27  1  0.36492100  0.98833500  0.05611400  1
  Cu  Cu28  1  0.97164700  0.94175300  0.13335500  1
  Cu  Cu29  1  0.63357400  0.40831100  0.76458700  1
  Cu  Cu30  1  0.80023800  0.59990500  0.59483100  1
  Cu  Cu31  1  0.48474600  0.62843100  0.59199500  1
  Cu  Cu32  1  0.13933200  0.72844000  0.50282800  1
  Cu  Cu33  1  0.77266200  0.97610000  0.24600300  1
  Cu  Cu34  1  0.98474600  0.37156900  0.90800500  1
  Cu  Cu35  1  0.30023800  0.40009500  0.90516900  1
  Cu  Cu36  1  0.27266200  0.02390000  0.25399700  1
  Cu  Cu37  1  0.13357400  0.59168900  0.73541300  1
  Cu  Cu38  1  0.63933200  0.27156000  0.99717200  1
  Cu  Cu39  1  0.47164700  0.05824700  0.36664500  1
  Cu  Cu40  1  0.86492100  0.01166500  0.44388600  1
  Cu  Cu41  1  0.79586600  0.77121000  0.70934500  1
  Cu  Cu42  1  0.11842000  0.61670800  0.88741100  1
  Cu  Cu43  1  0.44243100  0.28679800  0.16620400  1
  Cu  Cu44  1  0.55756900  0.71320200  0.83379600  1
  Cu  Cu45  1  0.88158000  0.38329200  0.11258900  1
  Cu  Cu46  1  0.20413400  0.22879000  0.29065500  1
  Cu  Cu47  1  0.13507900  0.98833500  0.55611400  1
  Cu  Cu48  1  0.52835300  0.94175300  0.63335500  1
  Cu  Cu49  1  0.36066800  0.72844000  0.00282800  1
  Cu  Cu50  1  0.86642600  0.40831100  0.26458700  1
  Cu  Cu51  1  0.72733800  0.97610000  0.74600300  1
  Cu  Cu52  1  0.69976200  0.59990500  0.09483100  1
  Cu  Cu53  1  0.01525400  0.62843100  0.09199500  1
  Cu  Cu54  1  0.22733800  0.02390000  0.75399700  1
  Cu  Cu55  1  0.86066800  0.27156000  0.49717200  1
  Cu  Cu56  1  0.51525400  0.37156900  0.40800500  1
  Cu  Cu57  1  0.19976200  0.40009500  0.40516900  1
  Cu  Cu58  1  0.36642600  0.59168900  0.23541300  1
  Cu  Cu59  1  0.02835300  0.05824700  0.86664500  1
  Cu  Cu60  1  0.63507900  0.01166500  0.94388600  1
  Cu  Cu61  1  0.05756900  0.28679800  0.66620400  1
  Cu  Cu62  1  0.61842000  0.38329200  0.61258900  1
  Cu  Cu63  1  0.70413400  0.77121000  0.20934500  1
