# generated using pymatgen
data_CuNiC4
_symmetry_space_group_name_H-M   'P 1'
_cell_length_a   4.50064300
_cell_length_b   11.95069600
_cell_length_c   5.03035400
_cell_angle_alpha   89.99993227
_cell_angle_beta   89.99985528
_cell_angle_gamma   89.99997289
_symmetry_Int_Tables_number   1
_chemical_formula_structural   CuNiC4
_chemical_formula_sum   'Cu4 Ni4 C16'
_cell_volume   270.56169615
_cell_formula_units_Z   4
loop_
 _symmetry_equiv_pos_site_id
 _symmetry_equiv_pos_as_xyz
  1  'x, y, z'
loop_
 _atom_site_type_symbol
 _atom_site_label
 _atom_site_symmetry_multiplicity
 _atom_site_fract_x
 _atom_site_fract_y
 _atom_site_fract_z
 _atom_site_occupancy
  Ni  Ni0  1  0.00000000  0.42425600  0.24999900  1
  Ni  Ni1  1  0.00000200  0.57574400  0.75000000  1
  Ni  Ni2  1  0.50000000  0.07574200  0.74999800  1
  Ni  Ni3  1  0.50000100  0.92425700  0.25000000  1
  Cu  Cu4  1  0.99999700  0.17804800  0.25000100  1
  Cu  Cu5  1  0.00000300  0.82195200  0.75000700  1
  Cu  Cu6  1  0.49999800  0.67805000  0.25000000  1
  Cu  Cu7  1  0.49999600  0.32194700  0.75000500  1
  C  C8  1  0.23320900  0.30980500  0.41896400  1
  C  C9  1  0.23321000  0.69019500  0.91896400  1
  C  C10  1  0.24132700  0.44412800  0.91817200  1
  C  C11  1  0.24132600  0.55587300  0.41817200  1
  C  C12  1  0.25867200  0.05587300  0.41817200  1
  C  C13  1  0.25867400  0.94412700  0.91817300  1
  C  C14  1  0.26679200  0.19019600  0.91896400  1
  C  C15  1  0.26679100  0.80980500  0.41896400  1
  C  C16  1  0.73320800  0.19019600  0.58103300  1
  C  C17  1  0.73320900  0.80980500  0.08103600  1
  C  C18  1  0.74132800  0.05587400  0.08182600  1
  C  C19  1  0.74132600  0.94412600  0.58182600  1
  C  C20  1  0.75867200  0.44412700  0.58182600  1
  C  C21  1  0.75867500  0.55587300  0.08182700  1
  C  C22  1  0.76679300  0.30980600  0.08103400  1
  C  C23  1  0.76679000  0.69019500  0.58103600  1
