# generated using pymatgen
data_Cu10Ni8C
_symmetry_space_group_name_H-M   'P 1'
_cell_length_a   11.44064100
_cell_length_b   7.29013900
_cell_length_c   13.00167800
_cell_angle_alpha   59.22351200
_cell_angle_beta   90.00000000
_cell_angle_gamma   90.00000000
_symmetry_Int_Tables_number   1
_chemical_formula_structural   Cu10Ni8C
_chemical_formula_sum   'Cu40 Ni32 C4'
_cell_volume   931.67544718
_cell_formula_units_Z   4
loop_
 _symmetry_equiv_pos_site_id
 _symmetry_equiv_pos_as_xyz
  1  'x, y, z'
loop_
 _atom_site_type_symbol
 _atom_site_label
 _atom_site_symmetry_multiplicity
 _atom_site_fract_x
 _atom_site_fract_y
 _atom_site_fract_z
 _atom_site_occupancy
  Ni  Ni0  1  0.60730700  0.15100600  0.66946600  1
  Ni  Ni1  1  0.89269300  0.15100600  0.16946600  1
  Ni  Ni2  1  0.39269300  0.84899400  0.33053400  1
  Ni  Ni3  1  0.10730700  0.84899400  0.83053400  1
  Ni  Ni4  1  0.73578900  0.03637100  0.77526800  1
  Ni  Ni5  1  0.76421100  0.03637100  0.27526800  1
  Ni  Ni6  1  0.26421100  0.96362900  0.22473200  1
  Ni  Ni7  1  0.23578900  0.96362900  0.72473200  1
  Ni  Ni8  1  0.79455400  0.39144200  0.67593000  1
  Ni  Ni9  1  0.70544600  0.39144200  0.17593000  1
  Ni  Ni10  1  0.20544600  0.60855800  0.32407000  1
  Ni  Ni11  1  0.29455400  0.60855800  0.82407000  1
  Ni  Ni12  1  0.65434700  0.43230200  0.59255200  1
  Ni  Ni13  1  0.84565300  0.43230200  0.09255200  1
  Ni  Ni14  1  0.34565300  0.56769800  0.40744800  1
  Ni  Ni15  1  0.15434700  0.56769800  0.90744800  1
  Ni  Ni16  1  0.60274200  0.05454700  0.82010700  1
  Ni  Ni17  1  0.89725800  0.05454700  0.32010700  1
  Ni  Ni18  1  0.39725800  0.94545300  0.17989300  1
  Ni  Ni19  1  0.10274200  0.94545300  0.67989300  1
  Ni  Ni20  1  0.67864100  0.50271300  0.69803900  1
  Ni  Ni21  1  0.82135900  0.50271300  0.19803900  1
  Ni  Ni22  1  0.32135900  0.49728700  0.30196100  1
  Ni  Ni23  1  0.17864100  0.49728700  0.80196100  1
  Ni  Ni24  1  0.56592400  0.32195400  0.72657000  1
  Ni  Ni25  1  0.93407600  0.32195400  0.22657000  1
  Ni  Ni26  1  0.43407600  0.67804600  0.27343000  1
  Ni  Ni27  1  0.06592400  0.67804600  0.77343000  1
  Ni  Ni28  1  0.69436400  0.24401700  0.82967500  1
  Ni  Ni29  1  0.80563600  0.24401700  0.32967500  1
  Ni  Ni30  1  0.30563600  0.75598300  0.17032500  1
  Ni  Ni31  1  0.19436400  0.75598300  0.67032500  1
  Cu  Cu32  1  0.79513100  0.20354100  0.58112100  1
  Cu  Cu33  1  0.70486900  0.20354100  0.08112100  1
  Cu  Cu34  1  0.20486900  0.79645900  0.41887900  1
  Cu  Cu35  1  0.29513100  0.79645900  0.91887900  1
  Cu  Cu36  1  0.56676100  0.09473100  0.60614500  1
  Cu  Cu37  1  0.93323900  0.09473100  0.10614500  1
  Cu  Cu38  1  0.43323900  0.90526900  0.39385500  1
  Cu  Cu39  1  0.06676100  0.90526900  0.89385500  1
  Cu  Cu40  1  0.80349400  0.89319700  0.80924900  1
  Cu  Cu41  1  0.69650600  0.89319700  0.30924900  1
  Cu  Cu42  1  0.19650600  0.10680300  0.19075100  1
  Cu  Cu43  1  0.30349400  0.10680300  0.69075100  1
  Cu  Cu44  1  0.89507300  0.43910500  0.65789400  1
  Cu  Cu45  1  0.60492700  0.43910500  0.15789400  1
  Cu  Cu46  1  0.10492700  0.56089500  0.34210600  1
  Cu  Cu47  1  0.39507300  0.56089500  0.84210600  1
  Cu  Cu48  1  0.64065600  0.52939200  0.48742900  1
  Cu  Cu49  1  0.85934400  0.52939200  0.98742900  1
  Cu  Cu50  1  0.35934400  0.47060800  0.51257100  1
  Cu  Cu51  1  0.14065600  0.47060800  0.01257100  1
  Cu  Cu52  1  0.54659900  0.91708200  0.89941800  1
  Cu  Cu53  1  0.95340100  0.91708200  0.39941800  1
  Cu  Cu54  1  0.45340100  0.08291800  0.10058200  1
  Cu  Cu55  1  0.04659900  0.08291800  0.60058200  1
  Cu  Cu56  1  0.80404000  0.18169200  0.82580900  1
  Cu  Cu57  1  0.69596000  0.18169200  0.32580900  1
  Cu  Cu58  1  0.19596000  0.81830800  0.17419100  1
  Cu  Cu59  1  0.30404000  0.81830800  0.67419100  1
  Cu  Cu60  1  0.67385700  0.66965900  0.69391800  1
  Cu  Cu61  1  0.82614300  0.66965900  0.19391800  1
  Cu  Cu62  1  0.32614300  0.33034100  0.30608200  1
  Cu  Cu63  1  0.17385700  0.33034100  0.80608200  1
  Cu  Cu64  1  0.46914100  0.37219300  0.73635800  1
  Cu  Cu65  1  0.03085900  0.37219300  0.23635800  1
  Cu  Cu66  1  0.53085900  0.62780700  0.26364200  1
  Cu  Cu67  1  0.96914100  0.62780700  0.76364200  1
  Cu  Cu68  1  0.70079300  0.23363700  0.92424500  1
  Cu  Cu69  1  0.79920700  0.23363700  0.42424500  1
  Cu  Cu70  1  0.29920700  0.76636300  0.07575500  1
  Cu  Cu71  1  0.20079300  0.76636300  0.57575500  1
  C  C72  1  0.74957700  0.22558100  0.64148400  1
  C  C73  1  0.75042300  0.22558100  0.14148400  1
  C  C74  1  0.25042300  0.77441900  0.35851600  1
  C  C75  1  0.24957700  0.77441900  0.85851600  1
