# generated using pymatgen
data_Cu7(NiC6)4
_symmetry_space_group_name_H-M   'P 1'
_cell_length_a   9.41316200
_cell_length_b   9.23039300
_cell_length_c   13.87942228
_cell_angle_alpha   48.92136467
_cell_angle_beta   90.00000000
_cell_angle_gamma   90.00000000
_symmetry_Int_Tables_number   1
_chemical_formula_structural   Cu7(NiC6)4
_chemical_formula_sum   'Cu14 Ni8 C48'
_cell_volume   909.05073957
_cell_formula_units_Z   2
loop_
 _symmetry_equiv_pos_site_id
 _symmetry_equiv_pos_as_xyz
  1  'x, y, z'
loop_
 _atom_site_type_symbol
 _atom_site_label
 _atom_site_symmetry_multiplicity
 _atom_site_fract_x
 _atom_site_fract_y
 _atom_site_fract_z
 _atom_site_occupancy
  C  C0  1  0.77436100  0.20987800  0.65220200  1
  C  C1  1  0.62241100  0.62568900  0.21862200  1
  C  C2  1  0.12241100  0.37431100  0.28137800  1
  C  C3  1  0.27436100  0.79012200  0.84779800  1
  C  C4  1  0.72563900  0.20987800  0.15220200  1
  C  C5  1  0.87758900  0.62568900  0.71862200  1
  C  C6  1  0.37758900  0.37431100  0.78137800  1
  C  C7  1  0.22563900  0.79012200  0.34779800  1
  Ni  Ni8  1  0.28557200  0.82069900  0.07710600  1
  Ni  Ni9  1  0.36723500  0.24459300  0.53739900  1
  Ni  Ni10  1  0.86723500  0.75540700  0.96260100  1
  Ni  Ni11  1  0.78557200  0.17930100  0.42289400  1
  Ni  Ni12  1  0.21442800  0.82069900  0.57710600  1
  Ni  Ni13  1  0.13276500  0.24459300  0.03739900  1
  Ni  Ni14  1  0.63276500  0.75540700  0.46260100  1
  Ni  Ni15  1  0.71442800  0.17930100  0.92289400  1
  Cu  Cu16  1  0.50000000  0.50000000  0.50000000  1
  Cu  Cu17  1  0.89817300  0.55403400  0.36886800  1
  Cu  Cu18  1  0.12664800  0.27015700  0.63331900  1
  Cu  Cu19  1  0.62825800  0.98852700  0.89906900  1
  Cu  Cu20  1  0.12825800  0.01147300  0.60093100  1
  Cu  Cu21  1  0.62664800  0.72984300  0.86668100  1
  Cu  Cu22  1  0.39817300  0.44596600  0.13113200  1
  Cu  Cu23  1  0.00000000  0.50000000  0.00000000  1
  Cu  Cu24  1  0.60182700  0.55403400  0.86886800  1
  Cu  Cu25  1  0.37335200  0.27015700  0.13331900  1
  Cu  Cu26  1  0.87174200  0.98852700  0.39906900  1
  Cu  Cu27  1  0.37174200  0.01147300  0.10093100  1
  Cu  Cu28  1  0.87335200  0.72984300  0.36668100  1
  Cu  Cu29  1  0.10182700  0.44596600  0.63113200  1
  C  C30  1  0.96380300  0.89390300  0.10679700  1
  C  C31  1  0.03619700  0.10609700  0.89320300  1
  C  C32  1  0.46380300  0.10609700  0.39320300  1
  C  C33  1  0.53619700  0.89390300  0.60679700  1
  C  C34  1  0.06732100  0.31678300  0.66851800  1
  C  C35  1  0.59340900  0.11060200  0.87969400  1
  C  C36  1  0.38819800  0.41734800  0.53186200  1
  C  C37  1  0.23968500  0.99581800  0.93734400  1
  C  C38  1  0.15759100  0.75730800  0.16925900  1
  C  C39  1  0.89615100  0.68928400  0.09809300  1
  C  C40  1  0.97877400  0.91666100  0.86812400  1
  C  C41  1  0.21324400  0.17543800  0.58169000  1
  C  C42  1  0.34746300  0.65835100  0.08922800  1
  C  C43  1  0.84746300  0.34164900  0.41077200  1
  C  C44  1  0.71324400  0.82456200  0.91831000  1
  C  C45  1  0.39615100  0.31071600  0.40190700  1
  C  C46  1  0.47877400  0.08333900  0.63187600  1
  C  C47  1  0.65759100  0.24269200  0.33074100  1
  C  C48  1  0.73968500  0.00418200  0.56265600  1
  C  C49  1  0.88819800  0.58265200  0.96813800  1
  C  C50  1  0.09340900  0.88939800  0.62030600  1
  C  C51  1  0.56732100  0.68321700  0.83148200  1
  C  C52  1  0.43267900  0.31678300  0.16851800  1
  C  C53  1  0.90659100  0.11060200  0.37969400  1
  C  C54  1  0.11180200  0.41734800  0.03186200  1
  C  C55  1  0.26031500  0.99581800  0.43734400  1
  C  C56  1  0.34240900  0.75730800  0.66925900  1
  C  C57  1  0.52122600  0.91666100  0.36812400  1
  C  C58  1  0.60384900  0.68928400  0.59809300  1
  C  C59  1  0.28675600  0.17543800  0.08169000  1
  C  C60  1  0.15253700  0.65835100  0.58922800  1
  C  C61  1  0.65253700  0.34164900  0.91077200  1
  C  C62  1  0.78675600  0.82456200  0.41831000  1
  C  C63  1  0.02122600  0.08333900  0.13187600  1
  C  C64  1  0.10384900  0.31071600  0.90190700  1
  C  C65  1  0.84240900  0.24269200  0.83074100  1
  C  C66  1  0.76031500  0.00418200  0.06265600  1
  C  C67  1  0.61180200  0.58265200  0.46813800  1
  C  C68  1  0.40659100  0.88939800  0.12030600  1
  C  C69  1  0.93267900  0.68321700  0.33148200  1
