# generated using pymatgen
data_CuNi2C15
_symmetry_space_group_name_H-M   'P 1'
_cell_length_a   8.55884731
_cell_length_b   8.55884731
_cell_length_c   8.55884699
_cell_angle_alpha   61.21308375
_cell_angle_beta   61.21308375
_cell_angle_gamma   61.21308592
_symmetry_Int_Tables_number   1
_chemical_formula_structural   CuNi2C15
_chemical_formula_sum   'Cu2 Ni4 C30'
_cell_volume   455.43009548
_cell_formula_units_Z   2
loop_
 _symmetry_equiv_pos_site_id
 _symmetry_equiv_pos_as_xyz
  1  'x, y, z'
loop_
 _atom_site_type_symbol
 _atom_site_label
 _atom_site_symmetry_multiplicity
 _atom_site_fract_x
 _atom_site_fract_y
 _atom_site_fract_z
 _atom_site_occupancy
  Ni  Ni0  1  0.85668500  0.85668500  0.85668500  1
  Ni  Ni1  1  0.64331500  0.64331500  0.64331500  1
  Ni  Ni2  1  0.35668500  0.35668500  0.35668500  1
  Ni  Ni3  1  0.14331500  0.14331500  0.14331500  1
  Cu  Cu4  1  0.00000000  0.00000000  0.00000000  1
  Cu  Cu5  1  0.50000000  0.50000000  0.50000000  1
  C  C6  1  0.75000000  0.45746700  0.04253300  1
  C  C7  1  0.45746700  0.04253300  0.75000000  1
  C  C8  1  0.04253300  0.75000000  0.45746700  1
  C  C9  1  0.95746700  0.25000000  0.54253300  1
  C  C10  1  0.54253300  0.95746700  0.25000000  1
  C  C11  1  0.25000000  0.54253300  0.95746700  1
  C  C12  1  0.88417400  0.68388600  0.49962100  1
  C  C13  1  0.68388600  0.49962100  0.88417400  1
  C  C14  1  0.94310200  0.09076500  0.73757000  1
  C  C15  1  0.49962100  0.88417400  0.68388600  1
  C  C16  1  0.99962100  0.18388600  0.38417400  1
  C  C17  1  0.76243000  0.40923500  0.55689800  1
  C  C18  1  0.73757000  0.94310200  0.09076500  1
  C  C19  1  0.55689800  0.76243000  0.40923500  1
  C  C20  1  0.81611400  0.61582600  0.00037900  1
  C  C21  1  0.40923500  0.55689800  0.76243000  1
  C  C22  1  0.90923500  0.26243000  0.05689800  1
  C  C23  1  0.61582600  0.00037900  0.81611400  1
  C  C24  1  0.38417400  0.99962100  0.18388600  1
  C  C25  1  0.09076500  0.73757000  0.94310200  1
  C  C26  1  0.59076500  0.44310200  0.23757000  1
  C  C27  1  0.18388600  0.38417400  0.99962100  1
  C  C28  1  0.44310200  0.23757000  0.59076500  1
  C  C29  1  0.26243000  0.05689800  0.90923500  1
  C  C30  1  0.23757000  0.59076500  0.44310200  1
  C  C31  1  0.00037900  0.81611400  0.61582600  1
  C  C32  1  0.50037900  0.11582600  0.31611400  1
  C  C33  1  0.05689800  0.90923500  0.26243000  1
  C  C34  1  0.31611400  0.50037900  0.11582600  1
  C  C35  1  0.11582600  0.31611400  0.50037900  1
