# generated using pymatgen
data_CuNi3C32
_symmetry_space_group_name_H-M   'P 1'
_cell_length_a   8.59513898
_cell_length_b   8.59513930
_cell_length_c   8.59513981
_cell_angle_alpha   61.53150848
_cell_angle_beta   61.53151532
_cell_angle_gamma   61.53151565
_symmetry_Int_Tables_number   1
_chemical_formula_structural   CuNi3C32
_chemical_formula_sum   'Cu1 Ni3 C32'
_cell_volume   464.42980506
_cell_formula_units_Z   1
loop_
 _symmetry_equiv_pos_site_id
 _symmetry_equiv_pos_as_xyz
  1  'x, y, z'
loop_
 _atom_site_type_symbol
 _atom_site_label
 _atom_site_symmetry_multiplicity
 _atom_site_fract_x
 _atom_site_fract_y
 _atom_site_fract_z
 _atom_site_occupancy
  Ni  Ni0  1  0.15192000  0.15192000  0.15192000  1
  Ni  Ni1  1  0.34681000  0.34681000  0.34681000  1
  Ni  Ni2  1  0.65043500  0.65043500  0.65043500  1
  Cu  Cu3  1  0.85450400  0.85450400  0.85450400  1
  C  C4  1  0.00229500  0.00229500  0.00229500  1
  C  C5  1  0.49921000  0.49921000  0.49921000  1
  C  C6  1  0.75051400  0.45475800  0.04736000  1
  C  C7  1  0.24868800  0.55392900  0.94441700  1
  C  C8  1  0.55392900  0.94441700  0.24868800  1
  C  C9  1  0.94441700  0.24868800  0.55392900  1
  C  C10  1  0.04736000  0.75051400  0.45475800  1
  C  C11  1  0.45475800  0.04736000  0.75051400  1
  C  C12  1  0.09065800  0.31729900  0.52473400  1
  C  C13  1  0.31729900  0.52473400  0.09065800  1
  C  C14  1  0.06626800  0.90510100  0.25165700  1
  C  C15  1  0.52473400  0.09065800  0.31729900  1
  C  C16  1  0.99979200  0.82403900  0.60652400  1
  C  C17  1  0.25080900  0.60161500  0.43704200  1
  C  C18  1  0.25165700  0.06626800  0.90510100  1
  C  C19  1  0.43704200  0.25080900  0.60161500  1
  C  C20  1  0.17839300  0.40432000  0.98239800  1
  C  C21  1  0.60161500  0.43704200  0.25080900  1
  C  C22  1  0.09073000  0.75718700  0.92500500  1
  C  C23  1  0.40432000  0.98239800  0.17839300  1
  C  C24  1  0.60652400  0.99979200  0.82403900  1
  C  C25  1  0.90510100  0.25165700  0.06626800  1
  C  C26  1  0.39860500  0.57620800  0.74107500  1
  C  C27  1  0.82403900  0.60652400  0.99979200  1
  C  C28  1  0.57620800  0.74107500  0.39860500  1
  C  C29  1  0.75718700  0.92500500  0.09073000  1
  C  C30  1  0.74107500  0.39860500  0.57620800  1
  C  C31  1  0.98239800  0.17839300  0.40432000  1
  C  C32  1  0.48555400  0.90397000  0.67618200  1
  C  C33  1  0.92500500  0.09073000  0.75718700  1
  C  C34  1  0.67618200  0.48555400  0.90397000  1
  C  C35  1  0.90397000  0.67618200  0.48555400  1
