# generated using pymatgen
data_Cu4Ni2C19
_symmetry_space_group_name_H-M   'P 1'
_cell_length_a   5.56835728
_cell_length_b   9.48403288
_cell_length_c   9.27348041
_cell_angle_alpha   103.68660985
_cell_angle_beta   105.10777534
_cell_angle_gamma   84.68051492
_symmetry_Int_Tables_number   1
_chemical_formula_structural   Cu4Ni2C19
_chemical_formula_sum   'Cu8 Ni4 C38'
_cell_volume   459.13304197
_cell_formula_units_Z   2
loop_
 _symmetry_equiv_pos_site_id
 _symmetry_equiv_pos_as_xyz
  1  'x, y, z'
loop_
 _atom_site_type_symbol
 _atom_site_label
 _atom_site_symmetry_multiplicity
 _atom_site_fract_x
 _atom_site_fract_y
 _atom_site_fract_z
 _atom_site_occupancy
  C  C0  1  0.00017800  0.49982100  0.49993700  1
  C  C1  1  0.00014900  0.00023800  0.00011600  1
  C  C2  1  0.91945700  0.21325200  0.48802000  1
  C  C3  1  0.91939500  0.71334700  0.98804200  1
  C  C4  1  0.08057900  0.78672500  0.51196500  1
  C  C5  1  0.08053100  0.28679500  0.01197500  1
  C  C6  1  0.25246800  0.19221500  0.36739400  1
  C  C7  1  0.25239500  0.69224800  0.86740500  1
  C  C8  1  0.74754900  0.80774400  0.63258300  1
  C  C9  1  0.74748600  0.30776300  0.13259400  1
  C  C10  1  0.44252300  0.25376100  0.54435200  1
  C  C11  1  0.44247000  0.75379500  0.04435400  1
  C  C12  1  0.55753200  0.74617700  0.45561700  1
  C  C13  1  0.55748000  0.24619600  0.95561500  1
  C  C14  1  0.11601500  0.27647000  0.65207200  1
  C  C15  1  0.11595100  0.77653900  0.15208700  1
  C  C16  1  0.88406900  0.72342000  0.34792900  1
  C  C17  1  0.88401000  0.22347400  0.84793500  1
  C  C18  1  0.29515800  0.09368600  0.50582500  1
  C  C19  1  0.29506800  0.59374000  0.00584400  1
  C  C20  1  0.70487800  0.90625800  0.49414700  1
  C  C21  1  0.70481000  0.40629400  0.99416500  1
  Ni  Ni22  1  0.65568900  0.01015900  0.23804000  1
  Ni  Ni23  1  0.65569700  0.51014600  0.73805700  1
  Ni  Ni24  1  0.34429600  0.98984800  0.76195700  1
  Ni  Ni25  1  0.34430700  0.48985400  0.26195100  1
  Cu  Cu26  1  0.27867100  0.19814500  0.48300700  1
  Cu  Cu27  1  0.27860200  0.69818800  0.98303500  1
  Cu  Cu28  1  0.72137300  0.80180300  0.51696700  1
  Cu  Cu29  1  0.72131300  0.30183300  0.01697200  1
  Cu  Cu30  1  0.07287800  0.27832600  0.53755900  1
  Cu  Cu31  1  0.07282100  0.77842700  0.03758100  1
  Cu  Cu32  1  0.92721100  0.72159700  0.46244100  1
  Cu  Cu33  1  0.92715300  0.22167700  0.96245200  1
  C  C34  1  0.85562000  0.07458900  0.19155300  1
  C  C35  1  0.85562700  0.57456300  0.69156100  1
  C  C36  1  0.14432100  0.92543700  0.80843400  1
  C  C37  1  0.14437600  0.42542400  0.30844000  1
  C  C38  1  0.40743100  0.06916200  0.17032100  1
  C  C39  1  0.40743400  0.56912700  0.67032800  1
  C  C40  1  0.59252600  0.93086700  0.82969400  1
  C  C41  1  0.59256100  0.43086700  0.32967900  1
  C  C42  1  0.71009600  0.05253000  0.40906400  1
  C  C43  1  0.71010400  0.55253700  0.90908200  1
  C  C44  1  0.28989100  0.94747000  0.59092800  1
  C  C45  1  0.28988700  0.44746800  0.09092700  1
  C  C46  1  0.67176900  0.84880500  0.18761400  1
  C  C47  1  0.67177600  0.34879500  0.68764000  1
  C  C48  1  0.32820600  0.15120500  0.81237100  1
  C  C49  1  0.32821300  0.65119300  0.31237200  1
