# generated using pymatgen
data_Cu4NiC23
_symmetry_space_group_name_H-M   'P 1'
_cell_length_a   10.00958724
_cell_length_b   10.00958724
_cell_length_c   9.90830843
_cell_angle_alpha   60.37775736
_cell_angle_beta   60.37775736
_cell_angle_gamma   90.75962414
_symmetry_Int_Tables_number   1
_chemical_formula_structural   Cu4NiC23
_chemical_formula_sum   'Cu8 Ni2 C46'
_cell_volume   705.27421381
_cell_formula_units_Z   2
loop_
 _symmetry_equiv_pos_site_id
 _symmetry_equiv_pos_as_xyz
  1  'x, y, z'
loop_
 _atom_site_type_symbol
 _atom_site_label
 _atom_site_symmetry_multiplicity
 _atom_site_fract_x
 _atom_site_fract_y
 _atom_site_fract_z
 _atom_site_occupancy
  C  C0  1  0.08725800  0.91274200  0.25000000  1
  C  C1  1  0.09465200  0.34808000  0.82058100  1
  C  C2  1  0.09448200  0.34790800  0.23765600  1
  C  C3  1  0.34808000  0.09465200  0.32058100  1
  C  C4  1  0.65209200  0.90551800  0.26234400  1
  C  C5  1  0.34790800  0.09448200  0.73765600  1
  C  C6  1  0.65192000  0.90534800  0.67941900  1
  C  C7  1  0.90551800  0.65209200  0.76234400  1
  C  C8  1  0.90534800  0.65192000  0.17941900  1
  C  C9  1  0.91274200  0.08725800  0.75000000  1
  C  C10  1  0.50000000  0.00000000  0.00000000  1
  C  C11  1  0.50000000  0.50000000  0.50000000  1
  C  C12  1  0.50000000  0.50000000  0.00000000  1
  C  C13  1  0.00000000  0.50000000  0.50000000  1
  Ni  Ni14  1  0.12787700  0.87212300  0.75000000  1
  Ni  Ni15  1  0.87212300  0.12787700  0.25000000  1
  Cu  Cu16  1  0.28672700  0.71367700  0.42607300  1
  Cu  Cu17  1  0.35781800  0.28298300  0.93081300  1
  Cu  Cu18  1  0.71701700  0.64218200  0.56918700  1
  Cu  Cu19  1  0.71367700  0.28672700  0.92607300  1
  Cu  Cu20  1  0.28632300  0.71327300  0.07392700  1
  Cu  Cu21  1  0.28298300  0.35781800  0.43081300  1
  Cu  Cu22  1  0.64218200  0.71701700  0.06918700  1
  Cu  Cu23  1  0.71327300  0.28632300  0.57392700  1
  C  C24  1  0.14138400  0.68695300  0.46141000  1
  C  C25  1  0.35368700  0.31250400  0.79017700  1
  C  C26  1  0.31669000  0.59868700  0.53366000  1
  C  C27  1  0.35258600  0.13849100  0.04557000  1
  C  C28  1  0.39718200  0.85821200  0.28833900  1
  C  C29  1  0.05753800  0.94413300  0.60749000  1
  C  C30  1  0.04567300  0.66247800  0.89477300  1
  C  C31  1  0.35645200  0.39151000  0.96608700  1
  C  C32  1  0.68695300  0.14138400  0.96141000  1
  C  C33  1  0.60849000  0.64354800  0.53391300  1
  C  C34  1  0.05586700  0.94246200  0.89251000  1
  C  C35  1  0.33752200  0.95432700  0.60522700  1
  C  C36  1  0.14178800  0.60281800  0.21166100  1
  C  C37  1  0.31250400  0.35368700  0.29017700  1
  C  C38  1  0.86150900  0.64741400  0.45443000  1
  C  C39  1  0.59868700  0.31669000  0.03366000  1
  C  C40  1  0.13849100  0.35258600  0.54557000  1
  C  C41  1  0.40131300  0.68331000  0.96634000  1
  C  C42  1  0.68749600  0.64631300  0.70982300  1
  C  C43  1  0.85821200  0.39718200  0.78833900  1
  C  C44  1  0.66247800  0.04567300  0.39477300  1
  C  C45  1  0.94413300  0.05753800  0.10749000  1
  C  C46  1  0.31304700  0.85861600  0.03859000  1
  C  C47  1  0.39151000  0.35645200  0.46608700  1
  C  C48  1  0.64354800  0.60849000  0.03391300  1
  C  C49  1  0.94246200  0.05586700  0.39251000  1
  C  C50  1  0.95432700  0.33752200  0.10522700  1
  C  C51  1  0.60281800  0.14178800  0.71166100  1
  C  C52  1  0.64741400  0.86150900  0.95443000  1
  C  C53  1  0.68331000  0.40131300  0.46634000  1
  C  C54  1  0.64631300  0.68749600  0.20982300  1
  C  C55  1  0.85861600  0.31304700  0.53859000  1
