# generated using pymatgen
data_Cu2NiC17
_symmetry_space_group_name_H-M   'P 1'
_cell_length_a   5.42903543
_cell_length_b   10.29177017
_cell_length_c   7.50157418
_cell_angle_alpha   89.97093018
_cell_angle_beta   85.73270661
_cell_angle_gamma   90.01445112
_symmetry_Int_Tables_number   1
_chemical_formula_structural   Cu2NiC17
_chemical_formula_sum   'Cu4 Ni2 C34'
_cell_volume   417.98380304
_cell_formula_units_Z   2
loop_
 _symmetry_equiv_pos_site_id
 _symmetry_equiv_pos_as_xyz
  1  'x, y, z'
loop_
 _atom_site_type_symbol
 _atom_site_label
 _atom_site_symmetry_multiplicity
 _atom_site_fract_x
 _atom_site_fract_y
 _atom_site_fract_z
 _atom_site_occupancy
  C  C0  1  0.56408900  0.00156200  0.29652100  1
  C  C1  1  0.56408200  0.50153800  0.29650900  1
  C  C2  1  0.08585700  0.24854800  0.77826600  1
  C  C3  1  0.08579600  0.74858000  0.77823900  1
  C  C4  1  0.55196700  0.00148100  0.76555700  1
  C  C5  1  0.55189900  0.50151000  0.76553200  1
  C  C6  1  0.07123900  0.24816500  0.29356800  1
  C  C7  1  0.07104900  0.74819200  0.29358600  1
  Ni  Ni8  1  0.50435100  0.24879400  0.50350900  1
  Ni  Ni9  1  0.50429700  0.74877500  0.50352500  1
  C  C10  1  0.00239600  0.00047100  0.00206600  1
  C  C11  1  0.00244400  0.50049400  0.00208600  1
  Cu  Cu12  1  0.00087400  0.99852200  0.50172100  1
  Cu  Cu13  1  0.50351500  0.25189800  0.00273700  1
  Cu  Cu14  1  0.50352800  0.75192000  0.00276700  1
  Cu  Cu15  1  0.00089900  0.49853700  0.50175200  1
  C  C16  1  0.79114500  0.14795000  0.43197600  1
  C  C17  1  0.79111500  0.64793600  0.43199500  1
  C  C18  1  0.97611600  0.06399800  0.74061200  1
  C  C19  1  0.97609900  0.56402200  0.74064700  1
  C  C20  1  0.17898900  0.16974800  0.05349300  1
  C  C21  1  0.17901100  0.66986100  0.05359300  1
  C  C22  1  0.29162700  0.10091800  0.43523200  1
  C  C23  1  0.29165600  0.60091600  0.43530200  1
  C  C24  1  0.32118200  0.40424300  0.92731700  1
  C  C25  1  0.32118300  0.90424200  0.92732700  1
  C  C26  1  0.47882000  0.18950200  0.74597400  1
  C  C27  1  0.47877700  0.68955900  0.74604400  1
  C  C28  1  0.49143000  0.30985000  0.24626700  1
  C  C29  1  0.49151300  0.80982300  0.24620100  1
  C  C30  1  0.66187300  0.09138000  0.05619900  1
  C  C31  1  0.66189800  0.59136900  0.05619000  1
  C  C32  1  0.68508700  0.40234700  0.55218300  1
  C  C33  1  0.68508000  0.90234000  0.55217200  1
  C  C34  1  0.80546600  0.33771700  0.92562200  1
  C  C35  1  0.80547500  0.83772900  0.92564800  1
  C  C36  1  0.98756100  0.43578400  0.25825700  1
  C  C37  1  0.98752300  0.93579800  0.25823800  1
  C  C38  1  0.18912400  0.34704900  0.55409400  1
  C  C39  1  0.18876800  0.84693300  0.55387200  1
