# generated using pymatgen
data_CuNi3C32
_symmetry_space_group_name_H-M   'P 1'
_cell_length_a   8.74011317
_cell_length_b   8.72917455
_cell_length_c   8.72917369
_cell_angle_alpha   60.00000009
_cell_angle_beta   60.04139041
_cell_angle_gamma   60.04139282
_symmetry_Int_Tables_number   1
_chemical_formula_structural   CuNi3C32
_chemical_formula_sum   'Cu1 Ni3 C32'
_cell_volume   471.21574950
_cell_formula_units_Z   1
loop_
 _symmetry_equiv_pos_site_id
 _symmetry_equiv_pos_as_xyz
  1  'x, y, z'
loop_
 _atom_site_type_symbol
 _atom_site_label
 _atom_site_symmetry_multiplicity
 _atom_site_fract_x
 _atom_site_fract_y
 _atom_site_fract_z
 _atom_site_occupancy
  Ni  Ni0  1  0.06179400  0.64606800  0.64606800  1
  Ni  Ni1  1  0.43570100  0.85476600  0.85476600  1
  Ni  Ni2  1  0.93912800  0.35362400  0.35362400  1
  C  C3  1  0.00698200  0.99767300  0.99767300  1
  C  C4  1  0.49688200  0.50103900  0.50103900  1
  C  C5  1  0.24651000  0.25168300  0.54788400  1
  C  C6  1  0.24651000  0.95392200  0.25168300  1
  C  C7  1  0.24651000  0.54788400  0.95392200  1
  C  C8  1  0.75205700  0.46092800  0.04298900  1
  C  C9  1  0.75205700  0.04298900  0.74402600  1
  C  C10  1  0.75205700  0.74402600  0.46092800  1
  Cu  Cu11  1  0.57463400  0.14178900  0.14178900  1
  C  C12  1  0.07135300  0.11844000  0.30963400  1
  C  C13  1  0.07135300  0.50057400  0.11844000  1
  C  C14  1  0.07135300  0.30963400  0.50057400  1
  C  C15  1  0.23223100  0.08854100  0.73911900  1
  C  C16  1  0.42717900  0.19493400  0.39543800  1
  C  C17  1  0.25227100  0.41644000  0.56815700  1
  C  C18  1  0.23223100  0.94010900  0.08854100  1
  C  C19  1  0.25227100  0.76313300  0.41644000  1
  C  C20  1  0.57284900  0.61799700  0.00120500  1
  C  C21  1  0.25227100  0.56815700  0.76313300  1
  C  C22  1  0.77745800  0.26761100  0.05366700  1
  C  C23  1  0.57284900  0.00120500  0.80794900  1
  C  C24  1  0.42717900  0.98244700  0.19493400  1
  C  C25  1  0.23223100  0.73911900  0.94010900  1
  C  C26  1  0.73667500  0.44644800  0.23502700  1
  C  C27  1  0.42717900  0.39543800  0.98244700  1
  C  C28  1  0.73667500  0.23502700  0.58184900  1
  C  C29  1  0.77745800  0.05366700  0.90126300  1
  C  C30  1  0.73667500  0.58184900  0.44644800  1
  C  C31  1  0.57284900  0.80794900  0.61799700  1
  C  C32  1  0.77745800  0.90126300  0.26761100  1
  C  C33  1  0.92637600  0.68213800  0.50857700  1
  C  C34  1  0.92637600  0.50857700  0.88290800  1
  C  C35  1  0.92637600  0.88290800  0.68213800  1
