# generated using pymatgen
data_Cu2NiC15
_symmetry_space_group_name_H-M   'P 1'
_cell_length_a   3.14898000
_cell_length_b   8.26020800
_cell_length_c   14.30411954
_cell_angle_alpha   89.88756030
_cell_angle_beta   90.00000000
_cell_angle_gamma   90.00000000
_symmetry_Int_Tables_number   1
_chemical_formula_structural   Cu2NiC15
_chemical_formula_sum   'Cu4 Ni2 C30'
_cell_volume   372.06702392
_cell_formula_units_Z   2
loop_
 _symmetry_equiv_pos_site_id
 _symmetry_equiv_pos_as_xyz
  1  'x, y, z'
loop_
 _atom_site_type_symbol
 _atom_site_label
 _atom_site_symmetry_multiplicity
 _atom_site_fract_x
 _atom_site_fract_y
 _atom_site_fract_z
 _atom_site_occupancy
  C  C0  1  0.50000000  0.70729200  0.99266200  1
  C  C1  1  0.50000000  0.66059200  0.35794400  1
  C  C2  1  0.50000000  0.63497500  0.64983800  1
  C  C3  1  0.50000000  0.20691400  0.49014800  1
  C  C4  1  0.50000000  0.15677000  0.85683100  1
  C  C5  1  0.50000000  0.13202600  0.15166400  1
  Ni  Ni6  1  0.00000000  0.36646600  0.00596600  1
  Ni  Ni7  1  0.00000000  0.30794800  0.67987900  1
  Cu  Cu8  1  0.00000000  0.86334600  0.50375500  1
  Cu  Cu9  1  0.00000000  0.82401400  0.81659400  1
  Cu  Cu10  1  0.00000000  0.81217100  0.18016200  1
  Cu  Cu11  1  0.00000000  0.32464900  0.31651100  1
  C  C12  1  0.50000000  0.99717500  0.66591900  1
  C  C13  1  0.00000000  0.99877300  0.99929200  1
  C  C14  1  0.50000000  0.00017800  0.33333400  1
  C  C15  1  0.50000000  0.50069600  0.16856600  1
  C  C16  1  0.00000000  0.50206900  0.49981200  1
  C  C17  1  0.50000000  0.50255400  0.83318500  1
  C  C18  1  0.50000000  0.98771200  0.43037800  1
  C  C19  1  0.50000000  0.98120000  0.76266000  1
  C  C20  1  0.50000000  0.86148000  0.60835100  1
  C  C21  1  0.50000000  0.86111700  0.27843800  1
  C  C22  1  0.00000000  0.84571000  0.95823100  1
  C  C23  1  0.50000000  0.65410000  0.12799900  1
  C  C24  1  0.50000000  0.65260000  0.78936300  1
  C  C25  1  0.00000000  0.64049700  0.44370200  1
  C  C26  1  0.00000000  0.51639600  0.59619400  1
  C  C27  1  0.50000000  0.49258200  0.93038500  1
  C  C28  1  0.50000000  0.48311700  0.26538900  1
  C  C29  1  0.50000000  0.36252600  0.11204900  1
  C  C30  1  0.50000000  0.36084000  0.78044000  1
  C  C31  1  0.00000000  0.34894900  0.45780900  1
  C  C32  1  0.50000000  0.15156900  0.62513500  1
  C  C33  1  0.50000000  0.15246000  0.29103700  1
  C  C34  1  0.00000000  0.13643700  0.94355100  1
  C  C35  1  0.00000000  0.01210100  0.09682700  1
