# generated using pymatgen
data_Cu20Ni2C7
_symmetry_space_group_name_H-M   'P 1'
_cell_length_a   13.03608500
_cell_length_b   13.06644300
_cell_length_c   13.23751500
_cell_angle_alpha   90.00000000
_cell_angle_beta   90.00000000
_cell_angle_gamma   90.00000000
_symmetry_Int_Tables_number   1
_chemical_formula_structural   Cu20Ni2C7
_chemical_formula_sum   'Cu80 Ni8 C28'
_cell_volume   2254.81558040
_cell_formula_units_Z   4
loop_
 _symmetry_equiv_pos_site_id
 _symmetry_equiv_pos_as_xyz
  1  'x, y, z'
loop_
 _atom_site_type_symbol
 _atom_site_label
 _atom_site_symmetry_multiplicity
 _atom_site_fract_x
 _atom_site_fract_y
 _atom_site_fract_z
 _atom_site_occupancy
  C  C0  1  0.74654700  0.43100000  0.41141700  1
  C  C1  1  0.24654700  0.06900000  0.58858300  1
  C  C2  1  0.25345300  0.93100000  0.08858300  1
  C  C3  1  0.75345300  0.56900000  0.91141700  1
  C  C4  1  0.25345300  0.56900000  0.58858300  1
  C  C5  1  0.75345300  0.93100000  0.41141700  1
  C  C6  1  0.74654700  0.06900000  0.91141700  1
  C  C7  1  0.24654700  0.43100000  0.08858300  1
  C  C8  1  0.56807800  0.08880500  0.24782200  1
  C  C9  1  0.06807800  0.41119500  0.75217800  1
  C  C10  1  0.43192200  0.58880500  0.25217800  1
  C  C11  1  0.93192200  0.91119500  0.74782200  1
  C  C12  1  0.43192200  0.91119500  0.75217800  1
  C  C13  1  0.93192200  0.58880500  0.24782200  1
  C  C14  1  0.56807800  0.41119500  0.74782200  1
  C  C15  1  0.06807800  0.08880500  0.25217800  1
  C  C16  1  0.41078000  0.25389600  0.43180500  1
  C  C17  1  0.91078000  0.24610400  0.56819500  1
  C  C18  1  0.58922000  0.75389600  0.06819500  1
  C  C19  1  0.08922000  0.74610400  0.93180500  1
  C  C20  1  0.58922000  0.74610400  0.56819500  1
  C  C21  1  0.08922000  0.75389600  0.43180500  1
  C  C22  1  0.41078000  0.24610400  0.93180500  1
  C  C23  1  0.91078000  0.25389600  0.06819500  1
  C  C24  1  0.50000000  0.00000000  0.00000000  1
  C  C25  1  0.00000000  0.50000000  0.00000000  1
  C  C26  1  0.50000000  0.50000000  0.50000000  1
  C  C27  1  0.00000000  0.00000000  0.50000000  1
  Ni  Ni28  1  0.69268500  0.30839400  0.19277000  1
  Ni  Ni29  1  0.19268500  0.19160600  0.80723000  1
  Ni  Ni30  1  0.30731500  0.80839400  0.30723000  1
  Ni  Ni31  1  0.80731500  0.69160600  0.69277000  1
  Ni  Ni32  1  0.30731500  0.69160600  0.80723000  1
  Ni  Ni33  1  0.80731500  0.80839400  0.19277000  1
  Ni  Ni34  1  0.69268500  0.19160600  0.69277000  1
  Ni  Ni35  1  0.19268500  0.30839400  0.30723000  1
  Cu  Cu36  1  0.62995100  0.37064100  0.12909500  1
  Cu  Cu37  1  0.12995100  0.12935900  0.87090500  1
  Cu  Cu38  1  0.37004900  0.87064100  0.37090500  1
  Cu  Cu39  1  0.87004900  0.62935900  0.62909500  1
  Cu  Cu40  1  0.37004900  0.62935900  0.87090500  1
  Cu  Cu41  1  0.87004900  0.87064100  0.12909500  1
  Cu  Cu42  1  0.62995100  0.12935900  0.62909500  1
  Cu  Cu43  1  0.12995100  0.37064100  0.37090500  1
  Cu  Cu44  1  0.80654500  0.31843000  0.17037300  1
  Cu  Cu45  1  0.30654500  0.18157000  0.82962700  1
  Cu  Cu46  1  0.19345500  0.81843000  0.32962700  1
  Cu  Cu47  1  0.69345500  0.68157000  0.67037300  1
  Cu  Cu48  1  0.19345500  0.68157000  0.82962700  1
  Cu  Cu49  1  0.69345500  0.81843000  0.17037300  1
  Cu  Cu50  1  0.80654500  0.18157000  0.67037300  1
  Cu  Cu51  1  0.30654500  0.31843000  0.32962700  1
  Cu  Cu52  1  0.66909500  0.19469300  0.18350100  1
  Cu  Cu53  1  0.16909500  0.30530700  0.81649900  1
  Cu  Cu54  1  0.33090500  0.69469300  0.31649900  1
  Cu  Cu55  1  0.83090500  0.80530700  0.68350100  1
  Cu  Cu56  1  0.33090500  0.80530700  0.81649900  1
  Cu  Cu57  1  0.83090500  0.69469300  0.18350100  1
  Cu  Cu58  1  0.66909500  0.30530700  0.68350100  1
  Cu  Cu59  1  0.16909500  0.19469300  0.31649900  1
  Cu  Cu60  1  0.68062300  0.33316800  0.30417500  1
  Cu  Cu61  1  0.18062300  0.16683200  0.69582500  1
  Cu  Cu62  1  0.31937700  0.83316800  0.19582500  1
  Cu  Cu63  1  0.81937700  0.66683200  0.80417500  1
  Cu  Cu64  1  0.31937700  0.66683200  0.69582500  1
  Cu  Cu65  1  0.81937700  0.83316800  0.30417500  1
  Cu  Cu66  1  0.68062300  0.16683200  0.80417500  1
  Cu  Cu67  1  0.18062300  0.33316800  0.19582500  1
  Cu  Cu68  1  0.65899700  0.50915500  0.49862400  1
  Cu  Cu69  1  0.15899700  0.99084500  0.50137600  1
  Cu  Cu70  1  0.34100300  0.00915500  0.00137600  1
  Cu  Cu71  1  0.84100300  0.49084500  0.99862400  1
  Cu  Cu72  1  0.34100300  0.49084500  0.50137600  1
  Cu  Cu73  1  0.84100300  0.00915500  0.49862400  1
  Cu  Cu74  1  0.65899700  0.99084500  0.99862400  1
  Cu  Cu75  1  0.15899700  0.50915500  0.00137600  1
  Cu  Cu76  1  0.48692000  0.17276300  0.33571500  1
  Cu  Cu77  1  0.98692000  0.32723700  0.66428500  1
  Cu  Cu78  1  0.51308000  0.67276300  0.16428500  1
  Cu  Cu79  1  0.01308000  0.82723700  0.83571500  1
  Cu  Cu80  1  0.51308000  0.82723700  0.66428500  1
  Cu  Cu81  1  0.01308000  0.67276300  0.33571500  1
  Cu  Cu82  1  0.48692000  0.32723700  0.83571500  1
  Cu  Cu83  1  0.98692000  0.17276300  0.16428500  1
  Cu  Cu84  1  0.83835000  0.50485100  0.32455100  1
  Cu  Cu85  1  0.33835000  0.99514900  0.67545000  1
  Cu  Cu86  1  0.16165000  0.00485100  0.17544900  1
  Cu  Cu87  1  0.66165000  0.49514900  0.82455000  1
  Cu  Cu88  1  0.16165000  0.49514900  0.67545000  1
  Cu  Cu89  1  0.66165000  0.00485100  0.32455100  1
  Cu  Cu90  1  0.83835000  0.99514900  0.82455000  1
  Cu  Cu91  1  0.33835000  0.50485100  0.17544900  1
  Cu  Cu92  1  0.00675600  0.34182300  0.00099300  1
  Cu  Cu93  1  0.50675600  0.15817700  0.99900700  1
  Cu  Cu94  1  0.99324400  0.84182300  0.49900700  1
  Cu  Cu95  1  0.49324400  0.65817700  0.50099300  1
  Cu  Cu96  1  0.99324400  0.65817700  0.99900700  1
  Cu  Cu97  1  0.49324400  0.84182300  0.00099300  1
  Cu  Cu98  1  0.00675600  0.15817700  0.50099300  1
  Cu  Cu99  1  0.50675600  0.34182300  0.49900700  1
  Cu  Cu100  1  0.81813700  0.17283900  0.98825800  1
  Cu  Cu101  1  0.31813700  0.32716100  0.01174200  1
  Cu  Cu102  1  0.18186300  0.67283900  0.51174200  1
  Cu  Cu103  1  0.68186300  0.82716100  0.48825800  1
  Cu  Cu104  1  0.18186300  0.82716100  0.01174200  1
  Cu  Cu105  1  0.68186300  0.67283900  0.98825800  1
  Cu  Cu106  1  0.81813700  0.32716100  0.48825800  1
  Cu  Cu107  1  0.31813700  0.17283900  0.51174200  1
  Cu  Cu108  1  0.49598400  0.00118600  0.15633800  1
  Cu  Cu109  1  0.99598400  0.49881400  0.84366200  1
  Cu  Cu110  1  0.50401600  0.50118600  0.34366200  1
  Cu  Cu111  1  0.00401600  0.99881400  0.65633800  1
  Cu  Cu112  1  0.50401600  0.99881400  0.84366200  1
  Cu  Cu113  1  0.00401600  0.50118600  0.15633800  1
  Cu  Cu114  1  0.49598400  0.49881400  0.65633800  1
  Cu  Cu115  1  0.99598400  0.00118600  0.34366200  1
