# generated using pymatgen
data_Cu3NiC
_symmetry_space_group_name_H-M   'P 1'
_cell_length_a   11.55772678
_cell_length_b   9.85682971
_cell_length_c   8.49489511
_cell_angle_alpha   90.00000000
_cell_angle_beta   92.10414704
_cell_angle_gamma   90.00000000
_symmetry_Int_Tables_number   1
_chemical_formula_structural   Cu3NiC
_chemical_formula_sum   'Cu48 Ni16 C16'
_cell_volume   967.10754508
_cell_formula_units_Z   16
loop_
 _symmetry_equiv_pos_site_id
 _symmetry_equiv_pos_as_xyz
  1  'x, y, z'
loop_
 _atom_site_type_symbol
 _atom_site_label
 _atom_site_symmetry_multiplicity
 _atom_site_fract_x
 _atom_site_fract_y
 _atom_site_fract_z
 _atom_site_occupancy
  C  C0  1  0.20912759  0.92098637  0.68102219  1
  C  C1  1  0.20912759  0.57901363  0.18102219  1
  C  C2  1  0.34035388  0.66020699  0.51881476  1
  C  C3  1  0.34035388  0.83979301  0.01881476  1
  C  C4  1  0.65868323  0.16103312  0.96799616  1
  C  C5  1  0.65868323  0.33896688  0.46799616  1
  C  C6  1  0.76883761  0.40289254  0.80105723  1
  C  C7  1  0.76883761  0.09710746  0.30105723  1
  C  C8  1  0.86109507  0.64014237  0.93901452  1
  C  C9  1  0.86109507  0.85985763  0.43901452  1
  C  C10  1  0.92837216  0.12341069  0.94123025  1
  C  C11  1  0.92837216  0.37658931  0.44123025  1
  C  C12  1  0.26919056  0.41447526  0.75095202  1
  C  C13  1  0.26919056  0.08552474  0.25095202  1
  C  C14  1  0.72545098  0.89058684  0.76880111  1
  C  C15  1  0.72545098  0.60941316  0.26880111  1
  Ni  Ni16  1  0.01744500  0.38167688  0.76649780  1
  Ni  Ni17  1  0.01744500  0.11832312  0.26649780  1
  Ni  Ni18  1  0.22077498  0.64749177  0.84352924  1
  Ni  Ni19  1  0.22077498  0.85250823  0.34352924  1
  Ni  Ni20  1  0.28939544  0.14185659  0.89060348  1
  Ni  Ni21  1  0.28939544  0.35814341  0.39060348  1
  Ni  Ni22  1  0.48016892  0.85810380  0.74200221  1
  Ni  Ni23  1  0.48016892  0.64189620  0.24200221  1
  Ni  Ni24  1  0.51966235  0.35930601  0.75544490  1
  Ni  Ni25  1  0.51966235  0.14069399  0.25544490  1
  Ni  Ni26  1  0.72032817  0.64089664  0.61462644  1
  Ni  Ni27  1  0.72032817  0.85910336  0.11462644  1
  Ni  Ni28  1  0.79204833  0.13971105  0.63474968  1
  Ni  Ni29  1  0.79204833  0.36028895  0.13474968  1
  Ni  Ni30  1  0.97118634  0.89082961  0.75166454  1
  Ni  Ni31  1  0.97118634  0.60917039  0.25166454  1
  Cu  Cu32  1  0.99571305  0.84135480  0.61935716  1
  Cu  Cu33  1  0.99571305  0.65864520  0.11935716  1
  Cu  Cu34  1  0.02517961  0.98857319  0.81570239  1
  Cu  Cu35  1  0.02517961  0.51142681  0.31570239  1
  Cu  Cu36  1  0.11135647  0.36699868  0.68391354  1
  Cu  Cu37  1  0.11135647  0.13300132  0.18391354  1
  Cu  Cu38  1  0.20836852  0.76991420  0.87820967  1
  Cu  Cu39  1  0.20897822  0.54423694  0.93702320  1
  Cu  Cu40  1  0.20836852  0.73008580  0.37820967  1
  Cu  Cu41  1  0.20897822  0.95576306  0.43702320  1
  Cu  Cu42  1  0.25040100  0.61028758  0.70204170  1
  Cu  Cu43  1  0.25040100  0.88971242  0.20204170  1
  Cu  Cu44  1  0.27158112  0.27029301  0.90542172  1
  Cu  Cu45  1  0.27158112  0.22970699  0.40542172  1
  Cu  Cu46  1  0.29417381  0.07983911  0.76190715  1
  Cu  Cu47  1  0.29417381  0.42016089  0.26190715  1
  Cu  Cu48  1  0.30628181  0.07095256  0.01953748  1
  Cu  Cu49  1  0.30628181  0.42904744  0.51953748  1
  Cu  Cu50  1  0.40018675  0.83309846  0.63930377  1
  Cu  Cu51  1  0.40018675  0.66690154  0.13930277  1
  Cu  Cu52  1  0.43502920  0.43345538  0.80402819  1
  Cu  Cu53  1  0.43502920  0.06654462  0.30402819  1
  Cu  Cu54  1  0.52313072  0.31587111  0.61464072  1
  Cu  Cu55  1  0.52313072  0.18412889  0.11464072  1
  Cu  Cu56  1  0.47480215  0.80913204  0.88005713  1
  Cu  Cu57  1  0.47480215  0.69086796  0.38005713  1
  Cu  Cu58  1  0.56694343  0.93571616  0.70540111  1
  Cu  Cu59  1  0.56694343  0.56428384  0.20540111  1
  Cu  Cu60  1  0.60469493  0.33188368  0.85136293  1
  Cu  Cu61  1  0.60469493  0.16811632  0.35136293  1
  Cu  Cu62  1  0.70034767  0.55785163  0.49749137  1
  Cu  Cu63  1  0.70034767  0.94214837  0.99749137  1
  Cu  Cu64  1  0.72787771  0.59888935  0.75489460  1
  Cu  Cu65  1  0.72787771  0.90111065  0.25489460  1
  Cu  Cu66  1  0.73093182  0.77050365  0.58042055  1
  Cu  Cu67  1  0.73093182  0.72949635  0.08042055  1
  Cu  Cu68  1  0.77432510  0.10087614  0.78121253  1
  Cu  Cu69  1  0.77432510  0.39912386  0.28121253  1
  Cu  Cu70  1  0.80292137  0.04730158  0.53106714  1
  Cu  Cu71  1  0.79601416  0.26763193  0.60496077  1
  Cu  Cu72  1  0.80292137  0.45269842  0.03106714  1
  Cu  Cu73  1  0.79601416  0.23236807  0.10496077  1
  Cu  Cu74  1  0.88318057  0.83499184  0.82912461  1
  Cu  Cu75  1  0.88318057  0.66500816  0.32912461  1
  Cu  Cu76  1  0.95150761  0.48070789  0.72819775  1
  Cu  Cu77  1  0.95150761  0.01929211  0.22819775  1
  Cu  Cu78  1  0.99275360  0.29531199  0.86904727  1
  Cu  Cu79  1  0.99275360  0.20468801  0.36904727  1
