# generated using pymatgen
data_Cu3NiC13
_symmetry_space_group_name_H-M   'P 1'
_cell_length_a   5.91799085
_cell_length_b   5.91799085
_cell_length_c   9.74323368
_cell_angle_alpha   89.40567701
_cell_angle_beta   89.40567701
_cell_angle_gamma   119.17631820
_symmetry_Int_Tables_number   1
_chemical_formula_structural   Cu3NiC13
_chemical_formula_sum   'Cu6 Ni2 C26'
_cell_volume   297.87650834
_cell_formula_units_Z   2
loop_
 _symmetry_equiv_pos_site_id
 _symmetry_equiv_pos_as_xyz
  1  'x, y, z'
loop_
 _atom_site_type_symbol
 _atom_site_label
 _atom_site_symmetry_multiplicity
 _atom_site_fract_x
 _atom_site_fract_y
 _atom_site_fract_z
 _atom_site_occupancy
  C  C0  1  0.18630700  0.80240300  0.55683700  1
  C  C1  1  0.31643100  0.64019400  0.77535500  1
  C  C2  1  0.58566600  0.78380400  0.54993700  1
  C  C3  1  0.97751100  0.98421800  0.48470300  1
  C  C4  1  0.98421800  0.97751100  0.98470300  1
  C  C5  1  0.18568200  0.37665600  0.55114100  1
  C  C6  1  0.64019400  0.31643100  0.27535500  1
  C  C7  1  0.37665600  0.18568200  0.05114100  1
  C  C8  1  0.78380400  0.58566600  0.04993700  1
  C  C9  1  0.80240300  0.18630700  0.05683700  1
  Ni  Ni10  1  0.32243200  0.65373600  0.03278700  1
  Ni  Ni11  1  0.65373600  0.32243200  0.53278700  1
  Cu  Cu12  1  0.15162900  0.82054600  0.28660200  1
  Cu  Cu13  1  0.64521100  0.81824100  0.28565500  1
  Cu  Cu14  1  0.15182800  0.32569800  0.28741800  1
  Cu  Cu15  1  0.81824100  0.64521100  0.78565500  1
  Cu  Cu16  1  0.32569800  0.15182800  0.78741800  1
  Cu  Cu17  1  0.82054600  0.15162900  0.78660200  1
  C  C18  1  0.16236600  0.81576300  0.91260800  1
  C  C19  1  0.48174600  0.96991400  0.16012300  1
  C  C20  1  0.65378700  0.80498200  0.91035200  1
  C  C21  1  0.32003200  0.65666000  0.39852000  1
  C  C22  1  0.00817000  0.50012000  0.16007100  1
  C  C23  1  0.47403700  0.49396000  0.16022500  1
  C  C24  1  0.80498200  0.65378700  0.41035200  1
  C  C25  1  0.15661600  0.31381800  0.91357200  1
  C  C26  1  0.49396000  0.47403700  0.66022500  1
  C  C27  1  0.31381800  0.15661600  0.41357200  1
  C  C28  1  0.65666000  0.32003200  0.89852000  1
  C  C29  1  0.98940400  0.97690900  0.68090000  1
  C  C30  1  0.97690900  0.98940400  0.18090000  1
  C  C31  1  0.96991400  0.48174600  0.66012300  1
  C  C32  1  0.50012000  0.00817000  0.66007100  1
  C  C33  1  0.81576300  0.16236600  0.41260800  1
