# generated using pymatgen
data_Cu13Ni3C80
_symmetry_space_group_name_H-M   'P 1'
_cell_length_a   5.04741800
_cell_length_b   8.72896647
_cell_length_c   19.51627126
_cell_angle_alpha   98.47042243
_cell_angle_beta   94.78255181
_cell_angle_gamma   90.19676544
_symmetry_Int_Tables_number   1
_chemical_formula_structural   Cu13Ni3C80
_chemical_formula_sum   'Cu13 Ni3 C80'
_cell_volume   847.41415920
_cell_formula_units_Z   1
loop_
 _symmetry_equiv_pos_site_id
 _symmetry_equiv_pos_as_xyz
  1  'x, y, z'
loop_
 _atom_site_type_symbol
 _atom_site_label
 _atom_site_symmetry_multiplicity
 _atom_site_fract_x
 _atom_site_fract_y
 _atom_site_fract_z
 _atom_site_occupancy
  C  C0  1  0.99317500  0.16954500  0.24996300  1
  C  C1  1  0.87409000  0.37576100  0.37484500  1
  C  C2  1  0.75344600  0.24880100  0.99993700  1
  C  C3  1  0.74619000  0.92000300  0.00006300  1
  C  C4  1  0.98621400  0.16780300  0.75023500  1
  C  C5  1  0.75811800  0.58061700  0.50009100  1
  C  C6  1  0.87428200  0.37390500  0.87496200  1
  C  C7  1  0.74297900  0.25277200  0.50012100  1
  C  C8  1  0.74681200  0.91964300  0.49945200  1
  C  C9  1  0.62507200  0.12524700  0.12494800  1
  C  C10  1  0.75560200  0.57931800  0.00012400  1
  C  C11  1  0.50801400  0.33170300  0.24947700  1
  C  C12  1  0.62549800  0.12601600  0.62502100  1
  C  C13  1  0.50196500  0.99936900  0.24940100  1
  C  C14  1  0.49115500  0.66763800  0.24937400  1
  C  C15  1  0.51351000  0.33212600  0.74968300  1
  C  C16  1  0.37354100  0.87499900  0.37551100  1
  C  C17  1  0.49867900  0.00177800  0.74920700  1
  C  C18  1  0.24661600  0.75139600  0.00037300  1
  C  C19  1  0.49066800  0.66689700  0.74887100  1
  C  C20  1  0.24376100  0.41988100  0.00090300  1
  C  C21  1  0.37267600  0.87530500  0.87573800  1
  C  C22  1  0.25507400  0.07822800  0.49955600  1
  C  C23  1  0.24954700  0.74912900  0.49982400  1
  C  C24  1  0.12515600  0.62493200  0.12502100  1
  C  C25  1  0.24540900  0.42098500  0.50070700  1
  C  C26  1  0.00871800  0.83012100  0.25016900  1
  C  C27  1  0.25609100  0.07998200  0.99972900  1
  C  C28  1  0.12745700  0.62483700  0.62438200  1
  C  C29  1  0.99550300  0.50130800  0.25006800  1
  C  C30  1  0.00921300  0.83307800  0.75107100  1
  C  C31  1  0.00142100  0.49841500  0.75072500  1
  Ni  Ni32  1  0.37450400  0.53762100  0.37322500  1
  Ni  Ni33  1  0.37097800  0.21126600  0.87323000  1
  Ni  Ni34  1  0.12874500  0.28880700  0.62677500  1
  Cu  Cu35  1  0.87037900  0.71160400  0.37495700  1
  Cu  Cu36  1  0.87894200  0.04744800  0.37606400  1
  Cu  Cu37  1  0.87888300  0.70343500  0.87618400  1
  Cu  Cu38  1  0.87011300  0.03825800  0.87520000  1
  Cu  Cu39  1  0.62050100  0.78945100  0.12458900  1
  Cu  Cu40  1  0.62967000  0.46007900  0.12501100  1
  Cu  Cu41  1  0.62092900  0.79669300  0.62385800  1
  Cu  Cu42  1  0.62989200  0.46200400  0.62499900  1
  Cu  Cu43  1  0.37637800  0.20274100  0.37482700  1
  Cu  Cu44  1  0.37836800  0.54745400  0.87560400  1
  Cu  Cu45  1  0.13034900  0.96023200  0.12554300  1
  Cu  Cu46  1  0.12018100  0.28960000  0.12492400  1
  Cu  Cu47  1  0.12152200  0.95277700  0.62463700  1
  C  C48  1  0.96477400  0.11134700  0.06896100  1
  C  C49  1  0.92535500  0.78589300  0.06953100  1
  C  C50  1  0.91816400  0.42904500  0.06747100  1
  C  C51  1  0.96467400  0.10323800  0.56879000  1
  C  C52  1  0.82465000  0.96391100  0.18089300  1
  C  C53  1  0.83194200  0.32091800  0.18240900  1
  C  C54  1  0.93567100  0.78723400  0.56856600  1
  C  C55  1  0.92099600  0.42883900  0.56750500  1
  C  C56  1  0.78531700  0.63858800  0.18105800  1
  C  C57  1  0.71765900  0.85523700  0.31991500  1
  C  C58  1  0.81459800  0.95958700  0.68152400  1
  C  C59  1  0.82505600  0.32166700  0.68368600  1
  C  C60  1  0.67530400  0.53257200  0.31699500  1
  C  C61  1  0.68450100  0.17203000  0.31732400  1
  C  C62  1  0.78323500  0.64228000  0.67991100  1
  C  C63  1  0.71679900  0.85784700  0.82022900  1
  C  C64  1  0.46312300  0.61130900  0.06854900  1
  C  C65  1  0.57971700  0.71697200  0.43146500  1
  C  C66  1  0.56496600  0.07542000  0.43238600  1
  C  C67  1  0.68510900  0.54047700  0.81860900  1
  C  C68  1  0.67482300  0.17854100  0.81645300  1
  C  C69  1  0.41793600  0.92865600  0.06774500  1
  C  C70  1  0.42656600  0.28568100  0.06946600  1
  C  C71  1  0.53498600  0.39086700  0.43109600  1
  C  C72  1  0.46284900  0.61097000  0.56842000  1
  C  C73  1  0.56469200  0.71287900  0.93170200  1
  C  C74  1  0.57920300  0.07138500  0.93268900  1
  C  C75  1  0.33239500  0.82100800  0.18262600  1
  C  C76  1  0.32335600  0.46448100  0.18045500  1
  C  C77  1  0.43347100  0.92515600  0.56734300  1
  C  C78  1  0.43131300  0.28693700  0.56877700  1
  C  C79  1  0.53469400  0.39701900  0.93144700  1
  C  C80  1  0.28668900  0.13843100  0.18142000  1
  C  C81  1  0.21308300  0.35224000  0.31815300  1
  C  C82  1  0.31421900  0.82524000  0.68224200  1
  C  C83  1  0.32561700  0.46750800  0.68138200  1
  C  C84  1  0.17508800  0.67916800  0.31753100  1
  C  C85  1  0.18676600  0.03734600  0.31861800  1
  C  C86  1  0.28662200  0.14033700  0.68175500  1
  C  C87  1  0.21328600  0.35990300  0.81838600  1
  C  C88  1  0.06926200  0.57462500  0.43200800  1
  C  C89  1  0.06525700  0.21289500  0.43160200  1
  C  C90  1  0.18585700  0.67481100  0.81793000  1
  C  C91  1  0.17434700  0.03272500  0.81874300  1
  C  C92  1  0.03819200  0.89851100  0.43120000  1
  C  C93  1  0.06599000  0.57496100  0.93285500  1
  C  C94  1  0.06846200  0.21318100  0.93139700  1
  C  C95  1  0.03738000  0.88911800  0.93159900  1
