# generated using pymatgen
data_Cu2NiC33
_symmetry_space_group_name_H-M   'P 1'
_cell_length_a   8.59099428
_cell_length_b   8.59099428
_cell_length_c   8.59099501
_cell_angle_alpha   60.88869350
_cell_angle_beta   60.88869350
_cell_angle_gamma   60.88869240
_symmetry_Int_Tables_number   1
_chemical_formula_structural   Cu2NiC33
_chemical_formula_sum   'Cu2 Ni1 C33'
_cell_volume   457.32973052
_cell_formula_units_Z   1
loop_
 _symmetry_equiv_pos_site_id
 _symmetry_equiv_pos_as_xyz
  1  'x, y, z'
loop_
 _atom_site_type_symbol
 _atom_site_label
 _atom_site_symmetry_multiplicity
 _atom_site_fract_x
 _atom_site_fract_y
 _atom_site_fract_z
 _atom_site_occupancy
  C  C0  1  0.64584600  0.64584600  0.64584600  1
  C  C1  1  0.85670400  0.85670400  0.85670400  1
  C  C2  1  0.35413300  0.35413300  0.35413300  1
  Ni  Ni3  1  0.14474700  0.14474700  0.14474700  1
  Cu  Cu4  1  0.00079400  0.00079400  0.00079400  1
  Cu  Cu5  1  0.50157200  0.50157200  0.50157200  1
  C  C6  1  0.54711300  0.95211400  0.24855600  1
  C  C7  1  0.24855600  0.54711300  0.95211400  1
  C  C8  1  0.95211400  0.24855600  0.54711300  1
  C  C9  1  0.04462200  0.74624300  0.45815200  1
  C  C10  1  0.74624300  0.45815200  0.04462200  1
  C  C11  1  0.45815200  0.04462200  0.74624300  1
  C  C12  1  0.31088500  0.49687800  0.11979000  1
  C  C13  1  0.11979000  0.31088500  0.49687800  1
  C  C14  1  0.49687800  0.11979000  0.31088500  1
  C  C15  1  0.74461800  0.94041600  0.09016300  1
  C  C16  1  0.40025800  0.97827900  0.18496600  1
  C  C17  1  0.57190500  0.75835900  0.41217200  1
  C  C18  1  0.09016300  0.74461800  0.94041600  1
  C  C19  1  0.41217200  0.57190500  0.75835900  1
  C  C20  1  0.99890400  0.81341200  0.61929100  1
  C  C21  1  0.75835900  0.41217200  0.57190500  1
  C  C22  1  0.04971300  0.89825300  0.26612000  1
  C  C23  1  0.81341200  0.61929100  0.99890400  1
  C  C24  1  0.18496600  0.40025800  0.97827900  1
  C  C25  1  0.94041600  0.09016300  0.74461800  1
  C  C26  1  0.23942400  0.58512800  0.44674800  1
  C  C27  1  0.97827900  0.18496600  0.40025800  1
  C  C28  1  0.58512800  0.44674800  0.23942400  1
  C  C29  1  0.89825300  0.26612000  0.04971300  1
  C  C30  1  0.44674800  0.23942400  0.58512800  1
  C  C31  1  0.61929100  0.99890400  0.81341200  1
  C  C32  1  0.26612000  0.04971300  0.89825300  1
  C  C33  1  0.51785400  0.88842700  0.66745100  1
  C  C34  1  0.88842700  0.66745100  0.51785400  1
  C  C35  1  0.66745100  0.51785400  0.88842700  1
