# generated using pymatgen
data_Cu3NiC4
_symmetry_space_group_name_H-M   'P 1'
_cell_length_a   8.72915600
_cell_length_b   8.72915600
_cell_length_c   8.72915600
_cell_angle_alpha   90.00000000
_cell_angle_beta   90.00000000
_cell_angle_gamma   90.00000000
_symmetry_Int_Tables_number   1
_chemical_formula_structural   Cu3NiC4
_chemical_formula_sum   'Cu24 Ni8 C32'
_cell_volume   665.14566459
_cell_formula_units_Z   8
loop_
 _symmetry_equiv_pos_site_id
 _symmetry_equiv_pos_as_xyz
  1  'x, y, z'
loop_
 _atom_site_type_symbol
 _atom_site_label
 _atom_site_symmetry_multiplicity
 _atom_site_fract_x
 _atom_site_fract_y
 _atom_site_fract_z
 _atom_site_occupancy
  C  C0  1  0.50000000  0.50000000  0.00000000  1
  C  C1  1  0.50000000  0.00000000  0.50000000  1
  C  C2  1  0.00000000  0.50000000  0.50000000  1
  C  C3  1  0.00000000  0.00000000  0.00000000  1
  C  C4  1  0.50000000  0.00000000  0.00000000  1
  C  C5  1  0.50000000  0.50000000  0.50000000  1
  C  C6  1  0.00000000  0.00000000  0.50000000  1
  C  C7  1  0.00000000  0.50000000  0.00000000  1
  C  C8  1  0.35901800  0.80218100  0.20220100  1
  C  C9  1  0.64098200  0.30218100  0.29779900  1
  C  C10  1  0.14098200  0.19781900  0.70220100  1
  C  C11  1  0.85901800  0.69781900  0.79779900  1
  C  C12  1  0.20220100  0.35901800  0.80218100  1
  C  C13  1  0.29779900  0.64098200  0.30218100  1
  C  C14  1  0.70220100  0.14098200  0.19781900  1
  C  C15  1  0.79779900  0.85901800  0.69781900  1
  C  C16  1  0.80218100  0.20220100  0.35901800  1
  C  C17  1  0.30218100  0.29779900  0.64098200  1
  C  C18  1  0.19781900  0.70220100  0.14098200  1
  C  C19  1  0.69781900  0.79779900  0.85901800  1
  C  C20  1  0.64098200  0.19781900  0.79779900  1
  C  C21  1  0.35901800  0.69781900  0.70220100  1
  C  C22  1  0.85901800  0.80218100  0.29779900  1
  C  C23  1  0.14098200  0.30218100  0.20220100  1
  C  C24  1  0.79779900  0.64098200  0.19781900  1
  C  C25  1  0.70220100  0.35901800  0.69781900  1
  C  C26  1  0.29779900  0.85901800  0.80218100  1
  C  C27  1  0.20220100  0.14098200  0.30218100  1
  C  C28  1  0.19781900  0.79779900  0.64098200  1
  C  C29  1  0.69781900  0.70220100  0.35901800  1
  C  C30  1  0.80218100  0.29779900  0.85901800  1
  C  C31  1  0.30218100  0.20220100  0.14098200  1
  Ni  Ni32  1  0.30240100  0.69759900  0.19759900  1
  Ni  Ni33  1  0.69759900  0.19759900  0.30240100  1
  Ni  Ni34  1  0.19759900  0.30240100  0.69759900  1
  Ni  Ni35  1  0.80240100  0.80240100  0.80240100  1
  Ni  Ni36  1  0.69759900  0.30240100  0.80240100  1
  Ni  Ni37  1  0.30240100  0.80240100  0.69759900  1
  Ni  Ni38  1  0.80240100  0.69759900  0.30240100  1
  Ni  Ni39  1  0.19759900  0.19759900  0.19759900  1
  Cu  Cu40  1  0.44997900  0.93853500  0.19520300  1
  Cu  Cu41  1  0.55002100  0.43853500  0.30479700  1
  Cu  Cu42  1  0.05002100  0.06146500  0.69520300  1
  Cu  Cu43  1  0.94997900  0.56146500  0.80479700  1
  Cu  Cu44  1  0.19520300  0.44997900  0.93853500  1
  Cu  Cu45  1  0.30479700  0.55002100  0.43853500  1
  Cu  Cu46  1  0.69520300  0.05002100  0.06146500  1
  Cu  Cu47  1  0.80479700  0.94997900  0.56146500  1
  Cu  Cu48  1  0.93853500  0.19520300  0.44997900  1
  Cu  Cu49  1  0.43853500  0.30479700  0.55002100  1
  Cu  Cu50  1  0.06146500  0.69520300  0.05002100  1
  Cu  Cu51  1  0.56146500  0.80479700  0.94997900  1
  Cu  Cu52  1  0.55002100  0.06146500  0.80479700  1
  Cu  Cu53  1  0.44997900  0.56146500  0.69520300  1
  Cu  Cu54  1  0.94997900  0.93853500  0.30479700  1
  Cu  Cu55  1  0.05002100  0.43853500  0.19520300  1
  Cu  Cu56  1  0.80479700  0.55002100  0.06146500  1
  Cu  Cu57  1  0.69520300  0.44997900  0.56146500  1
  Cu  Cu58  1  0.30479700  0.94997900  0.93853500  1
  Cu  Cu59  1  0.19520300  0.05002100  0.43853500  1
  Cu  Cu60  1  0.06146500  0.80479700  0.55002100  1
  Cu  Cu61  1  0.56146500  0.69520300  0.44997900  1
  Cu  Cu62  1  0.93853500  0.30479700  0.94997900  1
  Cu  Cu63  1  0.43853500  0.19520300  0.05002100  1
