# generated using pymatgen
data_CuNiC10
_symmetry_space_group_name_H-M   'P 1'
_cell_length_a   9.07969012
_cell_length_b   6.64449800
_cell_length_c   5.28717933
_cell_angle_alpha   90.00000000
_cell_angle_beta   88.65551721
_cell_angle_gamma   90.00000000
_symmetry_Int_Tables_number   1
_chemical_formula_structural   CuNiC10
_chemical_formula_sum   'Cu2 Ni2 C20'
_cell_volume   318.88762287
_cell_formula_units_Z   2
loop_
 _symmetry_equiv_pos_site_id
 _symmetry_equiv_pos_as_xyz
  1  'x, y, z'
loop_
 _atom_site_type_symbol
 _atom_site_label
 _atom_site_symmetry_multiplicity
 _atom_site_fract_x
 _atom_site_fract_y
 _atom_site_fract_z
 _atom_site_occupancy
  C  C0  1  0.23372400  0.49652700  0.23828900  1
  C  C1  1  0.23372400  0.00347300  0.23828900  1
  C  C2  1  0.76627600  0.50347300  0.76171100  1
  C  C3  1  0.76627600  0.99652700  0.76171100  1
  C  C4  1  0.34993300  0.75000000  0.77927700  1
  C  C5  1  0.65006700  0.25000000  0.22072300  1
  Ni  Ni6  1  0.08131300  0.75000000  0.72693600  1
  Ni  Ni7  1  0.91868700  0.25000000  0.27306400  1
  Cu  Cu8  1  0.42766600  0.25000000  0.72252400  1
  Cu  Cu9  1  0.57233400  0.75000000  0.27747600  1
  C  C10  1  0.06477500  0.25000000  0.29967900  1
  C  C11  1  0.14688300  0.75000000  0.95907300  1
  C  C12  1  0.18615800  0.75000000  0.53198600  1
  C  C13  1  0.33656800  0.06028100  0.78988200  1
  C  C14  1  0.33656800  0.43971900  0.78988200  1
  C  C15  1  0.42512700  0.75000000  0.13190600  1
  C  C16  1  0.46579400  0.25000000  0.43067500  1
  C  C17  1  0.53420600  0.75000000  0.56932500  1
  C  C18  1  0.57487300  0.25000000  0.86809400  1
  C  C19  1  0.66343200  0.56028100  0.21011800  1
  C  C20  1  0.66343200  0.93971900  0.21011800  1
  C  C21  1  0.81384200  0.25000000  0.46801400  1
  C  C22  1  0.85311700  0.25000000  0.04092700  1
  C  C23  1  0.93522500  0.75000000  0.70032100  1
