# generated using pymatgen
data_CuNiC11
_symmetry_space_group_name_H-M   'P 1'
_cell_length_a   6.75227700
_cell_length_b   5.16161200
_cell_length_c   8.88775191
_cell_angle_alpha   88.34624978
_cell_angle_beta   90.00000000
_cell_angle_gamma   90.00000000
_symmetry_Int_Tables_number   1
_chemical_formula_structural   CuNiC11
_chemical_formula_sum   'Cu2 Ni2 C22'
_cell_volume   309.63254300
_cell_formula_units_Z   2
loop_
 _symmetry_equiv_pos_site_id
 _symmetry_equiv_pos_as_xyz
  1  'x, y, z'
loop_
 _atom_site_type_symbol
 _atom_site_label
 _atom_site_symmetry_multiplicity
 _atom_site_fract_x
 _atom_site_fract_y
 _atom_site_fract_z
 _atom_site_occupancy
  C  C0  1  0.75000000  0.23510000  0.91580400  1
  C  C1  1  0.99303000  0.74687100  0.73194700  1
  C  C2  1  0.50697000  0.74687100  0.73194700  1
  C  C3  1  0.49303000  0.25312900  0.26805300  1
  C  C4  1  0.00697000  0.25312900  0.26805300  1
  C  C5  1  0.25000000  0.76490000  0.08419600  1
  C  C6  1  0.25000000  0.21803200  0.65709600  1
  C  C7  1  0.75000000  0.78196800  0.34290400  1
  Ni  Ni8  1  0.25000000  0.26722000  0.93084300  1
  Ni  Ni9  1  0.75000000  0.73278000  0.06915700  1
  Cu  Cu10  1  0.75000000  0.28257500  0.58107900  1
  Cu  Cu11  1  0.25000000  0.71742500  0.41892100  1
  C  C12  1  0.75000000  0.70616600  0.91939500  1
  C  C13  1  0.25000000  0.03127400  0.86018500  1
  C  C14  1  0.25000000  0.47200100  0.82566900  1
  C  C15  1  0.93401400  0.21923800  0.68014900  1
  C  C16  1  0.56598600  0.21923800  0.68014900  1
  C  C17  1  0.75000000  0.58057600  0.53927100  1
  C  C18  1  0.25000000  0.86831200  0.56645000  1
  C  C19  1  0.75000000  0.13168800  0.43355000  1
  C  C20  1  0.25000000  0.41942400  0.46072900  1
  C  C21  1  0.43401400  0.78076200  0.31985100  1
  C  C22  1  0.06598600  0.78076200  0.31985100  1
  C  C23  1  0.75000000  0.52799900  0.17433100  1
  C  C24  1  0.75000000  0.96872600  0.13981500  1
  C  C25  1  0.25000000  0.29383400  0.08060500  1
