# generated using pymatgen
data_Cu19(Ni4C11)3
_symmetry_space_group_name_H-M   'P 1'
_cell_length_a   10.28039760
_cell_length_b   10.28039760
_cell_length_c   14.80798791
_cell_angle_alpha   80.85100496
_cell_angle_beta   80.85100496
_cell_angle_gamma   48.92300607
_symmetry_Int_Tables_number   1
_chemical_formula_structural   Cu19(Ni4C11)3
_chemical_formula_sum   'Cu38 Ni24 C66'
_cell_volume   1161.60521987
_cell_formula_units_Z   2
loop_
 _symmetry_equiv_pos_site_id
 _symmetry_equiv_pos_as_xyz
  1  'x, y, z'
loop_
 _atom_site_type_symbol
 _atom_site_label
 _atom_site_symmetry_multiplicity
 _atom_site_fract_x
 _atom_site_fract_y
 _atom_site_fract_z
 _atom_site_occupancy
  C  C0  1  0.12282900  0.87717100  0.25000000  1
  C  C1  1  0.87717100  0.12282900  0.75000000  1
  C  C2  1  0.28414700  0.44028800  0.16485200  1
  C  C3  1  0.55971200  0.71585300  0.33514800  1
  C  C4  1  0.71585300  0.55971200  0.83514800  1
  C  C5  1  0.44028800  0.28414700  0.66485200  1
  Ni  Ni6  1  0.64611500  0.35312800  0.10844900  1
  Ni  Ni7  1  0.64687200  0.35388500  0.39155100  1
  Ni  Ni8  1  0.35388500  0.64687200  0.89155100  1
  Ni  Ni9  1  0.35312800  0.64611500  0.60844900  1
  Ni  Ni10  1  0.76862400  0.09337700  0.02534700  1
  Ni  Ni11  1  0.90662300  0.23137600  0.47465300  1
  Ni  Ni12  1  0.23137600  0.90662300  0.97465300  1
  Ni  Ni13  1  0.09337700  0.76862400  0.52534700  1
  Ni  Ni14  1  0.68467500  0.09403500  0.19653100  1
  Ni  Ni15  1  0.90596500  0.31532500  0.30346900  1
  Ni  Ni16  1  0.31532500  0.90596500  0.80346900  1
  Ni  Ni17  1  0.09403500  0.68467500  0.69653100  1
  Ni  Ni18  1  0.93896800  0.53427300  0.25493600  1
  Ni  Ni19  1  0.46572700  0.06103200  0.24506400  1
  Ni  Ni20  1  0.06103200  0.46572700  0.74506400  1
  Ni  Ni21  1  0.53427300  0.93896800  0.75493600  1
  Ni  Ni22  1  0.15554200  0.23543200  0.19309500  1
  Ni  Ni23  1  0.76456800  0.84445800  0.30690500  1
  Ni  Ni24  1  0.84445800  0.76456800  0.80690500  1
  Ni  Ni25  1  0.23543200  0.15554200  0.69309500  1
  Ni  Ni26  1  0.25583000  0.26132000  0.02266400  1
  Ni  Ni27  1  0.73868000  0.74417000  0.47733600  1
  Ni  Ni28  1  0.74417000  0.73868000  0.97733600  1
  Ni  Ni29  1  0.26132000  0.25583000  0.52266400  1
  Cu  Cu30  1  0.26265300  0.73734700  0.75000000  1
  Cu  Cu31  1  0.73734700  0.26265300  0.25000000  1
  Cu  Cu32  1  0.83072900  0.36567400  0.13180500  1
  Cu  Cu33  1  0.63432600  0.16927100  0.36819500  1
  Cu  Cu34  1  0.16927100  0.63432600  0.86819500  1
  Cu  Cu35  1  0.36567400  0.83072900  0.63180500  1
  Cu  Cu36  1  0.16272700  0.07634800  0.06505700  1
  Cu  Cu37  1  0.92365200  0.83727300  0.43494300  1
  Cu  Cu38  1  0.83727300  0.92365200  0.93494300  1
  Cu  Cu39  1  0.07634800  0.16272700  0.56505700  1
  Cu  Cu40  1  0.40607000  0.58128000  0.06681200  1
  Cu  Cu41  1  0.41872000  0.59393000  0.43318800  1
  Cu  Cu42  1  0.59393000  0.41872000  0.93318800  1
  Cu  Cu43  1  0.58128000  0.40607000  0.56681200  1
  Cu  Cu44  1  0.72805600  0.86351400  0.07782900  1
  Cu  Cu45  1  0.13648600  0.27194400  0.42217100  1
  Cu  Cu46  1  0.27194400  0.13648600  0.92217100  1
  Cu  Cu47  1  0.86351400  0.72805600  0.57782900  1
  Cu  Cu48  1  0.29903000  0.42956400  0.98292400  1
  Cu  Cu49  1  0.57043600  0.70097000  0.51707600  1
  Cu  Cu50  1  0.70097000  0.57043600  0.01707600  1
  Cu  Cu51  1  0.42956400  0.29903000  0.48292400  1
  Cu  Cu52  1  0.97751600  0.77874300  0.12890900  1
  Cu  Cu53  1  0.22125700  0.02248400  0.37109100  1
  Cu  Cu54  1  0.02248400  0.22125700  0.87109100  1
  Cu  Cu55  1  0.77874300  0.97751600  0.62890900  1
  Cu  Cu56  1  0.13296600  0.73080300  0.05562800  1
  Cu  Cu57  1  0.26919700  0.86703400  0.44437200  1
  Cu  Cu58  1  0.86703400  0.26919700  0.94437200  1
  Cu  Cu59  1  0.73080300  0.13296600  0.55562800  1
  Cu  Cu60  1  0.56832800  0.62416100  0.17377500  1
  Cu  Cu61  1  0.37583900  0.43167200  0.32622500  1
  Cu  Cu62  1  0.43167200  0.37583900  0.82622500  1
  Cu  Cu63  1  0.62416100  0.56832800  0.67377500  1
  Cu  Cu64  1  0.50493700  0.81054500  0.16499000  1
  Cu  Cu65  1  0.18945500  0.49506300  0.33501000  1
  Cu  Cu66  1  0.49506300  0.18945500  0.83501000  1
  Cu  Cu67  1  0.81054500  0.50493700  0.66499000  1
  C  C68  1  0.71708700  0.25676600  0.02421100  1
  C  C69  1  0.74323400  0.28291300  0.47578900  1
  C  C70  1  0.28291300  0.74323400  0.97578900  1
  C  C71  1  0.25676600  0.71708700  0.52421100  1
  C  C72  1  0.69789900  0.23052600  0.18955200  1
  C  C73  1  0.76947400  0.30210100  0.31044800  1
  C  C74  1  0.30210100  0.76947400  0.81044800  1
  C  C75  1  0.23052600  0.69789900  0.68955200  1
  C  C76  1  0.75681700  0.01012500  0.10527300  1
  C  C77  1  0.98987500  0.24318300  0.39472700  1
  C  C78  1  0.24318300  0.98987500  0.89472700  1
  C  C79  1  0.01012500  0.75681700  0.60527300  1
  C  C80  1  0.02304900  0.22404700  0.22704100  1
  C  C81  1  0.77595300  0.97695100  0.27295900  1
  C  C82  1  0.97695100  0.77595300  0.77295900  1
  C  C83  1  0.22404700  0.02304900  0.72704100  1
  C  C84  1  0.49666500  0.17251100  0.20740500  1
  C  C85  1  0.82748900  0.50333500  0.29259500  1
  C  C86  1  0.50333500  0.82748900  0.79259500  1
  C  C87  1  0.17251100  0.49666500  0.70740500  1
  C  C88  1  0.31541700  0.09673500  0.23807200  1
  C  C89  1  0.90326500  0.68458300  0.26192800  1
  C  C90  1  0.68458300  0.90326500  0.76192800  1
  C  C91  1  0.09673500  0.31541700  0.73807200  1
  C  C92  1  0.09852900  0.40749000  0.21011400  1
  C  C93  1  0.59251000  0.90147100  0.28988600  1
  C  C94  1  0.90147100  0.59251000  0.78988600  1
  C  C95  1  0.40749000  0.09852900  0.71011400  1
  C  C96  1  0.18818100  0.21219400  0.09174800  1
  C  C97  1  0.78780600  0.81181900  0.40825200  1
  C  C98  1  0.81181900  0.78780600  0.90825200  1
  C  C99  1  0.21219400  0.18818100  0.59174800  1
  C  C100  1  0.71448400  0.44267100  0.10855000  1
  C  C101  1  0.55732900  0.28551600  0.39145000  1
  C  C102  1  0.28551600  0.55732900  0.89145000  1
  C  C103  1  0.44267100  0.71448400  0.60855000  1
  C  C104  1  0.16529000  0.97989300  0.05725300  1
  C  C105  1  0.02010700  0.83471000  0.44274700  1
  C  C106  1  0.83471000  0.02010700  0.94274700  1
  C  C107  1  0.97989300  0.16529000  0.55725300  1
  C  C108  1  0.45618700  0.48108500  0.11249000  1
  C  C109  1  0.51891500  0.54381300  0.38751000  1
  C  C110  1  0.54381300  0.51891500  0.88751000  1
  C  C111  1  0.48108500  0.45618700  0.61249000  1
  C  C112  1  0.70384500  0.78957800  0.06527600  1
  C  C113  1  0.21042200  0.29615500  0.43472400  1
  C  C114  1  0.29615500  0.21042200  0.93472400  1
  C  C115  1  0.78957800  0.70384500  0.56527600  1
  C  C116  1  0.28911600  0.36690800  0.03905200  1
  C  C117  1  0.63309200  0.71088400  0.46094800  1
  C  C118  1  0.71088400  0.63309200  0.96094800  1
  C  C119  1  0.36690800  0.28911600  0.53905200  1
  C  C120  1  0.10371800  0.69561600  0.11552900  1
  C  C121  1  0.30438400  0.89628200  0.38447100  1
  C  C122  1  0.89628200  0.30438400  0.88447100  1
  C  C123  1  0.69561600  0.10371800  0.61552900  1
  C  C124  1  0.49137400  0.73432600  0.20517400  1
  C  C125  1  0.26567400  0.50862600  0.29482600  1
  C  C126  1  0.50862600  0.26567400  0.79482600  1
  C  C127  1  0.73432600  0.49137400  0.70517400  1
