# generated using pymatgen
data_CuNiC5
_symmetry_space_group_name_H-M   'P 1'
_cell_length_a   10.95667175
_cell_length_b   10.95667175
_cell_length_c   11.66484400
_cell_angle_alpha   90.00000000
_cell_angle_beta   90.00000000
_cell_angle_gamma   119.99999847
_symmetry_Int_Tables_number   1
_chemical_formula_structural   CuNiC5
_chemical_formula_sum   'Cu12 Ni12 C60'
_cell_volume   1212.73768989
_cell_formula_units_Z   12
loop_
 _symmetry_equiv_pos_site_id
 _symmetry_equiv_pos_as_xyz
  1  'x, y, z'
loop_
 _atom_site_type_symbol
 _atom_site_label
 _atom_site_symmetry_multiplicity
 _atom_site_fract_x
 _atom_site_fract_y
 _atom_site_fract_z
 _atom_site_occupancy
  C  C0  1  0.00000000  0.50000000  0.00915400  1
  C  C1  1  0.00000000  0.50000000  0.65751300  1
  C  C2  1  0.00000000  0.50000000  0.33333300  1
  C  C3  1  0.00000000  0.00000000  0.16666700  1
  C  C4  1  0.00000000  0.00000000  0.50000000  1
  C  C5  1  0.00000000  0.00000000  0.83333300  1
  C  C6  1  0.50000000  0.50000000  0.34248700  1
  C  C7  1  0.50000000  0.50000000  0.66666700  1
  C  C8  1  0.50000000  0.50000000  0.99084600  1
  C  C9  1  0.50000000  0.00000000  0.32418000  1
  C  C10  1  0.50000000  0.00000000  0.00000000  1
  C  C11  1  0.50000000  0.00000000  0.67582000  1
  Ni  Ni12  1  0.00000000  0.75026100  0.33333300  1
  Ni  Ni13  1  0.24683900  0.75316100  0.66666700  1
  Ni  Ni14  1  0.00000000  0.24973900  0.33333300  1
  Ni  Ni15  1  0.24683900  0.49367800  0.00000000  1
  Ni  Ni16  1  0.24973900  0.24973900  0.66666700  1
  Ni  Ni17  1  0.50632200  0.75316100  0.33333300  1
  Ni  Ni18  1  0.24973900  0.00000000  0.00000000  1
  Ni  Ni19  1  0.49367800  0.24683900  0.33333300  1
  Ni  Ni20  1  0.75026100  0.75026100  0.66666700  1
  Ni  Ni21  1  0.75316100  0.50632200  0.00000000  1
  Ni  Ni22  1  0.75316100  0.24683900  0.66666700  1
  Ni  Ni23  1  0.75026100  0.00000000  0.00000000  1
  Cu  Cu24  1  0.00000000  0.74810200  0.83333300  1
  Cu  Cu25  1  0.00000000  0.25189800  0.83333300  1
  Cu  Cu26  1  0.25235500  0.74764500  0.16666700  1
  Cu  Cu27  1  0.25235500  0.50470900  0.50000000  1
  Cu  Cu28  1  0.49529100  0.74764500  0.83333300  1
  Cu  Cu29  1  0.25189800  0.25189800  0.16666700  1
  Cu  Cu30  1  0.25189800  0.00000000  0.50000000  1
  Cu  Cu31  1  0.74810200  0.74810200  0.16666700  1
  Cu  Cu32  1  0.50470900  0.25235500  0.83333300  1
  Cu  Cu33  1  0.74764500  0.49529100  0.50000000  1
  Cu  Cu34  1  0.74764500  0.25235500  0.16666700  1
  Cu  Cu35  1  0.74810200  0.00000000  0.50000000  1
  C  C36  1  0.10027000  0.89664200  0.43683100  1
  C  C37  1  0.10335800  0.89973000  0.89650200  1
  C  C38  1  0.07308600  0.69103000  0.74036900  1
  C  C39  1  0.11937500  0.70151300  0.25519600  1
  C  C40  1  0.29848700  0.88062500  0.07813700  1
  C  C41  1  0.30897000  0.92691400  0.59296500  1
  C  C42  1  0.19654500  0.59405000  0.57611100  1
  C  C43  1  0.07308600  0.38205600  0.92629800  1
  C  C44  1  0.19654500  0.60249500  0.09055600  1
  C  C45  1  0.11937500  0.41786200  0.41147100  1
  C  C46  1  0.10027000  0.20362800  0.22983500  1
  C  C47  1  0.40595000  0.80345500  0.75722300  1
  C  C48  1  0.39750500  0.80345500  0.24277700  1
  C  C49  1  0.10335800  0.20362800  0.77016500  1
  C  C50  1  0.29848700  0.41786200  0.58852900  1
  C  C51  1  0.40595000  0.60249500  0.90944400  1
  C  C52  1  0.30897000  0.38205600  0.07370200  1
  C  C53  1  0.39750500  0.59405000  0.42388900  1
  C  C54  1  0.20362800  0.10335800  0.56316900  1
  C  C55  1  0.20362800  0.10027000  0.10349800  1
  C  C56  1  0.61794400  0.92691400  0.40703500  1
  C  C57  1  0.58213800  0.88062500  0.92186300  1
  C  C58  1  0.58213800  0.70151300  0.74480400  1
  C  C59  1  0.38205600  0.30897000  0.25963100  1
  C  C60  1  0.61794400  0.69103000  0.25963100  1
  C  C61  1  0.41786200  0.29848700  0.74480400  1
  C  C62  1  0.41786200  0.11937500  0.92186300  1
  C  C63  1  0.38205600  0.07308600  0.40703500  1
  C  C64  1  0.79637200  0.89973000  0.10349800  1
  C  C65  1  0.79637200  0.89664200  0.56316900  1
  C  C66  1  0.60249500  0.40595000  0.42388900  1
  C  C67  1  0.69103000  0.61794400  0.07370200  1
  C  C68  1  0.59405000  0.39750500  0.90944400  1
  C  C69  1  0.70151300  0.58213800  0.58852900  1
  C  C70  1  0.89664200  0.79637200  0.77016500  1
  C  C71  1  0.60249500  0.19654500  0.24277700  1
  C  C72  1  0.59405000  0.19654500  0.75722300  1
  C  C73  1  0.89973000  0.79637200  0.22983500  1
  C  C74  1  0.88062500  0.58213800  0.41147100  1
  C  C75  1  0.80345500  0.39750500  0.09055600  1
  C  C76  1  0.92691400  0.61794400  0.92629800  1
  C  C77  1  0.80345500  0.40595000  0.57611100  1
  C  C78  1  0.69103000  0.07308600  0.59296500  1
  C  C79  1  0.70151300  0.11937500  0.07813700  1
  C  C80  1  0.88062500  0.29848700  0.25519600  1
  C  C81  1  0.92691400  0.30897000  0.74036900  1
  C  C82  1  0.89664200  0.10027000  0.89650200  1
  C  C83  1  0.89973000  0.10335800  0.43683100  1
