# generated using pymatgen
data_Cu5NiC4
_symmetry_space_group_name_H-M   'P 1'
_cell_length_a   9.39886600
_cell_length_b   4.86667500
_cell_length_c   9.83667393
_cell_angle_alpha   61.70005375
_cell_angle_beta   90.00000000
_cell_angle_gamma   90.00000000
_symmetry_Int_Tables_number   1
_chemical_formula_structural   Cu5NiC4
_chemical_formula_sum   'Cu20 Ni4 C16'
_cell_volume   396.16352502
_cell_formula_units_Z   4
loop_
 _symmetry_equiv_pos_site_id
 _symmetry_equiv_pos_as_xyz
  1  'x, y, z'
loop_
 _atom_site_type_symbol
 _atom_site_label
 _atom_site_symmetry_multiplicity
 _atom_site_fract_x
 _atom_site_fract_y
 _atom_site_fract_z
 _atom_site_occupancy
  C  C0  1  0.38858000  0.87350000  0.74891200  1
  C  C1  1  0.88858000  0.12650000  0.75108800  1
  C  C2  1  0.11142000  0.87350000  0.24891200  1
  C  C3  1  0.61142000  0.12650000  0.25108800  1
  C  C4  1  0.34205000  0.36639700  0.96908200  1
  C  C5  1  0.22653900  0.62904500  0.96691700  1
  C  C6  1  0.20370000  0.47486200  0.84906900  1
  C  C7  1  0.70369900  0.52513800  0.65093100  1
  C  C8  1  0.84205000  0.63360300  0.53091800  1
  C  C9  1  0.72653900  0.37095500  0.53308300  1
  C  C10  1  0.27346100  0.62904500  0.46691700  1
  C  C11  1  0.15795000  0.36639700  0.46908200  1
  C  C12  1  0.29630000  0.47486200  0.34906900  1
  C  C13  1  0.79630000  0.52513800  0.15093100  1
  C  C14  1  0.77346100  0.37095500  0.03308300  1
  C  C15  1  0.65795000  0.63360300  0.03091800  1
  Ni  Ni16  1  0.27878400  0.55241800  0.89909800  1
  Ni  Ni17  1  0.77878400  0.44758200  0.60090200  1
  Ni  Ni18  1  0.22121600  0.55241800  0.39909800  1
  Ni  Ni19  1  0.72121600  0.44758200  0.10090200  1
  Cu  Cu20  1  0.78930900  0.14133600  0.88507400  1
  Cu  Cu21  1  0.48001100  0.87558800  0.88960900  1
  Cu  Cu22  1  0.98239100  0.84687900  0.88000500  1
  Cu  Cu23  1  0.27584400  0.12162200  0.75683400  1
  Cu  Cu24  1  0.99305200  0.39200000  0.75208900  1
  Cu  Cu25  1  0.49305200  0.60800000  0.74791100  1
  Cu  Cu26  1  0.77584400  0.87837800  0.74316600  1
  Cu  Cu27  1  0.28930900  0.85866400  0.61492600  1
  Cu  Cu28  1  0.48239100  0.15312100  0.61999500  1
  Cu  Cu29  1  0.98001100  0.12441200  0.61039100  1
  Cu  Cu30  1  0.01998900  0.87558800  0.38960900  1
  Cu  Cu31  1  0.51760900  0.84687900  0.38000500  1
  Cu  Cu32  1  0.71069100  0.14133600  0.38507400  1
  Cu  Cu33  1  0.22415600  0.12162200  0.25683400  1
  Cu  Cu34  1  0.50694800  0.39200000  0.25208900  1
  Cu  Cu35  1  0.00694800  0.60800000  0.24791100  1
  Cu  Cu36  1  0.72415600  0.87837800  0.24316600  1
  Cu  Cu37  1  0.01760900  0.15312100  0.11999500  1
  Cu  Cu38  1  0.51998900  0.12441200  0.11039100  1
  Cu  Cu39  1  0.21069100  0.85866400  0.11492600  1
