# generated using pymatgen
data_Cu3NiC4
_symmetry_space_group_name_H-M   'P 1'
_cell_length_a   2.91477872
_cell_length_b   17.28513687
_cell_length_c   5.81865101
_cell_angle_alpha   80.31904211
_cell_angle_beta   90.06096459
_cell_angle_gamma   90.01389805
_symmetry_Int_Tables_number   1
_chemical_formula_structural   Cu3NiC4
_chemical_formula_sum   'Cu12 Ni4 C16'
_cell_volume   288.98240973
_cell_formula_units_Z   4
loop_
 _symmetry_equiv_pos_site_id
 _symmetry_equiv_pos_as_xyz
  1  'x, y, z'
loop_
 _atom_site_type_symbol
 _atom_site_label
 _atom_site_symmetry_multiplicity
 _atom_site_fract_x
 _atom_site_fract_y
 _atom_site_fract_z
 _atom_site_occupancy
  C  C0  1  0.49999600  0.87519100  0.31240200  1
  C  C1  1  0.49999800  0.37500800  0.06249600  1
  C  C2  1  0.49999800  0.87479700  0.81260300  1
  C  C3  1  0.49999800  0.37500600  0.56249700  1
  C  C4  1  0.00000200  0.99696300  0.49948700  1
  C  C5  1  0.00000400  0.49697100  0.24945000  1
  C  C6  1  0.99999800  0.99696300  0.00353700  1
  C  C7  1  0.00000100  0.49697200  0.75356800  1
  C  C8  1  0.99998900  0.75302900  0.62551800  1
  C  C9  1  0.99999500  0.25303700  0.37143400  1
  C  C10  1  0.99999200  0.75302900  0.12145800  1
  C  C11  1  0.99999100  0.25303700  0.87553900  1
  C  C12  1  0.49999500  0.12500200  0.18749700  1
  C  C13  1  0.49999700  0.62499500  0.93750100  1
  C  C14  1  0.49999600  0.62500300  0.43749700  1
  C  C15  1  0.49999500  0.12499500  0.68750100  1
  Ni  Ni16  1  0.99932700  0.62499100  0.68797500  1
  Ni  Ni17  1  0.00080700  0.12500800  0.43702700  1
  Ni  Ni18  1  0.00066500  0.62500800  0.18702100  1
  Ni  Ni19  1  0.99918100  0.12499100  0.93797000  1
  Cu  Cu20  1  0.99998700  0.87497200  0.06251200  1
  Cu  Cu21  1  0.99999800  0.37502300  0.81142000  1
  Cu  Cu22  1  0.99998800  0.87497200  0.56251300  1
  Cu  Cu23  1  0.99999800  0.37502700  0.31355500  1
  Cu  Cu24  1  0.49999800  0.99265500  0.25366300  1
  Cu  Cu25  1  0.50001100  0.49267400  0.00365100  1
  Cu  Cu26  1  0.50006900  0.99380700  0.75308200  1
  Cu  Cu27  1  0.50009000  0.49385100  0.50305500  1
  Cu  Cu28  1  0.49993100  0.75616000  0.37194700  1
  Cu  Cu29  1  0.50002900  0.25736000  0.12133600  1
  Cu  Cu30  1  0.50001800  0.75731400  0.87136000  1
  Cu  Cu31  1  0.49995300  0.25618900  0.62192900  1
