# generated using pymatgen
data_Cu5NiC3
_symmetry_space_group_name_H-M   'P 1'
_cell_length_a   5.64159616
_cell_length_b   5.64159616
_cell_length_c   7.26380136
_cell_angle_alpha   74.24865695
_cell_angle_beta   74.24865695
_cell_angle_gamma   73.91720359
_symmetry_Int_Tables_number   1
_chemical_formula_structural   Cu5NiC3
_chemical_formula_sum   'Cu10 Ni2 C6'
_cell_volume   208.92943204
_cell_formula_units_Z   2
loop_
 _symmetry_equiv_pos_site_id
 _symmetry_equiv_pos_as_xyz
  1  'x, y, z'
loop_
 _atom_site_type_symbol
 _atom_site_label
 _atom_site_symmetry_multiplicity
 _atom_site_fract_x
 _atom_site_fract_y
 _atom_site_fract_z
 _atom_site_occupancy
  C  C0  1  0.32693100  0.32693100  0.15481200  1
  C  C1  1  0.34792200  0.34792200  0.68737400  1
  C  C2  1  0.66055000  0.66055000  0.33624500  1
  C  C3  1  0.66171100  0.66171100  0.82236600  1
  C  C4  1  0.00163100  0.00163100  0.50318000  1
  C  C5  1  0.00869400  0.00869400  0.00413100  1
  Ni  Ni6  1  0.55885600  0.55885600  0.63044500  1
  Ni  Ni7  1  0.23716000  0.23716000  0.97257300  1
  Cu  Cu8  1  0.63921200  0.02956400  0.66893100  1
  Cu  Cu9  1  0.96998600  0.36016700  0.32791300  1
  Cu  Cu10  1  0.42191700  0.42191700  0.35930200  1
  Cu  Cu11  1  0.11531200  0.11531200  0.70058800  1
  Cu  Cu12  1  0.76809400  0.76809400  0.03225400  1
  Cu  Cu13  1  0.89561000  0.89561000  0.29984400  1
  Cu  Cu14  1  0.02956400  0.63921200  0.66893100  1
  Cu  Cu15  1  0.36016700  0.96998600  0.32791300  1
  Cu  Cu16  1  0.69371800  0.30296700  0.00160100  1
  Cu  Cu17  1  0.30296700  0.69371800  0.00160100  1
