# generated using pymatgen
data_CuNiC10
_symmetry_space_group_name_H-M   'P 1'
_cell_length_a   8.40077493
_cell_length_b   8.40077493
_cell_length_c   8.40077485
_cell_angle_alpha   61.61217058
_cell_angle_beta   61.61217058
_cell_angle_gamma   61.61216695
_symmetry_Int_Tables_number   1
_chemical_formula_structural   CuNiC10
_chemical_formula_sum   'Cu3 Ni3 C30'
_cell_volume   434.38026708
_cell_formula_units_Z   3
loop_
 _symmetry_equiv_pos_site_id
 _symmetry_equiv_pos_as_xyz
  1  'x, y, z'
loop_
 _atom_site_type_symbol
 _atom_site_label
 _atom_site_symmetry_multiplicity
 _atom_site_fract_x
 _atom_site_fract_y
 _atom_site_fract_z
 _atom_site_occupancy
  Ni  Ni0  1  0.64473600  0.64473600  0.64473600  1
  Ni  Ni1  1  0.85519100  0.85519100  0.85519100  1
  Ni  Ni2  1  0.35484100  0.35484100  0.35484100  1
  Cu  Cu3  1  0.99955500  0.99955500  0.99955500  1
  Cu  Cu4  1  0.14230100  0.14230100  0.14230100  1
  Cu  Cu5  1  0.49981200  0.49981200  0.49981200  1
  C  C6  1  0.95310900  0.24937500  0.54667600  1
  C  C7  1  0.54667600  0.95310900  0.24937500  1
  C  C8  1  0.24937500  0.54667600  0.95310900  1
  C  C9  1  0.74973600  0.45181100  0.04885300  1
  C  C10  1  0.45181100  0.04885300  0.74973600  1
  C  C11  1  0.04885300  0.74973600  0.45181100  1
  C  C12  1  0.51241500  0.10597400  0.31980200  1
  C  C13  1  0.31980200  0.51241500  0.10597400  1
  C  C14  1  0.10597400  0.31980200  0.51241500  1
  C  C15  1  0.93693100  0.09512800  0.75048600  1
  C  C16  1  0.99641100  0.17732300  0.39140800  1
  C  C17  1  0.74941900  0.40491600  0.56028400  1
  C  C18  1  0.75048600  0.93693100  0.09512800  1
  C  C19  1  0.56028400  0.74941900  0.40491600  1
  C  C20  1  0.82202200  0.60522100  0.01031000  1
  C  C21  1  0.40491600  0.56028400  0.74941900  1
  C  C22  1  0.90653700  0.24745000  0.06521700  1
  C  C23  1  0.60522100  0.01031000  0.82202200  1
  C  C24  1  0.39140800  0.99641100  0.17732300  1
  C  C25  1  0.09512800  0.75048600  0.93693100  1
  C  C26  1  0.59688100  0.43535300  0.25252700  1
  C  C27  1  0.17732300  0.39140800  0.99641100  1
  C  C28  1  0.43535300  0.25252700  0.59688100  1
  C  C29  1  0.24745000  0.06521700  0.90653700  1
  C  C30  1  0.25252700  0.59688100  0.43535300  1
  C  C31  1  0.01031000  0.82202200  0.60522100  1
  C  C32  1  0.06521700  0.90653700  0.24745000  1
  C  C33  1  0.89632000  0.67728000  0.48838300  1
  C  C34  1  0.67728000  0.48838300  0.89632000  1
  C  C35  1  0.48838300  0.89632000  0.67728000  1
