# generated using pymatgen
data_CuNiC8
_symmetry_space_group_name_H-M   'P 1'
_cell_length_a   16.30152800
_cell_length_b   5.08733700
_cell_length_c   5.39650859
_cell_angle_alpha   77.08283531
_cell_angle_beta   90.00000000
_cell_angle_gamma   90.00000000
_symmetry_Int_Tables_number   1
_chemical_formula_structural   CuNiC8
_chemical_formula_sum   'Cu4 Ni4 C32'
_cell_volume   436.21450976
_cell_formula_units_Z   4
loop_
 _symmetry_equiv_pos_site_id
 _symmetry_equiv_pos_as_xyz
  1  'x, y, z'
loop_
 _atom_site_type_symbol
 _atom_site_label
 _atom_site_symmetry_multiplicity
 _atom_site_fract_x
 _atom_site_fract_y
 _atom_site_fract_z
 _atom_site_occupancy
  C  C0  1  0.17648600  0.65168500  0.65606700  1
  C  C1  1  0.32351400  0.65168500  0.15606700  1
  C  C2  1  0.67648600  0.34831500  0.84393300  1
  C  C3  1  0.82351400  0.34831500  0.34393300  1
  Ni  Ni4  1  0.00000000  0.00000000  0.50000000  1
  Ni  Ni5  1  0.50000000  0.00000000  0.00000000  1
  Ni  Ni6  1  0.50000000  0.50000000  0.50000000  1
  Ni  Ni7  1  0.00000000  0.50000000  0.00000000  1
  Cu  Cu8  1  0.38978700  0.98107800  0.53124800  1
  Cu  Cu9  1  0.11021300  0.98107800  0.03124800  1
  Cu  Cu10  1  0.88978700  0.01892200  0.96875200  1
  Cu  Cu11  1  0.61021300  0.01892200  0.46875200  1
  C  C12  1  0.75577400  0.83019600  0.57400800  1
  C  C13  1  0.82765900  0.66400400  0.75213500  1
  C  C14  1  0.74422600  0.83019600  0.07400800  1
  C  C15  1  0.67234100  0.66400400  0.25213500  1
  C  C16  1  0.32765900  0.33599600  0.74786500  1
  C  C17  1  0.25577400  0.16980400  0.92599200  1
  C  C18  1  0.17234100  0.33599600  0.24786500  1
  C  C19  1  0.24422600  0.16980400  0.42599200  1
  C  C20  1  0.20482000  0.90053500  0.97577100  1
  C  C21  1  0.41430200  0.84729900  0.82851800  1
  C  C22  1  0.05410400  0.84224800  0.83193500  1
  C  C23  1  0.29518000  0.90053500  0.47577100  1
  C  C24  1  0.08569800  0.84729900  0.32851800  1
  C  C25  1  0.44589600  0.84224800  0.33193500  1
  C  C26  1  0.60278100  0.68659900  0.53533800  1
  C  C27  1  0.78767600  0.64980600  0.61792900  1
  C  C28  1  0.89721900  0.68659900  0.03533800  1
  C  C29  1  0.71232400  0.64980600  0.11792900  1
  C  C30  1  0.28767600  0.35019400  0.88207100  1
  C  C31  1  0.10278100  0.31340100  0.96466200  1
  C  C32  1  0.21232400  0.35019400  0.38207100  1
  C  C33  1  0.39721900  0.31340100  0.46466200  1
  C  C34  1  0.55410400  0.15775200  0.66806500  1
  C  C35  1  0.91430200  0.15270100  0.67148200  1
  C  C36  1  0.70482000  0.09946500  0.52422900  1
  C  C37  1  0.94589600  0.15775200  0.16806500  1
  C  C38  1  0.58569800  0.15270100  0.17148200  1
  C  C39  1  0.79518000  0.09946500  0.02422900  1
