# generated using pymatgen
data_Cu2Ni3C31
_symmetry_space_group_name_H-M   'P 1'
_cell_length_a   8.53553993
_cell_length_b   8.53553993
_cell_length_c   8.53553989
_cell_angle_alpha   60.82233025
_cell_angle_beta   60.82233025
_cell_angle_gamma   60.82233117
_symmetry_Int_Tables_number   1
_chemical_formula_structural   Cu2Ni3C31
_chemical_formula_sum   'Cu2 Ni3 C31'
_cell_volume   447.87645652
_cell_formula_units_Z   1
loop_
 _symmetry_equiv_pos_site_id
 _symmetry_equiv_pos_as_xyz
  1  'x, y, z'
loop_
 _atom_site_type_symbol
 _atom_site_label
 _atom_site_symmetry_multiplicity
 _atom_site_fract_x
 _atom_site_fract_y
 _atom_site_fract_z
 _atom_site_occupancy
  Ni  Ni0  1  0.64314300  0.64314300  0.64314300  1
  Ni  Ni1  1  0.85689100  0.85689100  0.85689100  1
  Ni  Ni2  1  0.35667100  0.35667100  0.35667100  1
  C  C3  1  0.14267400  0.14267400  0.14267400  1
  Cu  Cu4  1  0.00015700  0.00015700  0.00015700  1
  Cu  Cu5  1  0.49934500  0.49934500  0.49934500  1
  C  C6  1  0.95746000  0.24930400  0.54212100  1
  C  C7  1  0.54212100  0.95746000  0.24930400  1
  C  C8  1  0.24930400  0.54212100  0.95746000  1
  C  C9  1  0.74933500  0.45857900  0.04331600  1
  C  C10  1  0.45857900  0.04331600  0.74933500  1
  C  C11  1  0.04331600  0.74933500  0.45857900  1
  C  C12  1  0.51100300  0.11410000  0.30960200  1
  C  C13  1  0.30960200  0.51100300  0.11410000  1
  C  C14  1  0.11410000  0.30960200  0.51100300  1
  C  C15  1  0.94276000  0.08631500  0.73857300  1
  C  C16  1  0.00209900  0.18340300  0.38103000  1
  C  C17  1  0.76136500  0.40954800  0.55103100  1
  C  C18  1  0.73857300  0.94276000  0.08631500  1
  C  C19  1  0.55103100  0.76136500  0.40954800  1
  C  C20  1  0.80838600  0.61781300  0.00999800  1
  C  C21  1  0.40954800  0.55103100  0.76136500  1
  C  C22  1  0.91439600  0.26082700  0.06259700  1
  C  C23  1  0.61781300  0.00999800  0.80838600  1
  C  C24  1  0.38103000  0.00209900  0.18340300  1
  C  C25  1  0.08631500  0.73857300  0.94276000  1
  C  C26  1  0.58966300  0.44115000  0.24104800  1
  C  C27  1  0.18340300  0.38103000  0.00209900  1
  C  C28  1  0.44115000  0.24104800  0.58966300  1
  C  C29  1  0.26082700  0.06259700  0.91439600  1
  C  C30  1  0.24104800  0.58966300  0.44115000  1
  C  C31  1  0.00999800  0.80838600  0.61781300  1
  C  C32  1  0.06259700  0.91439600  0.26082700  1
  C  C33  1  0.88669100  0.69048100  0.48714900  1
  C  C34  1  0.69048100  0.48714900  0.88669100  1
  C  C35  1  0.48714900  0.88669100  0.69048100  1
