# generated using pymatgen
data_Cu12Ni3C2
_symmetry_space_group_name_H-M   'P 1'
_cell_length_a   9.34543200
_cell_length_b   9.36127800
_cell_length_c   15.95710665
_cell_angle_alpha   54.22307483
_cell_angle_beta   90.00000000
_cell_angle_gamma   90.00000000
_symmetry_Int_Tables_number   1
_chemical_formula_structural   Cu12Ni3C2
_chemical_formula_sum   'Cu48 Ni12 C8'
_cell_volume   1132.58235582
_cell_formula_units_Z   4
loop_
 _symmetry_equiv_pos_site_id
 _symmetry_equiv_pos_as_xyz
  1  'x, y, z'
loop_
 _atom_site_type_symbol
 _atom_site_label
 _atom_site_symmetry_multiplicity
 _atom_site_fract_x
 _atom_site_fract_y
 _atom_site_fract_z
 _atom_site_occupancy
  C  C0  1  0.46386600  0.36848300  0.38258400  1
  C  C1  1  0.96386600  0.63151700  0.11741600  1
  C  C2  1  0.53844100  0.86507100  0.88518200  1
  C  C3  1  0.03844100  0.13492900  0.61481800  1
  C  C4  1  0.96155900  0.86507100  0.38518200  1
  C  C5  1  0.46155900  0.13492900  0.11481800  1
  C  C6  1  0.03613400  0.36848300  0.88258400  1
  C  C7  1  0.53613400  0.63151700  0.61741600  1
  Ni  Ni8  1  0.75437200  0.45531400  0.50634800  1
  Ni  Ni9  1  0.61710800  0.74561300  0.15431900  1
  Ni  Ni10  1  0.89328200  0.05269900  0.84617400  1
  Ni  Ni11  1  0.11710800  0.25438700  0.34568100  1
  Ni  Ni12  1  0.39328200  0.94730100  0.65382600  1
  Ni  Ni13  1  0.25437200  0.54468600  0.99365200  1
  Ni  Ni14  1  0.74562800  0.45531400  0.00634800  1
  Ni  Ni15  1  0.60671800  0.05269900  0.34617400  1
  Ni  Ni16  1  0.88289200  0.74561300  0.65431900  1
  Ni  Ni17  1  0.10671800  0.94730100  0.15382600  1
  Ni  Ni18  1  0.38289200  0.25438700  0.84568100  1
  Ni  Ni19  1  0.24562800  0.54468600  0.49365200  1
  Cu  Cu20  1  0.13345000  0.41052100  0.55723200  1
  Cu  Cu21  1  0.12079500  0.79323700  0.14933000  1
  Cu  Cu22  1  0.29823700  0.52697000  0.41209200  1
  Cu  Cu23  1  0.40404300  0.12050600  0.82457500  1
  Cu  Cu24  1  0.63503000  0.48071500  0.43736200  1
  Cu  Cu25  1  0.76332300  0.67014200  0.19080800  1
  Cu  Cu26  1  0.60206400  0.82825700  0.04218300  1
  Cu  Cu27  1  0.01078500  0.08828700  0.77242400  1
  Cu  Cu28  1  0.75583300  0.02766400  0.80937200  1
  Cu  Cu29  1  0.81533100  0.27521000  0.55687500  1
  Cu  Cu30  1  0.93179300  0.89272400  0.94924000  1
  Cu  Cu31  1  0.50734900  0.60353000  0.21150300  1
  Cu  Cu32  1  0.00734900  0.39647000  0.28849700  1
  Cu  Cu33  1  0.43179300  0.10727600  0.55076000  1
  Cu  Cu34  1  0.31533100  0.72479000  0.94312500  1
  Cu  Cu35  1  0.25583300  0.97233600  0.69062800  1
  Cu  Cu36  1  0.10206400  0.17174300  0.45781700  1
  Cu  Cu37  1  0.51078500  0.91171300  0.72757600  1
  Cu  Cu38  1  0.26332300  0.32985800  0.30919200  1
  Cu  Cu39  1  0.13503000  0.51928500  0.06263800  1
  Cu  Cu40  1  0.79823700  0.47303000  0.08790800  1
  Cu  Cu41  1  0.62079500  0.20676300  0.35067000  1
  Cu  Cu42  1  0.90404300  0.87949400  0.67542500  1
  Cu  Cu43  1  0.63345000  0.58947900  0.94276800  1
  Cu  Cu44  1  0.36655000  0.41052100  0.05723200  1
  Cu  Cu45  1  0.09595700  0.12050600  0.32457500  1
  Cu  Cu46  1  0.37920500  0.79323700  0.64933000  1
  Cu  Cu47  1  0.20176300  0.52697000  0.91209200  1
  Cu  Cu48  1  0.86497000  0.48071500  0.93736200  1
  Cu  Cu49  1  0.73667700  0.67014200  0.69080800  1
  Cu  Cu50  1  0.48921500  0.08828700  0.27242400  1
  Cu  Cu51  1  0.89793600  0.82825700  0.54218300  1
  Cu  Cu52  1  0.74416700  0.02766400  0.30937200  1
  Cu  Cu53  1  0.68466900  0.27521000  0.05687500  1
  Cu  Cu54  1  0.56820700  0.89272400  0.44924000  1
  Cu  Cu55  1  0.99265100  0.60353000  0.71150300  1
  Cu  Cu56  1  0.49265100  0.39647000  0.78849700  1
  Cu  Cu57  1  0.06820700  0.10727600  0.05076000  1
  Cu  Cu58  1  0.18466900  0.72479000  0.44312500  1
  Cu  Cu59  1  0.24416700  0.97233600  0.19062800  1
  Cu  Cu60  1  0.98921500  0.91171300  0.22757600  1
  Cu  Cu61  1  0.39793600  0.17174300  0.95781700  1
  Cu  Cu62  1  0.23667700  0.32985800  0.80919200  1
  Cu  Cu63  1  0.36497000  0.51928500  0.56263800  1
  Cu  Cu64  1  0.59595700  0.87949400  0.17542500  1
  Cu  Cu65  1  0.70176300  0.47303000  0.58790800  1
  Cu  Cu66  1  0.87920500  0.20676300  0.85067000  1
  Cu  Cu67  1  0.86655000  0.58947900  0.44276800  1
