# generated using pymatgen
data_Cu12Ni13C8
_symmetry_space_group_name_H-M   'P 1'
_cell_length_a   9.38754005
_cell_length_b   9.38754005
_cell_length_c   16.21287817
_cell_angle_alpha   68.70213659
_cell_angle_beta   68.70213659
_cell_angle_gamma   60.06947280
_symmetry_Int_Tables_number   1
_chemical_formula_structural   Cu12Ni13C8
_chemical_formula_sum   'Cu24 Ni26 C16'
_cell_volume   1123.97074250
_cell_formula_units_Z   2
loop_
 _symmetry_equiv_pos_site_id
 _symmetry_equiv_pos_as_xyz
  1  'x, y, z'
loop_
 _atom_site_type_symbol
 _atom_site_label
 _atom_site_symmetry_multiplicity
 _atom_site_fract_x
 _atom_site_fract_y
 _atom_site_fract_z
 _atom_site_occupancy
  C  C0  1  0.55625100  0.20449600  0.53256900  1
  C  C1  1  0.27172300  0.69395000  0.85700400  1
  C  C2  1  0.50747900  0.19979100  0.32382600  1
  C  C3  1  0.78520700  0.98520200  0.35218300  1
  C  C4  1  0.19979100  0.50747900  0.82382600  1
  C  C5  1  0.98520200  0.78520700  0.85218300  1
  C  C6  1  0.64926300  0.91392600  0.52718600  1
  C  C7  1  0.37361500  0.12853100  0.49906100  1
  C  C8  1  0.69395000  0.27172300  0.35700400  1
  C  C9  1  0.12853100  0.37361500  0.99906100  1
  C  C10  1  0.20449600  0.55625100  0.03256900  1
  C  C11  1  0.91392600  0.64926300  0.02718600  1
  Ni  Ni12  1  0.99736000  0.90059800  0.35954900  1
  Ni  Ni13  1  0.49291700  0.58271700  0.83208700  1
  Ni  Ni14  1  0.41319900  0.41950100  0.03741900  1
  Ni  Ni15  1  0.09308300  0.44738600  0.78296500  1
  Ni  Ni16  1  0.80810900  0.79961900  0.82735400  1
  Ni  Ni17  1  0.87373800  0.26830500  0.36990400  1
  Ni  Ni18  1  0.72882400  0.63974600  0.03043100  1
  Ni  Ni19  1  0.40025500  0.34486800  0.79866400  1
  Ni  Ni20  1  0.59347900  0.11789400  0.43210000  1
  Ni  Ni21  1  0.18428900  0.31490000  0.50343400  1
  Ni  Ni22  1  0.26830500  0.87373800  0.86990400  1
  Ni  Ni23  1  0.58271700  0.49291700  0.33208700  1
  Ni  Ni24  1  0.44738600  0.09308300  0.28296500  1
  Ni  Ni25  1  0.00046400  0.29550100  0.98806500  1
  Ni  Ni26  1  0.34486800  0.40025500  0.29866400  1
  Ni  Ni27  1  0.29550100  0.00046400  0.48806500  1
  Ni  Ni28  1  0.11789400  0.59347900  0.93210000  1
  Ni  Ni29  1  0.83523300  0.81979900  0.56679200  1
  Ni  Ni30  1  0.41950100  0.41319900  0.53741900  1
  Ni  Ni31  1  0.90059800  0.99736000  0.85954900  1
  Ni  Ni32  1  0.63974600  0.72882400  0.53043100  1
  Ni  Ni33  1  0.31490000  0.18428900  0.00343400  1
  Ni  Ni34  1  0.79961900  0.80810900  0.32735400  1
  Ni  Ni35  1  0.17653500  0.72263300  0.07453100  1
  Ni  Ni36  1  0.81979900  0.83523300  0.06679200  1
  Ni  Ni37  1  0.72263300  0.17653500  0.57453100  1
  C  C38  1  0.03467000  0.43314700  0.14074000  1
  C  C39  1  0.43314700  0.03467000  0.64074000  1
  C  C40  1  0.19479400  0.75812000  0.72416300  1
  C  C41  1  0.75812000  0.19479400  0.22416300  1
  Cu  Cu42  1  0.84466000  0.14209700  0.85654000  1
  Cu  Cu43  1  0.95690700  0.75685800  0.59359200  1
  Cu  Cu44  1  0.55179500  0.32431300  0.03969400  1
  Cu  Cu45  1  0.24418500  0.92062300  0.47834800  1
  Cu  Cu46  1  0.32431300  0.55179500  0.53969400  1
  Cu  Cu47  1  0.69203100  0.81303500  0.80983400  1
  Cu  Cu48  1  0.16271000  0.82572100  0.10406100  1
  Cu  Cu49  1  0.26062800  0.99547700  0.87837400  1
  Cu  Cu50  1  0.63259900  0.60480700  0.53629400  1
  Cu  Cu51  1  0.92062300  0.24418500  0.97834800  1
  Cu  Cu52  1  0.23853400  0.53529100  0.27937100  1
  Cu  Cu53  1  0.75685800  0.95690700  0.09359200  1
  Cu  Cu54  1  0.60480700  0.63259900  0.03629400  1
  Cu  Cu55  1  0.81303500  0.69203100  0.30983400  1
  Cu  Cu56  1  0.02848700  0.40825200  0.75156200  1
  Cu  Cu57  1  0.06015700  0.43772700  0.50574800  1
  Cu  Cu58  1  0.53529100  0.23853400  0.77937100  1
  Cu  Cu59  1  0.63851400  0.51456800  0.81259300  1
  Cu  Cu60  1  0.43772700  0.06015700  0.00574800  1
  Cu  Cu61  1  0.14209700  0.84466000  0.35654000  1
  Cu  Cu62  1  0.82572100  0.16271000  0.60406100  1
  Cu  Cu63  1  0.99547700  0.26062800  0.37837400  1
  Cu  Cu64  1  0.40825200  0.02848700  0.25156200  1
  Cu  Cu65  1  0.51456800  0.63851400  0.31259300  1
