# generated using pymatgen
data_Cu5Ni11C80
_symmetry_space_group_name_H-M   'P 1'
_cell_length_a   5.00291800
_cell_length_b   5.01190532
_cell_length_c   38.41851317
_cell_angle_alpha   91.13435025
_cell_angle_beta   90.97973462
_cell_angle_gamma   119.78419983
_symmetry_Int_Tables_number   1
_chemical_formula_structural   Cu5Ni11C80
_chemical_formula_sum   'Cu5 Ni11 C80'
_cell_volume   835.49395221
_cell_formula_units_Z   1
loop_
 _symmetry_equiv_pos_site_id
 _symmetry_equiv_pos_as_xyz
  1  'x, y, z'
loop_
 _atom_site_type_symbol
 _atom_site_label
 _atom_site_symmetry_multiplicity
 _atom_site_fract_x
 _atom_site_fract_y
 _atom_site_fract_z
 _atom_site_occupancy
  C  C0  1  0.90604100  0.08335700  0.24993200  1
  C  C1  1  0.50075900  0.00042600  0.99996800  1
  C  C2  1  0.56385400  0.06077200  0.18749100  1
  C  C3  1  0.62559900  0.12498200  0.37503000  1
  C  C4  1  0.69159200  0.19008500  0.56251100  1
  C  C5  1  0.75038600  0.25263600  0.74995300  1
  C  C6  1  0.81237400  0.31253800  0.93749600  1
  C  C7  1  0.21173600  0.03634900  0.12479100  1
  C  C8  1  0.87569900  0.37491800  0.12491500  1
  C  C9  1  0.33930000  0.16648800  0.50003000  1
  C  C10  1  0.46197900  0.28776800  0.87497500  1
  C  C11  1  0.93666700  0.43827800  0.31252300  1
  C  C12  1  0.99877800  0.49756100  0.49992200  1
  C  C13  1  0.59379500  0.41769900  0.25013900  1
  C  C14  1  0.71266100  0.53662600  0.62494300  1
  C  C15  1  0.03756900  0.21605000  0.62525500  1
  C  C16  1  0.16240500  0.33925400  0.99988600  1
  C  C17  1  0.83613400  0.66063800  0.00004100  1
  C  C18  1  0.95965700  0.78369700  0.37491600  1
  C  C19  1  0.28991500  0.46591400  0.37519700  1
  C  C20  1  0.41075100  0.58735200  0.74986700  1
  C  C21  1  0.06230600  0.56245900  0.68750500  1
  C  C22  1  0.53686900  0.71460600  0.12501100  1
  C  C23  1  0.66125800  0.83550100  0.49981500  1
  C  C24  1  0.12658900  0.62757600  0.87508600  1
  C  C25  1  0.78697500  0.96024000  0.87520400  1
  C  C26  1  0.18886900  0.68513200  0.06247200  1
  C  C27  1  0.25033800  0.74926800  0.25004500  1
  C  C28  1  0.31235100  0.81260900  0.43748300  1
  C  C29  1  0.37455300  0.87176600  0.62506600  1
  C  C30  1  0.43428000  0.93415600  0.81250000  1
  C  C31  1  0.08900300  0.91078700  0.74999200  1
  Ni  Ni32  1  0.97956500  0.14519300  0.43749500  1
  Ni  Ni33  1  0.39554900  0.22939000  0.68748600  1
  Ni  Ni34  1  0.52015300  0.35472800  0.06248000  1
  Ni  Ni35  1  0.64554700  0.47951600  0.43749000  1
  Ni  Ni36  1  0.77064100  0.60410100  0.81250200  1
  Ni  Ni37  1  0.89544600  0.72948000  0.18751400  1
  Ni  Ni38  1  0.35415500  0.52113000  0.56249800  1
  Ni  Ni39  1  0.47949900  0.64516900  0.93750300  1
  Ni  Ni40  1  0.60443800  0.77056600  0.31250000  1
  Ni  Ni41  1  0.72954100  0.89531000  0.68749700  1
  Ni  Ni42  1  0.14553300  0.97952700  0.93749900  1
  Cu  Cu43  1  0.85698600  0.01708800  0.06251200  1
  Cu  Cu44  1  0.26769000  0.10765500  0.31248000  1
  Cu  Cu45  1  0.09984000  0.26544300  0.81245800  1
  Cu  Cu46  1  0.23207600  0.39152600  0.18752900  1
  Cu  Cu47  1  0.02538600  0.85980500  0.56255200  1
  C  C48  1  0.94672800  0.08680500  0.34051700  1
  C  C49  1  0.90646000  0.04776600  0.15917500  1
  C  C50  1  0.57048100  0.06937900  0.28399100  1
  C  C51  1  0.69525600  0.19472900  0.65891800  1
  C  C52  1  0.55499700  0.05616300  0.09096000  1
  C  C53  1  0.67857000  0.17891200  0.46599100  1
  C  C54  1  0.80963900  0.30753700  0.84091900  1
  C  C55  1  0.81951800  0.32039800  0.03394900  1
  C  C56  1  0.94608000  0.44543700  0.40905200  1
  C  C57  1  0.21170400  0.07264000  0.21550400  1
  C  C58  1  0.93067800  0.43118300  0.21599900  1
  C  C59  1  0.33672000  0.19545200  0.59047000  1
  C  C60  1  0.46351800  0.32075700  0.96544600  1
  C  C61  1  0.17710000  0.03852400  0.03450400  1
  C  C62  1  0.30428000  0.16145900  0.40949900  1
  C  C63  1  0.42839100  0.28942100  0.78450500  1
  C  C64  1  0.07061200  0.21239700  0.71548900  1
  C  C65  1  0.03730300  0.18444000  0.53427000  1
  C  C66  1  0.16112300  0.30372400  0.90952500  1
  C  C67  1  0.59332800  0.45151700  0.34077500  1
  C  C68  1  0.71269800  0.57093800  0.71536700  1
  C  C69  1  0.55264200  0.41372700  0.15955700  1
  C  C70  1  0.67663700  0.53508500  0.53439100  1
  C  C71  1  0.80433100  0.66086600  0.90960500  1
  C  C72  1  0.20194300  0.34406700  0.09083800  1
  C  C73  1  0.32080600  0.46401700  0.46546800  1
  C  C74  1  0.44884600  0.59070400  0.84063800  1
  C  C75  1  0.28851500  0.42782100  0.28455900  1
  C  C76  1  0.41186400  0.55364700  0.65951100  1
  C  C77  1  0.83686700  0.69761500  0.09037000  1
  C  C78  1  0.96394500  0.82104600  0.46551200  1
  C  C79  1  0.92431100  0.78209400  0.28431500  1
  C  C80  1  0.57671700  0.71890000  0.21579200  1
  C  C81  1  0.69601500  0.83575800  0.59049200  1
  C  C82  1  0.82080400  0.96358300  0.96555800  1
  C  C83  1  0.53084300  0.67300500  0.03420200  1
  C  C84  1  0.66151600  0.80393500  0.40958600  1
  C  C85  1  0.06985900  0.57536100  0.78358000  1
  C  C86  1  0.78744300  0.92927000  0.78454800  1
  C  C87  1  0.05477500  0.54935400  0.59141300  1
  C  C88  1  0.17895100  0.67939700  0.96600800  1
  C  C89  1  0.19446400  0.69533300  0.15894800  1
  C  C90  1  0.31570600  0.81817100  0.53410300  1
  C  C91  1  0.44646400  0.94588700  0.90906300  1
  C  C92  1  0.30527800  0.80486700  0.34106100  1
  C  C93  1  0.43000800  0.93029300  0.71597500  1
  C  C94  1  0.08774500  0.94143200  0.84072200  1
  C  C95  1  0.05443100  0.91207200  0.65941600  1
