# generated using pymatgen
data_CuNi3C32
_symmetry_space_group_name_H-M   'P 1'
_cell_length_a   8.69164530
_cell_length_b   8.69164636
_cell_length_c   8.69164557
_cell_angle_alpha   60.58613488
_cell_angle_beta   60.58613399
_cell_angle_gamma   60.58613540
_symmetry_Int_Tables_number   1
_chemical_formula_structural   CuNi3C32
_chemical_formula_sum   'Cu1 Ni3 C32'
_cell_volume   470.43865179
_cell_formula_units_Z   1
loop_
 _symmetry_equiv_pos_site_id
 _symmetry_equiv_pos_as_xyz
  1  'x, y, z'
loop_
 _atom_site_type_symbol
 _atom_site_label
 _atom_site_symmetry_multiplicity
 _atom_site_fract_x
 _atom_site_fract_y
 _atom_site_fract_z
 _atom_site_occupancy
  Ni  Ni0  1  0.14541000  0.14541000  0.14541000  1
  Ni  Ni1  1  0.35521100  0.35521100  0.35521100  1
  Ni  Ni2  1  0.64515300  0.64515300  0.64515300  1
  C  C3  1  0.00096000  0.00096000  0.00096000  1
  C  C4  1  0.49927000  0.49927000  0.49927000  1
  Cu  Cu5  1  0.85672300  0.85672300  0.85672300  1
  C  C6  1  0.04510800  0.74906300  0.45207500  1
  C  C7  1  0.45207500  0.04510800  0.74906300  1
  C  C8  1  0.25566800  0.53839200  0.95700000  1
  C  C9  1  0.53839200  0.95700000  0.25566800  1
  C  C10  1  0.95700000  0.25566800  0.53839200  1
  C  C11  1  0.74906300  0.45207500  0.04510800  1
  C  C12  1  0.11551900  0.31403000  0.50040100  1
  C  C13  1  0.31403000  0.50040100  0.11551900  1
  C  C14  1  0.06023500  0.91185600  0.26228900  1
  C  C15  1  0.50040100  0.11551900  0.31403000  1
  C  C16  1  0.00733100  0.81176600  0.61023800  1
  C  C17  1  0.23623300  0.58820300  0.43918400  1
  C  C18  1  0.26228900  0.06023500  0.91185600  1
  C  C19  1  0.43918400  0.23623300  0.58820300  1
  C  C20  1  0.19018800  0.38330300  0.99672300  1
  C  C21  1  0.58820300  0.43918400  0.23623300  1
  C  C22  1  0.09327500  0.73215700  0.94144300  1
  C  C23  1  0.38330300  0.99672300  0.19018800  1
  C  C24  1  0.61023800  0.00733100  0.81176600  1
  C  C25  1  0.91185600  0.26228900  0.06023500  1
  C  C26  1  0.41420900  0.55700200  0.76404400  1
  C  C27  1  0.81176600  0.61023800  0.00733100  1
  C  C28  1  0.55700200  0.76404400  0.41420900  1
  C  C29  1  0.73215700  0.94144300  0.09327500  1
  C  C30  1  0.76404400  0.41420900  0.55700200  1
  C  C31  1  0.99672300  0.19018800  0.38330300  1
  C  C32  1  0.49618100  0.88506700  0.68908500  1
  C  C33  1  0.94144300  0.09327500  0.73215700  1
  C  C34  1  0.68908500  0.49618100  0.88506700  1
  C  C35  1  0.88506700  0.68908500  0.49618100  1
