# generated using pymatgen
data_Cu16NiC12
_symmetry_space_group_name_H-M   'P 1'
_cell_length_a   9.46056264
_cell_length_b   9.46056264
_cell_length_c   9.46056264
_cell_angle_alpha   60.00000000
_cell_angle_beta   60.00000000
_cell_angle_gamma   60.00000000
_symmetry_Int_Tables_number   1
_chemical_formula_structural   Cu16NiC12
_chemical_formula_sum   'Cu32 Ni2 C24'
_cell_volume   598.73672794
_cell_formula_units_Z   2
loop_
 _symmetry_equiv_pos_site_id
 _symmetry_equiv_pos_as_xyz
  1  'x, y, z'
loop_
 _atom_site_type_symbol
 _atom_site_label
 _atom_site_symmetry_multiplicity
 _atom_site_fract_x
 _atom_site_fract_y
 _atom_site_fract_z
 _atom_site_occupancy
  C  C0  1  0.97048400  0.97048400  0.52951600  1
  C  C1  1  0.72048400  0.27951600  0.27951600  1
  C  C2  1  0.97048400  0.52951600  0.97048400  1
  C  C3  1  0.52951600  0.97048400  0.52951600  1
  C  C4  1  0.72048400  0.72048400  0.27951600  1
  C  C5  1  0.27951600  0.72048400  0.72048400  1
  C  C6  1  0.52951600  0.52951600  0.97048400  1
  C  C7  1  0.97048400  0.52951600  0.52951600  1
  C  C8  1  0.27951600  0.72048400  0.27951600  1
  C  C9  1  0.72048400  0.27951600  0.72048400  1
  C  C10  1  0.52951600  0.97048400  0.97048400  1
  C  C11  1  0.27951600  0.27951600  0.72048400  1
  C  C12  1  0.12500000  0.62500000  0.12500000  1
  C  C13  1  0.12500000  0.12500000  0.62500000  1
  C  C14  1  0.12500000  0.12500000  0.12500000  1
  C  C15  1  0.62500000  0.12500000  0.12500000  1
  C  C16  1  0.34253600  0.97239100  0.34253600  1
  C  C17  1  0.97239100  0.34253600  0.34253600  1
  C  C18  1  0.34253600  0.34253600  0.97239100  1
  C  C19  1  0.34253600  0.34253600  0.34253600  1
  C  C20  1  0.90746400  0.90746400  0.90746400  1
  C  C21  1  0.27760900  0.90746400  0.90746400  1
  C  C22  1  0.90746400  0.90746400  0.27760900  1
  C  C23  1  0.90746400  0.27760900  0.90746400  1
  Ni  Ni24  1  0.75000000  0.75000000  0.75000000  1
  Ni  Ni25  1  0.50000000  0.50000000  0.50000000  1
  Cu  Cu26  1  0.92660600  0.04199100  0.27905000  1
  Cu  Cu27  1  0.75235300  0.27905000  0.04199100  1
  Cu  Cu28  1  0.20800900  0.97095000  0.32339400  1
  Cu  Cu29  1  0.32339400  0.97095000  0.49764700  1
  Cu  Cu30  1  0.68538000  0.68538000  0.68538000  1
  Cu  Cu31  1  0.97095000  0.32339400  0.20800900  1
  Cu  Cu32  1  0.97095000  0.20800900  0.49764700  1
  Cu  Cu33  1  0.94386100  0.68538000  0.68538000  1
  Cu  Cu34  1  0.68538000  0.68538000  0.94386100  1
  Cu  Cu35  1  0.49764700  0.32339400  0.97095000  1
  Cu  Cu36  1  0.20800900  0.49764700  0.97095000  1
  Cu  Cu37  1  0.68538000  0.94386100  0.68538000  1
  Cu  Cu38  1  0.49764700  0.20800900  0.32339400  1
  Cu  Cu39  1  0.97095000  0.49764700  0.32339400  1
  Cu  Cu40  1  0.20800900  0.32339400  0.49764700  1
  Cu  Cu41  1  0.92660600  0.75235300  0.04199100  1
  Cu  Cu42  1  0.32339400  0.49764700  0.20800900  1
  Cu  Cu43  1  0.04199100  0.92660600  0.75235300  1
  Cu  Cu44  1  0.27905000  0.75235300  0.92660600  1
  Cu  Cu45  1  0.75235300  0.04199100  0.92660600  1
  Cu  Cu46  1  0.56462000  0.30613900  0.56462000  1
  Cu  Cu47  1  0.04199100  0.75235300  0.27905000  1
  Cu  Cu48  1  0.75235300  0.92660600  0.27905000  1
  Cu  Cu49  1  0.30613900  0.56462000  0.56462000  1
  Cu  Cu50  1  0.56462000  0.56462000  0.30613900  1
  Cu  Cu51  1  0.27905000  0.04199100  0.75235300  1
  Cu  Cu52  1  0.27905000  0.92660600  0.04199100  1
  Cu  Cu53  1  0.56462000  0.56462000  0.56462000  1
  Cu  Cu54  1  0.92660600  0.27905000  0.75235300  1
  Cu  Cu55  1  0.04199100  0.27905000  0.92660600  1
  Cu  Cu56  1  0.49764700  0.97095000  0.20800900  1
  Cu  Cu57  1  0.32339400  0.20800900  0.97095000  1
