# generated using pymatgen
data_Cu2Ni7C10
_symmetry_space_group_name_H-M   'P 1'
_cell_length_a   6.93211300
_cell_length_b   9.66534600
_cell_length_c   13.72943400
_cell_angle_alpha   90.00000000
_cell_angle_beta   90.00000000
_cell_angle_gamma   90.00000000
_symmetry_Int_Tables_number   1
_chemical_formula_structural   Cu2Ni7C10
_chemical_formula_sum   'Cu8 Ni28 C40'
_cell_volume   919.88952339
_cell_formula_units_Z   4
loop_
 _symmetry_equiv_pos_site_id
 _symmetry_equiv_pos_as_xyz
  1  'x, y, z'
loop_
 _atom_site_type_symbol
 _atom_site_label
 _atom_site_symmetry_multiplicity
 _atom_site_fract_x
 _atom_site_fract_y
 _atom_site_fract_z
 _atom_site_occupancy
  C  C0  1  0.94224500  0.25000000  0.54342800  1
  C  C1  1  0.55775500  0.25000000  0.04342800  1
  C  C2  1  0.05775500  0.75000000  0.45657200  1
  C  C3  1  0.44224500  0.75000000  0.95657200  1
  C  C4  1  0.07804600  0.33734600  0.46352700  1
  C  C5  1  0.42195400  0.16265400  0.96352700  1
  C  C6  1  0.92195400  0.83734600  0.53647300  1
  C  C7  1  0.57804600  0.66265400  0.03647300  1
  C  C8  1  0.92195400  0.66265400  0.53647300  1
  C  C9  1  0.57804600  0.83734600  0.03647300  1
  C  C10  1  0.07804600  0.16265400  0.46352700  1
  C  C11  1  0.42195400  0.33734600  0.96352700  1
  C  C12  1  0.16672900  0.25000000  0.79035200  1
  C  C13  1  0.33327100  0.25000000  0.29035200  1
  C  C14  1  0.83327100  0.75000000  0.20964800  1
  C  C15  1  0.66672900  0.75000000  0.70964800  1
  C  C16  1  0.01688700  0.33776100  0.71790500  1
  C  C17  1  0.48311300  0.16223900  0.21790500  1
  C  C18  1  0.98311300  0.83776100  0.28209500  1
  C  C19  1  0.51688700  0.66223900  0.78209500  1
  C  C20  1  0.98311300  0.66223900  0.28209500  1
  C  C21  1  0.51688700  0.83776100  0.78209500  1
  C  C22  1  0.01688700  0.16223900  0.71790500  1
  C  C23  1  0.48311300  0.33776100  0.21790500  1
  C  C24  1  0.48803400  0.25000000  0.78424200  1
  C  C25  1  0.01196600  0.25000000  0.28424200  1
  C  C26  1  0.51196600  0.75000000  0.21575800  1
  C  C27  1  0.98803400  0.75000000  0.71575800  1
  C  C28  1  0.62560000  0.33730300  0.70523300  1
  C  C29  1  0.87440000  0.16269700  0.20523300  1
  C  C30  1  0.37440000  0.83730300  0.29476700  1
  C  C31  1  0.12560000  0.66269700  0.79476700  1
  C  C32  1  0.37440000  0.66269700  0.29476700  1
  C  C33  1  0.12560000  0.83730300  0.79476700  1
  C  C34  1  0.62560000  0.16269700  0.70523300  1
  C  C35  1  0.87440000  0.33730300  0.20523300  1
  C  C36  1  0.30838600  0.25000000  0.60961200  1
  C  C37  1  0.19161400  0.25000000  0.10961200  1
  C  C38  1  0.69161400  0.75000000  0.39038800  1
  C  C39  1  0.80838600  0.75000000  0.89038800  1
  Ni  Ni40  1  0.50573200  0.25000000  0.49907300  1
  Ni  Ni41  1  0.99426800  0.25000000  0.99907300  1
  Ni  Ni42  1  0.49426800  0.75000000  0.50092700  1
  Ni  Ni43  1  0.00573200  0.75000000  0.00092700  1
  Ni  Ni44  1  0.61493200  0.25000000  0.43925500  1
  Ni  Ni45  1  0.88506800  0.25000000  0.93925500  1
  Ni  Ni46  1  0.38506800  0.75000000  0.56074500  1
  Ni  Ni47  1  0.11493200  0.75000000  0.06074500  1
  Ni  Ni48  1  0.07121900  0.25000000  0.50738200  1
  Ni  Ni49  1  0.42878100  0.25000000  0.00738200  1
  Ni  Ni50  1  0.92878100  0.75000000  0.49261800  1
  Ni  Ni51  1  0.57121900  0.75000000  0.99261800  1
  Ni  Ni52  1  0.10232200  0.25000000  0.72329400  1
  Ni  Ni53  1  0.39767800  0.25000000  0.22329400  1
  Ni  Ni54  1  0.89767800  0.75000000  0.27670600  1
  Ni  Ni55  1  0.60232200  0.75000000  0.77670600  1
  Ni  Ni56  1  0.54029700  0.25000000  0.71479200  1
  Ni  Ni57  1  0.95970300  0.25000000  0.21479200  1
  Ni  Ni58  1  0.45970300  0.75000000  0.28520800  1
  Ni  Ni59  1  0.04029700  0.75000000  0.78520800  1
  Ni  Ni60  1  0.31090200  0.06358700  0.60866600  1
  Ni  Ni61  1  0.18909800  0.43641300  0.10866600  1
  Ni  Ni62  1  0.68909800  0.56358700  0.39133400  1
  Ni  Ni63  1  0.81090200  0.93641300  0.89133400  1
  Ni  Ni64  1  0.68909800  0.93641300  0.39133400  1
  Ni  Ni65  1  0.81090200  0.56358700  0.89133400  1
  Ni  Ni66  1  0.31090200  0.43641300  0.60866600  1
  Ni  Ni67  1  0.18909800  0.06358700  0.10866600  1
  Cu  Cu68  1  0.81875900  0.00068400  0.64141400  1
  Cu  Cu69  1  0.68124100  0.49931600  0.14141400  1
  Cu  Cu70  1  0.18124100  0.50068400  0.35858600  1
  Cu  Cu71  1  0.31875900  0.99931600  0.85858600  1
  Cu  Cu72  1  0.18124100  0.99931600  0.35858600  1
  Cu  Cu73  1  0.31875900  0.50068400  0.85858600  1
  Cu  Cu74  1  0.81875900  0.49931600  0.64141400  1
  Cu  Cu75  1  0.68124100  0.00068400  0.14141400  1
