# generated using pymatgen
data_CuNiC10
_symmetry_space_group_name_H-M   'P 1'
_cell_length_a   5.25662307
_cell_length_b   11.21346797
_cell_length_c   11.21326946
_cell_angle_alpha   106.84369761
_cell_angle_beta   91.64133023
_cell_angle_gamma   88.35754960
_symmetry_Int_Tables_number   1
_chemical_formula_structural   CuNiC10
_chemical_formula_sum   'Cu4 Ni4 C40'
_cell_volume   632.20684224
_cell_formula_units_Z   4
loop_
 _symmetry_equiv_pos_site_id
 _symmetry_equiv_pos_as_xyz
  1  'x, y, z'
loop_
 _atom_site_type_symbol
 _atom_site_label
 _atom_site_symmetry_multiplicity
 _atom_site_fract_x
 _atom_site_fract_y
 _atom_site_fract_z
 _atom_site_occupancy
  C  C0  1  0.23073500  0.60580100  0.39180400  1
  C  C1  1  0.23076600  0.10578100  0.89178300  1
  C  C2  1  0.23071900  0.35822600  0.14421700  1
  C  C3  1  0.23078700  0.85818100  0.64418100  1
  C  C4  1  0.76928300  0.64176700  0.85576400  1
  C  C5  1  0.76919400  0.14180700  0.35579400  1
  C  C6  1  0.76927900  0.39419300  0.60818100  1
  C  C7  1  0.76919500  0.89420900  0.10820800  1
  C  C8  1  0.77765400  0.05227400  0.69790000  1
  C  C9  1  0.22240700  0.94782400  0.30222700  1
  C  C10  1  0.77733300  0.55225600  0.19773100  1
  C  C11  1  0.22274900  0.44777500  0.80230500  1
  Ni  Ni12  1  0.72233400  0.41727100  0.33274100  1
  Ni  Ni13  1  0.72237900  0.91718400  0.83276100  1
  Ni  Ni14  1  0.27766500  0.58272600  0.66724300  1
  Ni  Ni15  1  0.27758400  0.08281300  0.16720900  1
  Cu  Cu16  1  0.72389100  0.33676300  0.91323500  1
  Cu  Cu17  1  0.72379500  0.83680000  0.41323400  1
  Cu  Cu18  1  0.27611000  0.66325700  0.08677300  1
  Cu  Cu19  1  0.27622300  0.16320100  0.58677900  1
  C  C20  1  0.31003600  0.15191200  0.09807300  1
  C  C21  1  0.31003900  0.65184200  0.59813800  1
  C  C22  1  0.68995400  0.84806700  0.90193200  1
  C  C23  1  0.68993300  0.34813600  0.40185600  1
  C  C24  1  0.94718200  0.44673800  0.30326600  1
  C  C25  1  0.94726200  0.94663300  0.80337300  1
  C  C26  1  0.05282600  0.55324200  0.69674200  1
  C  C27  1  0.05271500  0.05336700  0.19662600  1
  C  C28  1  0.53129300  0.46701400  0.28293500  1
  C  C29  1  0.53136100  0.96697700  0.78300100  1
  C  C30  1  0.46872600  0.53298300  0.71705200  1
  C  C31  1  0.46864700  0.03302800  0.21699800  1
  C  C32  1  0.15746200  0.58896200  0.16108700  1
  C  C33  1  0.15759700  0.08895400  0.66110100  1
  C  C34  1  0.84256700  0.41102600  0.83890000  1
  C  C35  1  0.84238200  0.91104300  0.33888300  1
  C  C36  1  0.43846100  0.34793600  0.90212300  1
  C  C37  1  0.43829400  0.84804600  0.40208000  1
  C  C38  1  0.56155500  0.65205200  0.09787500  1
  C  C39  1  0.56166300  0.15194000  0.59789900  1
  C  C40  1  0.80520200  0.20376600  0.86621800  1
  C  C41  1  0.80505000  0.70378600  0.36613600  1
  C  C42  1  0.80537900  0.38379200  0.04621400  1
  C  C43  1  0.80538700  0.88380700  0.54620900  1
  C  C44  1  0.19464000  0.61618700  0.95377600  1
  C  C45  1  0.19458700  0.11620200  0.45379400  1
  C  C46  1  0.19478300  0.79624800  0.13379100  1
  C  C47  1  0.19493300  0.29620500  0.63385200  1
