# generated using pymatgen
data_Cu40Ni3C43
_symmetry_space_group_name_H-M   'P 1'
_cell_length_a   12.86373653
_cell_length_b   12.86373653
_cell_length_c   12.86373657
_cell_angle_alpha   80.94879752
_cell_angle_beta   80.94879752
_cell_angle_gamma   80.94879690
_symmetry_Int_Tables_number   1
_chemical_formula_structural   Cu40Ni3C43
_chemical_formula_sum   'Cu80 Ni6 C86'
_cell_volume   2056.68633970
_cell_formula_units_Z   2
loop_
 _symmetry_equiv_pos_site_id
 _symmetry_equiv_pos_as_xyz
  1  'x, y, z'
loop_
 _atom_site_type_symbol
 _atom_site_label
 _atom_site_symmetry_multiplicity
 _atom_site_fract_x
 _atom_site_fract_y
 _atom_site_fract_z
 _atom_site_occupancy
  C  C0  1  0.76511600  0.76511600  0.76511600  1
  C  C1  1  0.23488400  0.23488400  0.23488400  1
  C  C2  1  0.74619900  0.95078700  0.95078700  1
  C  C3  1  0.95078700  0.95078700  0.74619900  1
  C  C4  1  0.95078700  0.74619900  0.95078700  1
  C  C5  1  0.25380100  0.04921300  0.04921300  1
  C  C6  1  0.04921300  0.04921300  0.25380100  1
  C  C7  1  0.04921300  0.25380100  0.04921300  1
  C  C8  1  0.55019100  0.98057500  0.75569300  1
  C  C9  1  0.98057500  0.75569300  0.55019100  1
  C  C10  1  0.75569300  0.55019100  0.98057500  1
  C  C11  1  0.98057500  0.55019100  0.75569300  1
  C  C12  1  0.55019100  0.75569300  0.98057500  1
  C  C13  1  0.75569300  0.98057500  0.55019100  1
  C  C14  1  0.44980900  0.01942500  0.24430700  1
  C  C15  1  0.01942500  0.24430700  0.44980900  1
  C  C16  1  0.24430700  0.44980900  0.01942500  1
  C  C17  1  0.01942500  0.44980900  0.24430700  1
  C  C18  1  0.44980900  0.24430700  0.01942500  1
  C  C19  1  0.24430700  0.01942500  0.44980900  1
  C  C20  1  0.57923100  0.80396000  0.57923100  1
  C  C21  1  0.80396000  0.57923100  0.57923100  1
  C  C22  1  0.57923100  0.57923100  0.80396000  1
  C  C23  1  0.42076900  0.19604000  0.42076900  1
  C  C24  1  0.19604000  0.42076900  0.42076900  1
  C  C25  1  0.42076900  0.42076900  0.19604000  1
  C  C26  1  0.69106000  0.17043800  0.79039100  1
  C  C27  1  0.17043800  0.79039100  0.69106000  1
  C  C28  1  0.79039100  0.69106000  0.17043800  1
  C  C29  1  0.17043800  0.69106000  0.79039100  1
  C  C30  1  0.69106000  0.79039100  0.17043800  1
  C  C31  1  0.79039100  0.17043800  0.69106000  1
  C  C32  1  0.30894000  0.82956200  0.20960900  1
  C  C33  1  0.82956200  0.20960900  0.30894000  1
  C  C34  1  0.20960900  0.30894000  0.82956200  1
  C  C35  1  0.82956200  0.30894000  0.20960900  1
  C  C36  1  0.30894000  0.20960900  0.82956200  1
  C  C37  1  0.20960900  0.82956200  0.30894000  1
  C  C38  1  0.62694800  0.24391500  0.62694800  1
  C  C39  1  0.24391500  0.62694800  0.62694800  1
  C  C40  1  0.62694800  0.62694800  0.24391500  1
  C  C41  1  0.37305200  0.75608500  0.37305200  1
  C  C42  1  0.75608500  0.37305200  0.37305200  1
  C  C43  1  0.37305200  0.37305200  0.75608500  1
  C  C44  1  0.71619200  0.34209600  0.60841200  1
  C  C45  1  0.34209600  0.60841200  0.71619200  1
  C  C46  1  0.60841200  0.71619200  0.34209600  1
  C  C47  1  0.34209600  0.71619200  0.60841200  1
  C  C48  1  0.71619200  0.60841200  0.34209600  1
  C  C49  1  0.60841200  0.34209600  0.71619200  1
  C  C50  1  0.28380800  0.65790400  0.39158800  1
  C  C51  1  0.65790400  0.39158800  0.28380800  1
  C  C52  1  0.39158800  0.28380800  0.65790400  1
  C  C53  1  0.65790400  0.28380800  0.39158800  1
  C  C54  1  0.28380800  0.39158800  0.65790400  1
  C  C55  1  0.39158800  0.65790400  0.28380800  1
  C  C56  1  0.84612300  0.21272400  0.84612300  1
  C  C57  1  0.21272400  0.84612300  0.84612300  1
  C  C58  1  0.84612300  0.84612300  0.21272400  1
  C  C59  1  0.15387700  0.78727600  0.15387700  1
  C  C60  1  0.78727600  0.15387700  0.15387700  1
  C  C61  1  0.15387700  0.15387700  0.78727600  1
  C  C62  1  0.74123100  0.32303100  0.84904700  1
  C  C63  1  0.32303100  0.84904700  0.74123100  1
  C  C64  1  0.84904700  0.74123100  0.32303100  1
  C  C65  1  0.32303100  0.74123100  0.84904700  1
  C  C66  1  0.74123100  0.84904700  0.32303100  1
  C  C67  1  0.84904700  0.32303100  0.74123100  1
  C  C68  1  0.25876900  0.67696900  0.15095300  1
  C  C69  1  0.67696900  0.15095300  0.25876900  1
  C  C70  1  0.15095300  0.25876900  0.67696900  1
  C  C71  1  0.67696900  0.25876900  0.15095300  1
  C  C72  1  0.25876900  0.15095300  0.67696900  1
  C  C73  1  0.15095300  0.67696900  0.25876900  1
  C  C74  1  0.66687500  0.29252000  0.66687500  1
  C  C75  1  0.29252000  0.66687500  0.66687500  1
  C  C76  1  0.66687500  0.66687500  0.29252000  1
  C  C77  1  0.33312500  0.70748000  0.33312500  1
  C  C78  1  0.70748000  0.33312500  0.33312500  1
  C  C79  1  0.33312500  0.33312500  0.70748000  1
  C  C80  1  0.79790000  0.27374900  0.79790000  1
  C  C81  1  0.27374900  0.79790000  0.79790000  1
  C  C82  1  0.79790000  0.79790000  0.27374900  1
  C  C83  1  0.20210000  0.72625100  0.20210000  1
  C  C84  1  0.72625100  0.20210000  0.20210000  1
  C  C85  1  0.20210000  0.20210000  0.72625100  1
  Ni  Ni86  1  0.73715200  0.21937000  0.73715200  1
  Ni  Ni87  1  0.21937000  0.73715200  0.73715200  1
  Ni  Ni88  1  0.73715200  0.73715200  0.21937000  1
  Ni  Ni89  1  0.26284800  0.78063000  0.26284800  1
  Ni  Ni90  1  0.78063000  0.26284800  0.26284800  1
  Ni  Ni91  1  0.26284800  0.26284800  0.78063000  1
  Cu  Cu92  1  0.82937600  0.82937600  0.82937600  1
  Cu  Cu93  1  0.17062400  0.17062400  0.17062400  1
  Cu  Cu94  1  0.69012700  0.85097900  0.69012700  1
  Cu  Cu95  1  0.85097900  0.69012700  0.69012700  1
  Cu  Cu96  1  0.69012700  0.69012700  0.85097900  1
  Cu  Cu97  1  0.30987300  0.14902100  0.30987300  1
  Cu  Cu98  1  0.14902100  0.30987300  0.30987300  1
  Cu  Cu99  1  0.30987300  0.30987300  0.14902100  1
  Cu  Cu100  1  0.70862800  0.03996600  0.03996600  1
  Cu  Cu101  1  0.03996600  0.03996600  0.70862800  1
  Cu  Cu102  1  0.03996600  0.70862800  0.03996600  1
  Cu  Cu103  1  0.29137200  0.96003400  0.96003400  1
  Cu  Cu104  1  0.96003400  0.96003400  0.29137200  1
  Cu  Cu105  1  0.96003400  0.29137200  0.96003400  1
  Cu  Cu106  1  0.85763800  0.02006800  0.85763800  1
  Cu  Cu107  1  0.02006800  0.85763800  0.85763800  1
  Cu  Cu108  1  0.85763800  0.85763800  0.02006800  1
  Cu  Cu109  1  0.14236200  0.97993200  0.14236200  1
  Cu  Cu110  1  0.97993200  0.14236200  0.14236200  1
  Cu  Cu111  1  0.14236200  0.14236200  0.97993200  1
  Cu  Cu112  1  0.65143600  0.00337200  0.84511700  1
  Cu  Cu113  1  0.00337200  0.84511700  0.65143600  1
  Cu  Cu114  1  0.84511700  0.65143600  0.00337200  1
  Cu  Cu115  1  0.00337200  0.65143600  0.84511700  1
  Cu  Cu116  1  0.65143600  0.84511700  0.00337200  1
  Cu  Cu117  1  0.84511700  0.00337200  0.65143600  1
  Cu  Cu118  1  0.34856400  0.99662800  0.15488300  1
  Cu  Cu119  1  0.99662800  0.15488300  0.34856400  1
  Cu  Cu120  1  0.15488300  0.34856400  0.99662800  1
  Cu  Cu121  1  0.99662800  0.34856400  0.15488300  1
  Cu  Cu122  1  0.34856400  0.15488300  0.99662800  1
  Cu  Cu123  1  0.15488300  0.99662800  0.34856400  1
  Cu  Cu124  1  0.51606600  0.86606800  0.86606800  1
  Cu  Cu125  1  0.86606800  0.86606800  0.51606600  1
  Cu  Cu126  1  0.86606800  0.51606600  0.86606800  1
  Cu  Cu127  1  0.48393400  0.13393200  0.13393200  1
  Cu  Cu128  1  0.13393200  0.13393200  0.48393400  1
  Cu  Cu129  1  0.13393200  0.48393400  0.13393200  1
  Cu  Cu130  1  0.44862200  0.08142300  0.78031000  1
  Cu  Cu131  1  0.08142300  0.78031000  0.44862200  1
  Cu  Cu132  1  0.78031000  0.44862200  0.08142300  1
  Cu  Cu133  1  0.08142300  0.44862200  0.78031000  1
  Cu  Cu134  1  0.44862200  0.78031000  0.08142300  1
  Cu  Cu135  1  0.78031000  0.08142300  0.44862200  1
  Cu  Cu136  1  0.55137800  0.91857700  0.21969000  1
  Cu  Cu137  1  0.91857700  0.21969000  0.55137800  1
  Cu  Cu138  1  0.21969000  0.55137800  0.91857700  1
  Cu  Cu139  1  0.91857700  0.55137800  0.21969000  1
  Cu  Cu140  1  0.55137800  0.21969000  0.91857700  1
  Cu  Cu141  1  0.21969000  0.91857700  0.55137800  1
  Cu  Cu142  1  0.63554700  0.05323900  0.63554700  1
  Cu  Cu143  1  0.05323900  0.63554700  0.63554700  1
  Cu  Cu144  1  0.63554700  0.63554700  0.05323900  1
  Cu  Cu145  1  0.36445300  0.94676100  0.36445300  1
  Cu  Cu146  1  0.94676100  0.36445300  0.36445300  1
  Cu  Cu147  1  0.36445300  0.36445300  0.94676100  1
  Cu  Cu148  1  0.49326300  0.91469100  0.65511600  1
  Cu  Cu149  1  0.91469100  0.65511600  0.49326300  1
  Cu  Cu150  1  0.65511600  0.49326300  0.91469100  1
  Cu  Cu151  1  0.91469100  0.49326300  0.65511600  1
  Cu  Cu152  1  0.49326300  0.65511600  0.91469100  1
  Cu  Cu153  1  0.65511600  0.91469100  0.49326300  1
  Cu  Cu154  1  0.50673700  0.08530900  0.34488400  1
  Cu  Cu155  1  0.08530900  0.34488400  0.50673700  1
  Cu  Cu156  1  0.34488400  0.50673700  0.08530900  1
  Cu  Cu157  1  0.08530900  0.50673700  0.34488400  1
  Cu  Cu158  1  0.50673700  0.34488400  0.08530900  1
  Cu  Cu159  1  0.34488400  0.08530900  0.50673700  1
  Cu  Cu160  1  0.54244400  0.69954000  0.69954000  1
  Cu  Cu161  1  0.69954000  0.69954000  0.54244400  1
  Cu  Cu162  1  0.69954000  0.54244400  0.69954000  1
  Cu  Cu163  1  0.45755600  0.30046000  0.30046000  1
  Cu  Cu164  1  0.30046000  0.30046000  0.45755600  1
  Cu  Cu165  1  0.30046000  0.45755600  0.30046000  1
  Cu  Cu166  1  0.49446600  0.78659900  0.49446600  1
  Cu  Cu167  1  0.78659900  0.49446600  0.49446600  1
  Cu  Cu168  1  0.49446600  0.49446600  0.78659900  1
  Cu  Cu169  1  0.50553400  0.21340100  0.50553400  1
  Cu  Cu170  1  0.21340100  0.50553400  0.50553400  1
  Cu  Cu171  1  0.50553400  0.50553400  0.21340100  1
