# generated using pymatgen
data_CuNi5C4
_symmetry_space_group_name_H-M   'P 1'
_cell_length_a   10.88045100
_cell_length_b   10.99416400
_cell_length_c   11.01851600
_cell_angle_alpha   90.00000000
_cell_angle_beta   90.00000000
_cell_angle_gamma   90.00000000
_symmetry_Int_Tables_number   1
_chemical_formula_structural   CuNi5C4
_chemical_formula_sum   'Cu8 Ni40 C32'
_cell_volume   1318.05100057
_cell_formula_units_Z   8
loop_
 _symmetry_equiv_pos_site_id
 _symmetry_equiv_pos_as_xyz
  1  'x, y, z'
loop_
 _atom_site_type_symbol
 _atom_site_label
 _atom_site_symmetry_multiplicity
 _atom_site_fract_x
 _atom_site_fract_y
 _atom_site_fract_z
 _atom_site_occupancy
  Ni  Ni0  1  0.17058600  0.89357100  0.12014100  1
  Ni  Ni1  1  0.32941400  0.89357100  0.62014100  1
  Ni  Ni2  1  0.85924000  0.88920400  0.40005200  1
  Ni  Ni3  1  0.64076000  0.88920400  0.90005200  1
  Ni  Ni4  1  0.60103600  0.88317100  0.15975300  1
  Ni  Ni5  1  0.89896400  0.88317100  0.65975300  1
  Ni  Ni6  1  0.40092900  0.86960900  0.35456800  1
  Ni  Ni7  1  0.09907100  0.86960900  0.85456800  1
  Ni  Ni8  1  0.12982700  0.85276900  0.38065400  1
  Ni  Ni9  1  0.37017300  0.85276900  0.88065400  1
  Ni  Ni10  1  0.87017300  0.64723100  0.88065400  1
  Ni  Ni11  1  0.62982700  0.64723100  0.38065400  1
  Ni  Ni12  1  0.90092900  0.63039100  0.35456800  1
  Ni  Ni13  1  0.59907100  0.63039100  0.85456800  1
  Ni  Ni14  1  0.39896400  0.61682900  0.65975300  1
  Ni  Ni15  1  0.10103600  0.61682900  0.15975300  1
  Ni  Ni16  1  0.35924000  0.61079600  0.40005200  1
  Ni  Ni17  1  0.14076000  0.61079600  0.90005200  1
  Ni  Ni18  1  0.82941400  0.60642900  0.62014100  1
  Ni  Ni19  1  0.67058600  0.60642900  0.12014100  1
  Ni  Ni20  1  0.32941400  0.39357100  0.87985900  1
  Ni  Ni21  1  0.17058600  0.39357100  0.37985900  1
  Ni  Ni22  1  0.85924000  0.38920400  0.09994800  1
  Ni  Ni23  1  0.64076000  0.38920400  0.59994800  1
  Ni  Ni24  1  0.60103600  0.38317100  0.34024700  1
  Ni  Ni25  1  0.89896400  0.38317100  0.84024700  1
  Ni  Ni26  1  0.40092900  0.36960900  0.14543200  1
  Ni  Ni27  1  0.09907100  0.36960900  0.64543200  1
  Ni  Ni28  1  0.37017300  0.35276900  0.61934600  1
  Ni  Ni29  1  0.12982700  0.35276900  0.11934600  1
  Ni  Ni30  1  0.87017300  0.14723100  0.61934600  1
  Ni  Ni31  1  0.62982700  0.14723100  0.11934600  1
  Ni  Ni32  1  0.90092900  0.13039100  0.14543200  1
  Ni  Ni33  1  0.59907100  0.13039100  0.64543200  1
  Ni  Ni34  1  0.39896400  0.11682900  0.84024700  1
  Ni  Ni35  1  0.10103600  0.11682900  0.34024700  1
  Ni  Ni36  1  0.35924000  0.11079600  0.09994800  1
  Ni  Ni37  1  0.14076000  0.11079600  0.59994800  1
  Ni  Ni38  1  0.82941400  0.10642900  0.87985900  1
  Ni  Ni39  1  0.67058600  0.10642900  0.37985900  1
  Cu  Cu40  1  0.88393000  0.85348200  0.11927700  1
  Cu  Cu41  1  0.61607000  0.85348200  0.61927700  1
  Cu  Cu42  1  0.11607000  0.64651800  0.61927700  1
  Cu  Cu43  1  0.38393000  0.64651800  0.11927700  1
  Cu  Cu44  1  0.88393000  0.35348200  0.38072300  1
  Cu  Cu45  1  0.61607000  0.35348200  0.88072300  1
  Cu  Cu46  1  0.38393000  0.14651800  0.38072300  1
  Cu  Cu47  1  0.11607000  0.14651800  0.88072300  1
  C  C48  1  0.75986000  0.99038200  0.04070700  1
  C  C49  1  0.74014000  0.99038200  0.54070700  1
  C  C50  1  0.99840600  0.95978000  0.24111900  1
  C  C51  1  0.50159400  0.95978000  0.74111900  1
  C  C52  1  0.01583300  0.74859200  0.00885500  1
  C  C53  1  0.48416700  0.74859200  0.50885500  1
  C  C54  1  0.76586700  0.75347100  0.24517200  1
  C  C55  1  0.73413300  0.75347100  0.74517200  1
  C  C56  1  0.26586700  0.74652900  0.24517200  1
  C  C57  1  0.23413300  0.74652900  0.74517200  1
  C  C58  1  0.98416700  0.75140800  0.50885500  1
  C  C59  1  0.51583300  0.75140800  0.00885500  1
  C  C60  1  0.49840600  0.54022000  0.24111900  1
  C  C61  1  0.00159400  0.54022000  0.74111900  1
  C  C62  1  0.24014000  0.50961800  0.54070700  1
  C  C63  1  0.25986000  0.50961800  0.04070700  1
  C  C64  1  0.74014000  0.49038200  0.95929300  1
  C  C65  1  0.75986000  0.49038200  0.45929300  1
  C  C66  1  0.99840600  0.45978000  0.25888100  1
  C  C67  1  0.50159400  0.45978000  0.75888100  1
  C  C68  1  0.48416700  0.24859200  0.99114500  1
  C  C69  1  0.01583300  0.24859200  0.49114500  1
  C  C70  1  0.76586700  0.25347100  0.25482800  1
  C  C71  1  0.73413300  0.25347100  0.75482800  1
  C  C72  1  0.26586700  0.24652900  0.25482800  1
  C  C73  1  0.23413300  0.24652900  0.75482800  1
  C  C74  1  0.98416700  0.25140800  0.99114500  1
  C  C75  1  0.51583300  0.25140800  0.49114500  1
  C  C76  1  0.00159400  0.04022000  0.75888100  1
  C  C77  1  0.49840600  0.04022000  0.25888100  1
  C  C78  1  0.24014000  0.00961800  0.95929300  1
  C  C79  1  0.25986000  0.00961800  0.45929300  1
