# generated using pymatgen
data_Cu3(Ni3C13)2
_symmetry_space_group_name_H-M   'P 1'
_cell_length_a   8.96609038
_cell_length_b   8.96609071
_cell_length_c   10.16524064
_cell_angle_alpha   88.70768254
_cell_angle_beta   91.29231217
_cell_angle_gamma   59.49653372
_symmetry_Int_Tables_number   1
_chemical_formula_structural   Cu3(Ni3C13)2
_chemical_formula_sum   'Cu6 Ni12 C52'
_cell_volume   703.36334945
_cell_formula_units_Z   2
loop_
 _symmetry_equiv_pos_site_id
 _symmetry_equiv_pos_as_xyz
  1  'x, y, z'
loop_
 _atom_site_type_symbol
 _atom_site_label
 _atom_site_symmetry_multiplicity
 _atom_site_fract_x
 _atom_site_fract_y
 _atom_site_fract_z
 _atom_site_occupancy
  C  C0  1  0.84164700  0.74082500  0.24542000  1
  C  C1  1  0.80556200  0.08734400  0.23080600  1
  C  C2  1  0.77526700  0.43291100  0.21999600  1
  C  C3  1  0.75202500  0.03891000  0.72101000  1
  C  C4  1  0.73375600  0.39140000  0.71999600  1
  C  C5  1  0.55251900  0.90627500  0.77338400  1
  C  C6  1  0.46172400  0.76896500  0.22830000  1
  C  C7  1  0.42584200  0.32502000  0.74542000  1
  C  C8  1  0.46205600  0.10355600  0.22905900  1
  C  C9  1  0.39770100  0.70494300  0.72830000  1
  C  C10  1  0.26039200  0.61414800  0.27338400  1
  C  C11  1  0.15276200  0.07030900  0.23649100  1
  C  C12  1  0.12775600  0.41464100  0.22101000  1
  C  C13  1  0.09635700  0.01390500  0.73649100  1
  C  C14  1  0.07932300  0.36110500  0.73080600  1
  C  C15  1  0.06311000  0.70461000  0.72905900  1
  Ni  Ni16  1  0.99903400  0.33301600  0.00127300  1
  Ni  Ni17  1  0.83336400  0.50648800  0.50011000  1
  Ni  Ni18  1  0.83365100  0.16763200  0.50127300  1
  Ni  Ni19  1  0.66017900  0.33330200  0.00011000  1
  Ni  Ni20  1  0.67074000  0.00044500  0.00163400  1
  Ni  Ni21  1  0.49845700  0.16395500  0.49796800  1
  Ni  Ni22  1  0.50036200  0.83430600  0.49643700  1
  Ni  Ni23  1  0.33843400  0.00553900  0.99514700  1
  Ni  Ni24  1  0.33236000  0.66630500  0.99643700  1
  Ni  Ni25  1  0.16112800  0.82823300  0.49514700  1
  Ni  Ni26  1  0.16622100  0.49592600  0.50163400  1
  Ni  Ni27  1  0.00271100  0.66821000  0.99796800  1
  Cu  Cu28  1  0.83401800  0.83474400  0.50406500  1
  Cu  Cu29  1  0.67179900  0.66240700  0.98917600  1
  Cu  Cu30  1  0.50426000  0.49486800  0.48917600  1
  Cu  Cu31  1  0.33192200  0.33264900  0.00406500  1
  Cu  Cu32  1  0.16846400  0.16065300  0.49903400  1
  Cu  Cu33  1  0.00601400  0.99820300  0.99903400  1
  C  C34  1  0.96289500  0.58917700  0.60658200  1
  C  C35  1  0.93746600  0.28716400  0.60894600  1
  C  C36  1  0.97040600  0.92325400  0.61692400  1
  C  C37  1  0.88546200  0.53856200  0.11391600  1
  C  C38  1  0.87950300  0.22920000  0.10894600  1
  C  C39  1  0.88083500  0.88229200  0.10810300  1
  C  C40  1  0.75354900  0.44407600  0.89521900  1
  C  C41  1  0.76223300  0.11943300  0.90079500  1
  C  C42  1  0.77598700  0.79339500  0.89622600  1
  C  C43  1  0.72259000  0.41311800  0.39521900  1
  C  C44  1  0.71477200  0.07192900  0.40017800  1
  C  C45  1  0.71946000  0.72237700  0.39848700  1
  C  C46  1  0.62810500  0.28120400  0.61391600  1
  C  C47  1  0.61574800  0.61084600  0.60050100  1
  C  C48  1  0.61389200  0.96066500  0.61100500  1
  C  C49  1  0.57748900  0.20377100  0.10658200  1
  C  C50  1  0.55582100  0.55091900  0.10050100  1
  C  C51  1  0.56151800  0.89019200  0.10215600  1
  C  C52  1  0.45338600  0.10838800  0.89708400  1
  C  C53  1  0.44429000  0.44720700  0.89848700  1
  C  C54  1  0.44817000  0.80303500  0.88519700  1
  C  C55  1  0.38802900  0.03631200  0.38364900  1
  C  C56  1  0.37327100  0.39068000  0.39622600  1
  C  C57  1  0.36363200  0.71849700  0.38519700  1
  C  C58  1  0.28437500  0.28583200  0.60810300  1
  C  C59  1  0.28025000  0.91801000  0.59975200  1
  C  C60  1  0.27647500  0.60514900  0.60215600  1
  C  C61  1  0.24341200  0.19626000  0.11692400  1
  C  C62  1  0.24865600  0.88641600  0.09975200  1
  C  C63  1  0.20600100  0.55277500  0.11100500  1
  C  C64  1  0.12173900  0.12558300  0.89570000  1
  C  C65  1  0.13035400  0.77863800  0.88364900  1
  C  C66  1  0.09473700  0.45189400  0.90017800  1
  C  C67  1  0.04108400  0.04492800  0.39570000  1
  C  C68  1  0.05827800  0.71328100  0.39708400  1
  C  C69  1  0.04723300  0.40443400  0.40079500  1
