# generated using pymatgen
data_CuNi2C9
_symmetry_space_group_name_H-M   'P 1'
_cell_length_a   6.79573813
_cell_length_b   6.79573813
_cell_length_c   6.12272469
_cell_angle_alpha   77.31539112
_cell_angle_beta   77.31539112
_cell_angle_gamma   26.15171811
_symmetry_Int_Tables_number   1
_chemical_formula_structural   CuNi2C9
_chemical_formula_sum   'Cu1 Ni2 C9'
_cell_volume   121.41842534
_cell_formula_units_Z   1
loop_
 _symmetry_equiv_pos_site_id
 _symmetry_equiv_pos_as_xyz
  1  'x, y, z'
loop_
 _atom_site_type_symbol
 _atom_site_label
 _atom_site_symmetry_multiplicity
 _atom_site_fract_x
 _atom_site_fract_y
 _atom_site_fract_z
 _atom_site_occupancy
  C  C0  1  0.00000000  0.00000000  0.00000000  1
  C  C1  1  0.67296800  0.67296800  0.66761200  1
  C  C2  1  0.32703200  0.32703200  0.33238800  1
  Ni  Ni3  1  0.67358100  0.67358100  0.14907000  1
  Ni  Ni4  1  0.32641900  0.32641900  0.85093000  1
  Cu  Cu5  1  0.00000000  0.00000000  0.50000000  1
  C  C6  1  0.16066500  0.16066500  0.40249800  1
  C  C7  1  0.83336700  0.83336700  0.07451000  1
  C  C8  1  0.83933500  0.83933500  0.59750200  1
  C  C9  1  0.49818800  0.49818800  0.73769200  1
  C  C10  1  0.50181200  0.50181200  0.26230800  1
  C  C11  1  0.16663300  0.16663300  0.92549000  1
