# generated using pymatgen
data_Cu2Ni8C7
_symmetry_space_group_name_H-M   'P 1'
_cell_length_a   11.69995600
_cell_length_b   9.22865100
_cell_length_c   10.92419290
_cell_angle_alpha   71.63949436
_cell_angle_beta   90.00000000
_cell_angle_gamma   90.00000000
_symmetry_Int_Tables_number   1
_chemical_formula_structural   Cu2Ni8C7
_chemical_formula_sum   'Cu8 Ni32 C28'
_cell_volume   1119.49136672
_cell_formula_units_Z   4
loop_
 _symmetry_equiv_pos_site_id
 _symmetry_equiv_pos_as_xyz
  1  'x, y, z'
loop_
 _atom_site_type_symbol
 _atom_site_label
 _atom_site_symmetry_multiplicity
 _atom_site_fract_x
 _atom_site_fract_y
 _atom_site_fract_z
 _atom_site_occupancy
  Ni  Ni0  1  0.52311200  0.87099300  0.93376300  1
  Ni  Ni1  1  0.53187100  0.91385500  0.63865400  1
  Ni  Ni2  1  0.26503700  0.89293700  0.53432700  1
  Ni  Ni3  1  0.97688800  0.87099300  0.43376300  1
  Ni  Ni4  1  0.04901500  0.74836800  0.70105100  1
  Ni  Ni5  1  0.96812900  0.91385500  0.13865400  1
  Ni  Ni6  1  0.74215400  0.71629500  0.57193600  1
  Ni  Ni7  1  0.23496300  0.89293700  0.03432700  1
  Ni  Ni8  1  0.53220700  0.55760200  0.84463000  1
  Ni  Ni9  1  0.49639300  0.65810800  0.52154200  1
  Ni  Ni10  1  0.45098500  0.74836800  0.20105100  1
  Ni  Ni11  1  0.77169000  0.50147900  0.87258200  1
  Ni  Ni12  1  0.75784600  0.71629500  0.07193600  1
  Ni  Ni13  1  0.27169000  0.49852100  0.62741800  1
  Ni  Ni14  1  0.96779300  0.55760200  0.34463000  1
  Ni  Ni15  1  0.99639300  0.34189200  0.97845800  1
  Ni  Ni16  1  0.00360700  0.65810800  0.02154200  1
  Ni  Ni17  1  0.03220700  0.44239800  0.65537000  1
  Ni  Ni18  1  0.72831000  0.50147900  0.37258200  1
  Ni  Ni19  1  0.24215400  0.28370500  0.92806400  1
  Ni  Ni20  1  0.22831000  0.49852100  0.12741800  1
  Ni  Ni21  1  0.54901500  0.25163200  0.79894900  1
  Ni  Ni22  1  0.50360700  0.34189200  0.47845800  1
  Ni  Ni23  1  0.46779300  0.44239800  0.15537000  1
  Ni  Ni24  1  0.76503700  0.10706300  0.96567300  1
  Ni  Ni25  1  0.25784600  0.28370500  0.42806400  1
  Ni  Ni26  1  0.03187100  0.08614500  0.86134600  1
  Ni  Ni27  1  0.95098500  0.25163200  0.29894900  1
  Ni  Ni28  1  0.02311200  0.12900700  0.56623700  1
  Ni  Ni29  1  0.73496300  0.10706300  0.46567300  1
  Ni  Ni30  1  0.46812900  0.08614500  0.36134600  1
  Ni  Ni31  1  0.47688800  0.12900700  0.06623700  1
  Cu  Cu32  1  0.79297800  0.90367700  0.77726900  1
  Cu  Cu33  1  0.70702200  0.90367700  0.27726900  1
  Cu  Cu34  1  0.27971400  0.68277900  0.85271900  1
  Cu  Cu35  1  0.22028600  0.68277900  0.35271900  1
  Cu  Cu36  1  0.77971400  0.31722100  0.64728100  1
  Cu  Cu37  1  0.72028600  0.31722100  0.14728100  1
  Cu  Cu38  1  0.29297800  0.09632300  0.72273100  1
  Cu  Cu39  1  0.20702200  0.09632300  0.22273100  1
  C  C40  1  0.88903800  0.89915700  0.94968600  1
  C  C41  1  0.17942400  0.89462500  0.78130800  1
  C  C42  1  0.88958300  0.89135000  0.61207200  1
  C  C43  1  0.61096200  0.89915700  0.44968600  1
  C  C44  1  0.66825000  0.72845200  0.82657000  1
  C  C45  1  0.32057600  0.89462500  0.28130800  1
  C  C46  1  0.61041700  0.89135000  0.11207200  1
  C  C47  1  0.38531700  0.66793600  0.69438400  1
  C  C48  1  0.83175000  0.72845200  0.32657000  1
  C  C49  1  0.14351500  0.51861600  0.91060200  1
  C  C50  1  0.11674600  0.67551400  0.52195200  1
  C  C51  1  0.11468300  0.66793600  0.19438400  1
  C  C52  1  0.35648500  0.51861600  0.41060200  1
  C  C53  1  0.61674600  0.32448600  0.97804800  1
  C  C54  1  0.38325400  0.67551400  0.02195200  1
  C  C55  1  0.64351500  0.48138400  0.58939800  1
  C  C56  1  0.88531700  0.33206400  0.80561600  1
  C  C57  1  0.88325400  0.32448600  0.47804800  1
  C  C58  1  0.85648500  0.48138400  0.08939800  1
  C  C59  1  0.16825000  0.27154800  0.67343000  1
  C  C60  1  0.61468300  0.33206400  0.30561600  1
  C  C61  1  0.38958300  0.10865000  0.88792800  1
  C  C62  1  0.67942400  0.10537500  0.71869200  1
  C  C63  1  0.33175000  0.27154800  0.17343000  1
  C  C64  1  0.38903800  0.10084300  0.55031400  1
  C  C65  1  0.11041700  0.10865000  0.38792800  1
  C  C66  1  0.82057600  0.10537500  0.21869200  1
  C  C67  1  0.11096200  0.10084300  0.05031400  1
