# generated using pymatgen
data_Cu3NiC
_symmetry_space_group_name_H-M   'P 1'
_cell_length_a   5.76796134
_cell_length_b   5.76796134
_cell_length_c   5.76796132
_cell_angle_alpha   48.00555963
_cell_angle_beta   48.00555963
_cell_angle_gamma   48.00556224
_symmetry_Int_Tables_number   1
_chemical_formula_structural   Cu3NiC
_chemical_formula_sum   'Cu6 Ni2 C2'
_cell_volume   97.10719113
_cell_formula_units_Z   2
loop_
 _symmetry_equiv_pos_site_id
 _symmetry_equiv_pos_as_xyz
  1  'x, y, z'
loop_
 _atom_site_type_symbol
 _atom_site_label
 _atom_site_symmetry_multiplicity
 _atom_site_fract_x
 _atom_site_fract_y
 _atom_site_fract_z
 _atom_site_occupancy
  C  C0  1  0.00000000  0.00000000  0.00000000  1
  C  C1  1  0.50000000  0.50000000  0.50000000  1
  Ni  Ni2  1  0.24490900  0.24490900  0.24490900  1
  Ni  Ni3  1  0.75509100  0.75509100  0.75509100  1
  Cu  Cu4  1  0.74245100  0.03678200  0.48492400  1
  Cu  Cu5  1  0.96321800  0.51507600  0.25754900  1
  Cu  Cu6  1  0.51507600  0.25754900  0.96321800  1
  Cu  Cu7  1  0.48492400  0.74245100  0.03678200  1
  Cu  Cu8  1  0.03678200  0.48492400  0.74245100  1
  Cu  Cu9  1  0.25754900  0.96321800  0.51507600  1
