# generated using pymatgen
data_Cu3Ni2C3
_symmetry_space_group_name_H-M   'P 1'
_cell_length_a   5.77220171
_cell_length_b   5.77220171
_cell_length_c   10.82210187
_cell_angle_alpha   89.53823874
_cell_angle_beta   89.53823874
_cell_angle_gamma   41.10903034
_symmetry_Int_Tables_number   1
_chemical_formula_structural   Cu3Ni2C3
_chemical_formula_sum   'Cu6 Ni4 C6'
_cell_volume   237.06657563
_cell_formula_units_Z   2
loop_
 _symmetry_equiv_pos_site_id
 _symmetry_equiv_pos_as_xyz
  1  'x, y, z'
loop_
 _atom_site_type_symbol
 _atom_site_label
 _atom_site_symmetry_multiplicity
 _atom_site_fract_x
 _atom_site_fract_y
 _atom_site_fract_z
 _atom_site_occupancy
  C  C0  1  0.81487700  0.81487700  0.24818100  1
  C  C1  1  0.85487200  0.85487200  0.94071700  1
  C  C2  1  0.86228300  0.86228300  0.55497000  1
  C  C3  1  0.19192000  0.19192000  0.74849600  1
  C  C4  1  0.14207500  0.14207500  0.05441500  1
  C  C5  1  0.13474100  0.13474100  0.43997400  1
  Ni  Ni6  1  0.70086400  0.70086400  0.07776200  1
  Ni  Ni7  1  0.95211800  0.95211800  0.38428000  1
  Ni  Ni8  1  0.29419500  0.29419500  0.57429400  1
  Ni  Ni9  1  0.29689600  0.29689600  0.91943200  1
  Cu  Cu10  1  0.68962000  0.68962000  0.41945100  1
  Cu  Cu11  1  0.75355400  0.75355400  0.75101900  1
  Cu  Cu12  1  0.95378600  0.95378600  0.11269800  1
  Cu  Cu13  1  0.24344000  0.24344000  0.25617500  1
  Cu  Cu14  1  0.04323500  0.04323500  0.88392600  1
  Cu  Cu15  1  0.04195500  0.04195500  0.61901600  1
