# generated using pymatgen
data_Cu4Ni2C23
_symmetry_space_group_name_H-M   'P 1'
_cell_length_a   9.90473294
_cell_length_b   9.72659263
_cell_length_c   9.72349373
_cell_angle_alpha   61.22623834
_cell_angle_beta   59.40230854
_cell_angle_gamma   59.37145311
_symmetry_Int_Tables_number   1
_chemical_formula_structural   Cu4Ni2C23
_chemical_formula_sum   'Cu8 Ni4 C46'
_cell_volume   661.92460894
_cell_formula_units_Z   2
loop_
 _symmetry_equiv_pos_site_id
 _symmetry_equiv_pos_as_xyz
  1  'x, y, z'
loop_
 _atom_site_type_symbol
 _atom_site_label
 _atom_site_symmetry_multiplicity
 _atom_site_fract_x
 _atom_site_fract_y
 _atom_site_fract_z
 _atom_site_occupancy
  Ni  Ni0  1  0.77989100  0.22010900  0.77989100  1
  Ni  Ni1  1  0.02989100  0.47010900  0.02989100  1
  Ni  Ni2  1  0.22010900  0.77989100  0.22010900  1
  Ni  Ni3  1  0.47010900  0.02989100  0.47010900  1
  Cu  Cu4  1  0.14948500  0.94793700  0.61520000  1
  Cu  Cu5  1  0.61520000  0.28737800  0.14948500  1
  Cu  Cu6  1  0.30206300  0.10051500  0.96262200  1
  Cu  Cu7  1  0.28737800  0.61520000  0.94793700  1
  Cu  Cu8  1  0.96262200  0.63480000  0.30206300  1
  Cu  Cu9  1  0.94793700  0.14948500  0.28737800  1
  Cu  Cu10  1  0.63480000  0.96262200  0.10051500  1
  Cu  Cu11  1  0.10051500  0.30206300  0.63480000  1
  C  C12  1  0.62500000  0.62500000  0.12500000  1
  C  C13  1  0.62500000  0.12500000  0.62500000  1
  C  C14  1  0.62500000  0.62500000  0.62500000  1
  C  C15  1  0.12500000  0.62500000  0.62500000  1
  C  C16  1  0.85077700  0.45259500  0.84462300  1
  C  C17  1  0.84462300  0.85200500  0.85077700  1
  C  C18  1  0.39799500  0.40537700  0.79740500  1
  C  C19  1  0.45259500  0.85077700  0.85200500  1
  C  C20  1  0.79740500  0.39922300  0.39799500  1
  C  C21  1  0.85200500  0.84462300  0.45259500  1
  C  C22  1  0.40537700  0.39799500  0.39922300  1
  C  C23  1  0.39922300  0.79740500  0.40537700  1
  C  C24  1  0.25000000  0.25000000  0.25000000  1
  C  C25  1  0.00000000  0.00000000  0.00000000  1
  C  C26  1  0.98442500  0.83632300  0.72511600  1
  C  C27  1  0.84527200  0.43887600  0.72070900  1
  C  C28  1  0.72070900  0.99514300  0.84527200  1
  C  C29  1  0.52207200  0.42512600  0.78919600  1
  C  C30  1  0.46080400  0.98639400  0.72792800  1
  C  C31  1  0.72511600  0.45413600  0.98442500  1
  C  C32  1  0.41367700  0.26557500  0.79586400  1
  C  C33  1  0.45413600  0.72511600  0.83632300  1
  C  C34  1  0.25485700  0.52929100  0.81112400  1
  C  C35  1  0.43887600  0.84527200  0.99514300  1
  C  C36  1  0.43806900  0.18551300  0.18692700  1
  C  C37  1  0.06307300  0.06051000  0.81193100  1
  C  C38  1  0.98639400  0.46080400  0.82487400  1
  C  C39  1  0.42512600  0.52207200  0.26360600  1
  C  C40  1  0.18949000  0.18692700  0.18551300  1
  C  C41  1  0.18551300  0.43806900  0.18949000  1
  C  C42  1  0.06448700  0.81193100  0.06051000  1
  C  C43  1  0.06051000  0.06307300  0.06448700  1
  C  C44  1  0.82487400  0.72792800  0.98639400  1
  C  C45  1  0.26360600  0.78919600  0.42512600  1
  C  C46  1  0.18692700  0.18949000  0.43806900  1
  C  C47  1  0.81193100  0.06448700  0.06307300  1
  C  C48  1  0.81112400  0.40472800  0.25485700  1
  C  C49  1  0.99514300  0.72070900  0.43887600  1
  C  C50  1  0.79586400  0.52488400  0.41367700  1
  C  C51  1  0.83632300  0.98442500  0.45413600  1
  C  C52  1  0.52488400  0.79586400  0.26557500  1
  C  C53  1  0.78919600  0.26360600  0.52207200  1
  C  C54  1  0.72792800  0.82487400  0.46080400  1
  C  C55  1  0.52929100  0.25485700  0.40472800  1
  C  C56  1  0.40472800  0.81112400  0.52929100  1
  C  C57  1  0.26557500  0.41367700  0.52488400  1
