# generated using pymatgen
data_Cu4NiC24
_symmetry_space_group_name_H-M   'P 1'
_cell_length_a   9.96705050
_cell_length_b   9.96705050
_cell_length_c   9.96705050
_cell_angle_alpha   60.00000000
_cell_angle_beta   60.00000000
_cell_angle_gamma   60.00000000
_symmetry_Int_Tables_number   1
_chemical_formula_structural   Cu4NiC24
_chemical_formula_sum   'Cu8 Ni2 C48'
_cell_volume   700.14014286
_cell_formula_units_Z   2
loop_
 _symmetry_equiv_pos_site_id
 _symmetry_equiv_pos_as_xyz
  1  'x, y, z'
loop_
 _atom_site_type_symbol
 _atom_site_label
 _atom_site_symmetry_multiplicity
 _atom_site_fract_x
 _atom_site_fract_y
 _atom_site_fract_z
 _atom_site_occupancy
  C  C0  1  0.54425200  0.95574800  0.54425200  1
  C  C1  1  0.54425200  0.54425200  0.95574800  1
  C  C2  1  0.95574800  0.54425200  0.54425200  1
  C  C3  1  0.29425200  0.70574800  0.29425200  1
  C  C4  1  0.95574800  0.95574800  0.54425200  1
  C  C5  1  0.54425200  0.95574800  0.95574800  1
  C  C6  1  0.70574800  0.29425200  0.29425200  1
  C  C7  1  0.29425200  0.29425200  0.70574800  1
  C  C8  1  0.95574800  0.54425200  0.95574800  1
  C  C9  1  0.70574800  0.70574800  0.29425200  1
  C  C10  1  0.29425200  0.70574800  0.70574800  1
  C  C11  1  0.70574800  0.29425200  0.70574800  1
  C  C12  1  0.12500000  0.12500000  0.62500000  1
  C  C13  1  0.62500000  0.12500000  0.12500000  1
  C  C14  1  0.12500000  0.62500000  0.12500000  1
  C  C15  1  0.12500000  0.12500000  0.12500000  1
  Ni  Ni16  1  0.50000000  0.50000000  0.50000000  1
  Ni  Ni17  1  0.75000000  0.75000000  0.75000000  1
  Cu  Cu18  1  0.34061100  0.34061100  0.34061100  1
  Cu  Cu19  1  0.90938900  0.90938900  0.27183200  1
  Cu  Cu20  1  0.27183200  0.90938900  0.90938900  1
  Cu  Cu21  1  0.90938900  0.27183200  0.90938900  1
  Cu  Cu22  1  0.34061100  0.97816800  0.34061100  1
  Cu  Cu23  1  0.34061100  0.34061100  0.97816800  1
  Cu  Cu24  1  0.97816800  0.34061100  0.34061100  1
  Cu  Cu25  1  0.90938900  0.90938900  0.90938900  1
  C  C26  1  0.48145800  0.22429900  0.31714300  1
  C  C27  1  0.22429900  0.31714300  0.48145800  1
  C  C28  1  0.31714300  0.48145800  0.22429900  1
  C  C29  1  0.27290100  0.76854200  0.93285700  1
  C  C30  1  0.56400800  0.30797500  0.56400800  1
  C  C31  1  0.02570100  0.76854200  0.27290100  1
  C  C32  1  0.76854200  0.93285700  0.27290100  1
  C  C33  1  0.56400800  0.56400800  0.30797500  1
  C  C34  1  0.30797500  0.56400800  0.56400800  1
  C  C35  1  0.27290100  0.02570100  0.76854200  1
  C  C36  1  0.27290100  0.93285700  0.02570100  1
  C  C37  1  0.56400800  0.56400800  0.56400800  1
  C  C38  1  0.93285700  0.27290100  0.76854200  1
  C  C39  1  0.93285700  0.02570100  0.27290100  1
  C  C40  1  0.76854200  0.27290100  0.02570100  1
  C  C41  1  0.22429900  0.97709900  0.31714300  1
  C  C42  1  0.02570100  0.27290100  0.93285700  1
  C  C43  1  0.48145800  0.97709900  0.22429900  1
  C  C44  1  0.31714300  0.22429900  0.97709900  1
  C  C45  1  0.31714300  0.97709900  0.48145800  1
  C  C46  1  0.68599200  0.68599200  0.68599200  1
  C  C47  1  0.97709900  0.31714300  0.22429900  1
  C  C48  1  0.97709900  0.22429900  0.48145800  1
  C  C49  1  0.94202500  0.68599200  0.68599200  1
  C  C50  1  0.68599200  0.68599200  0.94202500  1
  C  C51  1  0.48145800  0.31714300  0.97709900  1
  C  C52  1  0.22429900  0.48145800  0.97709900  1
  C  C53  1  0.68599200  0.94202500  0.68599200  1
  C  C54  1  0.97709900  0.48145800  0.31714300  1
  C  C55  1  0.93285700  0.76854200  0.02570100  1
  C  C56  1  0.02570100  0.93285700  0.76854200  1
  C  C57  1  0.76854200  0.02570100  0.93285700  1
