# generated using pymatgen
data_CuNiC19
_symmetry_space_group_name_H-M   'P 1'
_cell_length_a   10.47933939
_cell_length_b   6.08136900
_cell_length_c   14.33390551
_cell_angle_alpha   90.00000000
_cell_angle_beta   89.60521274
_cell_angle_gamma   90.00000000
_symmetry_Int_Tables_number   1
_chemical_formula_structural   CuNiC19
_chemical_formula_sum   'Cu4 Ni4 C76'
_cell_volume   913.45990535
_cell_formula_units_Z   4
loop_
 _symmetry_equiv_pos_site_id
 _symmetry_equiv_pos_as_xyz
  1  'x, y, z'
loop_
 _atom_site_type_symbol
 _atom_site_label
 _atom_site_symmetry_multiplicity
 _atom_site_fract_x
 _atom_site_fract_y
 _atom_site_fract_z
 _atom_site_occupancy
  C  C0  1  0.99926800  0.49979500  0.66532800  1
  C  C1  1  0.99619300  0.99772700  0.00099700  1
  C  C2  1  0.99619300  0.50227300  0.00099700  1
  C  C3  1  0.99818300  0.00104700  0.33343400  1
  C  C4  1  0.99818300  0.49895300  0.33343400  1
  C  C5  1  0.99926800  0.00020500  0.66532800  1
  C  C6  1  0.50197400  0.99991300  0.50014200  1
  C  C7  1  0.50197400  0.50008700  0.50014200  1
  C  C8  1  0.50204900  0.99939600  0.16636500  1
  C  C9  1  0.50204900  0.50060400  0.16636500  1
  C  C10  1  0.50174600  0.99935100  0.83324100  1
  C  C11  1  0.50174600  0.50064900  0.83324100  1
  C  C12  1  0.21799000  0.75000000  0.16150400  1
  C  C13  1  0.21816600  0.75000000  0.82735700  1
  C  C14  1  0.28169900  0.25000000  0.99480900  1
  C  C15  1  0.28393900  0.25000000  0.33013900  1
  Ni  Ni16  1  0.21778400  0.75000000  0.49558000  1
  Ni  Ni17  1  0.28001400  0.25000000  0.66160700  1
  Ni  Ni18  1  0.72082200  0.75000000  0.00641200  1
  Ni  Ni19  1  0.71945600  0.75000000  0.33879800  1
  Cu  Cu20  1  0.71766200  0.75000000  0.67004500  1
  Cu  Cu21  1  0.78226000  0.25000000  0.83834700  1
  Cu  Cu22  1  0.77976900  0.25000000  0.50522400  1
  Cu  Cu23  1  0.77833300  0.25000000  0.16981900  1
  C  C24  1  0.09292600  0.25000000  0.80530600  1
  C  C25  1  0.09015600  0.25000000  0.13929400  1
  C  C26  1  0.09327100  0.25000000  0.47432600  1
  C  C27  1  0.40636800  0.75000000  0.30603300  1
  C  C28  1  0.40521000  0.75000000  0.63859100  1
  C  C29  1  0.40710500  0.75000000  0.97205300  1
  C  C30  1  0.59928100  0.25000000  0.36055100  1
  C  C31  1  0.59849100  0.25000000  0.02821500  1
  C  C32  1  0.59840500  0.25000000  0.69347900  1
  C  C33  1  0.90223500  0.75000000  0.86000100  1
  C  C34  1  0.90264500  0.75000000  0.19441800  1
  C  C35  1  0.90250300  0.75000000  0.52667300  1
  C  C36  1  0.04018900  0.75000000  0.23509200  1
  C  C37  1  0.04018800  0.75000000  0.56707600  1
  C  C38  1  0.03931600  0.75000000  0.90136700  1
  C  C39  1  0.09699600  0.25000000  0.58126100  1
  C  C40  1  0.09781000  0.25000000  0.91226700  1
  C  C41  1  0.09569900  0.25000000  0.24670900  1
  C  C42  1  0.16001700  0.04774000  0.09389400  1
  C  C43  1  0.16001700  0.45226000  0.09389400  1
  C  C44  1  0.16366600  0.04656200  0.42977400  1
  C  C45  1  0.16366600  0.45343800  0.42977400  1
  C  C46  1  0.16367100  0.04917800  0.75906000  1
  C  C47  1  0.16367100  0.45082200  0.75906000  1
  C  C48  1  0.33602900  0.54652000  0.59379600  1
  C  C49  1  0.33602900  0.95348000  0.59379600  1
  C  C50  1  0.33790700  0.54696900  0.26104000  1
  C  C51  1  0.33790700  0.95303100  0.26104000  1
  C  C52  1  0.33741900  0.54740400  0.92736500  1
  C  C53  1  0.33741900  0.95259600  0.92736500  1
  C  C54  1  0.40054800  0.75000000  0.41380500  1
  C  C55  1  0.40163400  0.75000000  0.07946500  1
  C  C56  1  0.40026100  0.75000000  0.74562000  1
  C  C57  1  0.46237200  0.25000000  0.40239500  1
  C  C58  1  0.46058400  0.25000000  0.06926200  1
  C  C59  1  0.45986500  0.25000000  0.73335500  1
  C  C60  1  0.54500300  0.75000000  0.26608800  1
  C  C61  1  0.54500100  0.75000000  0.93184500  1
  C  C62  1  0.54404400  0.75000000  0.59817300  1
  C  C63  1  0.60380200  0.25000000  0.25325000  1
  C  C64  1  0.60362300  0.25000000  0.92069500  1
  C  C65  1  0.60302500  0.25000000  0.58585700  1
  C  C66  1  0.66798700  0.04700100  0.07371800  1
  C  C67  1  0.66890700  0.04652900  0.40592100  1
  C  C68  1  0.66798500  0.04614700  0.73849500  1
  C  C69  1  0.66798500  0.45385300  0.73849500  1
  C  C70  1  0.66798700  0.45299900  0.07371800  1
  C  C71  1  0.66890700  0.45347100  0.40592100  1
  C  C72  1  0.83201100  0.54666900  0.90559200  1
  C  C73  1  0.83201100  0.95333100  0.90559200  1
  C  C74  1  0.83364300  0.54548700  0.23922400  1
  C  C75  1  0.83214000  0.54692800  0.57237600  1
  C  C76  1  0.83364300  0.95451300  0.23922400  1
  C  C77  1  0.83214000  0.95307200  0.57237600  1
  C  C78  1  0.89925400  0.75000000  0.75270300  1
  C  C79  1  0.90030400  0.75000000  0.41961300  1
  C  C80  1  0.90079900  0.75000000  0.08693500  1
  C  C81  1  0.95462800  0.25000000  0.76598300  1
  C  C82  1  0.95178700  0.25000000  0.09897700  1
  C  C83  1  0.95518500  0.25000000  0.43409100  1
