# generated using pymatgen
data_Cu4Ni3C22
_symmetry_space_group_name_H-M   'P 1'
_cell_length_a   15.65011200
_cell_length_b   10.18943500
_cell_length_c   11.01586351
_cell_angle_alpha   68.03011015
_cell_angle_beta   90.00000000
_cell_angle_gamma   90.00000000
_symmetry_Int_Tables_number   1
_chemical_formula_structural   Cu4Ni3C22
_chemical_formula_sum   'Cu16 Ni12 C88'
_cell_volume   1629.08633673
_cell_formula_units_Z   4
loop_
 _symmetry_equiv_pos_site_id
 _symmetry_equiv_pos_as_xyz
  1  'x, y, z'
loop_
 _atom_site_type_symbol
 _atom_site_label
 _atom_site_symmetry_multiplicity
 _atom_site_fract_x
 _atom_site_fract_y
 _atom_site_fract_z
 _atom_site_occupancy
  C  C0  1  0.67146400  0.17363000  0.34671600  1
  C  C1  1  0.17146400  0.32637000  0.65328400  1
  C  C2  1  0.32853600  0.82637000  0.65328400  1
  C  C3  1  0.82853600  0.67363000  0.34671600  1
  C  C4  1  0.58079600  0.17332000  0.84542200  1
  C  C5  1  0.08079600  0.32668000  0.15457800  1
  C  C6  1  0.41920400  0.82668000  0.15457800  1
  C  C7  1  0.91920400  0.67332000  0.84542200  1
  C  C8  1  0.82982000  0.22958800  0.99849300  1
  C  C9  1  0.32982000  0.27041200  0.00150700  1
  C  C10  1  0.17018000  0.77041200  0.00150700  1
  C  C11  1  0.67018000  0.72958800  0.99849300  1
  C  C12  1  0.91882200  0.23532000  0.50444300  1
  C  C13  1  0.41882200  0.26468000  0.49555700  1
  C  C14  1  0.08117800  0.76468000  0.49555700  1
  C  C15  1  0.58117800  0.73532000  0.50444300  1
  Ni  Ni16  1  0.52531800  0.36937500  0.98840000  1
  Ni  Ni17  1  0.02531800  0.13062500  0.01160000  1
  Ni  Ni18  1  0.47468200  0.63062500  0.01160000  1
  Ni  Ni19  1  0.97468200  0.86937500  0.98840000  1
  Ni  Ni20  1  0.50838800  0.24304500  0.11750900  1
  Ni  Ni21  1  0.00838800  0.25695500  0.88249100  1
  Ni  Ni22  1  0.49161200  0.75695500  0.88249100  1
  Ni  Ni23  1  0.99161200  0.74304500  0.11750900  1
  Ni  Ni24  1  0.75210100  0.20646000  0.64040100  1
  Ni  Ni25  1  0.25210100  0.29354000  0.35959900  1
  Ni  Ni26  1  0.24789900  0.79354000  0.35959900  1
  Ni  Ni27  1  0.74789900  0.70646000  0.64040100  1
  Cu  Cu28  1  0.92903200  0.44879400  0.66706500  1
  Cu  Cu29  1  0.42903200  0.05120600  0.33293500  1
  Cu  Cu30  1  0.07096800  0.55120600  0.33293500  1
  Cu  Cu31  1  0.57096800  0.94879400  0.66706500  1
  Cu  Cu32  1  0.59012000  0.53199800  0.34700800  1
  Cu  Cu33  1  0.09012000  0.96800200  0.65299200  1
  Cu  Cu34  1  0.40988000  0.46800200  0.65299200  1
  Cu  Cu35  1  0.90988000  0.03199800  0.34700800  1
  Cu  Cu36  1  0.66802100  0.51575100  0.84086700  1
  Cu  Cu37  1  0.16802100  0.98424900  0.15913300  1
  Cu  Cu38  1  0.33197900  0.48424900  0.15913300  1
  Cu  Cu39  1  0.83197900  0.01575100  0.84086700  1
  Cu  Cu40  1  0.83061100  0.43918700  0.15583000  1
  Cu  Cu41  1  0.33061100  0.06081300  0.84417000  1
  Cu  Cu42  1  0.16938900  0.56081300  0.84417000  1
  Cu  Cu43  1  0.66938900  0.93918700  0.15583000  1
  C  C44  1  0.88325800  0.42132000  0.79232300  1
  C  C45  1  0.38325800  0.07868000  0.20767700  1
  C  C46  1  0.11674200  0.57868000  0.20767700  1
  C  C47  1  0.61674200  0.92132000  0.79232300  1
  C  C48  1  0.53366200  0.09317000  0.62262500  1
  C  C49  1  0.03366200  0.40683000  0.37737500  1
  C  C50  1  0.46633800  0.90683000  0.37737500  1
  C  C51  1  0.96633800  0.59317000  0.62262500  1
  C  C52  1  0.86900200  0.44138200  0.56350400  1
  C  C53  1  0.36900200  0.05861800  0.43649600  1
  C  C54  1  0.13099800  0.55861800  0.43649600  1
  C  C55  1  0.63099800  0.94138200  0.56350400  1
  C  C56  1  0.99509500  0.33734400  0.68567100  1
  C  C57  1  0.49509500  0.16265600  0.31432900  1
  C  C58  1  0.00490500  0.66265600  0.31432900  1
  C  C59  1  0.50490500  0.83734400  0.68567100  1
  C  C60  1  0.55933100  0.38367900  0.39653300  1
  C  C61  1  0.05933100  0.11632100  0.60346700  1
  C  C62  1  0.44066900  0.61632100  0.60346700  1
  C  C63  1  0.94066900  0.88367900  0.39653300  1
  C  C64  1  0.98032800  0.13102700  0.34885800  1
  C  C65  1  0.48032800  0.36897300  0.65114200  1
  C  C66  1  0.01967200  0.86897300  0.65114200  1
  C  C67  1  0.51967200  0.63102700  0.34885800  1
  C  C68  1  0.84134100  0.05248700  0.43312400  1
  C  C69  1  0.34134100  0.44751300  0.56687600  1
  C  C70  1  0.15865900  0.94751300  0.56687600  1
  C  C71  1  0.65865900  0.55248700  0.43312400  1
  C  C72  1  0.87743200  0.06779100  0.21174000  1
  C  C73  1  0.37743200  0.43220900  0.78826000  1
  C  C74  1  0.12256800  0.93220900  0.78826000  1
  C  C75  1  0.62256800  0.56779100  0.21174000  1
  C  C76  1  0.87879600  0.05493100  0.71540700  1
  C  C77  1  0.37879600  0.44506900  0.28459300  1
  C  C78  1  0.12120400  0.94506900  0.28459300  1
  C  C79  1  0.62120400  0.55493100  0.71540700  1
  C  C80  1  0.89169300  0.01782300  0.94631700  1
  C  C81  1  0.39169300  0.48217700  0.05368300  1
  C  C82  1  0.10830700  0.98217700  0.05368300  1
  C  C83  1  0.60830700  0.51782300  0.94631700  1
  C  C84  1  0.70486000  0.37270700  0.87434600  1
  C  C85  1  0.20486000  0.12729300  0.12565400  1
  C  C86  1  0.29514000  0.62729300  0.12565400  1
  C  C87  1  0.79514000  0.87270700  0.87434600  1
  C  C88  1  0.76492900  0.12499200  0.82986600  1
  C  C89  1  0.26492900  0.37500800  0.17013400  1
  C  C90  1  0.23507100  0.87500800  0.17013400  1
  C  C91  1  0.73507100  0.62499200  0.82986600  1
  C  C92  1  0.90441300  0.41636700  0.07926100  1
  C  C93  1  0.40441300  0.08363300  0.92073900  1
  C  C94  1  0.09558700  0.58363300  0.92073900  1
  C  C95  1  0.59558700  0.91636700  0.07926100  1
  C  C96  1  0.69569300  0.09050500  0.10243600  1
  C  C97  1  0.19569300  0.40949500  0.89756400  1
  C  C98  1  0.30430700  0.90949500  0.89756400  1
  C  C99  1  0.80430700  0.59050500  0.10243600  1
  C  C100  1  0.85222500  0.39912600  0.29632200  1
  C  C101  1  0.35222500  0.10087400  0.70367800  1
  C  C102  1  0.14777500  0.60087400  0.70367800  1
  C  C103  1  0.64777500  0.89912600  0.29632200  1
  C  C104  1  0.76066300  0.34667900  0.14000700  1
  C  C105  1  0.26066300  0.15332100  0.85999300  1
  C  C106  1  0.23933700  0.65332100  0.85999300  1
  C  C107  1  0.73933700  0.84667900  0.14000700  1
  C  C108  1  0.49713300  0.27630200  0.02243200  1
  C  C109  1  0.99713300  0.22369800  0.97756800  1
  C  C110  1  0.50286700  0.72369800  0.97756800  1
  C  C111  1  0.00286700  0.77630200  0.02243200  1
  C  C112  1  0.76038200  0.24142700  0.54461200  1
  C  C113  1  0.26038200  0.25857300  0.45538800  1
  C  C114  1  0.23961800  0.75857300  0.45538800  1
  C  C115  1  0.73961800  0.74142700  0.54461200  1
