# generated using pymatgen
data_Cu2Ni3C23
_symmetry_space_group_name_H-M   'P 1'
_cell_length_a   5.92104684
_cell_length_b   5.92104684
_cell_length_c   9.65890241
_cell_angle_alpha   88.32201722
_cell_angle_beta   88.32201722
_cell_angle_gamma   58.76501311
_symmetry_Int_Tables_number   1
_chemical_formula_structural   Cu2Ni3C23
_chemical_formula_sum   'Cu2 Ni3 C23'
_cell_volume   289.38085191
_cell_formula_units_Z   1
loop_
 _symmetry_equiv_pos_site_id
 _symmetry_equiv_pos_as_xyz
  1  'x, y, z'
loop_
 _atom_site_type_symbol
 _atom_site_label
 _atom_site_symmetry_multiplicity
 _atom_site_fract_x
 _atom_site_fract_y
 _atom_site_fract_z
 _atom_site_occupancy
  C  C0  1  0.66171900  0.66171900  0.10935800  1
  C  C1  1  0.99730800  0.99730800  0.00688400  1
  C  C2  1  0.00239100  0.00239100  0.50434400  1
  C  C3  1  0.33162100  0.33162100  0.60879700  1
  C  C4  1  0.33864000  0.83164900  0.78484200  1
  C  C5  1  0.83164900  0.33864000  0.78484200  1
  C  C6  1  0.16990700  0.16990700  0.28332400  1
  Ni  Ni7  1  0.83047800  0.83047800  0.78482700  1
  Ni  Ni8  1  0.16869000  0.66232000  0.28573700  1
  Ni  Ni9  1  0.66232000  0.16869000  0.28573700  1
  Cu  Cu10  1  0.67190300  0.67190300  0.50680400  1
  Cu  Cu11  1  0.33499000  0.33499000  0.00971400  1
  C  C12  1  0.32560200  0.85045300  0.39944800  1
  C  C13  1  0.51638300  0.51638300  0.66917200  1
  C  C14  1  0.65498500  0.65498500  0.89048200  1
  C  C15  1  0.00960700  0.00960700  0.69099100  1
  C  C16  1  0.00246100  0.00246100  0.19511400  1
  C  C17  1  0.85045300  0.32560200  0.39944800  1
  C  C18  1  0.50363200  0.96577600  0.66159300  1
  C  C19  1  0.96577600  0.50363200  0.66159300  1
  C  C20  1  0.15908900  0.15908900  0.89460700  1
  C  C21  1  0.84824900  0.84824900  0.39989900  1
  C  C22  1  0.02759900  0.47187700  0.16060400  1
  C  C23  1  0.47187700  0.02759900  0.16060400  1
  C  C24  1  0.33123000  0.33123000  0.38421700  1
  C  C25  1  0.16709800  0.68348400  0.90077100  1
  C  C26  1  0.47942500  0.47942500  0.16757200  1
  C  C27  1  0.68348400  0.16709800  0.90077100  1
