# generated using pymatgen
data_Cu14Ni2C7
_symmetry_space_group_name_H-M   'P 1'
_cell_length_a   6.49256100
_cell_length_b   10.27133900
_cell_length_c   10.32157238
_cell_angle_alpha   61.42671977
_cell_angle_beta   90.00000000
_cell_angle_gamma   90.00000000
_symmetry_Int_Tables_number   1
_chemical_formula_structural   Cu14Ni2C7
_chemical_formula_sum   'Cu28 Ni4 C14'
_cell_volume   604.48485162
_cell_formula_units_Z   2
loop_
 _symmetry_equiv_pos_site_id
 _symmetry_equiv_pos_as_xyz
  1  'x, y, z'
loop_
 _atom_site_type_symbol
 _atom_site_label
 _atom_site_symmetry_multiplicity
 _atom_site_fract_x
 _atom_site_fract_y
 _atom_site_fract_z
 _atom_site_occupancy
  C  C0  1  0.21135200  0.25078900  0.75188400  1
  C  C1  1  0.26289600  0.75360900  0.74304100  1
  C  C2  1  0.73455500  0.75233300  0.74401600  1
  C  C3  1  0.78864800  0.25078900  0.25188400  1
  C  C4  1  0.26544500  0.75233300  0.24401600  1
  C  C5  1  0.73710400  0.75360900  0.24304100  1
  C  C6  1  0.50440000  0.34649200  0.93171000  1
  C  C7  1  0.00008400  0.64734400  0.56774100  1
  C  C8  1  0.49560000  0.34649200  0.43171000  1
  C  C9  1  0.99991600  0.64734400  0.06774100  1
  C  C10  1  0.99844700  0.42297300  0.92967900  1
  C  C11  1  0.49981500  0.57146100  0.57189200  1
  C  C12  1  0.00155300  0.42297300  0.42967900  1
  C  C13  1  0.50018500  0.57146100  0.07189200  1
  Ni  Ni14  1  0.99758600  0.91757900  0.90017600  1
  Ni  Ni15  1  0.00241400  0.91757900  0.40017600  1
  Ni  Ni16  1  0.50353500  0.07913600  0.60555100  1
  Ni  Ni17  1  0.49646500  0.07913600  0.10555100  1
  Cu  Cu18  1  0.48921400  0.13546800  0.96283300  1
  Cu  Cu19  1  0.18977100  0.33125300  0.93636200  1
  Cu  Cu20  1  0.80573200  0.32595600  0.95008000  1
  Cu  Cu21  1  0.49319200  0.42409700  0.71781700  1
  Cu  Cu22  1  0.00391900  0.46079300  0.55926700  1
  Cu  Cu23  1  0.49998300  0.54033900  0.93748200  1
  Cu  Cu24  1  0.99443200  0.57328700  0.78458300  1
  Cu  Cu25  1  0.31316400  0.67132200  0.55948400  1
  Cu  Cu26  1  0.68808800  0.66884100  0.56045500  1
  Cu  Cu27  1  0.99793100  0.81884700  0.85362700  1
  Cu  Cu28  1  0.00206900  0.81884700  0.35362700  1
  Cu  Cu29  1  0.00118100  0.85882100  0.54382600  1
  Cu  Cu30  1  0.50128200  0.94136300  0.69322900  1
  Cu  Cu31  1  0.49871800  0.94136300  0.19322900  1
  Cu  Cu32  1  0.99675600  0.05356300  0.81460200  1
  Cu  Cu33  1  0.00324400  0.05356300  0.31460200  1
  Cu  Cu34  1  0.51078600  0.13546800  0.46283300  1
  Cu  Cu35  1  0.49699300  0.17962100  0.64852700  1
  Cu  Cu36  1  0.50300700  0.17962100  0.14852700  1
  Cu  Cu37  1  0.19426800  0.32595600  0.45008000  1
  Cu  Cu38  1  0.81022900  0.33125300  0.43636200  1
  Cu  Cu39  1  0.50680800  0.42409700  0.21781700  1
  Cu  Cu40  1  0.99608100  0.46079300  0.05926700  1
  Cu  Cu41  1  0.50001700  0.54033900  0.43748200  1
  Cu  Cu42  1  0.00556800  0.57328700  0.28458300  1
  Cu  Cu43  1  0.68683600  0.67132200  0.05948400  1
  Cu  Cu44  1  0.31191200  0.66884100  0.06045500  1
  Cu  Cu45  1  0.99881900  0.85882100  0.04382600  1
