# generated using pymatgen
data_Cu11NiC60
_symmetry_space_group_name_H-M   'P 1'
_cell_length_a   8.74853039
_cell_length_b   8.74853039
_cell_length_c   11.70648646
_cell_angle_alpha   60.43127086
_cell_angle_beta   60.43127086
_cell_angle_gamma   59.78106659
_symmetry_Int_Tables_number   1
_chemical_formula_structural   Cu11NiC60
_chemical_formula_sum   'Cu11 Ni1 C60'
_cell_volume   636.57466139
_cell_formula_units_Z   1
loop_
 _symmetry_equiv_pos_site_id
 _symmetry_equiv_pos_as_xyz
  1  'x, y, z'
loop_
 _atom_site_type_symbol
 _atom_site_label
 _atom_site_symmetry_multiplicity
 _atom_site_fract_x
 _atom_site_fract_y
 _atom_site_fract_z
 _atom_site_occupancy
  C  C0  1  0.82723500  0.17549000  0.74979100  1
  C  C1  1  0.83357300  0.49891000  0.50000200  1
  C  C2  1  0.50162500  0.16456100  0.25084500  1
  C  C3  1  0.49597200  0.83705700  0.24996100  1
  C  C4  1  0.49822900  0.16953000  0.99810100  1
  C  C5  1  0.16294300  0.50402800  0.75003900  1
  C  C6  1  0.50328800  0.49064300  0.75116500  1
  C  C7  1  0.49871800  0.16815000  0.74913300  1
  C  C8  1  0.16738300  0.83261700  0.50000000  1
  C  C9  1  0.17351600  0.16385200  0.24939200  1
  C  C10  1  0.16895700  0.83086700  0.24836300  1
  C  C11  1  0.15722000  0.50528700  0.25106400  1
  C  C12  1  0.16913300  0.83104300  0.75163700  1
  C  C13  1  0.83950500  0.82579600  0.25132200  1
  C  C14  1  0.83185000  0.50128200  0.25086700  1
  C  C15  1  0.82451000  0.17276500  0.25020900  1
  C  C16  1  0.83047000  0.50177100  0.00189900  1
  C  C17  1  0.49471300  0.84278000  0.74893600  1
  C  C18  1  0.83614800  0.82648400  0.75060800  1
  C  C19  1  0.83543900  0.49837500  0.74915500  1
  C  C20  1  0.50109000  0.16642700  0.49999800  1
  C  C21  1  0.50935700  0.49671200  0.24883500  1
  C  C22  1  0.16644100  0.83355900  0.00000000  1
  C  C23  1  0.17420400  0.16049500  0.74867800  1
  Ni  Ni24  1  0.49923600  0.50076400  0.00000000  1
  Cu  Cu25  1  0.50887700  0.83143000  0.49978300  1
  Cu  Cu26  1  0.49461800  0.50538200  0.50000000  1
  Cu  Cu27  1  0.16722800  0.15937100  0.49959000  1
  Cu  Cu28  1  0.16857000  0.49112300  0.50021700  1
  Cu  Cu29  1  0.16516500  0.50114200  0.99758100  1
  Cu  Cu30  1  0.16518100  0.17272000  0.99378200  1
  Cu  Cu31  1  0.82982200  0.17017800  0.50000000  1
  Cu  Cu32  1  0.84062900  0.83277200  0.50041000  1
  Cu  Cu33  1  0.82728000  0.83481900  0.00621800  1
  Cu  Cu34  1  0.83813600  0.16186400  0.00000000  1
  Cu  Cu35  1  0.49885800  0.83483500  0.00241900  1
  C  C36  1  0.66284600  0.33080300  0.61431100  1
  C  C37  1  0.64223100  0.67534700  0.38754300  1
  C  C38  1  0.68606400  0.99459600  0.11364600  1
  C  C39  1  0.35757500  0.66034100  0.61188900  1
  C  C40  1  0.67282300  0.33479800  0.88472400  1
  C  C41  1  0.32465300  0.35776900  0.61245700  1
  C  C42  1  0.33440300  0.00573300  0.38555600  1
  C  C43  1  0.33965900  0.64242500  0.38811100  1
  C  C44  1  0.32831800  0.35515900  0.11264700  1
  C  C45  1  0.33205500  0.99560300  0.11200000  1
  C  C46  1  0.02261400  0.32909500  0.61206000  1
  C  C47  1  0.33254300  0.64589400  0.88682900  1
  C  C48  1  0.99939200  0.02395400  0.61297000  1
  C  C49  1  0.99426700  0.66559700  0.61444400  1
  C  C50  1  0.31681900  0.33480700  0.88422700  1
  C  C51  1  0.99575200  0.31321900  0.38794200  1
  C  C52  1  0.00928300  0.66732500  0.38550000  1
  C  C53  1  0.97604600  0.00060800  0.38703000  1
  C  C54  1  0.02841900  0.32942600  0.11012100  1
  C  C55  1  0.99243400  0.66731100  0.11599900  1
  C  C56  1  0.99292600  0.02334300  0.11181700  1
  C  C57  1  0.68678100  0.00424800  0.61205800  1
  C  C58  1  0.00439700  0.66794500  0.88800000  1
  C  C59  1  0.00540400  0.31393600  0.88635400  1
  C  C60  1  0.66693400  0.69181700  0.61178600  1
  C  C61  1  0.97665700  0.00707400  0.88818300  1
  C  C62  1  0.66919700  0.33715400  0.38568900  1
  C  C63  1  0.67090500  0.97738600  0.38794000  1
  C  C64  1  0.66519300  0.68318100  0.11577300  1
  C  C65  1  0.66520200  0.32717700  0.11527600  1
  C  C66  1  0.67057400  0.97158100  0.88987900  1
  C  C67  1  0.33267500  0.99071700  0.61450000  1
  C  C68  1  0.64484100  0.67168200  0.88735300  1
  C  C69  1  0.30818300  0.33306600  0.38821400  1
  C  C70  1  0.35410600  0.66745700  0.11317100  1
  C  C71  1  0.33268900  0.00756600  0.88400100  1
