# generated using pymatgen
data_CuNi3C11
_symmetry_space_group_name_H-M   'P 1'
_cell_length_a   5.88799760
_cell_length_b   10.28823839
_cell_length_c   5.88808274
_cell_angle_alpha   106.63805108
_cell_angle_beta   119.99546348
_cell_angle_gamma   89.99422173
_symmetry_Int_Tables_number   1
_chemical_formula_structural   CuNi3C11
_chemical_formula_sum   'Cu2 Ni6 C22'
_cell_volume   291.54684346
_cell_formula_units_Z   2
loop_
 _symmetry_equiv_pos_site_id
 _symmetry_equiv_pos_as_xyz
  1  'x, y, z'
loop_
 _atom_site_type_symbol
 _atom_site_label
 _atom_site_symmetry_multiplicity
 _atom_site_fract_x
 _atom_site_fract_y
 _atom_site_fract_z
 _atom_site_occupancy
  C  C0  1  0.25000700  0.25002500  0.00002900  1
  C  C1  1  0.74999800  0.74997400  0.99997500  1
  C  C2  1  0.75001600  0.25001700  0.00001300  1
  C  C3  1  0.24998600  0.74998300  0.99999000  1
  C  C4  1  0.25000900  0.25001400  0.49999900  1
  C  C5  1  0.74999600  0.74998600  0.50000400  1
  Ni  Ni6  1  0.49999600  0.99999100  0.99998300  1
  Ni  Ni7  1  0.00000000  0.49999300  0.00000300  1
  Ni  Ni8  1  0.50001100  0.00000000  0.49998800  1
  Ni  Ni9  1  0.00000000  0.50000800  0.49998800  1
  Ni  Ni10  1  0.00000500  0.99999400  0.49998500  1
  Ni  Ni11  1  0.50000400  0.50000500  0.50002100  1
  Cu  Cu12  1  0.50000100  0.50000200  0.00000000  1
  Cu  Cu13  1  0.00000000  0.00000000  0.00000000  1
  C  C14  1  0.37066200  0.11204100  0.74136200  1
  C  C15  1  0.87068000  0.61207200  0.74138400  1
  C  C16  1  0.12931700  0.38792500  0.25862100  1
  C  C17  1  0.62934300  0.88796800  0.25864200  1
  C  C18  1  0.34990000  0.10628200  0.22815500  1
  C  C19  1  0.84992100  0.60623600  0.22810500  1
  C  C20  1  0.87814600  0.10620800  0.22808300  1
  C  C21  1  0.37815300  0.60622700  0.22808200  1
  C  C22  1  0.87814900  0.10630800  0.75640800  1
  C  C23  1  0.37813600  0.60627000  0.75631000  1
  C  C24  1  0.62184600  0.39373700  0.24368300  1
  C  C25  1  0.12185600  0.89369400  0.24361400  1
  C  C26  1  0.62183300  0.39377000  0.77190900  1
  C  C27  1  0.12185800  0.89379600  0.77192200  1
  C  C28  1  0.15007400  0.39375600  0.77190000  1
  C  C29  1  0.65009400  0.89371900  0.77184300  1
