# generated using pymatgen
data_Cu10NiC13
_symmetry_space_group_name_H-M   'P 1'
_cell_length_a   11.61108000
_cell_length_b   7.10197100
_cell_length_c   21.67170849
_cell_angle_alpha   72.09906656
_cell_angle_beta   90.00000000
_cell_angle_gamma   90.00000000
_symmetry_Int_Tables_number   1
_chemical_formula_structural   Cu10NiC13
_chemical_formula_sum   'Cu40 Ni4 C52'
_cell_volume   1700.56899317
_cell_formula_units_Z   4
loop_
 _symmetry_equiv_pos_site_id
 _symmetry_equiv_pos_as_xyz
  1  'x, y, z'
loop_
 _atom_site_type_symbol
 _atom_site_label
 _atom_site_symmetry_multiplicity
 _atom_site_fract_x
 _atom_site_fract_y
 _atom_site_fract_z
 _atom_site_occupancy
  C  C0  1  0.64455800  0.13435900  0.28569300  1
  C  C1  1  0.74447500  0.75735900  0.98008900  1
  C  C2  1  0.24447500  0.24264100  0.51991100  1
  C  C3  1  0.25552500  0.24264100  0.01991100  1
  C  C4  1  0.75552500  0.75735900  0.48008900  1
  C  C5  1  0.85544200  0.13435900  0.78569300  1
  C  C6  1  0.14455800  0.86564100  0.21430700  1
  C  C7  1  0.35544200  0.86564100  0.71430700  1
  Ni  Ni8  1  0.26563000  0.99901800  0.12326600  1
  Ni  Ni9  1  0.76563000  0.00098200  0.37673400  1
  Ni  Ni10  1  0.73437000  0.00098200  0.87673400  1
  Ni  Ni11  1  0.23437000  0.99901800  0.62326600  1
  Cu  Cu12  1  0.46267300  0.78922100  0.65838800  1
  Cu  Cu13  1  0.75122700  0.55446000  0.93844300  1
  Cu  Cu14  1  0.75781800  0.95391900  0.52537800  1
  Cu  Cu15  1  0.57200000  0.87955400  0.30622200  1
  Cu  Cu16  1  0.25047600  0.95028300  0.76950800  1
  Cu  Cu17  1  0.74218200  0.95391900  0.02537800  1
  Cu  Cu18  1  0.53732700  0.21077900  0.34161200  1
  Cu  Cu19  1  0.95849400  0.24190000  0.71454700  1
  Cu  Cu20  1  0.27703500  0.61508300  0.73428900  1
  Cu  Cu21  1  0.90903400  0.77157100  0.97439800  1
  Cu  Cu22  1  0.92800000  0.87955400  0.80622200  1
  Cu  Cu23  1  0.24952400  0.95028300  0.26950800  1
  Cu  Cu24  1  0.74241700  0.55615900  0.56213200  1
  Cu  Cu25  1  0.25781800  0.04608100  0.97462200  1
  Cu  Cu26  1  0.75758300  0.55615900  0.06213200  1
  Cu  Cu27  1  0.24241700  0.44384100  0.93786800  1
  Cu  Cu28  1  0.92048900  0.73993900  0.48504000  1
  Cu  Cu29  1  0.74877300  0.55446000  0.43844300  1
  Cu  Cu30  1  0.75047600  0.04971700  0.73049200  1
  Cu  Cu31  1  0.03732700  0.78922100  0.15838800  1
  Cu  Cu32  1  0.72296500  0.38491700  0.26571100  1
  Cu  Cu33  1  0.22296500  0.61508300  0.23428900  1
  Cu  Cu34  1  0.04150600  0.75810000  0.28545300  1
  Cu  Cu35  1  0.42800000  0.12044600  0.69377800  1
  Cu  Cu36  1  0.77703500  0.38491700  0.76571100  1
  Cu  Cu37  1  0.25122700  0.44554000  0.56155700  1
  Cu  Cu38  1  0.57951100  0.73993900  0.98504000  1
  Cu  Cu39  1  0.07951100  0.26006100  0.51496000  1
  Cu  Cu40  1  0.45849400  0.75810000  0.78545300  1
  Cu  Cu41  1  0.54150600  0.24190000  0.21454700  1
  Cu  Cu42  1  0.07200000  0.12044600  0.19377800  1
  Cu  Cu43  1  0.74952400  0.04971700  0.23049200  1
  Cu  Cu44  1  0.42048900  0.26006100  0.01496000  1
  Cu  Cu45  1  0.25758300  0.44384100  0.43786800  1
  Cu  Cu46  1  0.96267300  0.21077900  0.84161200  1
  Cu  Cu47  1  0.09096600  0.22842900  0.02560200  1
  Cu  Cu48  1  0.59096600  0.77157100  0.47439800  1
  Cu  Cu49  1  0.24218200  0.04608100  0.47462200  1
  Cu  Cu50  1  0.24877300  0.44554000  0.06155700  1
  Cu  Cu51  1  0.40903400  0.22842900  0.52560200  1
  C  C52  1  0.05977200  0.85935700  0.64215300  1
  C  C53  1  0.44022800  0.85935700  0.14215300  1
  C  C54  1  0.94022800  0.14064300  0.35784700  1
  C  C55  1  0.55977200  0.14064300  0.85784700  1
  C  C56  1  0.75904300  0.43095400  0.91387400  1
  C  C57  1  0.74145700  0.06698200  0.05402400  1
  C  C58  1  0.81185000  0.99438700  0.19806300  1
  C  C59  1  0.26527000  0.56514100  0.38802600  1
  C  C60  1  0.96994100  0.72372500  0.81851500  1
  C  C61  1  0.24145700  0.93301800  0.44597600  1
  C  C62  1  0.46994100  0.27627500  0.68148500  1
  C  C63  1  0.47157200  0.25399800  0.37523700  1
  C  C64  1  0.24095700  0.56904600  0.08612600  1
  C  C65  1  0.97157200  0.74600200  0.12476300  1
  C  C66  1  0.75854300  0.06698200  0.55402400  1
  C  C67  1  0.48004500  0.72685500  0.98867800  1
  C  C68  1  0.53005900  0.72372500  0.31851500  1
  C  C69  1  0.68815000  0.99438700  0.69806300  1
  C  C70  1  0.23042200  0.46349300  0.74668400  1
  C  C71  1  0.47954300  0.30998700  0.17138500  1
  C  C72  1  0.74095700  0.43095400  0.41387400  1
  C  C73  1  0.26957800  0.46349300  0.24668400  1
  C  C74  1  0.03005900  0.27627500  0.18148500  1
  C  C75  1  0.25854300  0.93301800  0.94597600  1
  C  C76  1  0.97954300  0.69001300  0.32861500  1
  C  C77  1  0.49090400  0.77284400  0.47199700  1
  C  C78  1  0.23473000  0.56514100  0.88802600  1
  C  C79  1  0.73473000  0.43485900  0.61197400  1
  C  C80  1  0.51995500  0.27314500  0.01132200  1
  C  C81  1  0.25904300  0.56904600  0.58612600  1
  C  C82  1  0.02842800  0.25399800  0.87523700  1
  C  C83  1  0.76527000  0.43485900  0.11197400  1
  C  C84  1  0.73042200  0.53650700  0.75331600  1
  C  C85  1  0.52045700  0.69001300  0.82861500  1
  C  C86  1  0.18815000  0.00561300  0.80193700  1
  C  C87  1  0.99090400  0.22715600  0.02800300  1
  C  C88  1  0.01995500  0.72685500  0.48867800  1
  C  C89  1  0.52842800  0.74600200  0.62476300  1
  C  C90  1  0.31185000  0.00561300  0.30193700  1
  C  C91  1  0.76957800  0.53650700  0.25331600  1
  C  C92  1  0.98004500  0.27314500  0.51132200  1
  C  C93  1  0.00909600  0.77284400  0.97199700  1
  C  C94  1  0.02045700  0.30998700  0.67138500  1
  C  C95  1  0.50909600  0.22715600  0.52800300  1
