# generated using pymatgen
data_Cu2Ni2C11
_symmetry_space_group_name_H-M   'P 1'
_cell_length_a   7.62595500
_cell_length_b   6.47892000
_cell_length_c   6.77447899
_cell_angle_alpha   89.84130154
_cell_angle_beta   90.00000000
_cell_angle_gamma   90.00000000
_symmetry_Int_Tables_number   1
_chemical_formula_structural   Cu2Ni2C11
_chemical_formula_sum   'Cu4 Ni4 C22'
_cell_volume   334.71185115
_cell_formula_units_Z   2
loop_
 _symmetry_equiv_pos_site_id
 _symmetry_equiv_pos_as_xyz
  1  'x, y, z'
loop_
 _atom_site_type_symbol
 _atom_site_label
 _atom_site_symmetry_multiplicity
 _atom_site_fract_x
 _atom_site_fract_y
 _atom_site_fract_z
 _atom_site_occupancy
  C  C0  1  0.25000000  0.17804500  0.58762400  1
  C  C1  1  0.75000000  0.82195500  0.41237600  1
  C  C2  1  0.25000000  0.82491600  0.19973600  1
  C  C3  1  0.75000000  0.17508400  0.80026400  1
  C  C4  1  0.93459300  0.11071300  0.34689100  1
  C  C5  1  0.43459300  0.88928700  0.65310900  1
  C  C6  1  0.06540700  0.88928700  0.65310900  1
  C  C7  1  0.56540700  0.11071300  0.34689100  1
  C  C8  1  0.92763900  0.34176900  0.23727500  1
  C  C9  1  0.42763900  0.65823100  0.76272500  1
  C  C10  1  0.07236100  0.65823100  0.76272500  1
  C  C11  1  0.57236100  0.34176900  0.23727500  1
  C  C12  1  0.92908900  0.13099300  0.09884100  1
  C  C13  1  0.42908900  0.86900700  0.90115900  1
  C  C14  1  0.07091100  0.86900700  0.90115900  1
  C  C15  1  0.57091100  0.13099300  0.09884100  1
  C  C16  1  0.25000000  0.20602400  0.22733000  1
  C  C17  1  0.75000000  0.79397600  0.77267000  1
  Ni  Ni18  1  0.97929600  0.19589500  0.22722400  1
  Ni  Ni19  1  0.47929600  0.80410500  0.77277600  1
  Ni  Ni20  1  0.02070400  0.80410500  0.77277600  1
  Ni  Ni21  1  0.52070400  0.19589500  0.22722400  1
  C  C22  1  0.25000000  0.35477100  0.90933300  1
  C  C23  1  0.75000000  0.64522900  0.09066700  1
  C  C24  1  0.25000000  0.52680400  0.39084400  1
  C  C25  1  0.75000000  0.47319600  0.60915600  1
  Cu  Cu26  1  0.25000000  0.06302800  0.49380500  1
  Cu  Cu27  1  0.75000000  0.93697200  0.50619500  1
  Cu  Cu28  1  0.25000000  0.92824200  0.09236300  1
  Cu  Cu29  1  0.75000000  0.07175800  0.90763700  1
