# generated using pymatgen
data_Cu5NiC5
_symmetry_space_group_name_H-M   'P 1'
_cell_length_a   5.92398341
_cell_length_b   5.92398341
_cell_length_c   12.90041091
_cell_angle_alpha   89.94186283
_cell_angle_beta   89.94186283
_cell_angle_gamma   120.42214519
_symmetry_Int_Tables_number   1
_chemical_formula_structural   Cu5NiC5
_chemical_formula_sum   'Cu15 Ni3 C15'
_cell_volume   390.38917432
_cell_formula_units_Z   3
loop_
 _symmetry_equiv_pos_site_id
 _symmetry_equiv_pos_as_xyz
  1  'x, y, z'
loop_
 _atom_site_type_symbol
 _atom_site_label
 _atom_site_symmetry_multiplicity
 _atom_site_fract_x
 _atom_site_fract_y
 _atom_site_fract_z
 _atom_site_occupancy
  C  C0  1  0.33241400  0.66028200  0.78843800  1
  C  C1  1  0.33327000  0.65472600  0.48486400  1
  C  C2  1  0.00021800  0.66808900  0.62546400  1
  C  C3  1  0.00169200  0.65256000  0.32697800  1
  C  C4  1  0.66808900  0.00021800  0.62546400  1
  C  C5  1  0.00538900  0.00538900  0.79195900  1
  C  C6  1  0.65256000  0.00169200  0.32697800  1
  C  C7  1  0.01098300  0.01098300  0.48613200  1
  C  C8  1  0.99978500  0.99978500  0.17054800  1
  C  C9  1  0.66028200  0.33241400  0.78843800  1
  C  C10  1  0.65472600  0.33327000  0.48486400  1
  C  C11  1  0.35147200  0.35147200  0.32609900  1
  C  C12  1  0.66784300  0.00152100  0.98053000  1
  C  C13  1  0.33671700  0.33671700  0.98069100  1
  C  C14  1  0.00152100  0.66784300  0.98053000  1
  Ni  Ni15  1  0.32812100  0.66143700  0.97087700  1
  Ni  Ni16  1  0.66143700  0.32812100  0.97087700  1
  Ni  Ni17  1  0.99509500  0.99509500  0.96228900  1
  Cu  Cu18  1  0.33268400  0.71431400  0.64903700  1
  Cu  Cu19  1  0.99988700  0.65822400  0.82745100  1
  Cu  Cu20  1  0.00066600  0.67296200  0.48055200  1
  Cu  Cu21  1  0.33404100  0.66861800  0.32707400  1
  Cu  Cu22  1  0.00065400  0.69560400  0.12368400  1
  Cu  Cu23  1  0.65822400  0.99988700  0.82745100  1
  Cu  Cu24  1  0.67296200  0.00066600  0.48055200  1
  Cu  Cu25  1  0.69560400  0.00065400  0.12368400  1
  Cu  Cu26  1  0.95117600  0.95117600  0.65241500  1
  Cu  Cu27  1  0.99924400  0.99924400  0.31292900  1
  Cu  Cu28  1  0.71431400  0.33268400  0.64903700  1
  Cu  Cu29  1  0.34079600  0.34079600  0.82657300  1
  Cu  Cu30  1  0.33018700  0.33018700  0.47753400  1
  Cu  Cu31  1  0.66861800  0.33404100  0.32707400  1
  Cu  Cu32  1  0.30644900  0.30644900  0.12386100  1
