# generated using pymatgen
data_CuNi5C8
_symmetry_space_group_name_H-M   'P 1'
_cell_length_a   5.52784632
_cell_length_b   10.87675631
_cell_length_c   9.71774855
_cell_angle_alpha   91.29520042
_cell_angle_beta   88.50049644
_cell_angle_gamma   87.35062548
_symmetry_Int_Tables_number   1
_chemical_formula_structural   CuNi5C8
_chemical_formula_sum   'Cu4 Ni20 C32'
_cell_volume   583.28966943
_cell_formula_units_Z   4
loop_
 _symmetry_equiv_pos_site_id
 _symmetry_equiv_pos_as_xyz
  1  'x, y, z'
loop_
 _atom_site_type_symbol
 _atom_site_label
 _atom_site_symmetry_multiplicity
 _atom_site_fract_x
 _atom_site_fract_y
 _atom_site_fract_z
 _atom_site_occupancy
  C  C0  1  0.34838700  0.76330900  0.01109100  1
  C  C1  1  0.84838500  0.76332300  0.51109000  1
  C  C2  1  0.21270900  0.63334500  0.18712300  1
  C  C3  1  0.71269600  0.63334300  0.68710700  1
  C  C4  1  0.49620700  0.91151700  0.17480600  1
  C  C5  1  0.99623800  0.91151600  0.67479600  1
  C  C6  1  0.48693400  0.42938200  0.16423200  1
  C  C7  1  0.98690900  0.42937400  0.66427000  1
  C  C8  1  0.82457600  0.75817500  0.13678700  1
  C  C9  1  0.32457200  0.75819800  0.63679000  1
  C  C10  1  0.35333100  0.77425900  0.35937800  1
  C  C11  1  0.85332800  0.77425200  0.85935700  1
  C  C12  1  0.68802300  0.62773900  0.30850800  1
  C  C13  1  0.18799900  0.62774000  0.80850000  1
  C  C14  1  0.10719600  0.27158000  0.15407300  1
  C  C15  1  0.60719600  0.27158300  0.65407500  1
  C  C16  1  0.67571800  0.26448400  0.32740700  1
  C  C17  1  0.17567200  0.26448700  0.82741600  1
  C  C18  1  0.98506500  0.92931800  0.32574600  1
  C  C19  1  0.48502700  0.92931600  0.82572700  1
  C  C20  1  0.00472600  0.41295000  0.34470900  1
  C  C21  1  0.50470300  0.41295400  0.84471500  1
  C  C22  1  0.30523000  0.12945800  0.30485700  1
  C  C23  1  0.80519000  0.12947900  0.80486200  1
  C  C24  1  0.88032900  0.13019400  0.48294800  1
  C  C25  1  0.38025500  0.13018900  0.98294300  1
  C  C26  1  0.20469200  0.26133300  0.49720800  1
  C  C27  1  0.70460700  0.26136700  0.99719400  1
  C  C28  1  0.49407900  0.00233200  0.50645900  1
  C  C29  1  0.98844300  0.50262300  0.00255600  1
  C  C30  1  0.99390000  0.00233500  0.00638600  1
  C  C31  1  0.48841800  0.50259200  0.50251900  1
  Ni  Ni32  1  0.52008600  0.17055300  0.47885700  1
  Ni  Ni33  1  0.01965300  0.17060700  0.97875100  1
  Ni  Ni34  1  0.54384700  0.67070700  0.50109000  1
  Ni  Ni35  1  0.04393200  0.67060000  0.00108300  1
  Ni  Ni36  1  0.13334200  0.45959300  0.16357700  1
  Ni  Ni37  1  0.63330400  0.45960600  0.66350200  1
  Ni  Ni38  1  0.70339200  0.43311300  0.00716500  1
  Ni  Ni39  1  0.20348700  0.43310600  0.50716500  1
  Ni  Ni40  1  0.49852300  0.72507700  0.18446000  1
  Ni  Ni41  1  0.99848200  0.72517800  0.68441000  1
  Ni  Ni42  1  0.84881000  0.93062200  0.14693500  1
  Ni  Ni43  1  0.34883300  0.93060800  0.64700900  1
  Ni  Ni44  1  0.63709600  0.45218400  0.33840600  1
  Ni  Ni45  1  0.13700800  0.45217800  0.83846600  1
  Ni  Ni46  1  0.01532900  0.22648700  0.33848600  1
  Ni  Ni47  1  0.51512400  0.22645500  0.83851200  1
  Ni  Ni48  1  0.31608000  0.95459600  0.00970400  1
  Ni  Ni49  1  0.81614100  0.95456300  0.50973100  1
  Ni  Ni50  1  0.32423500  0.95631100  0.35367300  1
  Ni  Ni51  1  0.82415700  0.95630100  0.85358700  1
  Cu  Cu52  1  0.47296400  0.22265300  0.15789000  1
  Cu  Cu53  1  0.97297900  0.22265100  0.65789700  1
  Cu  Cu54  1  0.99760100  0.72299600  0.32498600  1
  Cu  Cu55  1  0.49752600  0.72298700  0.82493000  1
