# generated using pymatgen
data_CuNiC11
_symmetry_space_group_name_H-M   'P 1'
_cell_length_a   6.47040400
_cell_length_b   8.65031400
_cell_length_c   10.02797152
_cell_angle_alpha   85.61151377
_cell_angle_beta   90.00000000
_cell_angle_gamma   90.00000000
_symmetry_Int_Tables_number   1
_chemical_formula_structural   CuNiC11
_chemical_formula_sum   'Cu4 Ni4 C44'
_cell_volume   559.63028047
_cell_formula_units_Z   4
loop_
 _symmetry_equiv_pos_site_id
 _symmetry_equiv_pos_as_xyz
  1  'x, y, z'
loop_
 _atom_site_type_symbol
 _atom_site_label
 _atom_site_symmetry_multiplicity
 _atom_site_fract_x
 _atom_site_fract_y
 _atom_site_fract_z
 _atom_site_occupancy
  C  C0  1  0.00000000  0.90532500  0.61760500  1
  C  C1  1  0.00000000  0.90372700  0.12051400  1
  C  C2  1  0.22517100  0.72628600  0.87475700  1
  C  C3  1  0.77482900  0.72628600  0.87475700  1
  C  C4  1  0.22560100  0.72614300  0.37517300  1
  C  C5  1  0.77439900  0.72614300  0.37517300  1
  C  C6  1  0.72624900  0.27387900  0.62505400  1
  C  C7  1  0.27375100  0.27387900  0.62505400  1
  C  C8  1  0.72625100  0.27315900  0.12551600  1
  C  C9  1  0.27374900  0.27315900  0.12551600  1
  C  C10  1  0.50000000  0.09755900  0.88058500  1
  C  C11  1  0.50000000  0.09730500  0.38061200  1
  C  C12  1  0.50000000  0.66481200  0.60695600  1
  C  C13  1  0.50000000  0.66449600  0.10694100  1
  C  C14  1  0.00000000  0.33452100  0.89249000  1
  C  C15  1  0.00000000  0.33435300  0.39488200  1
  Ni  Ni16  1  0.00000000  0.58893400  0.64133900  1
  Ni  Ni17  1  0.00000000  0.58625400  0.14104300  1
  Ni  Ni18  1  0.50000000  0.41123600  0.85924600  1
  Ni  Ni19  1  0.50000000  0.41089300  0.35976100  1
  Cu  Cu20  1  0.50000000  0.96829600  0.64690100  1
  Cu  Cu21  1  0.50000000  0.96836200  0.14660300  1
  Cu  Cu22  1  0.00000000  0.03152400  0.85313900  1
  Cu  Cu23  1  0.00000000  0.03477200  0.35076500  1
  C  C24  1  0.50000000  0.93891900  0.52310900  1
  C  C25  1  0.00000000  0.88965400  0.81699400  1
  C  C26  1  0.50000000  0.93870700  0.02280800  1
  C  C27  1  0.50000000  0.85280700  0.73952100  1
  C  C28  1  0.00000000  0.89043600  0.32046700  1
  C  C29  1  0.50000000  0.85291100  0.23931000  1
  C  C30  1  0.18649900  0.68805000  0.58508900  1
  C  C31  1  0.81350100  0.68805000  0.58508900  1
  C  C32  1  0.18631100  0.68716500  0.08741000  1
  C  C33  1  0.81368900  0.68716500  0.08741000  1
  C  C34  1  0.50000000  0.57778700  0.90660200  1
  C  C35  1  0.00000000  0.58063000  0.79663200  1
  C  C36  1  0.50000000  0.57762900  0.40637600  1
  C  C37  1  0.00000000  0.57125300  0.29722900  1
  C  C38  1  0.50000000  0.42090500  0.70391200  1
  C  C39  1  0.00000000  0.42228200  0.59525200  1
  C  C40  1  0.50000000  0.42003000  0.20447900  1
  C  C41  1  0.00000000  0.42204700  0.09089900  1
  C  C42  1  0.31356800  0.31216100  0.91478800  1
  C  C43  1  0.68643200  0.31216100  0.91478800  1
  C  C44  1  0.68728700  0.31228900  0.41534100  1
  C  C45  1  0.31271300  0.31228900  0.41534100  1
  C  C46  1  0.00000000  0.14678200  0.76047200  1
  C  C47  1  0.50000000  0.10997500  0.68251300  1
  C  C48  1  0.00000000  0.14611600  0.25531200  1
  C  C49  1  0.00000000  0.06040100  0.97672100  1
  C  C50  1  0.50000000  0.10992100  0.18222800  1
  C  C51  1  0.00000000  0.07017700  0.47352800  1
