# generated using pymatgen
data_Cu6NiC18
_symmetry_space_group_name_H-M   'P 1'
_cell_length_a   7.97666100
_cell_length_b   9.86328200
_cell_length_c   14.97598000
_cell_angle_alpha   90.00000000
_cell_angle_beta   90.00000000
_cell_angle_gamma   90.00000000
_symmetry_Int_Tables_number   1
_chemical_formula_structural   Cu6NiC18
_chemical_formula_sum   'Cu24 Ni4 C72'
_cell_volume   1178.25105404
_cell_formula_units_Z   4
loop_
 _symmetry_equiv_pos_site_id
 _symmetry_equiv_pos_as_xyz
  1  'x, y, z'
loop_
 _atom_site_type_symbol
 _atom_site_label
 _atom_site_symmetry_multiplicity
 _atom_site_fract_x
 _atom_site_fract_y
 _atom_site_fract_z
 _atom_site_occupancy
  C  C0  1  0.75000000  0.08458600  0.93626100  1
  C  C1  1  0.75000000  0.41541400  0.43626100  1
  C  C2  1  0.00054300  0.50192300  0.75613200  1
  C  C3  1  0.49945700  0.50192300  0.75613200  1
  C  C4  1  0.99945700  0.49807700  0.24386800  1
  C  C5  1  0.50054300  0.49807700  0.24386800  1
  C  C6  1  0.25000000  0.58458600  0.56373900  1
  C  C7  1  0.25000000  0.91541400  0.06373900  1
  C  C8  1  0.99945700  0.00192300  0.74386800  1
  C  C9  1  0.50054300  0.00192300  0.74386800  1
  C  C10  1  0.00054300  0.99807700  0.25613200  1
  C  C11  1  0.49945700  0.99807700  0.25613200  1
  Ni  Ni12  1  0.75000000  0.25392500  0.74808500  1
  Ni  Ni13  1  0.75000000  0.24607500  0.24808500  1
  Ni  Ni14  1  0.25000000  0.75392500  0.75191500  1
  Ni  Ni15  1  0.25000000  0.74607500  0.25191500  1
  Cu  Cu16  1  0.25000000  0.02644700  0.59832900  1
  Cu  Cu17  1  0.25000000  0.02470100  0.40065400  1
  Cu  Cu18  1  0.43877000  0.20791700  0.89949200  1
  Cu  Cu19  1  0.06123000  0.20791700  0.89949200  1
  Cu  Cu20  1  0.05936800  0.20583600  0.10030200  1
  Cu  Cu21  1  0.44063200  0.20583600  0.10030200  1
  Cu  Cu22  1  0.05936800  0.29416400  0.60030200  1
  Cu  Cu23  1  0.44063200  0.29416400  0.60030200  1
  Cu  Cu24  1  0.43877000  0.29208300  0.39949200  1
  Cu  Cu25  1  0.06123000  0.29208300  0.39949200  1
  Cu  Cu26  1  0.25000000  0.47529900  0.90065400  1
  Cu  Cu27  1  0.25000000  0.47355300  0.09832900  1
  Cu  Cu28  1  0.75000000  0.52470100  0.09934600  1
  Cu  Cu29  1  0.75000000  0.52644700  0.90167100  1
  Cu  Cu30  1  0.56123000  0.70791700  0.60050800  1
  Cu  Cu31  1  0.93877000  0.70791700  0.60050800  1
  Cu  Cu32  1  0.94063200  0.70583600  0.39969800  1
  Cu  Cu33  1  0.55936800  0.70583600  0.39969800  1
  Cu  Cu34  1  0.94063200  0.79416400  0.89969800  1
  Cu  Cu35  1  0.56123000  0.79208300  0.10050800  1
  Cu  Cu36  1  0.93877000  0.79208300  0.10050800  1
  Cu  Cu37  1  0.55936800  0.79416400  0.89969800  1
  Cu  Cu38  1  0.75000000  0.97355300  0.40167100  1
  Cu  Cu39  1  0.75000000  0.97529900  0.59934600  1
  C  C40  1  0.75000000  0.04510400  0.50023300  1
  C  C41  1  0.75000000  0.07852800  0.68165900  1
  C  C42  1  0.75000000  0.07524600  0.31867000  1
  C  C43  1  0.41252900  0.12949200  0.60669200  1
  C  C44  1  0.08747100  0.12949200  0.60669200  1
  C  C45  1  0.41389400  0.12698500  0.39172500  1
  C  C46  1  0.08610600  0.12698500  0.39172500  1
  C  C47  1  0.25000000  0.14012500  0.89067400  1
  C  C48  1  0.25000000  0.13302700  0.10214000  1
  C  C49  1  0.92638800  0.14954600  0.82997900  1
  C  C50  1  0.57361200  0.14954600  0.82997900  1
  C  C51  1  0.94069600  0.15479400  0.17928800  1
  C  C52  1  0.55930400  0.15479400  0.17928800  1
  C  C53  1  0.51691100  0.16859000  0.99979900  1
  C  C54  1  0.98308900  0.16859000  0.99979900  1
  C  C55  1  0.51691100  0.33141000  0.49979900  1
  C  C56  1  0.98308900  0.33141000  0.49979900  1
  C  C57  1  0.92638800  0.35045400  0.32997900  1
  C  C58  1  0.94069600  0.34520600  0.67928800  1
  C  C59  1  0.55930400  0.34520600  0.67928800  1
  C  C60  1  0.57361200  0.35045400  0.32997900  1
  C  C61  1  0.25000000  0.36697300  0.60214000  1
  C  C62  1  0.25000000  0.35987500  0.39067400  1
  C  C63  1  0.08610600  0.37301500  0.89172500  1
  C  C64  1  0.41389400  0.37301500  0.89172500  1
  C  C65  1  0.41252900  0.37050800  0.10669200  1
  C  C66  1  0.08747100  0.37050800  0.10669200  1
  C  C67  1  0.75000000  0.42475400  0.81867000  1
  C  C68  1  0.75000000  0.42147200  0.18165900  1
  C  C69  1  0.75000000  0.45489600  0.00023300  1
  C  C70  1  0.25000000  0.54510400  0.99976700  1
  C  C71  1  0.25000000  0.57852800  0.81834100  1
  C  C72  1  0.25000000  0.57524600  0.18133000  1
  C  C73  1  0.91389400  0.62698500  0.10827500  1
  C  C74  1  0.58610600  0.62698500  0.10827500  1
  C  C75  1  0.91252900  0.62949200  0.89330800  1
  C  C76  1  0.58747100  0.62949200  0.89330800  1
  C  C77  1  0.75000000  0.63302700  0.39786000  1
  C  C78  1  0.75000000  0.64012500  0.60932600  1
  C  C79  1  0.44069600  0.65479400  0.32071200  1
  C  C80  1  0.05930400  0.65479400  0.32071200  1
  C  C81  1  0.42638800  0.64954600  0.67002100  1
  C  C82  1  0.07361200  0.64954600  0.67002100  1
  C  C83  1  0.01691100  0.66859000  0.50020100  1
  C  C84  1  0.48308900  0.66859000  0.50020100  1
  C  C85  1  0.01691100  0.83141000  0.00020100  1
  C  C86  1  0.48308900  0.83141000  0.00020100  1
  C  C87  1  0.44069600  0.84520600  0.82071200  1
  C  C88  1  0.05930400  0.84520600  0.82071200  1
  C  C89  1  0.42638800  0.85045400  0.17002100  1
  C  C90  1  0.07361200  0.85045400  0.17002100  1
  C  C91  1  0.75000000  0.86697300  0.89786000  1
  C  C92  1  0.75000000  0.85987500  0.10932600  1
  C  C93  1  0.58747100  0.87050800  0.39330800  1
  C  C94  1  0.58610600  0.87301500  0.60827500  1
  C  C95  1  0.91389400  0.87301500  0.60827500  1
  C  C96  1  0.91252900  0.87050800  0.39330800  1
  C  C97  1  0.25000000  0.92475400  0.68133000  1
  C  C98  1  0.25000000  0.92147200  0.31834100  1
  C  C99  1  0.25000000  0.95489600  0.49976700  1
