# generated using pymatgen
data_Cu4NiC5
_symmetry_space_group_name_H-M   'P 1'
_cell_length_a   15.30625200
_cell_length_b   5.73719000
_cell_length_c   11.26541817
_cell_angle_alpha   71.78737770
_cell_angle_beta   90.00000000
_cell_angle_gamma   90.00000000
_symmetry_Int_Tables_number   1
_chemical_formula_structural   Cu4NiC5
_chemical_formula_sum   'Cu32 Ni8 C40'
_cell_volume   939.71199258
_cell_formula_units_Z   8
loop_
 _symmetry_equiv_pos_site_id
 _symmetry_equiv_pos_as_xyz
  1  'x, y, z'
loop_
 _atom_site_type_symbol
 _atom_site_label
 _atom_site_symmetry_multiplicity
 _atom_site_fract_x
 _atom_site_fract_y
 _atom_site_fract_z
 _atom_site_occupancy
  Ni  Ni0  1  0.79485700  0.62189800  0.76089800  1
  Ni  Ni1  1  0.56057600  0.07095400  0.33062800  1
  Ni  Ni2  1  0.29485700  0.37810200  0.73910200  1
  Ni  Ni3  1  0.06057600  0.92904600  0.16937200  1
  Ni  Ni4  1  0.93942400  0.07095400  0.83062800  1
  Ni  Ni5  1  0.70514300  0.62189800  0.26089800  1
  Ni  Ni6  1  0.43942400  0.92904600  0.66937200  1
  Ni  Ni7  1  0.20514300  0.37810200  0.23910200  1
  Cu  Cu8  1  0.92899300  0.92370400  0.54447000  1
  Cu  Cu9  1  0.15878500  0.80993500  0.61804500  1
  Cu  Cu10  1  0.65847600  0.44508600  0.00928400  1
  Cu  Cu11  1  0.61300200  0.67459900  0.62718900  1
  Cu  Cu12  1  0.92618100  0.38208100  0.02715400  1
  Cu  Cu13  1  0.47123100  0.33927800  0.07463500  1
  Cu  Cu14  1  0.37167100  0.09095300  0.22469600  1
  Cu  Cu15  1  0.11300200  0.32540100  0.87281100  1
  Cu  Cu16  1  0.73713900  0.89508800  0.48186600  1
  Cu  Cu17  1  0.84152400  0.44508600  0.50928400  1
  Cu  Cu18  1  0.65878500  0.19006500  0.88195500  1
  Cu  Cu19  1  0.23713900  0.10491200  0.01813400  1
  Cu  Cu20  1  0.87167100  0.90904700  0.27530400  1
  Cu  Cu21  1  0.57381900  0.38208100  0.52715400  1
  Cu  Cu22  1  0.42899300  0.07629600  0.95553000  1
  Cu  Cu23  1  0.02876900  0.33927800  0.57463500  1
  Cu  Cu24  1  0.97123100  0.66072200  0.42536500  1
  Cu  Cu25  1  0.57100700  0.92370400  0.04447000  1
  Cu  Cu26  1  0.42618100  0.61791900  0.47284600  1
  Cu  Cu27  1  0.12832900  0.09095300  0.72469600  1
  Cu  Cu28  1  0.76286100  0.89508800  0.98186600  1
  Cu  Cu29  1  0.34121500  0.80993500  0.11804500  1
  Cu  Cu30  1  0.15847600  0.55491400  0.49071600  1
  Cu  Cu31  1  0.26286100  0.10491200  0.51813400  1
  Cu  Cu32  1  0.88699800  0.67459900  0.12718900  1
  Cu  Cu33  1  0.62832900  0.90904700  0.77530400  1
  Cu  Cu34  1  0.52876900  0.66072200  0.92536500  1
  Cu  Cu35  1  0.07381900  0.61791900  0.97284600  1
  Cu  Cu36  1  0.38699800  0.32540100  0.37281100  1
  Cu  Cu37  1  0.34152400  0.55491400  0.99071600  1
  Cu  Cu38  1  0.84121500  0.19006500  0.38195500  1
  Cu  Cu39  1  0.07100700  0.07629600  0.45553000  1
  C  C40  1  0.02065500  0.63148900  0.70713000  1
  C  C41  1  0.77965200  0.19766700  0.12355700  1
  C  C42  1  0.52065500  0.36851100  0.79287000  1
  C  C43  1  0.27965200  0.80233300  0.37644300  1
  C  C44  1  0.72034800  0.19766700  0.62355700  1
  C  C45  1  0.47934500  0.63148900  0.20713000  1
  C  C46  1  0.22034800  0.80233300  0.87644300  1
  C  C47  1  0.97934500  0.36851100  0.29287000  1
  C  C48  1  0.20157100  0.44787100  0.96791000  1
  C  C49  1  0.62671500  0.54960600  0.82353500  1
  C  C50  1  0.99232600  0.46001200  0.87835500  1
  C  C51  1  0.43000500  0.45757500  0.89706800  1
  C  C52  1  0.93000500  0.54242500  0.60293200  1
  C  C53  1  0.96311700  0.01286300  0.36640700  1
  C  C54  1  0.75096200  0.05060300  0.30480800  1
  C  C55  1  0.49232600  0.53998800  0.62164500  1
  C  C56  1  0.38697400  0.96977000  0.41519700  1
  C  C57  1  0.12671500  0.45039400  0.67646500  1
  C  C58  1  0.70157100  0.55212900  0.53209000  1
  C  C59  1  0.17899800  0.93795800  0.43973900  1
  C  C60  1  0.67899800  0.06204200  0.06026100  1
  C  C61  1  0.88697400  0.03023000  0.08480300  1
  C  C62  1  0.25096200  0.94939700  0.19519200  1
  C  C63  1  0.46311700  0.98713700  0.13359300  1
  C  C64  1  0.53688300  0.01286300  0.86640700  1
  C  C65  1  0.74903800  0.05060300  0.80480800  1
  C  C66  1  0.11302600  0.96977000  0.91519700  1
  C  C67  1  0.32100200  0.93795800  0.93973900  1
  C  C68  1  0.82100200  0.06204200  0.56026100  1
  C  C69  1  0.29842900  0.44787100  0.46791000  1
  C  C70  1  0.87328500  0.54960600  0.32353500  1
  C  C71  1  0.61302600  0.03023000  0.58480300  1
  C  C72  1  0.50767400  0.46001200  0.37835500  1
  C  C73  1  0.24903800  0.94939700  0.69519200  1
  C  C74  1  0.03688300  0.98713700  0.63359300  1
  C  C75  1  0.06999500  0.45757500  0.39706800  1
  C  C76  1  0.56999500  0.54242500  0.10293200  1
  C  C77  1  0.00767400  0.53998800  0.12164500  1
  C  C78  1  0.37328500  0.45039400  0.17646500  1
  C  C79  1  0.79842900  0.55212900  0.03209000  1
