# generated using pymatgen
data_Cu2NiC18
_symmetry_space_group_name_H-M   'P 1'
_cell_length_a   6.05204900
_cell_length_b   10.35067100
_cell_length_c   14.26905808
_cell_angle_alpha   89.97768650
_cell_angle_beta   90.00000000
_cell_angle_gamma   90.00000000
_symmetry_Int_Tables_number   1
_chemical_formula_structural   Cu2NiC18
_chemical_formula_sum   'Cu8 Ni4 C72'
_cell_volume   893.85322830
_cell_formula_units_Z   4
loop_
 _symmetry_equiv_pos_site_id
 _symmetry_equiv_pos_as_xyz
  1  'x, y, z'
loop_
 _atom_site_type_symbol
 _atom_site_label
 _atom_site_symmetry_multiplicity
 _atom_site_fract_x
 _atom_site_fract_y
 _atom_site_fract_z
 _atom_site_occupancy
  C  C0  1  0.74918400  0.00045400  0.66649900  1
  C  C1  1  0.25063200  0.99960300  0.00026700  1
  C  C2  1  0.74936800  0.99960300  0.00026700  1
  C  C3  1  0.24968000  0.00092800  0.33347800  1
  C  C4  1  0.75032000  0.00092800  0.33347800  1
  C  C5  1  0.25081600  0.00045400  0.66649900  1
  C  C6  1  0.24965800  0.49903500  0.50020700  1
  C  C7  1  0.75034200  0.49903500  0.50020700  1
  C  C8  1  0.24995500  0.49983800  0.16665100  1
  C  C9  1  0.75004500  0.49983800  0.16665100  1
  C  C10  1  0.25053600  0.49943600  0.83306800  1
  C  C11  1  0.74946400  0.49943600  0.83306800  1
  Ni  Ni12  1  0.00000000  0.21890900  0.49231900  1
  Ni  Ni13  1  0.00000000  0.21891700  0.82590000  1
  Ni  Ni14  1  0.50000000  0.28096900  0.32617500  1
  Ni  Ni15  1  0.00000000  0.71854800  0.00739900  1
  Cu  Cu16  1  0.00000000  0.22036600  0.15816000  1
  Cu  Cu17  1  0.50000000  0.27940100  0.65842900  1
  Cu  Cu18  1  0.50000000  0.28066900  0.99123400  1
  Cu  Cu19  1  0.00000000  0.71965600  0.34215600  1
  Cu  Cu20  1  0.00000000  0.72052900  0.67522000  1
  Cu  Cu21  1  0.50000000  0.78016300  0.17531400  1
  Cu  Cu22  1  0.50000000  0.78007200  0.50751300  1
  Cu  Cu23  1  0.50000000  0.78019300  0.84223200  1
  C  C24  1  0.50000000  0.09407000  0.13920300  1
  C  C25  1  0.50000000  0.09396100  0.47217600  1
  C  C26  1  0.50000000  0.09356700  0.80594300  1
  C  C27  1  0.00000000  0.40555700  0.30580500  1
  C  C28  1  0.00000000  0.40608200  0.63915500  1
  C  C29  1  0.00000000  0.40749100  0.97264300  1
  C  C30  1  0.50000000  0.59383600  0.02771800  1
  C  C31  1  0.50000000  0.59184700  0.36045400  1
  C  C32  1  0.50000000  0.59317600  0.69422300  1
  C  C33  1  0.00000000  0.90773200  0.86063900  1
  C  C34  1  0.00000000  0.90609400  0.19415200  1
  C  C35  1  0.00000000  0.90801000  0.52760400  1
  C  C36  1  0.00000000  0.04468300  0.23574400  1
  C  C37  1  0.00000000  0.04723300  0.56923700  1
  C  C38  1  0.00000000  0.04672200  0.90271900  1
  C  C39  1  0.50000000  0.09717300  0.24696600  1
  C  C40  1  0.50000000  0.09460500  0.57998600  1
  C  C41  1  0.50000000  0.09454900  0.91365600  1
  C  C42  1  0.29582400  0.16488300  0.09452100  1
  C  C43  1  0.70417600  0.16488300  0.09452100  1
  C  C44  1  0.29552400  0.16551500  0.42768300  1
  C  C45  1  0.29523000  0.16482800  0.76140200  1
  C  C46  1  0.70447600  0.16551500  0.42768300  1
  C  C47  1  0.70477000  0.16482800  0.76140200  1
  C  C48  1  0.20402600  0.33499800  0.59449000  1
  C  C49  1  0.20493400  0.33501900  0.26097900  1
  C  C50  1  0.20340100  0.33560300  0.92798800  1
  C  C51  1  0.79597400  0.33499800  0.59449000  1
  C  C52  1  0.79659900  0.33560300  0.92798800  1
  C  C53  1  0.79506600  0.33501900  0.26097900  1
  C  C54  1  0.00000000  0.40599900  0.08010600  1
  C  C55  1  0.00000000  0.40251100  0.41378400  1
  C  C56  1  0.00000000  0.40261600  0.74696800  1
  C  C57  1  0.50000000  0.45298400  0.40261100  1
  C  C58  1  0.50000000  0.45502900  0.06965800  1
  C  C59  1  0.50000000  0.45486300  0.73675400  1
  C  C60  1  0.00000000  0.54473500  0.26448600  1
  C  C61  1  0.00000000  0.54653600  0.93032300  1
  C  C62  1  0.00000000  0.54503200  0.59749600  1
  C  C63  1  0.50000000  0.59386300  0.25292900  1
  C  C64  1  0.50000000  0.59496500  0.91987100  1
  C  C65  1  0.50000000  0.59437200  0.58650800  1
  C  C66  1  0.29504700  0.66492900  0.07210800  1
  C  C67  1  0.29633100  0.66337000  0.40517500  1
  C  C68  1  0.70495300  0.66492900  0.07210800  1
  C  C69  1  0.70366900  0.66337000  0.40517500  1
  C  C70  1  0.29595900  0.66479400  0.73844800  1
  C  C71  1  0.70404100  0.66479400  0.73844800  1
  C  C72  1  0.79661900  0.83578100  0.90521300  1
  C  C73  1  0.20338100  0.83578100  0.90521300  1
  C  C74  1  0.79596400  0.83503100  0.23873400  1
  C  C75  1  0.79578600  0.83690800  0.57217900  1
  C  C76  1  0.20403600  0.83503100  0.23873400  1
  C  C77  1  0.20421400  0.83690800  0.57217900  1
  C  C78  1  0.00000000  0.90618300  0.75298100  1
  C  C79  1  0.00000000  0.90276600  0.08617100  1
  C  C80  1  0.00000000  0.90551000  0.42002400  1
  C  C81  1  0.50000000  0.95485300  0.76371400  1
  C  C82  1  0.50000000  0.95527700  0.09745800  1
  C  C83  1  0.50000000  0.95522000  0.42990600  1
