# generated using pymatgen
data_Cu11(NiC3)6
_symmetry_space_group_name_H-M   'P 1'
_cell_length_a   7.99226400
_cell_length_b   13.94545200
_cell_length_c   15.10967033
_cell_angle_alpha   85.10239980
_cell_angle_beta   90.00000000
_cell_angle_gamma   90.00000000
_symmetry_Int_Tables_number   1
_chemical_formula_structural   Cu11(NiC3)6
_chemical_formula_sum   'Cu44 Ni24 C72'
_cell_volume   1677.91068162
_cell_formula_units_Z   4
loop_
 _symmetry_equiv_pos_site_id
 _symmetry_equiv_pos_as_xyz
  1  'x, y, z'
loop_
 _atom_site_type_symbol
 _atom_site_label
 _atom_site_symmetry_multiplicity
 _atom_site_fract_x
 _atom_site_fract_y
 _atom_site_fract_z
 _atom_site_occupancy
  C  C0  1  0.61484100  0.62430800  0.58361500  1
  C  C1  1  0.11484100  0.37569200  0.91638500  1
  C  C2  1  0.38515900  0.37569200  0.41638500  1
  C  C3  1  0.88515900  0.62430800  0.08361500  1
  C  C4  1  0.87139300  0.51452000  0.36827600  1
  C  C5  1  0.37139300  0.48548000  0.13172400  1
  C  C6  1  0.12860700  0.48548000  0.63172400  1
  C  C7  1  0.62860700  0.51452000  0.86827600  1
  C  C8  1  0.93391400  0.87003900  0.58914400  1
  C  C9  1  0.43391400  0.12996100  0.91085600  1
  C  C10  1  0.06608600  0.12996100  0.41085600  1
  C  C11  1  0.56608600  0.87003900  0.08914400  1
  C  C12  1  0.64700700  0.27472200  0.74622200  1
  C  C13  1  0.14700700  0.72527800  0.75377800  1
  C  C14  1  0.35299300  0.72527800  0.25377800  1
  C  C15  1  0.85299300  0.27472200  0.24622200  1
  C  C16  1  0.48361500  0.35765500  0.73885400  1
  C  C17  1  0.98361500  0.64234500  0.76114600  1
  C  C18  1  0.51638500  0.64234500  0.26114600  1
  C  C19  1  0.01638500  0.35765500  0.23885400  1
  C  C20  1  0.81649400  0.25542600  0.62097600  1
  C  C21  1  0.31649400  0.74457400  0.87902400  1
  C  C22  1  0.18350600  0.74457400  0.37902400  1
  C  C23  1  0.68350600  0.25542600  0.12097600  1
  C  C24  1  0.78863700  0.33347200  0.52563200  1
  C  C25  1  0.28863700  0.66652800  0.97436800  1
  C  C26  1  0.21136300  0.66652800  0.47436800  1
  C  C27  1  0.71136300  0.33347200  0.02563200  1
  C  C28  1  0.65659400  0.82379700  0.86352400  1
  C  C29  1  0.15659400  0.17620300  0.63647600  1
  C  C30  1  0.34340600  0.17620300  0.13647600  1
  C  C31  1  0.84340600  0.82379700  0.36352400  1
  C  C32  1  0.72063900  0.74206200  0.79132800  1
  C  C33  1  0.22063900  0.25793800  0.70867200  1
  C  C34  1  0.27936100  0.25793800  0.20867200  1
  C  C35  1  0.77936100  0.74206200  0.29132800  1
  C  C36  1  0.41936800  0.91658400  0.83214900  1
  C  C37  1  0.91936800  0.08341600  0.66785100  1
  C  C38  1  0.58063200  0.08341600  0.16785100  1
  C  C39  1  0.08063200  0.91658400  0.33214900  1
  C  C40  1  0.29685100  0.89596400  0.73852100  1
  C  C41  1  0.79685100  0.10403600  0.76147900  1
  C  C42  1  0.70314900  0.10403600  0.26147900  1
  C  C43  1  0.20314900  0.89596400  0.23852100  1
  C  C44  1  0.44025300  0.96926100  0.36030600  1
  C  C45  1  0.94025300  0.03073900  0.13969400  1
  C  C46  1  0.55974700  0.03073900  0.63969400  1
  C  C47  1  0.05974700  0.96926100  0.86030600  1
  C  C48  1  0.59687400  0.89251700  0.32482300  1
  C  C49  1  0.09687400  0.10748300  0.17517700  1
  C  C50  1  0.40312600  0.10748300  0.67517700  1
  C  C51  1  0.90312600  0.89251700  0.82482300  1
  C  C52  1  0.32405100  0.94154600  0.49797400  1
  C  C53  1  0.82405100  0.05845400  0.00202600  1
  C  C54  1  0.67594900  0.05845400  0.50202600  1
  C  C55  1  0.17594900  0.94154600  0.99797400  1
  C  C56  1  0.40137100  0.84979100  0.57417800  1
  C  C57  1  0.90137100  0.15020900  0.92582200  1
  C  C58  1  0.59862900  0.15020900  0.42582200  1
  C  C59  1  0.09862900  0.84979100  0.07417800  1
  C  C60  1  0.62494300  0.35645300  0.62552600  1
  C  C61  1  0.12494300  0.64354700  0.87447400  1
  C  C62  1  0.37505700  0.64354700  0.37447400  1
  C  C63  1  0.87505700  0.35645300  0.12552600  1
  C  C64  1  0.50916000  0.81415000  0.75172000  1
  C  C65  1  0.00916000  0.18585000  0.74828000  1
  C  C66  1  0.49084000  0.18585000  0.24828000  1
  C  C67  1  0.99084000  0.81415000  0.25172000  1
  C  C68  1  0.51445700  0.85884200  0.45187000  1
  C  C69  1  0.01445700  0.14115800  0.04813000  1
  C  C70  1  0.48554300  0.14115800  0.54813000  1
  C  C71  1  0.98554300  0.85884200  0.95187000  1
  Ni  Ni72  1  0.58234800  0.32675700  0.71003400  1
  Ni  Ni73  1  0.08234800  0.67324300  0.78996600  1
  Ni  Ni74  1  0.41765200  0.67324300  0.28996600  1
  Ni  Ni75  1  0.91765200  0.32675700  0.21003400  1
  Ni  Ni76  1  0.75595500  0.31249300  0.58922100  1
  Ni  Ni77  1  0.25595500  0.68750700  0.91077900  1
  Ni  Ni78  1  0.24404500  0.68750700  0.41077900  1
  Ni  Ni79  1  0.74404500  0.31249300  0.08922100  1
  Ni  Ni80  1  0.65225600  0.80147300  0.80085200  1
  Ni  Ni81  1  0.15225600  0.19852700  0.69914800  1
  Ni  Ni82  1  0.34774400  0.19852700  0.19914800  1
  Ni  Ni83  1  0.84774400  0.80147300  0.30085200  1
  Ni  Ni84  1  0.39695400  0.87876800  0.77870100  1
  Ni  Ni85  1  0.89695400  0.12123200  0.72129900  1
  Ni  Ni86  1  0.60304600  0.12123200  0.22129900  1
  Ni  Ni87  1  0.10304600  0.87876800  0.27870100  1
  Ni  Ni88  1  0.51664400  0.91158600  0.37217300  1
  Ni  Ni89  1  0.01664400  0.08841400  0.12782700  1
  Ni  Ni90  1  0.48335600  0.08841400  0.62782700  1
  Ni  Ni91  1  0.98335600  0.91158600  0.87217300  1
  Ni  Ni92  1  0.40189800  0.88476700  0.51225400  1
  Ni  Ni93  1  0.90189800  0.11523300  0.98774600  1
  Ni  Ni94  1  0.59810200  0.11523300  0.48774600  1
  Ni  Ni95  1  0.09810200  0.88476700  0.01225400  1
  Cu  Cu96  1  0.86010800  0.59088800  0.45420500  1
  Cu  Cu97  1  0.36010800  0.40911200  0.04579500  1
  Cu  Cu98  1  0.13989200  0.40911200  0.54579500  1
  Cu  Cu99  1  0.63989200  0.59088800  0.95420500  1
  Cu  Cu100  1  0.74253500  0.41323500  0.39258500  1
  Cu  Cu101  1  0.24253500  0.58676500  0.10741500  1
  Cu  Cu102  1  0.25746500  0.58676500  0.60741500  1
  Cu  Cu103  1  0.75746500  0.41323500  0.89258500  1
  Cu  Cu104  1  0.07850400  0.47677600  0.35865200  1
  Cu  Cu105  1  0.57850400  0.52322400  0.14134800  1
  Cu  Cu106  1  0.92149600  0.52322400  0.64134800  1
  Cu  Cu107  1  0.42149600  0.47677600  0.85865200  1
  Cu  Cu108  1  0.81225300  0.57920700  0.26805600  1
  Cu  Cu109  1  0.31225300  0.42079300  0.23194400  1
  Cu  Cu110  1  0.18774700  0.42079300  0.73194400  1
  Cu  Cu111  1  0.68774700  0.57920700  0.76805600  1
  Cu  Cu112  1  0.88162300  0.74946600  0.62148300  1
  Cu  Cu113  1  0.38162300  0.25053400  0.87851700  1
  Cu  Cu114  1  0.11837700  0.25053400  0.37851700  1
  Cu  Cu115  1  0.61837700  0.74946600  0.12148300  1
  Cu  Cu116  1  0.98728400  0.88312400  0.47625200  1
  Cu  Cu117  1  0.48728400  0.11687600  0.02374800  1
  Cu  Cu118  1  0.01271600  0.11687600  0.52374800  1
  Cu  Cu119  1  0.51271600  0.88312400  0.97625200  1
  Cu  Cu120  1  0.10522900  0.90247600  0.65321400  1
  Cu  Cu121  1  0.60522900  0.09752400  0.84678600  1
  Cu  Cu122  1  0.89477100  0.09752400  0.34678600  1
  Cu  Cu123  1  0.39477100  0.90247600  0.15321400  1
  Cu  Cu124  1  0.76579600  0.94606000  0.60936000  1
  Cu  Cu125  1  0.26579600  0.05394000  0.89064000  1
  Cu  Cu126  1  0.23420400  0.05394000  0.39064000  1
  Cu  Cu127  1  0.73420400  0.94606000  0.10936000  1
  Cu  Cu128  1  0.54461800  0.42382800  0.58207100  1
  Cu  Cu129  1  0.04461800  0.57617200  0.91792900  1
  Cu  Cu130  1  0.45538200  0.57617200  0.41792900  1
  Cu  Cu131  1  0.95538200  0.42382800  0.08207100  1
  Cu  Cu132  1  0.47947900  0.76869200  0.68476000  1
  Cu  Cu133  1  0.97947900  0.23130800  0.81524000  1
  Cu  Cu134  1  0.52052100  0.23130800  0.31524000  1
  Cu  Cu135  1  0.02052100  0.76869200  0.18476000  1
  Cu  Cu136  1  0.61300400  0.78833400  0.46781000  1
  Cu  Cu137  1  0.11300400  0.21166600  0.03219000  1
  Cu  Cu138  1  0.38699600  0.21166600  0.53219000  1
  Cu  Cu139  1  0.88699600  0.78833400  0.96781000  1
