# generated using pymatgen
data_Cu2NiC4
_symmetry_space_group_name_H-M   'P 1'
_cell_length_a   6.24234218
_cell_length_b   6.24234218
_cell_length_c   11.56174800
_cell_angle_alpha   90.00000000
_cell_angle_beta   90.00000000
_cell_angle_gamma   146.65723719
_symmetry_Int_Tables_number   1
_chemical_formula_structural   Cu2NiC4
_chemical_formula_sum   'Cu4 Ni2 C8'
_cell_volume   247.62933206
_cell_formula_units_Z   2
loop_
 _symmetry_equiv_pos_site_id
 _symmetry_equiv_pos_as_xyz
  1  'x, y, z'
loop_
 _atom_site_type_symbol
 _atom_site_label
 _atom_site_symmetry_multiplicity
 _atom_site_fract_x
 _atom_site_fract_y
 _atom_site_fract_z
 _atom_site_occupancy
  Ni  Ni0  1  0.88853200  0.11146800  0.25000000  1
  Ni  Ni1  1  0.11146800  0.88853200  0.75000000  1
  Cu  Cu2  1  0.63205700  0.36794300  0.42546200  1
  Cu  Cu3  1  0.63205700  0.36794300  0.07453800  1
  Cu  Cu4  1  0.36794300  0.63205700  0.57453800  1
  Cu  Cu5  1  0.36794300  0.63205700  0.92546200  1
  C  C6  1  0.00000000  0.00000000  0.00000000  1
  C  C7  1  0.00000000  0.00000000  0.50000000  1
  C  C8  1  0.53021300  0.46978700  0.25000000  1
  C  C9  1  0.73475600  0.26524400  0.61050200  1
  C  C10  1  0.73475600  0.26524400  0.88949800  1
  C  C11  1  0.46978700  0.53021300  0.75000000  1
  C  C12  1  0.26524400  0.73475600  0.38949800  1
  C  C13  1  0.26524400  0.73475600  0.11050200  1
