# generated using pymatgen
data_Cu7(NiC2)2
_symmetry_space_group_name_H-M   'P 1'
_cell_length_a   6.60875700
_cell_length_b   9.11094600
_cell_length_c   10.70430407
_cell_angle_alpha   78.30365066
_cell_angle_beta   90.00000000
_cell_angle_gamma   90.00000000
_symmetry_Int_Tables_number   1
_chemical_formula_structural   Cu7(NiC2)2
_chemical_formula_sum   'Cu28 Ni8 C16'
_cell_volume   631.14470696
_cell_formula_units_Z   4
loop_
 _symmetry_equiv_pos_site_id
 _symmetry_equiv_pos_as_xyz
  1  'x, y, z'
loop_
 _atom_site_type_symbol
 _atom_site_label
 _atom_site_symmetry_multiplicity
 _atom_site_fract_x
 _atom_site_fract_y
 _atom_site_fract_z
 _atom_site_occupancy
  C  C0  1  0.20611300  0.95171900  0.51544900  1
  C  C1  1  0.29388700  0.95171900  0.01544900  1
  C  C2  1  0.18760300  0.37511300  0.57858000  1
  C  C3  1  0.68760300  0.62488700  0.92142000  1
  C  C4  1  0.31239700  0.37511300  0.07858000  1
  C  C5  1  0.81239700  0.62488700  0.42142000  1
  C  C6  1  0.70611300  0.04828100  0.98455100  1
  C  C7  1  0.79388700  0.04828100  0.48455100  1
  C  C8  1  0.10284500  0.97866500  0.75974900  1
  C  C9  1  0.42055300  0.71633600  0.67502100  1
  C  C10  1  0.39715500  0.97866500  0.25974900  1
  C  C11  1  0.07944700  0.71633600  0.17502100  1
  C  C12  1  0.92055300  0.28366400  0.82497900  1
  C  C13  1  0.60284500  0.02133500  0.74025100  1
  C  C14  1  0.57944700  0.28366400  0.32497900  1
  C  C15  1  0.89715500  0.02133500  0.24025100  1
  Ni  Ni16  1  0.80494900  0.78187600  0.64338600  1
  Ni  Ni17  1  0.75430900  0.32742900  0.55164000  1
  Ni  Ni18  1  0.25430900  0.67257100  0.94836000  1
  Ni  Ni19  1  0.69505100  0.78187600  0.14338600  1
  Ni  Ni20  1  0.30494900  0.21812400  0.85661400  1
  Ni  Ni21  1  0.74569100  0.32742900  0.05164000  1
  Ni  Ni22  1  0.24569100  0.67257100  0.44836000  1
  Ni  Ni23  1  0.19505100  0.21812400  0.35661400  1
  Cu  Cu24  1  0.35870200  0.93743200  0.67131300  1
  Cu  Cu25  1  0.95716900  0.86998800  0.60406600  1
  Cu  Cu26  1  0.71484800  0.70639200  0.57073100  1
  Cu  Cu27  1  0.27510300  0.58872800  0.56196000  1
  Cu  Cu28  1  0.72970400  0.77969600  0.75716700  1
  Cu  Cu29  1  0.17438100  0.80540100  0.92489300  1
  Cu  Cu30  1  0.36564600  0.62134900  0.86740100  1
  Cu  Cu31  1  0.86564600  0.37865100  0.63259900  1
  Cu  Cu32  1  0.14129800  0.93743200  0.17131300  1
  Cu  Cu33  1  0.54283100  0.86998800  0.10406600  1
  Cu  Cu34  1  0.67438100  0.19459900  0.57510700  1
  Cu  Cu35  1  0.78515200  0.70639200  0.07073100  1
  Cu  Cu36  1  0.22489700  0.58872800  0.06196000  1
  Cu  Cu37  1  0.77029600  0.77969600  0.25716700  1
  Cu  Cu38  1  0.22970400  0.22030400  0.74283300  1
  Cu  Cu39  1  0.77510300  0.41127200  0.93804000  1
  Cu  Cu40  1  0.21484800  0.29360800  0.92926900  1
  Cu  Cu41  1  0.32561900  0.80540100  0.42489300  1
  Cu  Cu42  1  0.45716900  0.13001200  0.89593400  1
  Cu  Cu43  1  0.85870200  0.06256800  0.82868700  1
  Cu  Cu44  1  0.13435400  0.62134900  0.36740100  1
  Cu  Cu45  1  0.63435400  0.37865100  0.13259900  1
  Cu  Cu46  1  0.82561900  0.19459900  0.07510700  1
  Cu  Cu47  1  0.27029600  0.22030400  0.24283300  1
  Cu  Cu48  1  0.72489700  0.41127200  0.43804000  1
  Cu  Cu49  1  0.28515200  0.29360800  0.42926900  1
  Cu  Cu50  1  0.04283100  0.13001200  0.39593400  1
  Cu  Cu51  1  0.64129800  0.06256800  0.32868700  1
