# generated using pymatgen
data_Cu6NiC29
_symmetry_space_group_name_H-M   'P 1'
_cell_length_a   8.38817478
_cell_length_b   8.38817478
_cell_length_c   8.38817473
_cell_angle_alpha   62.11949981
_cell_angle_beta   62.11949981
_cell_angle_gamma   62.11949853
_symmetry_Int_Tables_number   1
_chemical_formula_structural   Cu6NiC29
_chemical_formula_sum   'Cu6 Ni1 C29'
_cell_volume   437.10545547
_cell_formula_units_Z   1
loop_
 _symmetry_equiv_pos_site_id
 _symmetry_equiv_pos_as_xyz
  1  'x, y, z'
loop_
 _atom_site_type_symbol
 _atom_site_label
 _atom_site_symmetry_multiplicity
 _atom_site_fract_x
 _atom_site_fract_y
 _atom_site_fract_z
 _atom_site_occupancy
  C  C0  1  0.99904400  0.99904400  0.99904400  1
  C  C1  1  0.35327500  0.35327500  0.35327500  1
  C  C2  1  0.49950900  0.49950900  0.49950900  1
  C  C3  1  0.14545500  0.14545500  0.14545500  1
  C  C4  1  0.64610100  0.64610100  0.64610100  1
  Ni  Ni5  1  0.85369000  0.85369000  0.85369000  1
  Cu  Cu6  1  0.74982800  0.04831300  0.45415600  1
  Cu  Cu7  1  0.04831300  0.45415600  0.74982800  1
  Cu  Cu8  1  0.45415600  0.74982800  0.04831300  1
  Cu  Cu9  1  0.54848500  0.24819900  0.95095600  1
  Cu  Cu10  1  0.95095600  0.54848500  0.24819900  1
  Cu  Cu11  1  0.24819900  0.95095600  0.54848500  1
  C  C12  1  0.89265100  0.49858300  0.67508300  1
  C  C13  1  0.49858300  0.67508300  0.89265100  1
  C  C14  1  0.67508300  0.89265100  0.49858300  1
  C  C15  1  0.90411600  0.05981500  0.25059600  1
  C  C16  1  0.81945200  0.01594700  0.60813100  1
  C  C17  1  0.59563000  0.25200700  0.43471200  1
  C  C18  1  0.05981500  0.25059600  0.90411600  1
  C  C19  1  0.25200700  0.43471200  0.59563000  1
  C  C20  1  0.39303200  0.17427900  0.99475500  1
  C  C21  1  0.43471200  0.59563000  0.25200700  1
  C  C22  1  0.75042000  0.09458600  0.94079000  1
  C  C23  1  0.99475500  0.39303200  0.17427900  1
  C  C24  1  0.01594700  0.60813100  0.81945200  1
  C  C25  1  0.25059600  0.90411600  0.05981500  1
  C  C26  1  0.56315900  0.40249100  0.74825000  1
  C  C27  1  0.60813100  0.81945200  0.01594700  1
  C  C28  1  0.74825000  0.56315900  0.40249100  1
  C  C29  1  0.94079000  0.75042000  0.09458600  1
  C  C30  1  0.40249100  0.74825000  0.56315900  1
  C  C31  1  0.17427900  0.99475500  0.39303200  1
  C  C32  1  0.09458600  0.94079000  0.75042000  1
  C  C33  1  0.32271500  0.10642100  0.50538400  1
  C  C34  1  0.50538400  0.32271500  0.10642100  1
  C  C35  1  0.10642100  0.50538400  0.32271500  1
