# generated using pymatgen
data_CuNiC5
_symmetry_space_group_name_H-M   'P 1'
_cell_length_a   4.68622100
_cell_length_b   9.34484700
_cell_length_c   15.07886123
_cell_angle_alpha   87.62173887
_cell_angle_beta   90.00000000
_cell_angle_gamma   90.00000000
_symmetry_Int_Tables_number   1
_chemical_formula_structural   CuNiC5
_chemical_formula_sum   'Cu2 Ni2 C10'
_cell_volume   659.76498542
_cell_formula_units_Z   2
loop_
 _symmetry_equiv_pos_site_id
 _symmetry_equiv_pos_as_xyz
  1  'x, y, z'
loop_
 _atom_site_type_symbol
 _atom_site_label
 _atom_site_symmetry_multiplicity
 _atom_site_fract_x
 _atom_site_fract_y
 _atom_site_fract_z
 _atom_site_occupancy
  Ni  Ni0  1  0.75000000  0.08170600  0.85851900  1
  Ni  Ni1  1  0.25000000  0.91829400  0.14148100  1
  Cu  Cu2  1  0.25000000  0.41863700  0.65343800  1
  Cu  Cu3  1  0.75000000  0.58136300  0.34656200  1
  C  C4  1  0.25000000  0.07489000  0.67971700  1
  C  C5  1  0.75000000  0.14873700  0.07510500  1
  C  C6  1  0.75000000  0.32008400  0.51449300  1
  C  C7  1  0.25000000  0.35171700  0.86536500  1
  C  C8  1  0.25000000  0.37220600  0.28912800  1
  C  C9  1  0.75000000  0.62779400  0.71087200  1
  C  C10  1  0.75000000  0.64828300  0.13463500  1
  C  C11  1  0.25000000  0.67991600  0.48550700  1
  C  C12  1  0.25000000  0.85126300  0.92489500  1
  C  C13  1  0.75000000  0.92511000  0.32028300  1
