# generated using pymatgen
data_Cu12Ni3C
_symmetry_space_group_name_H-M   'P 1'
_cell_length_a   9.28714209
_cell_length_b   9.28714209
_cell_length_c   5.73330500
_cell_angle_alpha   90.00000000
_cell_angle_beta   90.00000000
_cell_angle_gamma   120.00000061
_symmetry_Int_Tables_number   1
_chemical_formula_structural   Cu12Ni3C
_chemical_formula_sum   'Cu24 Ni6 C2'
_cell_volume   428.25244872
_cell_formula_units_Z   2
loop_
 _symmetry_equiv_pos_site_id
 _symmetry_equiv_pos_as_xyz
  1  'x, y, z'
loop_
 _atom_site_type_symbol
 _atom_site_label
 _atom_site_symmetry_multiplicity
 _atom_site_fract_x
 _atom_site_fract_y
 _atom_site_fract_z
 _atom_site_occupancy
  C  C0  1  0.33333300  0.66666700  0.75000000  1
  C  C1  1  0.66666700  0.33333300  0.25000000  1
  Ni  Ni2  1  0.09066200  0.70821300  0.25000000  1
  Ni  Ni3  1  0.29178700  0.38244900  0.25000000  1
  Ni  Ni4  1  0.61755100  0.90933800  0.25000000  1
  Ni  Ni5  1  0.38244900  0.09066200  0.75000000  1
  Ni  Ni6  1  0.70821300  0.61755100  0.75000000  1
  Ni  Ni7  1  0.90933800  0.29178700  0.75000000  1
  Cu  Cu8  1  0.01993700  0.81241000  0.25000000  1
  Cu  Cu9  1  0.03454800  0.46967800  0.75000000  1
  Cu  Cu10  1  0.19720600  0.74197300  0.04371300  1
  Cu  Cu11  1  0.19720600  0.74197300  0.45628700  1
  Cu  Cu12  1  0.43513000  0.96545200  0.75000000  1
  Cu  Cu13  1  0.25802700  0.45523300  0.45628700  1
  Cu  Cu14  1  0.25802700  0.45523300  0.04371300  1
  Cu  Cu15  1  0.18759000  0.20752800  0.25000000  1
  Cu  Cu16  1  0.54476700  0.80279400  0.04371300  1
  Cu  Cu17  1  0.54476700  0.80279400  0.45628700  1
  Cu  Cu18  1  0.20752800  0.01993700  0.75000000  1
  Cu  Cu19  1  0.46967800  0.43513000  0.25000000  1
  Cu  Cu20  1  0.53032200  0.56487000  0.75000000  1
  Cu  Cu21  1  0.79247200  0.98006300  0.25000000  1
  Cu  Cu22  1  0.45523300  0.19720600  0.54371300  1
  Cu  Cu23  1  0.45523300  0.19720600  0.95628700  1
  Cu  Cu24  1  0.81241000  0.79247200  0.75000000  1
  Cu  Cu25  1  0.74197300  0.54476700  0.54371300  1
  Cu  Cu26  1  0.74197300  0.54476700  0.95628700  1
  Cu  Cu27  1  0.56487000  0.03454800  0.25000000  1
  Cu  Cu28  1  0.80279400  0.25802700  0.95628700  1
  Cu  Cu29  1  0.80279400  0.25802700  0.54371300  1
  Cu  Cu30  1  0.96545200  0.53032200  0.25000000  1
  Cu  Cu31  1  0.98006300  0.18759000  0.75000000  1
