# generated using pymatgen
data_Cu(NiC2)2
_symmetry_space_group_name_H-M   'P 1'
_cell_length_a   5.94614436
_cell_length_b   8.40911700
_cell_length_c   5.94614436
_cell_angle_alpha   90.00000000
_cell_angle_beta   90.00000000
_cell_angle_gamma   90.00000000
_symmetry_Int_Tables_number   1
_chemical_formula_structural   Cu(NiC2)2
_chemical_formula_sum   'Cu4 Ni8 C16'
_cell_volume   297.31806168
_cell_formula_units_Z   4
loop_
 _symmetry_equiv_pos_site_id
 _symmetry_equiv_pos_as_xyz
  1  'x, y, z'
loop_
 _atom_site_type_symbol
 _atom_site_label
 _atom_site_symmetry_multiplicity
 _atom_site_fract_x
 _atom_site_fract_y
 _atom_site_fract_z
 _atom_site_occupancy
  Ni  Ni0  1  0.75000000  0.25000000  0.75000000  1
  Ni  Ni1  1  0.25000000  0.75000000  0.25000000  1
  Ni  Ni2  1  0.75000000  0.25000000  0.25000000  1
  Ni  Ni3  1  0.25000000  0.75000000  0.75000000  1
  Ni  Ni4  1  0.50000000  0.50000000  0.00000000  1
  Ni  Ni5  1  0.00000000  0.00000000  0.50000000  1
  Ni  Ni6  1  0.00000000  0.50000000  0.00000000  1
  Ni  Ni7  1  0.50000000  0.00000000  0.50000000  1
  Cu  Cu8  1  0.75000000  0.62500000  0.50000000  1
  Cu  Cu9  1  0.25000000  0.37500000  0.50000000  1
  Cu  Cu10  1  0.25000000  0.12500000  0.00000000  1
  Cu  Cu11  1  0.75000000  0.87500000  0.00000000  1
  C  C12  1  0.50160200  0.25080100  0.00000000  1
  C  C13  1  0.00160200  0.75080100  0.50000000  1
  C  C14  1  0.99839700  0.25080100  0.00000000  1
  C  C15  1  0.49839700  0.75080100  0.50000000  1
  C  C16  1  0.25000000  0.50080100  0.75160200  1
  C  C17  1  0.75000000  0.00080100  0.25160200  1
  C  C18  1  0.25000000  0.50080100  0.24839800  1
  C  C19  1  0.75000000  0.00080100  0.74839800  1
  C  C20  1  0.75000000  0.49919900  0.75160200  1
  C  C21  1  0.25000000  0.99919900  0.25160200  1
  C  C22  1  0.75000000  0.49919900  0.24839800  1
  C  C23  1  0.25000000  0.99919900  0.74839800  1
  C  C24  1  0.00160300  0.74919900  0.00000000  1
  C  C25  1  0.50160300  0.24919900  0.50000000  1
  C  C26  1  0.49839800  0.74919900  0.00000000  1
  C  C27  1  0.99839800  0.24919900  0.50000000  1
