# generated using pymatgen
data_Cu5Ni4C11
_symmetry_space_group_name_H-M   'P 1'
_cell_length_a   8.03028814
_cell_length_b   8.03028814
_cell_length_c   8.77589551
_cell_angle_alpha   79.65526273
_cell_angle_beta   79.65526273
_cell_angle_gamma   77.88939275
_symmetry_Int_Tables_number   1
_chemical_formula_structural   Cu5Ni4C11
_chemical_formula_sum   'Cu10 Ni8 C22'
_cell_volume   538.37337908
_cell_formula_units_Z   2
loop_
 _symmetry_equiv_pos_site_id
 _symmetry_equiv_pos_as_xyz
  1  'x, y, z'
loop_
 _atom_site_type_symbol
 _atom_site_label
 _atom_site_symmetry_multiplicity
 _atom_site_fract_x
 _atom_site_fract_y
 _atom_site_fract_z
 _atom_site_occupancy
  C  C0  1  0.25465000  0.74535000  0.75000000  1
  C  C1  1  0.74535000  0.25465000  0.25000000  1
  C  C2  1  0.85427100  0.58268900  0.76058100  1
  C  C3  1  0.58268900  0.85427100  0.26058100  1
  C  C4  1  0.78232200  0.41113600  0.77864100  1
  C  C5  1  0.60328600  0.62656800  0.67038200  1
  C  C6  1  0.52577200  0.69883500  0.49802100  1
  C  C7  1  0.41113600  0.78232200  0.27864100  1
  C  C8  1  0.62656800  0.60328600  0.17038200  1
  C  C9  1  0.89173000  0.15770900  0.65985600  1
  C  C10  1  0.84229100  0.10827000  0.84014400  1
  C  C11  1  0.69883500  0.52577200  0.99802100  1
  C  C12  1  0.30116500  0.47422800  0.00197900  1
  C  C13  1  0.15770900  0.89173000  0.15985600  1
  C  C14  1  0.10827000  0.84229100  0.34014400  1
  C  C15  1  0.37343200  0.39671400  0.82961800  1
  C  C16  1  0.58886400  0.21767800  0.72135900  1
  C  C17  1  0.47422800  0.30116500  0.50197900  1
  C  C18  1  0.39671400  0.37343200  0.32961800  1
  C  C19  1  0.21767800  0.58886400  0.22135900  1
  C  C20  1  0.41731100  0.14572900  0.73941900  1
  C  C21  1  0.14572900  0.41731100  0.23941900  1
  Ni  Ni22  1  0.98715000  0.78880000  0.92939900  1
  Ni  Ni23  1  0.78880000  0.98715000  0.42939900  1
  Ni  Ni24  1  0.41129900  0.86648900  0.90188500  1
  Ni  Ni25  1  0.86648900  0.41129900  0.40188500  1
  Ni  Ni26  1  0.13351100  0.58870100  0.59811500  1
  Ni  Ni27  1  0.58870100  0.13351100  0.09811500  1
  Ni  Ni28  1  0.21120000  0.01285000  0.57060100  1
  Ni  Ni29  1  0.01285000  0.21120000  0.07060100  1
  Cu  Cu30  1  0.74903500  0.53413700  0.79657600  1
  Cu  Cu31  1  0.53413700  0.74903500  0.29657600  1
  Cu  Cu32  1  0.50006700  0.65933400  0.61361500  1
  Cu  Cu33  1  0.80812100  0.19187900  0.75000000  1
  Cu  Cu34  1  0.65933400  0.50006700  0.11361500  1
  Cu  Cu35  1  0.34066600  0.49993300  0.88638500  1
  Cu  Cu36  1  0.19187900  0.80812100  0.25000000  1
  Cu  Cu37  1  0.49993300  0.34066600  0.38638500  1
  Cu  Cu38  1  0.46586300  0.25096500  0.70342400  1
  Cu  Cu39  1  0.25096500  0.46586300  0.20342400  1
