# generated using pymatgen
data_Cu4NiC12
_symmetry_space_group_name_H-M   'P 1'
_cell_length_a   9.94752500
_cell_length_b   7.22924200
_cell_length_c   14.15195629
_cell_angle_alpha   67.48612622
_cell_angle_beta   90.00000000
_cell_angle_gamma   90.00000000
_symmetry_Int_Tables_number   1
_chemical_formula_structural   Cu4NiC12
_chemical_formula_sum   'Cu16 Ni4 C48'
_cell_volume   940.14762363
_cell_formula_units_Z   4
loop_
 _symmetry_equiv_pos_site_id
 _symmetry_equiv_pos_as_xyz
  1  'x, y, z'
loop_
 _atom_site_type_symbol
 _atom_site_label
 _atom_site_symmetry_multiplicity
 _atom_site_fract_x
 _atom_site_fract_y
 _atom_site_fract_z
 _atom_site_occupancy
  C  C0  1  0.85674900  0.98877200  0.39275300  1
  C  C1  1  0.09629500  0.56341700  0.76287800  1
  C  C2  1  0.59629500  0.43658300  0.73712200  1
  C  C3  1  0.35674900  0.01122800  0.10724700  1
  C  C4  1  0.64325100  0.98877200  0.89275300  1
  C  C5  1  0.40370500  0.56341700  0.26287800  1
  C  C6  1  0.90370500  0.43658300  0.23712200  1
  C  C7  1  0.14325100  0.01122800  0.60724700  1
  Ni  Ni8  1  0.86196300  0.79418900  0.64333800  1
  Ni  Ni9  1  0.36196300  0.20581100  0.85666200  1
  Ni  Ni10  1  0.63803700  0.79418900  0.14333800  1
  Ni  Ni11  1  0.13803700  0.20581100  0.35666200  1
  Cu  Cu12  1  0.72805300  0.64103000  0.85795100  1
  Cu  Cu13  1  0.44739000  0.67273000  0.83133600  1
  Cu  Cu14  1  0.02452200  0.08617500  0.17352400  1
  Cu  Cu15  1  0.26659800  0.78098000  0.46447900  1
  Cu  Cu16  1  0.76659800  0.21902000  0.03552100  1
  Cu  Cu17  1  0.52452200  0.91382500  0.32647600  1
  Cu  Cu18  1  0.77194700  0.64103000  0.35795100  1
  Cu  Cu19  1  0.05261000  0.67273000  0.33133600  1
  Cu  Cu20  1  0.94739000  0.32727000  0.66866400  1
  Cu  Cu21  1  0.22805300  0.35897000  0.64204900  1
  Cu  Cu22  1  0.47547800  0.08617500  0.67352400  1
  Cu  Cu23  1  0.23340200  0.78098000  0.96447900  1
  Cu  Cu24  1  0.73340200  0.21902000  0.53552100  1
  Cu  Cu25  1  0.97547800  0.91382500  0.82647600  1
  Cu  Cu26  1  0.55261000  0.32727000  0.16866400  1
  Cu  Cu27  1  0.27194700  0.35897000  0.14204900  1
  C  C28  1  0.55319500  0.15539500  0.28571400  1
  C  C29  1  0.69415100  0.29581000  0.11843300  1
  C  C30  1  0.18220900  0.96064800  0.47961800  1
  C  C31  1  0.97501700  0.15350700  0.26572100  1
  C  C32  1  0.41826700  0.28893000  0.10594300  1
  C  C33  1  0.71536700  0.65416300  0.74222700  1
  C  C34  1  0.17206500  0.18948500  0.12647000  1
  C  C35  1  0.41937300  0.84944800  0.42222800  1
  C  C36  1  0.77835300  0.41594100  0.92925100  1
  C  C37  1  0.91937300  0.15055200  0.07777200  1
  C  C38  1  0.67206500  0.81051500  0.37353000  1
  C  C39  1  0.96507600  0.54768900  0.66695000  1
  C  C40  1  0.46507600  0.45231100  0.83305000  1
  C  C41  1  0.27835300  0.58405900  0.57074900  1
  C  C42  1  0.91826700  0.71107000  0.39405700  1
  C  C43  1  0.47501700  0.84649300  0.23427900  1
  C  C44  1  0.68220900  0.03935200  0.02038200  1
  C  C45  1  0.19415100  0.70419000  0.38156700  1
  C  C46  1  0.05319500  0.84460500  0.21428600  1
  C  C47  1  0.21536700  0.34583700  0.75777300  1
  C  C48  1  0.78463300  0.65416300  0.24222700  1
  C  C49  1  0.94680500  0.15539500  0.78571400  1
  C  C50  1  0.80584900  0.29581000  0.61843300  1
  C  C51  1  0.31779100  0.96064800  0.97961800  1
  C  C52  1  0.52498300  0.15350700  0.76572100  1
  C  C53  1  0.08173300  0.28893000  0.60594300  1
  C  C54  1  0.72164700  0.41594100  0.42925100  1
  C  C55  1  0.53492400  0.54768900  0.16695000  1
  C  C56  1  0.03492400  0.45231100  0.33305000  1
  C  C57  1  0.32793500  0.18948500  0.62647000  1
  C  C58  1  0.08062700  0.84944800  0.92222800  1
  C  C59  1  0.22164700  0.58405900  0.07074900  1
  C  C60  1  0.58062700  0.15055200  0.57777200  1
  C  C61  1  0.82793500  0.81051500  0.87353000  1
  C  C62  1  0.28463300  0.34583700  0.25777300  1
  C  C63  1  0.58173300  0.71107000  0.89405700  1
  C  C64  1  0.02498300  0.84649300  0.73427900  1
  C  C65  1  0.81779100  0.03935200  0.52038200  1
  C  C66  1  0.30584900  0.70419000  0.88156700  1
  C  C67  1  0.44680500  0.84460500  0.71428600  1
