# generated using pymatgen
data_CuNiC5
_symmetry_space_group_name_H-M   'P 1'
_cell_length_a   8.78220917
_cell_length_b   8.78220917
_cell_length_c   8.30091800
_cell_angle_alpha   90.00000000
_cell_angle_beta   90.00000000
_cell_angle_gamma   119.99999373
_symmetry_Int_Tables_number   1
_chemical_formula_structural   CuNiC5
_chemical_formula_sum   'Cu6 Ni6 C30'
_cell_volume   554.45248720
_cell_formula_units_Z   6
loop_
 _symmetry_equiv_pos_site_id
 _symmetry_equiv_pos_as_xyz
  1  'x, y, z'
loop_
 _atom_site_type_symbol
 _atom_site_label
 _atom_site_symmetry_multiplicity
 _atom_site_fract_x
 _atom_site_fract_y
 _atom_site_fract_z
 _atom_site_occupancy
  C  C0  1  0.33333300  0.66666700  0.98498600  1
  C  C1  1  0.33333300  0.66666700  0.55072900  1
  C  C2  1  0.00000000  0.00000000  0.81586000  1
  C  C3  1  0.00000000  0.00000000  0.31586000  1
  C  C4  1  0.66666700  0.33333300  0.48498600  1
  C  C5  1  0.66666700  0.33333300  0.05072900  1
  Ni  Ni6  1  0.04463300  0.68671400  0.26374600  1
  Ni  Ni7  1  0.31328600  0.35791900  0.26374600  1
  Ni  Ni8  1  0.64208100  0.95536700  0.26374600  1
  Ni  Ni9  1  0.35791900  0.04463300  0.76374600  1
  Ni  Ni10  1  0.68671400  0.64208100  0.76374600  1
  Ni  Ni11  1  0.95536700  0.31328600  0.76374600  1
  Cu  Cu12  1  0.03979700  0.68381800  0.88176000  1
  Cu  Cu13  1  0.31618200  0.35597900  0.88176000  1
  Cu  Cu14  1  0.64402100  0.96020300  0.88176000  1
  Cu  Cu15  1  0.35597900  0.03979700  0.38176000  1
  Cu  Cu16  1  0.68381800  0.64402100  0.38176000  1
  Cu  Cu17  1  0.96020300  0.31618200  0.38176000  1
  C  C18  1  0.11218800  0.87323900  0.78747400  1
  C  C19  1  0.14318800  0.72447400  0.05601700  1
  C  C20  1  0.09838500  0.55883600  0.78330600  1
  C  C21  1  0.24075900  0.82377900  0.40444000  1
  C  C22  1  0.17622100  0.41698100  0.40444000  1
  C  C23  1  0.12676100  0.23894800  0.78747400  1
  C  C24  1  0.46045100  0.90161500  0.78330600  1
  C  C25  1  0.27552600  0.41871400  0.05601700  1
  C  C26  1  0.58128600  0.85681200  0.05601700  1
  C  C27  1  0.23894800  0.11218800  0.28747400  1
  C  C28  1  0.44116400  0.53954900  0.78330600  1
  C  C29  1  0.58301900  0.75924100  0.40444000  1
  C  C30  1  0.41698100  0.24075900  0.90444000  1
  C  C31  1  0.55883600  0.46045100  0.28330600  1
  C  C32  1  0.76105200  0.88781200  0.78747400  1
  C  C33  1  0.41871400  0.14318800  0.55601700  1
  C  C34  1  0.72447400  0.58128600  0.55601700  1
  C  C35  1  0.53954900  0.09838500  0.28330600  1
  C  C36  1  0.87323900  0.76105200  0.28747400  1
  C  C37  1  0.82377900  0.58301900  0.90444000  1
  C  C38  1  0.75924100  0.17622100  0.90444000  1
  C  C39  1  0.90161500  0.44116400  0.28330600  1
  C  C40  1  0.85681200  0.27552600  0.55601700  1
  C  C41  1  0.88781200  0.12676100  0.28747400  1
