# generated using pymatgen
data_Cu3Ni3C22
_symmetry_space_group_name_H-M   'P 1'
_cell_length_a   6.00950564
_cell_length_b   6.00950564
_cell_length_c   9.80115848
_cell_angle_alpha   89.35018981
_cell_angle_beta   89.35018981
_cell_angle_gamma   59.88444170
_symmetry_Int_Tables_number   1
_chemical_formula_structural   Cu3Ni3C22
_chemical_formula_sum   'Cu3 Ni3 C22'
_cell_volume   306.15506449
_cell_formula_units_Z   1
loop_
 _symmetry_equiv_pos_site_id
 _symmetry_equiv_pos_as_xyz
  1  'x, y, z'
loop_
 _atom_site_type_symbol
 _atom_site_label
 _atom_site_symmetry_multiplicity
 _atom_site_fract_x
 _atom_site_fract_y
 _atom_site_fract_z
 _atom_site_occupancy
  C  C0  1  0.66763900  0.66763900  0.09465200  1
  C  C1  1  0.99871600  0.99871600  0.01203200  1
  C  C2  1  0.99942200  0.99942200  0.51253300  1
  C  C3  1  0.33385300  0.33385300  0.59643700  1
  Ni  Ni4  1  0.82977600  0.82977600  0.78947200  1
  Ni  Ni5  1  0.17062400  0.66147300  0.28845000  1
  Ni  Ni6  1  0.66147300  0.17062400  0.28845000  1
  Cu  Cu7  1  0.33940000  0.83153000  0.78620500  1
  Cu  Cu8  1  0.83153000  0.33940000  0.78620500  1
  Cu  Cu9  1  0.17017200  0.17017200  0.28484800  1
  C  C10  1  0.66633100  0.66633100  0.51529200  1
  C  C11  1  0.33405800  0.33405800  0.01426500  1
  C  C12  1  0.33531700  0.83813900  0.40576700  1
  C  C13  1  0.51696700  0.51696700  0.65407600  1
  C  C14  1  0.67002400  0.67002400  0.88941000  1
  C  C15  1  0.99467300  0.99467300  0.69967100  1
  C  C16  1  0.99530100  0.99530100  0.20104900  1
  C  C17  1  0.83813900  0.33531700  0.40576700  1
  C  C18  1  0.50945300  0.96360700  0.65125100  1
  C  C19  1  0.96360700  0.50945300  0.65125100  1
  C  C20  1  0.16774100  0.16774100  0.90437700  1
  C  C21  1  0.83341400  0.83341400  0.41035500  1
  C  C22  1  0.03515000  0.47614000  0.15224300  1
  C  C23  1  0.47614000  0.03515000  0.15224300  1
  C  C24  1  0.33917900  0.33917900  0.38570800  1
  C  C25  1  0.17159000  0.66554500  0.90624800  1
  C  C26  1  0.48308200  0.48308200  0.14769800  1
  C  C27  1  0.66554500  0.17159000  0.90624800  1
