# generated using pymatgen
data_Cu5NiC5
_symmetry_space_group_name_H-M   'P 1'
_cell_length_a   7.23231000
_cell_length_b   7.64689500
_cell_length_c   16.12397400
_cell_angle_alpha   90.00000000
_cell_angle_beta   90.00000000
_cell_angle_gamma   90.00000000
_symmetry_Int_Tables_number   1
_chemical_formula_structural   Cu5NiC5
_chemical_formula_sum   'Cu40 Ni8 C40'
_cell_volume   891.73178960
_cell_formula_units_Z   8
loop_
 _symmetry_equiv_pos_site_id
 _symmetry_equiv_pos_as_xyz
  1  'x, y, z'
loop_
 _atom_site_type_symbol
 _atom_site_label
 _atom_site_symmetry_multiplicity
 _atom_site_fract_x
 _atom_site_fract_y
 _atom_site_fract_z
 _atom_site_occupancy
  C  C0  1  0.74822900  0.58646600  0.48150100  1
  C  C1  1  0.25177100  0.08646600  0.51849900  1
  C  C2  1  0.24822900  0.08646600  0.01849900  1
  C  C3  1  0.75177100  0.58646600  0.98150100  1
  C  C4  1  0.59388200  0.54018900  0.55729900  1
  C  C5  1  0.40611800  0.04018900  0.44270100  1
  C  C6  1  0.09388200  0.04018900  0.94270100  1
  C  C7  1  0.90611800  0.54018900  0.05729900  1
  C  C8  1  0.69666200  0.37406400  0.50530700  1
  C  C9  1  0.30333800  0.87406400  0.49469300  1
  C  C10  1  0.19666200  0.87406400  0.99469300  1
  C  C11  1  0.80333800  0.37406400  0.00530700  1
  C  C12  1  0.03386500  0.96145100  0.43725100  1
  C  C13  1  0.96613500  0.46145100  0.56274900  1
  C  C14  1  0.53386500  0.46145100  0.06274900  1
  C  C15  1  0.46613500  0.96145100  0.93725100  1
  C  C16  1  0.79182000  0.42941500  0.72917600  1
  C  C17  1  0.20818000  0.92941500  0.27082400  1
  C  C18  1  0.29182000  0.92941500  0.77082400  1
  C  C19  1  0.70818000  0.42941500  0.22917600  1
  C  C20  1  0.84392800  0.22128800  0.76034500  1
  C  C21  1  0.15607200  0.72128800  0.23965500  1
  C  C22  1  0.34392800  0.72128800  0.73965500  1
  C  C23  1  0.65607200  0.22128800  0.26034500  1
  C  C24  1  0.95828400  0.39231300  0.80106800  1
  C  C25  1  0.04171600  0.89231300  0.19893200  1
  C  C26  1  0.45828400  0.89231300  0.69893200  1
  C  C27  1  0.54171600  0.39231300  0.30106800  1
  C  C28  1  0.41551800  0.82938000  0.17692000  1
  C  C29  1  0.58448200  0.32938000  0.82308000  1
  C  C30  1  0.91551800  0.32938000  0.32308000  1
  C  C31  1  0.08448200  0.82938000  0.67692000  1
  Ni  Ni32  1  0.71484200  0.49974300  0.52862700  1
  Ni  Ni33  1  0.28515800  0.99974300  0.47137300  1
  Ni  Ni34  1  0.21484200  0.99974300  0.97137300  1
  Ni  Ni35  1  0.78515800  0.49974300  0.02862700  1
  Ni  Ni36  1  0.83125900  0.35079000  0.77840700  1
  Ni  Ni37  1  0.16874100  0.85079000  0.22159300  1
  Ni  Ni38  1  0.33125900  0.85079000  0.72159300  1
  Ni  Ni39  1  0.66874100  0.35079000  0.27840700  1
  C  C40  1  0.64967800  0.85255100  0.31721200  1
  C  C41  1  0.35032200  0.35255100  0.68278800  1
  C  C42  1  0.14967800  0.35255100  0.18278800  1
  C  C43  1  0.85032200  0.85255100  0.81721200  1
  C  C44  1  0.74551700  0.99993500  0.06459300  1
  C  C45  1  0.25448300  0.49993500  0.93540700  1
  C  C46  1  0.24551700  0.49993500  0.43540700  1
  C  C47  1  0.75448300  0.99993500  0.56459300  1
  Cu  Cu48  1  0.51348500  0.99651800  0.31604700  1
  Cu  Cu49  1  0.48651500  0.49651900  0.68395300  1
  Cu  Cu50  1  0.01348500  0.49651900  0.18395300  1
  Cu  Cu51  1  0.98651500  0.99651800  0.81604700  1
  Cu  Cu52  1  0.61012800  0.73564500  0.24714700  1
  Cu  Cu53  1  0.38987200  0.23564500  0.75285300  1
  Cu  Cu54  1  0.11012800  0.23564500  0.25285300  1
  Cu  Cu55  1  0.88987200  0.73564500  0.74714700  1
  Cu  Cu56  1  0.83458000  0.92597300  0.30913400  1
  Cu  Cu57  1  0.16542000  0.42597300  0.69086600  1
  Cu  Cu58  1  0.33458000  0.42597300  0.19086600  1
  Cu  Cu59  1  0.66542000  0.92597300  0.80913400  1
  Cu  Cu60  1  0.63220300  0.75676400  0.39463300  1
  Cu  Cu61  1  0.36779700  0.25676400  0.60536700  1
  Cu  Cu62  1  0.13220300  0.25676400  0.10536700  1
  Cu  Cu63  1  0.86779700  0.75676400  0.89463300  1
  Cu  Cu64  1  0.59000700  0.89326200  0.03443900  1
  Cu  Cu65  1  0.40999300  0.39326200  0.96556100  1
  Cu  Cu66  1  0.09000700  0.39326200  0.46556100  1
  Cu  Cu67  1  0.90999300  0.89326200  0.53443900  1
  Cu  Cu68  1  0.90044400  0.88415600  0.08453900  1
  Cu  Cu69  1  0.09955600  0.38415600  0.91546100  1
  Cu  Cu70  1  0.40044400  0.38415600  0.41546100  1
  Cu  Cu71  1  0.59955600  0.88415600  0.58453900  1
  Cu  Cu72  1  0.68863900  0.09685000  0.13760100  1
  Cu  Cu73  1  0.31136100  0.59685000  0.86239900  1
  Cu  Cu74  1  0.18863900  0.59685000  0.36239900  1
  Cu  Cu75  1  0.81136100  0.09685000  0.63760100  1
  Cu  Cu76  1  0.80145500  0.12120500  0.99862600  1
  Cu  Cu77  1  0.19854500  0.62120500  0.00137400  1
  Cu  Cu78  1  0.30145500  0.62120500  0.50137400  1
  Cu  Cu79  1  0.69854500  0.12120500  0.49862600  1
  Cu  Cu80  1  0.85138300  0.49940600  0.59158900  1
  Cu  Cu81  1  0.14861700  0.99940600  0.40841100  1
  Cu  Cu82  1  0.35138300  0.99940600  0.90841100  1
  Cu  Cu83  1  0.64861700  0.49940600  0.09158900  1
  Cu  Cu84  1  0.70623900  0.36733500  0.84540600  1
  Cu  Cu85  1  0.29376100  0.86733500  0.15459400  1
  Cu  Cu86  1  0.20623900  0.86733500  0.65459400  1
  Cu  Cu87  1  0.79376100  0.36733500  0.34540600  1
