# generated using pymatgen
data_Cu12Ni2C5
_symmetry_space_group_name_H-M   'P 1'
_cell_length_a   10.01384500
_cell_length_b   10.01384500
_cell_length_c   10.01384500
_cell_angle_alpha   90.00000000
_cell_angle_beta   90.00000000
_cell_angle_gamma   90.00000000
_symmetry_Int_Tables_number   1
_chemical_formula_structural   Cu12Ni2C5
_chemical_formula_sum   'Cu48 Ni8 C20'
_cell_volume   1004.15925317
_cell_formula_units_Z   4
loop_
 _symmetry_equiv_pos_site_id
 _symmetry_equiv_pos_as_xyz
  1  'x, y, z'
loop_
 _atom_site_type_symbol
 _atom_site_label
 _atom_site_symmetry_multiplicity
 _atom_site_fract_x
 _atom_site_fract_y
 _atom_site_fract_z
 _atom_site_occupancy
  C  C0  1  0.23322100  0.37669400  0.96130500  1
  C  C1  1  0.03869500  0.73322100  0.12330600  1
  C  C2  1  0.87669400  0.53869500  0.76677900  1
  C  C3  1  0.73322100  0.12330600  0.03869500  1
  C  C4  1  0.53869500  0.76677900  0.87669400  1
  C  C5  1  0.37669400  0.96130500  0.23322100  1
  C  C6  1  0.76677900  0.87669400  0.53869500  1
  C  C7  1  0.96130500  0.23322100  0.37669400  1
  C  C8  1  0.12330600  0.03869500  0.73322100  1
  C  C9  1  0.26677900  0.62330600  0.46130500  1
  C  C10  1  0.46130500  0.26677900  0.62330600  1
  C  C11  1  0.62330600  0.46130500  0.26677900  1
  C  C12  1  0.91519900  0.41519900  0.08480100  1
  C  C13  1  0.41519900  0.08480100  0.91519900  1
  C  C14  1  0.08480100  0.91519900  0.41519900  1
  C  C15  1  0.58480100  0.58480100  0.58480100  1
  C  C16  1  0.65007400  0.15007400  0.34992600  1
  C  C17  1  0.15007400  0.34992600  0.65007400  1
  C  C18  1  0.34992600  0.65007400  0.15007400  1
  C  C19  1  0.84992600  0.84992600  0.84992600  1
  Ni  Ni20  1  0.42441800  0.92441800  0.57558200  1
  Ni  Ni21  1  0.92441800  0.57558200  0.42441800  1
  Ni  Ni22  1  0.57558200  0.42441800  0.92441800  1
  Ni  Ni23  1  0.07558200  0.07558200  0.07558200  1
  Ni  Ni24  1  0.21323200  0.71323200  0.78676800  1
  Ni  Ni25  1  0.71323200  0.78676800  0.21323200  1
  Ni  Ni26  1  0.78676800  0.21323200  0.71323200  1
  Ni  Ni27  1  0.28676800  0.28676800  0.28676800  1
  Cu  Cu28  1  0.08386300  0.35254500  0.99720600  1
  Cu  Cu29  1  0.00279400  0.58386300  0.14745500  1
  Cu  Cu30  1  0.85254500  0.50279400  0.91613700  1
  Cu  Cu31  1  0.58386300  0.14745500  0.00279400  1
  Cu  Cu32  1  0.50279400  0.91613700  0.85254500  1
  Cu  Cu33  1  0.35254500  0.99720600  0.08386300  1
  Cu  Cu34  1  0.91613700  0.85254500  0.50279400  1
  Cu  Cu35  1  0.99720600  0.08386300  0.35254500  1
  Cu  Cu36  1  0.14745500  0.00279400  0.58386300  1
  Cu  Cu37  1  0.41613700  0.64745500  0.49720600  1
  Cu  Cu38  1  0.49720600  0.41613700  0.64745500  1
  Cu  Cu39  1  0.64745500  0.49720600  0.41613700  1
  Cu  Cu40  1  0.31140900  0.24322100  0.98476500  1
  Cu  Cu41  1  0.01523500  0.81140900  0.25677900  1
  Cu  Cu42  1  0.74322100  0.51523500  0.68859100  1
  Cu  Cu43  1  0.81140900  0.25677900  0.01523500  1
  Cu  Cu44  1  0.51523500  0.68859100  0.74322100  1
  Cu  Cu45  1  0.24322100  0.98476500  0.31140900  1
  Cu  Cu46  1  0.68859100  0.74322100  0.51523500  1
  Cu  Cu47  1  0.98476500  0.31140900  0.24322100  1
  Cu  Cu48  1  0.25677900  0.01523500  0.81140900  1
  Cu  Cu49  1  0.18859100  0.75677900  0.48476500  1
  Cu  Cu50  1  0.48476500  0.18859100  0.75677900  1
  Cu  Cu51  1  0.75677900  0.48476500  0.18859100  1
  Cu  Cu52  1  0.24340700  0.42150000  0.81133100  1
  Cu  Cu53  1  0.18866900  0.74340700  0.07850000  1
  Cu  Cu54  1  0.92150000  0.68866900  0.75659300  1
  Cu  Cu55  1  0.74340700  0.07850000  0.18866900  1
  Cu  Cu56  1  0.68866900  0.75659300  0.92150000  1
  Cu  Cu57  1  0.42150000  0.81133100  0.24340700  1
  Cu  Cu58  1  0.75659300  0.92150000  0.68866900  1
  Cu  Cu59  1  0.81133100  0.24340700  0.42150000  1
  Cu  Cu60  1  0.07850000  0.18866900  0.74340700  1
  Cu  Cu61  1  0.25659300  0.57850000  0.31133100  1
  Cu  Cu62  1  0.31133100  0.25659300  0.57850000  1
  Cu  Cu63  1  0.57850000  0.31133100  0.25659300  1
  Cu  Cu64  1  0.30225900  0.48295600  0.04925700  1
  Cu  Cu65  1  0.95074300  0.80225900  0.01704400  1
  Cu  Cu66  1  0.98295600  0.45074300  0.69774100  1
  Cu  Cu67  1  0.80225900  0.01704400  0.95074300  1
  Cu  Cu68  1  0.45074300  0.69774100  0.98295600  1
  Cu  Cu69  1  0.48295600  0.04925700  0.30225900  1
  Cu  Cu70  1  0.69774100  0.98295600  0.45074300  1
  Cu  Cu71  1  0.04925700  0.30225900  0.48295600  1
  Cu  Cu72  1  0.01704400  0.95074300  0.80225900  1
  Cu  Cu73  1  0.19774100  0.51704400  0.54925700  1
  Cu  Cu74  1  0.54925700  0.19774100  0.51704400  1
  Cu  Cu75  1  0.51704400  0.54925700  0.19774100  1
