# generated using pymatgen
data_Cu6Ni17C32
_symmetry_space_group_name_H-M   'P 1'
_cell_length_a   9.92813784
_cell_length_b   6.02749888
_cell_length_c   10.37060661
_cell_angle_alpha   90.00000353
_cell_angle_beta   69.48742357
_cell_angle_gamma   90.00000117
_symmetry_Int_Tables_number   1
_chemical_formula_structural   Cu6Ni17C32
_chemical_formula_sum   'Cu6 Ni17 C32'
_cell_volume   581.24746199
_cell_formula_units_Z   1
loop_
 _symmetry_equiv_pos_site_id
 _symmetry_equiv_pos_as_xyz
  1  'x, y, z'
loop_
 _atom_site_type_symbol
 _atom_site_label
 _atom_site_symmetry_multiplicity
 _atom_site_fract_x
 _atom_site_fract_y
 _atom_site_fract_z
 _atom_site_occupancy
  Ni  Ni0  1  0.74010200  0.50000000  0.75113800  1
  Ni  Ni1  1  0.74368900  0.24351400  0.50452200  1
  Ni  Ni2  1  0.74368900  0.75648600  0.50452200  1
  Ni  Ni3  1  0.73408100  0.00000000  0.25495400  1
  Ni  Ni4  1  0.73601300  0.25172400  0.00428600  1
  Ni  Ni5  1  0.73601300  0.74827600  0.00428600  1
  Ni  Ni6  1  0.26398700  0.74827600  0.99571400  1
  Ni  Ni7  1  0.26398700  0.25172400  0.99571400  1
  Ni  Ni8  1  0.26591900  0.00000000  0.74504600  1
  Ni  Ni9  1  0.25631100  0.75648600  0.49547800  1
  Ni  Ni10  1  0.25631100  0.24351400  0.49547800  1
  Ni  Ni11  1  0.25989800  0.50000000  0.24886200  1
  Ni  Ni12  1  0.99929300  0.75781300  0.74175800  1
  Ni  Ni13  1  0.99929300  0.24218700  0.74175800  1
  Ni  Ni14  1  0.00070700  0.24218700  0.25824200  1
  Ni  Ni15  1  0.00070700  0.75781300  0.25824200  1
  Ni  Ni16  1  0.00000000  0.50000000  0.00000000  1
  Cu  Cu17  1  0.57851100  0.00000000  0.80764800  1
  Cu  Cu18  1  0.57579400  0.50000000  0.31014300  1
  Cu  Cu19  1  0.42420600  0.50000000  0.68985700  1
  Cu  Cu20  1  0.42148900  0.00000000  0.19235200  1
  Cu  Cu21  1  0.00000000  0.50000000  0.50000000  1
  Cu  Cu22  1  0.00000000  0.00000000  0.00000000  1
  C  C23  1  0.88397200  0.00000000  0.89080000  1
  C  C24  1  0.87113200  0.50000000  0.87819300  1
  C  C25  1  0.88116500  0.28712400  0.61532900  1
  C  C26  1  0.88116500  0.71287600  0.61532900  1
  C  C27  1  0.88498200  0.50000000  0.38938300  1
  C  C28  1  0.86093900  0.00000000  0.36746800  1
  C  C29  1  0.62872400  0.23725300  0.86958400  1
  C  C30  1  0.62872400  0.76274700  0.86958400  1
  C  C31  1  0.88529700  0.77877700  0.11132900  1
  C  C32  1  0.88529700  0.22122300  0.11132900  1
  C  C33  1  0.62817400  0.00000000  0.63235200  1
  C  C34  1  0.61345400  0.50000000  0.62744800  1
  C  C35  1  0.62944600  0.73561500  0.37013500  1
  C  C36  1  0.62944600  0.26438500  0.37013500  1
  C  C37  1  0.38800000  0.00000000  0.87182500  1
  C  C38  1  0.37040400  0.50000000  0.86695100  1
  C  C39  1  0.62959600  0.50000000  0.13304900  1
  C  C40  1  0.61200000  0.00000000  0.12817500  1
  C  C41  1  0.37055400  0.26438500  0.62986500  1
  C  C42  1  0.37055400  0.73561500  0.62986500  1
  C  C43  1  0.38654600  0.50000000  0.37255200  1
  C  C44  1  0.37182600  0.00000000  0.36764800  1
  C  C45  1  0.11470300  0.77877700  0.88867100  1
  C  C46  1  0.11470300  0.22122300  0.88867100  1
  C  C47  1  0.37127600  0.76274700  0.13041600  1
  C  C48  1  0.37127600  0.23725300  0.13041600  1
  C  C49  1  0.13906100  0.00000000  0.63253200  1
  C  C50  1  0.11501800  0.50000000  0.61061700  1
  C  C51  1  0.11883500  0.28712400  0.38467100  1
  C  C52  1  0.11883500  0.71287600  0.38467100  1
  C  C53  1  0.12886800  0.50000000  0.12180700  1
  C  C54  1  0.11602800  0.00000000  0.10920000  1
