# generated using pymatgen
data_CuNiC6
_symmetry_space_group_name_H-M   'P 1'
_cell_length_a   5.37625621
_cell_length_b   5.37729436
_cell_length_c   12.37123933
_cell_angle_alpha   89.98633577
_cell_angle_beta   90.01441981
_cell_angle_gamma   109.75266799
_symmetry_Int_Tables_number   1
_chemical_formula_structural   CuNiC6
_chemical_formula_sum   'Cu4 Ni4 C24'
_cell_volume   336.60498751
_cell_formula_units_Z   4
loop_
 _symmetry_equiv_pos_site_id
 _symmetry_equiv_pos_as_xyz
  1  'x, y, z'
loop_
 _atom_site_type_symbol
 _atom_site_label
 _atom_site_symmetry_multiplicity
 _atom_site_fract_x
 _atom_site_fract_y
 _atom_site_fract_z
 _atom_site_occupancy
  C  C0  1  0.49778500  0.00174200  0.62549700  1
  C  C1  1  0.99776200  0.50174800  0.87551900  1
  C  C2  1  0.49777100  0.00172700  0.12554100  1
  C  C3  1  0.99775600  0.50175000  0.37552100  1
  C  C4  1  0.49744700  0.00159800  0.87561400  1
  C  C5  1  0.99747200  0.50159500  0.12563800  1
  C  C6  1  0.49744800  0.00160700  0.37561600  1
  C  C7  1  0.99745800  0.50157800  0.62559200  1
  Ni  Ni8  1  0.49680900  0.50104600  0.00049700  1
  Ni  Ni9  1  0.99683000  0.00104400  0.75020900  1
  Ni  Ni10  1  0.99684400  0.00103000  0.25035200  1
  Ni  Ni11  1  0.49684100  0.50103000  0.50037000  1
  Cu  Cu12  1  0.99722900  0.00135000  0.00042200  1
  Cu  Cu13  1  0.49715400  0.50140800  0.25048400  1
  Cu  Cu14  1  0.99714300  0.00143100  0.50045400  1
  Cu  Cu15  1  0.49723100  0.50133600  0.75052100  1
  C  C16  1  0.16959500  0.39567200  0.75061200  1
  C  C17  1  0.66955800  0.89569200  0.00047200  1
  C  C18  1  0.16955000  0.39577000  0.25053800  1
  C  C19  1  0.66954200  0.89576600  0.50055200  1
  C  C20  1  0.10865900  0.88987000  0.60857600  1
  C  C21  1  0.60873100  0.38978000  0.85861100  1
  C  C22  1  0.10868700  0.88978300  0.10857300  1
  C  C23  1  0.60867100  0.38979500  0.35857900  1
  C  C24  1  0.10242000  0.32909600  0.00046100  1
  C  C25  1  0.60240200  0.82912700  0.25049500  1
  C  C26  1  0.10234200  0.32913100  0.50055100  1
  C  C27  1  0.60247100  0.82909800  0.75061700  1
  C  C28  1  0.60873600  0.39041900  0.64228500  1
  C  C29  1  0.10875200  0.89042400  0.89224700  1
  C  C30  1  0.60873000  0.39057200  0.14226500  1
  C  C31  1  0.10874200  0.89046700  0.39227300  1
