# generated using pymatgen
data_Cu6Ni7C26
_symmetry_space_group_name_H-M   'P 1'
_cell_length_a   8.40958700
_cell_length_b   11.59535200
_cell_length_c   27.32037100
_cell_angle_alpha   90.00000000
_cell_angle_beta   90.00000000
_cell_angle_gamma   90.00000000
_symmetry_Int_Tables_number   1
_chemical_formula_structural   Cu6Ni7C26
_chemical_formula_sum   'Cu24 Ni28 C104'
_cell_volume   2664.06733473
_cell_formula_units_Z   4
loop_
 _symmetry_equiv_pos_site_id
 _symmetry_equiv_pos_as_xyz
  1  'x, y, z'
loop_
 _atom_site_type_symbol
 _atom_site_label
 _atom_site_symmetry_multiplicity
 _atom_site_fract_x
 _atom_site_fract_y
 _atom_site_fract_z
 _atom_site_occupancy
  C  C0  1  0.25000000  0.76594200  0.10478700  1
  C  C1  1  0.25000000  0.89157400  0.18933400  1
  C  C2  1  0.75000000  0.39157400  0.31066600  1
  C  C3  1  0.75000000  0.26594200  0.39521300  1
  C  C4  1  0.25000000  0.73405800  0.60478700  1
  C  C5  1  0.25000000  0.60842600  0.68933400  1
  C  C6  1  0.75000000  0.10842600  0.81066600  1
  C  C7  1  0.75000000  0.23405800  0.89521300  1
  C  C8  1  0.25000000  0.78792100  0.00611800  1
  C  C9  1  0.34780600  0.89463200  0.03323400  1
  C  C10  1  0.15219400  0.89463200  0.03323400  1
  C  C11  1  0.07840600  0.61657700  0.05119000  1
  C  C12  1  0.42159400  0.61657700  0.05119000  1
  C  C13  1  0.54012900  0.68564100  0.08978500  1
  C  C14  1  0.95987100  0.68564100  0.08978500  1
  C  C15  1  0.07232000  0.57939300  0.10954300  1
  C  C16  1  0.42768000  0.57939300  0.10954300  1
  C  C17  1  0.50915700  0.89164000  0.13011900  1
  C  C18  1  0.99084300  0.89164000  0.13011900  1
  C  C19  1  0.15225700  0.09602800  0.16876400  1
  C  C20  1  0.34774300  0.09602800  0.16876400  1
  C  C21  1  0.25000000  0.65286800  0.19452400  1
  C  C22  1  0.25000000  0.11070000  0.22186000  1
  C  C23  1  0.53454800  0.90702800  0.22989900  1
  C  C24  1  0.96545200  0.90702800  0.22989900  1
  C  C25  1  0.90363800  0.43173400  0.22615700  1
  C  C26  1  0.59636200  0.43173400  0.22615700  1
  C  C27  1  0.55953100  0.29784200  0.24501100  1
  C  C28  1  0.94046900  0.29784200  0.24501100  1
  C  C29  1  0.05953100  0.79784200  0.25498900  1
  C  C30  1  0.44046900  0.79784200  0.25498900  1
  C  C31  1  0.09636200  0.93173400  0.27384300  1
  C  C32  1  0.40363800  0.93173400  0.27384300  1
  C  C33  1  0.03454800  0.40702800  0.27010100  1
  C  C34  1  0.46545200  0.40702800  0.27010100  1
  C  C35  1  0.75000000  0.61070000  0.27814000  1
  C  C36  1  0.75000000  0.15286800  0.30547600  1
  C  C37  1  0.65225700  0.59602800  0.33123600  1
  C  C38  1  0.84774300  0.59602800  0.33123600  1
  C  C39  1  0.00915700  0.39164000  0.36988100  1
  C  C40  1  0.49084300  0.39164000  0.36988100  1
  C  C41  1  0.57232000  0.07939300  0.39045700  1
  C  C42  1  0.92768000  0.07939300  0.39045700  1
  C  C43  1  0.04012900  0.18564100  0.41021500  1
  C  C44  1  0.45987100  0.18564100  0.41021500  1
  C  C45  1  0.57840600  0.11657700  0.44881000  1
  C  C46  1  0.92159400  0.11657700  0.44881000  1
  C  C47  1  0.65219400  0.39463200  0.46676600  1
  C  C48  1  0.84780600  0.39463200  0.46676600  1
  C  C49  1  0.75000000  0.28792100  0.49388200  1
  C  C50  1  0.25000000  0.71207900  0.50611800  1
  C  C51  1  0.15219400  0.60536800  0.53323400  1
  C  C52  1  0.34780600  0.60536800  0.53323400  1
  C  C53  1  0.07840600  0.88342300  0.55119000  1
  C  C54  1  0.42159400  0.88342300  0.55119000  1
  C  C55  1  0.54012900  0.81435900  0.58978500  1
  C  C56  1  0.95987100  0.81435900  0.58978500  1
  C  C57  1  0.07232000  0.92060700  0.60954300  1
  C  C58  1  0.42768000  0.92060700  0.60954300  1
  C  C59  1  0.50915700  0.60836000  0.63011900  1
  C  C60  1  0.99084300  0.60836000  0.63011900  1
  C  C61  1  0.15225700  0.40397200  0.66876400  1
  C  C62  1  0.34774300  0.40397200  0.66876400  1
  C  C63  1  0.25000000  0.84713200  0.69452400  1
  C  C64  1  0.25000000  0.38930000  0.72186000  1
  C  C65  1  0.53454800  0.59297200  0.72989900  1
  C  C66  1  0.96545200  0.59297200  0.72989900  1
  C  C67  1  0.59636200  0.06826600  0.72615700  1
  C  C68  1  0.90363800  0.06826600  0.72615700  1
  C  C69  1  0.55953100  0.20215800  0.74501100  1
  C  C70  1  0.94046900  0.20215800  0.74501100  1
  C  C71  1  0.05953100  0.70215800  0.75498900  1
  C  C72  1  0.44046900  0.70215800  0.75498900  1
  C  C73  1  0.09636200  0.56826600  0.77384300  1
  C  C74  1  0.40363800  0.56826600  0.77384300  1
  C  C75  1  0.03454800  0.09297200  0.77010100  1
  C  C76  1  0.46545200  0.09297200  0.77010100  1
  C  C77  1  0.75000000  0.88930000  0.77814000  1
  C  C78  1  0.75000000  0.34713200  0.80547600  1
  C  C79  1  0.65225700  0.90397200  0.83123600  1
  C  C80  1  0.84774300  0.90397200  0.83123600  1
  C  C81  1  0.00915700  0.10836000  0.86988100  1
  C  C82  1  0.49084300  0.10836000  0.86988100  1
  C  C83  1  0.57232000  0.42060700  0.89045700  1
  C  C84  1  0.92768000  0.42060700  0.89045700  1
  C  C85  1  0.04012900  0.31435900  0.91021500  1
  C  C86  1  0.45987100  0.31435900  0.91021500  1
  C  C87  1  0.57840600  0.38342300  0.94881000  1
  C  C88  1  0.92159400  0.38342300  0.94881000  1
  C  C89  1  0.65219400  0.10536800  0.96676600  1
  C  C90  1  0.84780600  0.10536800  0.96676600  1
  C  C91  1  0.75000000  0.21207900  0.99388200  1
  Ni  Ni92  1  0.75000000  0.66479000  0.18840000  1
  Ni  Ni93  1  0.25000000  0.16479000  0.31160000  1
  Ni  Ni94  1  0.75000000  0.83521000  0.68840000  1
  Ni  Ni95  1  0.25000000  0.33521000  0.81160000  1
  Ni  Ni96  1  0.75000000  0.87493600  0.03478700  1
  Ni  Ni97  1  0.75000000  0.44568100  0.03800300  1
  Ni  Ni98  1  0.25000000  0.25858700  0.05751700  1
  Ni  Ni99  1  0.75000000  0.26991900  0.11317000  1
  Ni  Ni100  1  0.25000000  0.38607300  0.15091800  1
  Ni  Ni101  1  0.75000000  0.08819500  0.19215400  1
  Ni  Ni102  1  0.25000000  0.58819500  0.30784600  1
  Ni  Ni103  1  0.75000000  0.88607300  0.34908200  1
  Ni  Ni104  1  0.25000000  0.76991900  0.38683000  1
  Ni  Ni105  1  0.75000000  0.75858700  0.44248300  1
  Ni  Ni106  1  0.25000000  0.94568100  0.46199700  1
  Ni  Ni107  1  0.25000000  0.37493600  0.46521300  1
  Ni  Ni108  1  0.75000000  0.62506400  0.53478700  1
  Ni  Ni109  1  0.75000000  0.05431900  0.53800300  1
  Ni  Ni110  1  0.25000000  0.24141300  0.55751700  1
  Ni  Ni111  1  0.75000000  0.23008100  0.61317000  1
  Ni  Ni112  1  0.25000000  0.11392700  0.65091800  1
  Ni  Ni113  1  0.75000000  0.41180500  0.69215400  1
  Ni  Ni114  1  0.25000000  0.91180500  0.80784600  1
  Ni  Ni115  1  0.75000000  0.61392700  0.84908200  1
  Ni  Ni116  1  0.25000000  0.73008100  0.88683000  1
  Ni  Ni117  1  0.75000000  0.74141300  0.94248300  1
  Ni  Ni118  1  0.25000000  0.55431900  0.96199700  1
  Ni  Ni119  1  0.25000000  0.12506400  0.96521300  1
  Cu  Cu120  1  0.25000000  0.84224900  0.03569300  1
  Cu  Cu121  1  0.07029400  0.64876200  0.08612200  1
  Cu  Cu122  1  0.42970600  0.64876200  0.08612200  1
  Cu  Cu123  1  0.25000000  0.06992700  0.18811900  1
  Cu  Cu124  1  0.07349300  0.88155500  0.24364300  1
  Cu  Cu125  1  0.42650700  0.88155500  0.24364300  1
  Cu  Cu126  1  0.57349300  0.38155500  0.25635700  1
  Cu  Cu127  1  0.92650700  0.38155500  0.25635700  1
  Cu  Cu128  1  0.75000000  0.56992700  0.31188100  1
  Cu  Cu129  1  0.57029400  0.14876200  0.41387800  1
  Cu  Cu130  1  0.92970600  0.14876200  0.41387800  1
  Cu  Cu131  1  0.75000000  0.34224900  0.46430700  1
  Cu  Cu132  1  0.25000000  0.65775100  0.53569300  1
  Cu  Cu133  1  0.07029400  0.85123800  0.58612200  1
  Cu  Cu134  1  0.42970600  0.85123800  0.58612200  1
  Cu  Cu135  1  0.25000000  0.43007300  0.68811900  1
  Cu  Cu136  1  0.07349300  0.61844500  0.74364300  1
  Cu  Cu137  1  0.42650700  0.61844500  0.74364300  1
  Cu  Cu138  1  0.57349300  0.11844500  0.75635700  1
  Cu  Cu139  1  0.92650700  0.11844500  0.75635700  1
  Cu  Cu140  1  0.75000000  0.93007300  0.81188100  1
  Cu  Cu141  1  0.57029400  0.35123800  0.91387800  1
  Cu  Cu142  1  0.92970600  0.35123800  0.91387800  1
  Cu  Cu143  1  0.75000000  0.15775100  0.96430700  1
  C  C144  1  0.10689700  0.89283600  0.12986000  1
  C  C145  1  0.39310300  0.89283600  0.12986000  1
  C  C146  1  0.25000000  0.72360000  0.17522800  1
  C  C147  1  0.75000000  0.22360000  0.32477200  1
  C  C148  1  0.60689700  0.39283600  0.37014000  1
  C  C149  1  0.89310300  0.39283600  0.37014000  1
  C  C150  1  0.10689700  0.60716400  0.62986000  1
  C  C151  1  0.39310300  0.60716400  0.62986000  1
  C  C152  1  0.25000000  0.77640000  0.67522800  1
  C  C153  1  0.75000000  0.27640000  0.82477200  1
  C  C154  1  0.60689700  0.10716400  0.87014000  1
  C  C155  1  0.89310300  0.10716400  0.87014000  1
