# generated using pymatgen
data_Cu4NiC15
_symmetry_space_group_name_H-M   'P 1'
_cell_length_a   5.37103000
_cell_length_b   10.21099200
_cell_length_c   10.78569346
_cell_angle_alpha   83.22554963
_cell_angle_beta   90.00000000
_cell_angle_gamma   90.00000000
_symmetry_Int_Tables_number   1
_chemical_formula_structural   Cu4NiC15
_chemical_formula_sum   'Cu8 Ni2 C30'
_cell_volume   587.39574910
_cell_formula_units_Z   2
loop_
 _symmetry_equiv_pos_site_id
 _symmetry_equiv_pos_as_xyz
  1  'x, y, z'
loop_
 _atom_site_type_symbol
 _atom_site_label
 _atom_site_symmetry_multiplicity
 _atom_site_fract_x
 _atom_site_fract_y
 _atom_site_fract_z
 _atom_site_occupancy
  C  C0  1  0.42985600  0.50000000  0.00000000  1
  C  C1  1  0.50491000  0.00000000  0.50000000  1
  C  C2  1  0.99750500  0.74618100  0.74046700  1
  C  C3  1  0.99750500  0.25381900  0.25953300  1
  C  C4  1  0.48608200  0.25564200  0.75761200  1
  C  C5  1  0.48608200  0.74435800  0.24238800  1
  Ni  Ni6  1  0.81201800  0.01495000  0.73492200  1
  Ni  Ni7  1  0.81201800  0.98505000  0.26507800  1
  Cu  Cu8  1  0.98156800  0.22802000  0.93656300  1
  Cu  Cu9  1  0.98156800  0.77198000  0.06343700  1
  Cu  Cu10  1  0.99254400  0.26294700  0.57633700  1
  Cu  Cu11  1  0.99254400  0.73705300  0.42366300  1
  Cu  Cu12  1  0.50872600  0.59491100  0.64484000  1
  Cu  Cu13  1  0.50872600  0.40508900  0.35516000  1
  Cu  Cu14  1  0.46680500  0.90780800  0.84767600  1
  Cu  Cu15  1  0.46680500  0.09219200  0.15232400  1
  C  C16  1  0.70044200  0.30570800  0.90186600  1
  C  C17  1  0.70044200  0.69429200  0.09813400  1
  C  C18  1  0.06608700  0.71104800  0.92556000  1
  C  C19  1  0.06608700  0.28895200  0.07444000  1
  C  C20  1  0.18413900  0.32213500  0.83729600  1
  C  C21  1  0.18413900  0.67786500  0.16270400  1
  C  C22  1  0.27835600  0.19268500  0.61447400  1
  C  C23  1  0.27835600  0.80731500  0.38552600  1
  C  C24  1  0.91876000  0.80842400  0.55732200  1
  C  C25  1  0.91876000  0.19157600  0.44267800  1
  C  C26  1  0.79262900  0.16759500  0.68200000  1
  C  C27  1  0.79262900  0.83240500  0.31800000  1
  C  C28  1  0.55453800  0.42694900  0.65260000  1
  C  C29  1  0.55453800  0.57305100  0.34740000  1
  C  C30  1  0.67958400  0.64162800  0.76995000  1
  C  C31  1  0.67958400  0.35837200  0.23005000  1
  C  C32  1  0.20676200  0.59880000  0.70098900  1
  C  C33  1  0.20676200  0.40120000  0.29901100  1
  C  C34  1  0.43095400  0.07080500  0.86364600  1
  C  C35  1  0.43095400  0.92919500  0.13635400  1
  C  C36  1  0.28728600  0.88219900  0.72225300  1
  C  C37  1  0.28728600  0.11780100  0.27774700  1
  C  C38  1  0.77930100  0.91930600  0.77300100  1
  C  C39  1  0.77930100  0.08069400  0.22699900  1
