# generated using pymatgen
data_CuNi3C10
_symmetry_space_group_name_H-M   'P 1'
_cell_length_a   5.98040853
_cell_length_b   6.07271908
_cell_length_c   8.49798432
_cell_angle_alpha   88.70740442
_cell_angle_beta   90.00716979
_cell_angle_gamma   89.68097839
_symmetry_Int_Tables_number   1
_chemical_formula_structural   CuNi3C10
_chemical_formula_sum   'Cu2 Ni6 C20'
_cell_volume   308.54086700
_cell_formula_units_Z   2
loop_
 _symmetry_equiv_pos_site_id
 _symmetry_equiv_pos_as_xyz
  1  'x, y, z'
loop_
 _atom_site_type_symbol
 _atom_site_label
 _atom_site_symmetry_multiplicity
 _atom_site_fract_x
 _atom_site_fract_y
 _atom_site_fract_z
 _atom_site_occupancy
  C  C0  1  0.49999800  0.49999900  0.99999900  1
  C  C1  1  0.99999700  0.99999900  0.49999900  1
  C  C2  1  0.74999400  0.24999600  0.25000000  1
  C  C3  1  0.24999900  0.75000200  0.74999900  1
  Ni  Ni4  1  0.24999400  0.75000400  0.25000100  1
  Ni  Ni5  1  0.74999900  0.25000500  0.74999300  1
  Ni  Ni6  1  0.75000300  0.74999600  0.25000700  1
  Ni  Ni7  1  0.24999500  0.25000000  0.74999600  1
  Ni  Ni8  1  0.00000500  0.49999900  0.49999800  1
  Ni  Ni9  1  0.50000300  0.00000100  0.99999900  1
  Cu  Cu10  1  0.00001900  0.00001500  0.00000800  1
  Cu  Cu11  1  0.49997800  0.49997900  0.50000000  1
  C  C12  1  0.99938800  0.52716700  0.26381900  1
  C  C13  1  0.49938600  0.02715600  0.76381200  1
  C  C14  1  0.00061100  0.47283300  0.73617900  1
  C  C15  1  0.50061300  0.97284500  0.23618500  1
  C  C16  1  0.73259600  0.77373600  0.02035500  1
  C  C17  1  0.23258200  0.27370200  0.52034700  1
  C  C18  1  0.26741100  0.22626700  0.97964500  1
  C  C19  1  0.76742500  0.72630200  0.47965300  1
  C  C20  1  0.26775000  0.77021300  0.01430200  1
  C  C21  1  0.76777400  0.27016600  0.51429400  1
  C  C22  1  0.50449900  0.53323800  0.25114100  1
  C  C23  1  0.00449500  0.03324700  0.75117500  1
  C  C24  1  0.49550000  0.46676300  0.74886500  1
  C  C25  1  0.99550400  0.96675500  0.24883000  1
  C  C26  1  0.73225600  0.22978400  0.98569800  1
  C  C27  1  0.23223300  0.72982900  0.48570500  1
