# generated using pymatgen
data_Cu4NiC13
_symmetry_space_group_name_H-M   'P 1'
_cell_length_a   7.50908632
_cell_length_b   7.50908632
_cell_length_c   17.88539900
_cell_angle_alpha   90.00000000
_cell_angle_beta   90.00000000
_cell_angle_gamma   95.82404801
_symmetry_Int_Tables_number   1
_chemical_formula_structural   Cu4NiC13
_chemical_formula_sum   'Cu16 Ni4 C52'
_cell_volume   1003.28722388
_cell_formula_units_Z   4
loop_
 _symmetry_equiv_pos_site_id
 _symmetry_equiv_pos_as_xyz
  1  'x, y, z'
loop_
 _atom_site_type_symbol
 _atom_site_label
 _atom_site_symmetry_multiplicity
 _atom_site_fract_x
 _atom_site_fract_y
 _atom_site_fract_z
 _atom_site_occupancy
  C  C0  1  0.50902700  0.97226000  0.86441900  1
  C  C1  1  0.02774000  0.49097300  0.63558100  1
  C  C2  1  0.49097300  0.02774000  0.36441900  1
  C  C3  1  0.97226000  0.50902700  0.13558100  1
  Ni  Ni4  1  0.23123700  0.05360900  0.63883600  1
  Ni  Ni5  1  0.94639100  0.76876300  0.86116400  1
  Ni  Ni6  1  0.76876300  0.94639100  0.13883600  1
  Ni  Ni7  1  0.05360900  0.23123700  0.36116400  1
  Cu  Cu8  1  0.03549000  0.76853300  0.35075700  1
  Cu  Cu9  1  0.23146700  0.96451000  0.14924300  1
  Cu  Cu10  1  0.28307100  0.79563600  0.99699100  1
  Cu  Cu11  1  0.20436400  0.71692900  0.50300900  1
  Cu  Cu12  1  0.34539800  0.65460200  0.75000000  1
  Cu  Cu13  1  0.65694200  0.71908600  0.30933300  1
  Cu  Cu14  1  0.28091400  0.34305800  0.19066700  1
  Cu  Cu15  1  0.35962300  0.35962300  0.50000000  1
  Cu  Cu16  1  0.64037700  0.64037700  0.00000000  1
  Cu  Cu17  1  0.34305800  0.28091400  0.80933300  1
  Cu  Cu18  1  0.71908600  0.65694200  0.69066700  1
  Cu  Cu19  1  0.65460200  0.34539800  0.25000000  1
  Cu  Cu20  1  0.79563600  0.28307100  0.00300900  1
  Cu  Cu21  1  0.71692900  0.20436400  0.49699100  1
  Cu  Cu22  1  0.76853300  0.03549000  0.64924300  1
  Cu  Cu23  1  0.96451000  0.23146700  0.85075700  1
  C  C24  1  0.10879000  0.97079600  0.35836400  1
  C  C25  1  0.02920400  0.89121000  0.14163600  1
  C  C26  1  0.07083500  0.66445300  0.28430500  1
  C  C27  1  0.33554700  0.92916500  0.21569500  1
  C  C28  1  0.10016600  0.69565000  0.99421600  1
  C  C29  1  0.30435000  0.89983400  0.50578400  1
  C  C30  1  0.10439200  0.67344200  0.42379700  1
  C  C31  1  0.32655800  0.89560800  0.07620300  1
  C  C32  1  0.07687500  0.66441900  0.56372700  1
  C  C33  1  0.33558100  0.92312500  0.93627300  1
  C  C34  1  0.37937100  0.82721900  0.79079000  1
  C  C35  1  0.17278100  0.62062900  0.70921000  1
  C  C36  1  0.49834200  0.78532300  0.34380300  1
  C  C37  1  0.21467700  0.50165800  0.15619700  1
  C  C38  1  0.35201500  0.56696200  0.49715100  1
  C  C39  1  0.43303800  0.64798500  0.00284900  1
  C  C40  1  0.76807700  0.82324200  0.63393700  1
  C  C41  1  0.17675800  0.23192300  0.86606300  1
  C  C42  1  0.50494100  0.63066300  0.69027800  1
  C  C43  1  0.36933700  0.49505900  0.80972200  1
  C  C44  1  0.26934900  0.28240900  0.57205700  1
  C  C45  1  0.71759100  0.73065100  0.92794300  1
  C  C46  1  0.22117500  0.28069800  0.27018000  1
  C  C47  1  0.71930200  0.77882500  0.22982000  1
  C  C48  1  0.28069800  0.22117500  0.72982000  1
  C  C49  1  0.77882500  0.71930200  0.77018000  1
  C  C50  1  0.28240900  0.26934900  0.42794300  1
  C  C51  1  0.73065100  0.71759100  0.07205700  1
  C  C52  1  0.63066300  0.50494100  0.30972200  1
  C  C53  1  0.49505900  0.36933700  0.19027800  1
  C  C54  1  0.23192300  0.17675800  0.13393700  1
  C  C55  1  0.82324200  0.76807700  0.36606300  1
  C  C56  1  0.64798500  0.43303800  0.99715100  1
  C  C57  1  0.56696200  0.35201500  0.50284900  1
  C  C58  1  0.50165800  0.21467700  0.84380300  1
  C  C59  1  0.78532300  0.49834200  0.65619700  1
  C  C60  1  0.82721900  0.37937100  0.20921000  1
  C  C61  1  0.62062900  0.17278100  0.29079000  1
  C  C62  1  0.66441900  0.07687500  0.43627300  1
  C  C63  1  0.92312500  0.33558100  0.06372700  1
  C  C64  1  0.67344200  0.10439200  0.57620300  1
  C  C65  1  0.89560800  0.32655800  0.92379700  1
  C  C66  1  0.89983400  0.30435000  0.49421600  1
  C  C67  1  0.69565000  0.10016600  0.00578400  1
  C  C68  1  0.66445300  0.07083500  0.71569500  1
  C  C69  1  0.92916500  0.33554700  0.78430500  1
  C  C70  1  0.97079600  0.10879000  0.64163600  1
  C  C71  1  0.89121000  0.02920400  0.85836400  1
