# generated using pymatgen
data_Cu2Ni2C5
_symmetry_space_group_name_H-M   'P 1'
_cell_length_a   12.13178014
_cell_length_b   12.13178014
_cell_length_c   6.56701149
_cell_angle_alpha   80.21017307
_cell_angle_beta   80.21017307
_cell_angle_gamma   43.16288011
_symmetry_Int_Tables_number   1
_chemical_formula_structural   Cu2Ni2C5
_chemical_formula_sum   'Cu12 Ni12 C30'
_cell_volume   650.03361514
_cell_formula_units_Z   6
loop_
 _symmetry_equiv_pos_site_id
 _symmetry_equiv_pos_as_xyz
  1  'x, y, z'
loop_
 _atom_site_type_symbol
 _atom_site_label
 _atom_site_symmetry_multiplicity
 _atom_site_fract_x
 _atom_site_fract_y
 _atom_site_fract_z
 _atom_site_occupancy
  C  C0  1  0.47153400  0.20952300  0.93655900  1
  C  C1  1  0.79047700  0.52846600  0.56344100  1
  C  C2  1  0.52846600  0.79047700  0.06344100  1
  C  C3  1  0.20952300  0.47153400  0.43655900  1
  C  C4  1  0.90491400  0.09508600  0.75000000  1
  C  C5  1  0.09508600  0.90491400  0.25000000  1
  Ni  Ni6  1  0.91897200  0.84467700  0.87082000  1
  Ni  Ni7  1  0.15532300  0.08102800  0.62918000  1
  Ni  Ni8  1  0.08102800  0.15532300  0.12918000  1
  Ni  Ni9  1  0.84467700  0.91897200  0.37082000  1
  Ni  Ni10  1  0.31957000  0.64129500  0.93687400  1
  Ni  Ni11  1  0.35870500  0.68043000  0.56312600  1
  Ni  Ni12  1  0.68043000  0.35870500  0.06312600  1
  Ni  Ni13  1  0.64129500  0.31957000  0.43687400  1
  Ni  Ni14  1  0.31657000  0.11174900  0.49544400  1
  Ni  Ni15  1  0.88825100  0.68343000  0.00455600  1
  Ni  Ni16  1  0.68343000  0.88825100  0.50455600  1
  Ni  Ni17  1  0.11174900  0.31657000  0.99544400  1
  Cu  Cu18  1  0.99539100  0.80256600  0.72333200  1
  Cu  Cu19  1  0.19743400  0.00460900  0.77666800  1
  Cu  Cu20  1  0.00460900  0.19743400  0.27666800  1
  Cu  Cu21  1  0.80256600  0.99539100  0.22333200  1
  Cu  Cu22  1  0.29198400  0.59310400  0.06965000  1
  Cu  Cu23  1  0.40689600  0.70801600  0.43035000  1
  Cu  Cu24  1  0.70801600  0.40689600  0.93035000  1
  Cu  Cu25  1  0.59310400  0.29198400  0.56965000  1
  Cu  Cu26  1  0.34660100  0.12462500  0.33005600  1
  Cu  Cu27  1  0.87537500  0.65339900  0.16994400  1
  Cu  Cu28  1  0.65339900  0.87537500  0.66994400  1
  Cu  Cu29  1  0.12462500  0.34660100  0.83005600  1
  C  C30  1  0.01749500  0.88852600  0.63275800  1
  C  C31  1  0.11147400  0.98250500  0.86724200  1
  C  C32  1  0.98250500  0.11147400  0.36724200  1
  C  C33  1  0.88852600  0.01749500  0.13275800  1
  C  C34  1  0.05219900  0.67777000  0.65601300  1
  C  C35  1  0.32223000  0.94780100  0.84398700  1
  C  C36  1  0.94780100  0.32223000  0.34398700  1
  C  C37  1  0.67777000  0.05219900  0.15601300  1
  C  C38  1  0.68450700  0.19403700  0.71814100  1
  C  C39  1  0.80596300  0.31549300  0.78185900  1
  C  C40  1  0.31549300  0.80596300  0.28185900  1
  C  C41  1  0.19403700  0.68450700  0.21814100  1
  C  C42  1  0.35612900  0.45203400  0.07328600  1
  C  C43  1  0.54796600  0.64387100  0.42671400  1
  C  C44  1  0.64387100  0.54796600  0.92671400  1
  C  C45  1  0.45203400  0.35612900  0.57328600  1
  C  C46  1  0.60333200  0.97660600  0.79068800  1
  C  C47  1  0.02339400  0.39666800  0.70931200  1
  C  C48  1  0.39666800  0.02339400  0.20931200  1
  C  C49  1  0.97660600  0.60333200  0.29068800  1
  C  C50  1  0.32869700  0.24271700  0.27318500  1
  C  C51  1  0.75728300  0.67130300  0.22681500  1
  C  C52  1  0.67130300  0.75728300  0.72681500  1
  C  C53  1  0.24271700  0.32869700  0.77318500  1
