# generated using pymatgen
data_Cu2NiC33
_symmetry_space_group_name_H-M   'P 1'
_cell_length_a   8.61701406
_cell_length_b   8.61701406
_cell_length_c   8.61701392
_cell_angle_alpha   60.08534781
_cell_angle_beta   60.08534781
_cell_angle_gamma   60.08534867
_symmetry_Int_Tables_number   1
_chemical_formula_structural   Cu2NiC33
_chemical_formula_sum   'Cu2 Ni1 C33'
_cell_volume   453.30918503
_cell_formula_units_Z   1
loop_
 _symmetry_equiv_pos_site_id
 _symmetry_equiv_pos_as_xyz
  1  'x, y, z'
loop_
 _atom_site_type_symbol
 _atom_site_label
 _atom_site_symmetry_multiplicity
 _atom_site_fract_x
 _atom_site_fract_y
 _atom_site_fract_z
 _atom_site_occupancy
  C  C0  1  0.14281700  0.14281700  0.14281700  1
  C  C1  1  0.35666800  0.35666800  0.35666800  1
  C  C2  1  0.64354500  0.64354500  0.64354500  1
  Ni  Ni3  1  0.85633000  0.85633000  0.85633000  1
  Cu  Cu4  1  0.99812500  0.99812500  0.99812500  1
  Cu  Cu5  1  0.49968000  0.49968000  0.49968000  1
  C  C6  1  0.54312200  0.24916700  0.95820500  1
  C  C7  1  0.95820500  0.54312200  0.24916700  1
  C  C8  1  0.24916700  0.95820500  0.54312200  1
  C  C9  1  0.75121500  0.04202900  0.45849100  1
  C  C10  1  0.04202900  0.45849100  0.75121500  1
  C  C11  1  0.45849100  0.75121500  0.04203000  1
  C  C12  1  0.31220300  0.12082300  0.49499400  1
  C  C13  1  0.49499400  0.31220300  0.12082300  1
  C  C14  1  0.91532600  0.05734000  0.26428000  1
  C  C15  1  0.12082300  0.49499400  0.31220300  1
  C  C16  1  0.80765700  0.00725300  0.61671200  1
  C  C17  1  0.58446500  0.23400600  0.43748200  1
  C  C18  1  0.05734000  0.26428000  0.91532600  1
  C  C19  1  0.23400600  0.43748200  0.58446500  1
  C  C20  1  0.37801800  0.19132600  0.00174900  1
  C  C21  1  0.43748200  0.58446500  0.23400600  1
  C  C22  1  0.73415100  0.08667200  0.94583300  1
  C  C23  1  0.00174900  0.37801800  0.19132600  1
  C  C24  1  0.00725300  0.61671200  0.80765700  1
  C  C25  1  0.26428000  0.91532600  0.05734000  1
  C  C26  1  0.55559900  0.41650000  0.76665200  1
  C  C27  1  0.61671200  0.80765700  0.00725300  1
  C  C28  1  0.76665200  0.55559900  0.41650000  1
  C  C29  1  0.94583300  0.73415100  0.08667200  1
  C  C30  1  0.41650000  0.76665200  0.55559900  1
  C  C31  1  0.19132600  0.00174900  0.37801800  1
  C  C32  1  0.87703600  0.50180900  0.69271700  1
  C  C33  1  0.08667200  0.94583300  0.73415100  1
  C  C34  1  0.50180900  0.69271700  0.87703600  1
  C  C35  1  0.69271700  0.87703600  0.50180900  1
