# generated using pymatgen
data_Cu14Ni4C9
_symmetry_space_group_name_H-M   'P 1'
_cell_length_a   13.02670518
_cell_length_b   13.02670518
_cell_length_c   13.02670518
_cell_angle_alpha   100.03213413
_cell_angle_beta   100.03213413
_cell_angle_gamma   130.66227198
_symmetry_Int_Tables_number   1
_chemical_formula_structural   Cu14Ni4C9
_chemical_formula_sum   'Cu56 Ni16 C36'
_cell_volume   1523.81781020
_cell_formula_units_Z   4
loop_
 _symmetry_equiv_pos_site_id
 _symmetry_equiv_pos_as_xyz
  1  'x, y, z'
loop_
 _atom_site_type_symbol
 _atom_site_label
 _atom_site_symmetry_multiplicity
 _atom_site_fract_x
 _atom_site_fract_y
 _atom_site_fract_z
 _atom_site_occupancy
  C  C0  1  0.10284600  0.68560100  0.53963500  1
  C  C1  1  0.14596700  0.06321100  0.96036500  1
  C  C2  1  0.56321100  0.60284600  0.41724400  1
  C  C3  1  0.18560100  0.64596700  0.08275600  1
  C  C4  1  0.89715400  0.31439900  0.46036500  1
  C  C5  1  0.85403300  0.93678900  0.03963500  1
  C  C6  1  0.43678900  0.39715400  0.58275600  1
  C  C7  1  0.81439900  0.35403300  0.91724400  1
  C  C8  1  0.95759400  0.83151900  0.47318700  1
  C  C9  1  0.35833200  0.98440700  0.02681300  1
  C  C10  1  0.48440700  0.45759400  0.12607500  1
  C  C11  1  0.33151900  0.85833200  0.37392500  1
  C  C12  1  0.04240600  0.16848100  0.52681300  1
  C  C13  1  0.64166800  0.01559300  0.97318700  1
  C  C14  1  0.51559300  0.54240600  0.87392500  1
  C  C15  1  0.66848100  0.14166800  0.62607500  1
  C  C16  1  0.26128800  0.68484100  0.81905100  1
  C  C17  1  0.86579000  0.94223700  0.68094900  1
  C  C18  1  0.44223700  0.76128800  0.57644700  1
  C  C19  1  0.18484100  0.36579000  0.92355300  1
  C  C20  1  0.73871200  0.31515900  0.18094900  1
  C  C21  1  0.13421000  0.05776300  0.31905100  1
  C  C22  1  0.55776300  0.23871200  0.42355300  1
  C  C23  1  0.81515900  0.63421000  0.07644700  1
  C  C24  1  0.20456800  0.45581400  0.73034100  1
  C  C25  1  0.72547300  0.97422700  0.76965900  1
  C  C26  1  0.47422700  0.70456800  0.74875400  1
  C  C27  1  0.95581400  0.22547300  0.75124600  1
  C  C28  1  0.79543200  0.54418600  0.26965900  1
  C  C29  1  0.27452700  0.02577300  0.23034100  1
  C  C30  1  0.52577300  0.29543200  0.25124600  1
  C  C31  1  0.04418600  0.77452700  0.24875400  1
  C  C32  1  0.12500000  0.37500000  0.25000000  1
  C  C33  1  0.87500000  0.62500000  0.75000000  1
  C  C34  1  0.62500000  0.87500000  0.25000000  1
  C  C35  1  0.37500000  0.12500000  0.75000000  1
  Ni  Ni36  1  0.22132800  0.40012600  0.43419900  1
  Ni  Ni37  1  0.96592800  0.28712900  0.06580100  1
  Ni  Ni38  1  0.78712900  0.72132800  0.82120200  1
  Ni  Ni39  1  0.90012600  0.46592800  0.67879800  1
  Ni  Ni40  1  0.77867200  0.59987400  0.56580100  1
  Ni  Ni41  1  0.03407200  0.71287100  0.93419900  1
  Ni  Ni42  1  0.21287100  0.27867200  0.17879800  1
  Ni  Ni43  1  0.09987400  0.53407200  0.32120200  1
  Ni  Ni44  1  0.68236200  0.95081800  0.44913700  1
  Ni  Ni45  1  0.50168100  0.73322500  0.05086300  1
  Ni  Ni46  1  0.23322500  0.18236200  0.73154400  1
  Ni  Ni47  1  0.45081800  0.00168100  0.76845600  1
  Ni  Ni48  1  0.31763800  0.04918200  0.55086300  1
  Ni  Ni49  1  0.49831900  0.26677500  0.94913700  1
  Ni  Ni50  1  0.76677500  0.81763800  0.26845600  1
  Ni  Ni51  1  0.54918200  0.99831900  0.23154400  1
  Cu  Cu52  1  0.38073800  0.54225100  0.49328500  1
  Cu  Cu53  1  0.04896600  0.38745400  0.00671500  1
  Cu  Cu54  1  0.88745400  0.88073800  0.83848700  1
  Cu  Cu55  1  0.04225100  0.54896600  0.66151300  1
  Cu  Cu56  1  0.61926200  0.45774900  0.50671500  1
  Cu  Cu57  1  0.95103400  0.61254600  0.99328500  1
  Cu  Cu58  1  0.11254600  0.11926200  0.16151300  1
  Cu  Cu59  1  0.95774900  0.45103400  0.33848700  1
  Cu  Cu60  1  0.20927500  0.27706500  0.43137100  1
  Cu  Cu61  1  0.84569400  0.27790300  0.06862900  1
  Cu  Cu62  1  0.77790300  0.70927500  0.93220900  1
  Cu  Cu63  1  0.77706500  0.34569400  0.56779100  1
  Cu  Cu64  1  0.79072500  0.72293500  0.56862900  1
  Cu  Cu65  1  0.15430600  0.72209700  0.93137100  1
  Cu  Cu66  1  0.22209700  0.29072500  0.06779100  1
  Cu  Cu67  1  0.22293500  0.65430600  0.43220900  1
  Cu  Cu68  1  0.13013700  0.39253800  0.49439700  1
  Cu  Cu69  1  0.89814000  0.13574000  0.00560300  1
  Cu  Cu70  1  0.63574000  0.63013700  0.73759900  1
  Cu  Cu71  1  0.89253800  0.39814000  0.76240100  1
  Cu  Cu72  1  0.86986300  0.60746200  0.50560300  1
  Cu  Cu73  1  0.10186000  0.86426000  0.99439700  1
  Cu  Cu74  1  0.36426000  0.36986300  0.26240100  1
  Cu  Cu75  1  0.10746200  0.60186000  0.23759900  1
  Cu  Cu76  1  0.82392000  0.10997700  0.50738600  1
  Cu  Cu77  1  0.60259100  0.81653400  0.99261400  1
  Cu  Cu78  1  0.31653400  0.32392000  0.71394300  1
  Cu  Cu79  1  0.60997700  0.10259100  0.78605700  1
  Cu  Cu80  1  0.17608000  0.89002300  0.49261400  1
  Cu  Cu81  1  0.39740900  0.18346600  0.00738600  1
  Cu  Cu82  1  0.68346600  0.67608000  0.28605700  1
  Cu  Cu83  1  0.39002300  0.89740900  0.21394300  1
  Cu  Cu84  1  0.69628800  0.86002700  0.49238700  1
  Cu  Cu85  1  0.36764000  0.70390100  0.00761300  1
  Cu  Cu86  1  0.20390100  0.19628800  0.83626100  1
  Cu  Cu87  1  0.36002700  0.86764000  0.66373900  1
  Cu  Cu88  1  0.30371200  0.13997300  0.50761300  1
  Cu  Cu89  1  0.63236000  0.29609900  0.99238700  1
  Cu  Cu90  1  0.79609900  0.80371200  0.16373900  1
  Cu  Cu91  1  0.63997300  0.13236000  0.33626100  1
  Cu  Cu92  1  0.56127600  0.92901100  0.47191100  1
  Cu  Cu93  1  0.45710000  0.58936500  0.02808900  1
  Cu  Cu94  1  0.08936500  0.06127600  0.63226500  1
  Cu  Cu95  1  0.42901100  0.95710000  0.86773500  1
  Cu  Cu96  1  0.43872400  0.07098900  0.52808900  1
  Cu  Cu97  1  0.54290000  0.41063500  0.97191100  1
  Cu  Cu98  1  0.91063500  0.93872400  0.36773500  1
  Cu  Cu99  1  0.57098900  0.04290000  0.13226500  1
  Cu  Cu100  1  0.12617700  0.38823100  0.75572100  1
  Cu  Cu101  1  0.63251000  0.87045600  0.74427900  1
  Cu  Cu102  1  0.37045600  0.62617700  0.73794600  1
  Cu  Cu103  1  0.88823100  0.13251000  0.76205400  1
  Cu  Cu104  1  0.87382300  0.61176900  0.24427900  1
  Cu  Cu105  1  0.36749000  0.12954400  0.25572100  1
  Cu  Cu106  1  0.62954400  0.37382300  0.26205400  1
  Cu  Cu107  1  0.11176900  0.86749000  0.23794600  1
