# generated using pymatgen
data_CuNiC4
_symmetry_space_group_name_H-M   'P 1'
_cell_length_a   5.16907671
_cell_length_b   13.54641702
_cell_length_c   7.44353951
_cell_angle_alpha   91.75722981
_cell_angle_beta   99.20704581
_cell_angle_gamma   91.76736937
_symmetry_Int_Tables_number   1
_chemical_formula_structural   CuNiC4
_chemical_formula_sum   'Cu8 Ni8 C32'
_cell_volume   513.92038480
_cell_formula_units_Z   8
loop_
 _symmetry_equiv_pos_site_id
 _symmetry_equiv_pos_as_xyz
  1  'x, y, z'
loop_
 _atom_site_type_symbol
 _atom_site_label
 _atom_site_symmetry_multiplicity
 _atom_site_fract_x
 _atom_site_fract_y
 _atom_site_fract_z
 _atom_site_occupancy
  C  C0  1  0.24852200  0.24981100  0.00097900  1
  C  C1  1  0.75124500  0.75028500  0.99923900  1
  C  C2  1  0.50020100  0.49996400  0.99981000  1
  C  C3  1  0.00011600  0.00003900  0.00005200  1
  Ni  Ni4  1  0.42964900  0.09026100  0.72968100  1
  Ni  Ni5  1  0.92953400  0.59010500  0.72954600  1
  Ni  Ni6  1  0.07063300  0.40991700  0.27029500  1
  Ni  Ni7  1  0.57026900  0.90971100  0.27046500  1
  Ni  Ni8  1  0.69406200  0.30276700  0.76288400  1
  Ni  Ni9  1  0.19425600  0.80263300  0.76280600  1
  Ni  Ni10  1  0.80578000  0.19741600  0.23725000  1
  Ni  Ni11  1  0.30584400  0.69714800  0.23699500  1
  Cu  Cu12  1  0.46420900  0.37039700  0.52458300  1
  Cu  Cu13  1  0.96420600  0.87028600  0.52462700  1
  Cu  Cu14  1  0.03574300  0.12977500  0.47549200  1
  Cu  Cu15  1  0.53562700  0.62956500  0.47536600  1
  Cu  Cu16  1  0.20189000  0.48738200  0.63658000  1
  Cu  Cu17  1  0.70185700  0.98741800  0.63674900  1
  Cu  Cu18  1  0.29806800  0.01256300  0.36344300  1
  Cu  Cu19  1  0.79816800  0.51262900  0.36317700  1
  C  C20  1  0.27399400  0.06551500  0.87919200  1
  C  C21  1  0.77378200  0.56546200  0.87901900  1
  C  C22  1  0.22652000  0.43451300  0.12087400  1
  C  C23  1  0.72601500  0.93449000  0.12103200  1
  C  C24  1  0.29138100  0.07328100  0.53605700  1
  C  C25  1  0.79118800  0.57320900  0.53591200  1
  C  C26  1  0.20882700  0.42679600  0.46398300  1
  C  C27  1  0.70841900  0.92667300  0.46411400  1
  C  C28  1  0.56789200  0.37149700  0.88969400  1
  C  C29  1  0.06861300  0.87114200  0.89023500  1
  C  C30  1  0.93140900  0.12885400  0.10990400  1
  C  C31  1  0.43216600  0.62844900  0.11020400  1
  C  C32  1  0.52602400  0.21976700  0.18535700  1
  C  C33  1  0.02613700  0.71946900  0.18484100  1
  C  C34  1  0.97375400  0.28044700  0.81506500  1
  C  C35  1  0.47402400  0.78028100  0.81467400  1
  C  C36  1  0.50877900  0.20305600  0.76989000  1
  C  C37  1  0.00879700  0.70295000  0.76968700  1
  C  C38  1  0.99126600  0.29707600  0.23012900  1
  C  C39  1  0.49112500  0.79693200  0.23019000  1
  C  C40  1  0.63904000  0.33893600  0.56392700  1
  C  C41  1  0.13913800  0.83890400  0.56389300  1
  C  C42  1  0.86092600  0.16122000  0.43620600  1
  C  C43  1  0.36073000  0.66098200  0.43596700  1
  C  C44  1  0.69393700  0.02892100  0.75587800  1
  C  C45  1  0.19371500  0.52880200  0.75576900  1
  C  C46  1  0.80651700  0.47123100  0.24399400  1
  C  C47  1  0.30600600  0.97107300  0.24429100  1
