# generated using pymatgen
data_Cu5Ni3C40
_symmetry_space_group_name_H-M   'P 1'
_cell_length_a   5.24163300
_cell_length_b   5.24274170
_cell_length_c   20.82127666
_cell_angle_alpha   90.53756131
_cell_angle_beta   90.85599536
_cell_angle_gamma   119.89335075
_symmetry_Int_Tables_number   1
_chemical_formula_structural   Cu5Ni3C40
_chemical_formula_sum   'Cu5 Ni3 C40'
_cell_volume   495.90497425
_cell_formula_units_Z   1
loop_
 _symmetry_equiv_pos_site_id
 _symmetry_equiv_pos_as_xyz
  1  'x, y, z'
loop_
 _atom_site_type_symbol
 _atom_site_label
 _atom_site_symmetry_multiplicity
 _atom_site_fract_x
 _atom_site_fract_y
 _atom_site_fract_z
 _atom_site_occupancy
  C  C0  1  0.67658000  0.65201300  0.33385700  1
  C  C1  1  0.65272100  0.67814900  0.08351900  1
  C  C2  1  0.67858100  0.65264500  0.83271100  1
  C  C3  1  0.65211000  0.67620300  0.58452300  1
  C  C4  1  0.34698600  0.33543200  0.20813400  1
  C  C5  1  0.33784900  0.34664500  0.45828300  1
  C  C6  1  0.35107700  0.34036400  0.70857400  1
  C  C7  1  0.33500500  0.34751800  0.95874200  1
  Ni  Ni8  1  0.67204200  0.00674800  0.44155200  1
  Ni  Ni9  1  0.32287100  0.99943100  0.06674400  1
  Ni  Ni10  1  0.00030200  0.32280800  0.81708500  1
  Cu  Cu11  1  0.67456900  0.99938700  0.94135900  1
  Cu  Cu12  1  0.31630200  0.00198200  0.56695500  1
  Cu  Cu13  1  0.00683800  0.32335100  0.31543700  1
  Cu  Cu14  1  0.99667900  0.66838800  0.19257100  1
  Cu  Cu15  1  0.01313000  0.67063800  0.68986300  1
  C  C16  1  0.99600500  0.33939300  0.06283700  1
  C  C17  1  0.99382300  0.33607300  0.56368100  1
  C  C18  1  0.66896600  0.00640800  0.18887100  1
  C  C19  1  0.66838800  0.00643200  0.68725900  1
  C  C20  1  0.33755300  0.99607800  0.31252400  1
  C  C21  1  0.33843500  0.99511200  0.81278500  1
  C  C22  1  0.00619900  0.66726900  0.43789100  1
  C  C23  1  0.00589700  0.66969700  0.93818400  1
  C  C24  1  0.93262200  0.25419600  0.20801400  1
  C  C25  1  0.93062000  0.25824500  0.70698600  1
  C  C26  1  0.74639500  0.06917000  0.04728900  1
  C  C27  1  0.96569700  0.57659200  0.08364500  1
  C  C28  1  0.73988900  0.06959400  0.54965500  1
  C  C29  1  0.97491400  0.58238000  0.58213500  1
  C  C30  1  0.41889600  0.02725700  0.17452800  1
  C  C31  1  0.73147600  0.64312100  0.43054600  1
  C  C32  1  0.41842400  0.03228400  0.67286500  1
  C  C33  1  0.73370900  0.65139800  0.93204300  1
  C  C34  1  0.65372100  0.73465000  0.18214100  1
  C  C35  1  0.65422000  0.73911000  0.68101500  1
  C  C36  1  0.35761400  0.26982700  0.30619600  1
  C  C37  1  0.36818400  0.27205800  0.80583600  1
  C  C38  1  0.27261500  0.36910200  0.05623400  1
  C  C39  1  0.58302500  0.97741700  0.33142300  1
  C  C40  1  0.26892400  0.35775200  0.55725000  1
  C  C41  1  0.57679900  0.96591400  0.83349300  1
  C  C42  1  0.03894600  0.42427300  0.42210200  1
  C  C43  1  0.02724700  0.41896500  0.92388200  1
  C  C44  1  0.24758300  0.92962000  0.45946000  1
  C  C45  1  0.25474300  0.93245900  0.95724700  1
  C  C46  1  0.06798000  0.74157700  0.29853300  1
  C  C47  1  0.06805500  0.74607500  0.79733400  1
