# generated using pymatgen
data_Cu2Ni2C7
_symmetry_space_group_name_H-M   'P 1'
_cell_length_a   8.53852374
_cell_length_b   8.53852374
_cell_length_c   9.62255300
_cell_angle_alpha   90.00000000
_cell_angle_beta   90.00000000
_cell_angle_gamma   125.29702254
_symmetry_Int_Tables_number   1
_chemical_formula_structural   Cu2Ni2C7
_chemical_formula_sum   'Cu8 Ni8 C28'
_cell_volume   572.57878480
_cell_formula_units_Z   4
loop_
 _symmetry_equiv_pos_site_id
 _symmetry_equiv_pos_as_xyz
  1  'x, y, z'
loop_
 _atom_site_type_symbol
 _atom_site_label
 _atom_site_symmetry_multiplicity
 _atom_site_fract_x
 _atom_site_fract_y
 _atom_site_fract_z
 _atom_site_occupancy
  C  C0  1  0.70659000  0.29341000  0.25000000  1
  C  C1  1  0.70696500  0.29303500  0.75000000  1
  C  C2  1  0.29341000  0.70659000  0.75000000  1
  C  C3  1  0.29303500  0.70696500  0.25000000  1
  Ni  Ni4  1  0.20605800  0.00284100  0.25851100  1
  Ni  Ni5  1  0.79394200  0.99715900  0.75851100  1
  Ni  Ni6  1  0.79617500  0.99955600  0.23177100  1
  Ni  Ni7  1  0.00044400  0.20382500  0.26822900  1
  Ni  Ni8  1  0.00284100  0.20605800  0.74148900  1
  Ni  Ni9  1  0.99715900  0.79394200  0.24148900  1
  Ni  Ni10  1  0.99955600  0.79617500  0.76822900  1
  Ni  Ni11  1  0.20382500  0.00044400  0.73177100  1
  Cu  Cu12  1  0.40124500  0.40186300  0.74028200  1
  Cu  Cu13  1  0.59813700  0.59875500  0.75971800  1
  Cu  Cu14  1  0.40186300  0.40124500  0.25971800  1
  Cu  Cu15  1  0.59875500  0.59813700  0.24028200  1
  Cu  Cu16  1  0.53351400  0.08293200  0.00039600  1
  Cu  Cu17  1  0.91706800  0.46648600  0.49960400  1
  Cu  Cu18  1  0.08293200  0.53351400  0.99960400  1
  Cu  Cu19  1  0.46648600  0.91706800  0.50039600  1
  C  C20  1  0.50393100  0.00154800  0.38182900  1
  C  C21  1  0.50543200  0.00011100  0.61955700  1
  C  C22  1  0.40290900  0.25368300  0.25934500  1
  C  C23  1  0.40434500  0.25599100  0.72548500  1
  C  C24  1  0.62766300  0.26962400  0.99953500  1
  C  C25  1  0.86219000  0.13781000  0.25000000  1
  C  C26  1  0.86242400  0.13757600  0.75000000  1
  C  C27  1  0.73037600  0.37233700  0.50046500  1
  C  C28  1  0.74400900  0.59565500  0.77451500  1
  C  C29  1  0.74631700  0.59709100  0.24065500  1
  C  C30  1  0.99845200  0.49606900  0.11817100  1
  C  C31  1  0.99988900  0.49456800  0.88044300  1
  C  C32  1  0.00154800  0.50393100  0.61817100  1
  C  C33  1  0.00011100  0.50543200  0.38044300  1
  C  C34  1  0.25368300  0.40290900  0.74065500  1
  C  C35  1  0.25599100  0.40434500  0.27451500  1
  C  C36  1  0.26962400  0.62766300  0.00046500  1
  C  C37  1  0.13757600  0.86242400  0.25000000  1
  C  C38  1  0.13781000  0.86219000  0.75000000  1
  C  C39  1  0.37233700  0.73037600  0.49953500  1
  C  C40  1  0.59565500  0.74400900  0.22548500  1
  C  C41  1  0.59709100  0.74631700  0.75934500  1
  C  C42  1  0.49456800  0.99988900  0.11955700  1
  C  C43  1  0.49606900  0.99845200  0.88182900  1
