# generated using pymatgen
data_CuNi2C15
_symmetry_space_group_name_H-M   'P 1'
_cell_length_a   8.43941765
_cell_length_b   8.43941765
_cell_length_c   8.43941780
_cell_angle_alpha   60.89738971
_cell_angle_beta   60.89738971
_cell_angle_gamma   60.89738732
_symmetry_Int_Tables_number   1
_chemical_formula_structural   CuNi2C15
_chemical_formula_sum   'Cu2 Ni4 C30'
_cell_volume   433.63018209
_cell_formula_units_Z   2
loop_
 _symmetry_equiv_pos_site_id
 _symmetry_equiv_pos_as_xyz
  1  'x, y, z'
loop_
 _atom_site_type_symbol
 _atom_site_label
 _atom_site_symmetry_multiplicity
 _atom_site_fract_x
 _atom_site_fract_y
 _atom_site_fract_z
 _atom_site_occupancy
  Ni  Ni0  1  0.14195400  0.14195400  0.14195400  1
  Ni  Ni1  1  0.35804600  0.35804600  0.35804600  1
  Ni  Ni2  1  0.64195400  0.64195400  0.64195400  1
  Ni  Ni3  1  0.85804600  0.85804600  0.85804600  1
  Cu  Cu4  1  0.00000000  0.00000000  0.00000000  1
  Cu  Cu5  1  0.50000000  0.50000000  0.50000000  1
  C  C6  1  0.75000000  0.04274100  0.45725900  1
  C  C7  1  0.04274100  0.45725900  0.75000000  1
  C  C8  1  0.45725900  0.75000000  0.04274100  1
  C  C9  1  0.54274100  0.25000000  0.95725900  1
  C  C10  1  0.95725900  0.54274100  0.25000000  1
  C  C11  1  0.25000000  0.95725900  0.54274100  1
  C  C12  1  0.31386800  0.11492600  0.50871200  1
  C  C13  1  0.50871200  0.31386800  0.11492600  1
  C  C14  1  0.91119800  0.05737800  0.25687200  1
  C  C15  1  0.11492600  0.50871200  0.31386800  1
  C  C16  1  0.81386800  0.00871200  0.61492600  1
  C  C17  1  0.58880200  0.24312800  0.44262200  1
  C  C18  1  0.05737800  0.25687200  0.91119800  1
  C  C19  1  0.24312800  0.44262200  0.58880200  1
  C  C20  1  0.38507400  0.18613200  0.99128800  1
  C  C21  1  0.44262200  0.58880200  0.24312800  1
  C  C22  1  0.74312800  0.08880200  0.94262200  1
  C  C23  1  0.99128800  0.38507400  0.18613200  1
  C  C24  1  0.00871200  0.61492600  0.81386800  1
  C  C25  1  0.25687200  0.91119800  0.05737800  1
  C  C26  1  0.55737800  0.41119800  0.75687200  1
  C  C27  1  0.61492600  0.81386800  0.00871200  1
  C  C28  1  0.75687200  0.55737800  0.41119800  1
  C  C29  1  0.94262200  0.74312800  0.08880200  1
  C  C30  1  0.41119800  0.75687200  0.55737800  1
  C  C31  1  0.18613200  0.99128800  0.38507400  1
  C  C32  1  0.88507400  0.49128800  0.68613200  1
  C  C33  1  0.08880200  0.94262200  0.74312800  1
  C  C34  1  0.49128800  0.68613200  0.88507400  1
  C  C35  1  0.68613200  0.88507400  0.49128800  1
