# generated using pymatgen
data_Cu3NiC12
_symmetry_space_group_name_H-M   'P 1'
_cell_length_a   9.00353500
_cell_length_b   5.10937000
_cell_length_c   10.26527207
_cell_angle_alpha   81.58729974
_cell_angle_beta   90.00000000
_cell_angle_gamma   90.00000000
_symmetry_Int_Tables_number   1
_chemical_formula_structural   Cu3NiC12
_chemical_formula_sum   'Cu6 Ni2 C24'
_cell_volume   467.14586849
_cell_formula_units_Z   2
loop_
 _symmetry_equiv_pos_site_id
 _symmetry_equiv_pos_as_xyz
  1  'x, y, z'
loop_
 _atom_site_type_symbol
 _atom_site_label
 _atom_site_symmetry_multiplicity
 _atom_site_fract_x
 _atom_site_fract_y
 _atom_site_fract_z
 _atom_site_occupancy
  C  C0  1  0.07676300  0.17570000  0.42258000  1
  C  C1  1  0.42323700  0.17570000  0.42258000  1
  C  C2  1  0.57676300  0.82430000  0.57742000  1
  C  C3  1  0.92323700  0.82430000  0.57742000  1
  Ni  Ni4  1  0.00000000  0.00000000  0.00000000  1
  Ni  Ni5  1  0.50000000  0.00000000  0.00000000  1
  Cu  Cu6  1  0.25000000  0.32120900  0.78654300  1
  Cu  Cu7  1  0.75000000  0.36104400  0.49931800  1
  Cu  Cu8  1  0.75000000  0.51683600  0.94385900  1
  Cu  Cu9  1  0.25000000  0.48316400  0.05614100  1
  Cu  Cu10  1  0.25000000  0.63895600  0.50068200  1
  Cu  Cu11  1  0.75000000  0.67879100  0.21345700  1
  C  C12  1  0.10846600  0.15695000  0.80066600  1
  C  C13  1  0.39153400  0.15695000  0.80066600  1
  C  C14  1  0.75000000  0.21912500  0.92527100  1
  C  C15  1  0.60765300  0.20112100  0.51855900  1
  C  C16  1  0.89234700  0.20112100  0.51855900  1
  C  C17  1  0.25000000  0.38762900  0.43660100  1
  C  C18  1  0.10649000  0.34195900  0.10465500  1
  C  C19  1  0.39351000  0.34195900  0.10465500  1
  C  C20  1  0.25000000  0.51737600  0.89594700  1
  C  C21  1  0.75000000  0.46659300  0.33683200  1
  C  C22  1  0.25000000  0.53340700  0.66316800  1
  C  C23  1  0.75000000  0.48262400  0.10405300  1
  C  C24  1  0.89351000  0.65804100  0.89534500  1
  C  C25  1  0.60649000  0.65804100  0.89534500  1
  C  C26  1  0.75000000  0.61237100  0.56339900  1
  C  C27  1  0.10765300  0.79887900  0.48144100  1
  C  C28  1  0.39234700  0.79887900  0.48144100  1
  C  C29  1  0.25000000  0.78087500  0.07472900  1
  C  C30  1  0.60846600  0.84305000  0.19933400  1
  C  C31  1  0.89153400  0.84305000  0.19933400  1
