# generated using pymatgen
data_CuNi9C16
_symmetry_space_group_name_H-M   'P 1'
_cell_length_a   15.64317039
_cell_length_b   15.64317039
_cell_length_c   14.01609276
_cell_angle_alpha   79.65576814
_cell_angle_beta   79.65576814
_cell_angle_gamma   32.06291164
_symmetry_Int_Tables_number   1
_chemical_formula_structural   CuNi9C16
_chemical_formula_sum   'Cu4 Ni36 C64'
_cell_volume   1788.68383249
_cell_formula_units_Z   4
loop_
 _symmetry_equiv_pos_site_id
 _symmetry_equiv_pos_as_xyz
  1  'x, y, z'
loop_
 _atom_site_type_symbol
 _atom_site_label
 _atom_site_symmetry_multiplicity
 _atom_site_fract_x
 _atom_site_fract_y
 _atom_site_fract_z
 _atom_site_occupancy
  C  C0  1  0.08383800  0.55523800  0.58791400  1
  C  C1  1  0.44476200  0.91616200  0.91208600  1
  C  C2  1  0.91616200  0.44476200  0.41208600  1
  C  C3  1  0.55523800  0.08383800  0.08791400  1
  C  C4  1  0.89655900  0.88222500  0.54974200  1
  C  C5  1  0.11777500  0.10344100  0.95025800  1
  C  C6  1  0.10344100  0.11777500  0.45025800  1
  C  C7  1  0.88222500  0.89655900  0.04974200  1
  C  C8  1  0.22297200  0.59878200  0.45937700  1
  C  C9  1  0.40121800  0.77702800  0.04062300  1
  C  C10  1  0.77702800  0.40121800  0.54062300  1
  C  C11  1  0.59878200  0.22297200  0.95937700  1
  Ni  Ni12  1  0.16714500  0.50322300  0.70545000  1
  Ni  Ni13  1  0.49677700  0.83285500  0.79455000  1
  Ni  Ni14  1  0.83285500  0.49677700  0.29455000  1
  Ni  Ni15  1  0.50322300  0.16714500  0.20545000  1
  Ni  Ni16  1  0.23931700  0.33633600  0.57333900  1
  Ni  Ni17  1  0.66366400  0.76068300  0.92666100  1
  Ni  Ni18  1  0.76068300  0.66366400  0.42666100  1
  Ni  Ni19  1  0.33633600  0.23931700  0.07333900  1
  Ni  Ni20  1  0.93109400  0.60333800  0.65788900  1
  Ni  Ni21  1  0.39666200  0.06890600  0.84211100  1
  Ni  Ni22  1  0.06890600  0.39666200  0.34211100  1
  Ni  Ni23  1  0.60333800  0.93109400  0.15788900  1
  Ni  Ni24  1  0.97306600  0.85834500  0.65802700  1
  Ni  Ni25  1  0.14165500  0.02693400  0.84197300  1
  Ni  Ni26  1  0.02693400  0.14165500  0.34197300  1
  Ni  Ni27  1  0.85834500  0.97306600  0.15802700  1
  Ni  Ni28  1  0.67745300  0.06231600  0.60143800  1
  Ni  Ni29  1  0.93768400  0.32254700  0.89856200  1
  Ni  Ni30  1  0.32254700  0.93768400  0.39856200  1
  Ni  Ni31  1  0.06231600  0.67745300  0.10143800  1
  Ni  Ni32  1  0.86984800  0.01870200  0.48059400  1
  Ni  Ni33  1  0.98129800  0.13015200  0.01940600  1
  Ni  Ni34  1  0.13015200  0.98129800  0.51940600  1
  Ni  Ni35  1  0.01870200  0.86984800  0.98059400  1
  Ni  Ni36  1  0.32079000  0.55451500  0.56254800  1
  Ni  Ni37  1  0.44548500  0.67921000  0.93745200  1
  Ni  Ni38  1  0.67921000  0.44548500  0.43745200  1
  Ni  Ni39  1  0.55451500  0.32079000  0.06254800  1
  Ni  Ni40  1  0.21285700  0.72279600  0.39254300  1
  Ni  Ni41  1  0.27720400  0.78714300  0.10745700  1
  Ni  Ni42  1  0.78714300  0.27720400  0.60745700  1
  Ni  Ni43  1  0.72279600  0.21285700  0.89254300  1
  Ni  Ni44  1  0.42729500  0.40929400  0.39492900  1
  Ni  Ni45  1  0.59070600  0.57270500  0.10507100  1
  Ni  Ni46  1  0.57270500  0.59070600  0.60507100  1
  Ni  Ni47  1  0.40929400  0.42729500  0.89492900  1
  Cu  Cu48  1  0.94383400  0.73338200  0.38061100  1
  Cu  Cu49  1  0.26661800  0.05616600  0.11938900  1
  Cu  Cu50  1  0.05616600  0.26661800  0.61938900  1
  Cu  Cu51  1  0.73338200  0.94383400  0.88061100  1
  C  C52  1  0.98572600  0.61899000  0.45534400  1
  C  C53  1  0.38101000  0.01427400  0.04465600  1
  C  C54  1  0.01427400  0.38101000  0.54465600  1
  C  C55  1  0.61899000  0.98572600  0.95534400  1
  C  C56  1  0.82370700  0.88918300  0.42923400  1
  C  C57  1  0.11081700  0.17629300  0.07076600  1
  C  C58  1  0.17629300  0.11081700  0.57076600  1
  C  C59  1  0.88918300  0.82370700  0.92923400  1
  C  C60  1  0.09947200  0.65281800  0.35047500  1
  C  C61  1  0.34718200  0.90052800  0.14952500  1
  C  C62  1  0.90052800  0.34718200  0.64952500  1
  C  C63  1  0.65281800  0.09947200  0.85047500  1
  C  C64  1  0.87664700  0.76362600  0.29809700  1
  C  C65  1  0.23637400  0.12335300  0.20190300  1
  C  C66  1  0.12335300  0.23637400  0.70190300  1
  C  C67  1  0.76362600  0.87664700  0.79809700  1
  C  C68  1  0.21542400  0.47003200  0.77966200  1
  C  C69  1  0.52996800  0.78457600  0.72033800  1
  C  C70  1  0.78457600  0.52996800  0.22033800  1
  C  C71  1  0.47003200  0.21542400  0.27966200  1
  C  C72  1  0.33825900  0.20272000  0.56020000  1
  C  C73  1  0.79728000  0.66174100  0.93980000  1
  C  C74  1  0.66174100  0.79728000  0.43980000  1
  C  C75  1  0.20272000  0.33825900  0.06020000  1
  C  C76  1  0.83134600  0.64163700  0.69920600  1
  C  C77  1  0.35836300  0.16865400  0.80079400  1
  C  C78  1  0.16865400  0.35836300  0.30079400  1
  C  C79  1  0.64163700  0.83134600  0.19920600  1
  C  C80  1  0.01741500  0.84889800  0.72358800  1
  C  C81  1  0.15110200  0.98258500  0.77641200  1
  C  C82  1  0.98258500  0.15110200  0.27641200  1
  C  C83  1  0.84889800  0.01741500  0.22358800  1
  C  C84  1  0.54430400  0.17258800  0.63161400  1
  C  C85  1  0.82741200  0.45569600  0.86838600  1
  C  C86  1  0.45569600  0.82741200  0.36838600  1
  C  C87  1  0.17258800  0.54430400  0.13161400  1
  C  C88  1  0.85347900  0.10272300  0.43736400  1
  C  C89  1  0.89727700  0.14652100  0.06263600  1
  C  C90  1  0.14652100  0.89727700  0.56263600  1
  C  C91  1  0.10272300  0.85347900  0.93736400  1
  C  C92  1  0.38501600  0.52663200  0.62348100  1
  C  C93  1  0.47336800  0.61498400  0.87651900  1
  C  C94  1  0.61498400  0.47336800  0.37651900  1
  C  C95  1  0.52663200  0.38501600  0.12348100  1
  C  C96  1  0.20439700  0.80177000  0.35291800  1
  C  C97  1  0.19823000  0.79560300  0.14708200  1
  C  C98  1  0.79560300  0.19823000  0.64708200  1
  C  C99  1  0.80177000  0.20439700  0.85291800  1
  C  C100  1  0.55468000  0.29317800  0.36000600  1
  C  C101  1  0.70682200  0.44532000  0.13999400  1
  C  C102  1  0.44532000  0.70682200  0.63999400  1
  C  C103  1  0.29317800  0.55468000  0.86000600  1
