# generated using pymatgen
data_Cu2Ni3C23
_symmetry_space_group_name_H-M   'P 1'
_cell_length_a   5.99185676
_cell_length_b   5.99185676
_cell_length_c   9.82326218
_cell_angle_alpha   89.91025578
_cell_angle_beta   89.91025578
_cell_angle_gamma   60.68903709
_symmetry_Int_Tables_number   1
_chemical_formula_structural   Cu2Ni3C23
_chemical_formula_sum   'Cu2 Ni3 C23'
_cell_volume   307.52625989
_cell_formula_units_Z   1
loop_
 _symmetry_equiv_pos_site_id
 _symmetry_equiv_pos_as_xyz
  1  'x, y, z'
loop_
 _atom_site_type_symbol
 _atom_site_label
 _atom_site_symmetry_multiplicity
 _atom_site_fract_x
 _atom_site_fract_y
 _atom_site_fract_z
 _atom_site_occupancy
  C  C0  1  0.66659700  0.66659700  0.87472100  1
  C  C1  1  0.98548100  0.98548100  0.98939400  1
  C  C2  1  0.99007400  0.99007400  0.50636100  1
  C  C3  1  0.33124300  0.33124300  0.40136800  1
  Ni  Ni4  1  0.83304800  0.83304800  0.21539700  1
  Ni  Ni5  1  0.66261800  0.17245200  0.71529100  1
  Ni  Ni6  1  0.17245200  0.66261800  0.71529100  1
  Cu  Cu7  1  0.67479800  0.67479800  0.51901700  1
  Cu  Cu8  1  0.34321300  0.34321300  0.97566700  1
  C  C9  1  0.83217300  0.33934200  0.21569600  1
  C  C10  1  0.33934200  0.83217300  0.21569600  1
  C  C11  1  0.17149600  0.17149600  0.71513000  1
  C  C12  1  0.84351800  0.31475000  0.60136700  1
  C  C13  1  0.51274800  0.51274800  0.33207700  1
  C  C14  1  0.66855800  0.66855800  0.10201900  1
  C  C15  1  0.99933900  0.99933900  0.31950900  1
  C  C16  1  0.00142600  0.00142600  0.81169300  1
  C  C17  1  0.31475000  0.84351800  0.60136700  1
  C  C18  1  0.96824100  0.52102900  0.32586200  1
  C  C19  1  0.52102900  0.96824100  0.32586200  1
  C  C20  1  0.15752400  0.15752400  0.10009600  1
  C  C21  1  0.84275100  0.84275100  0.61297000  1
  C  C22  1  0.48662100  0.03590700  0.83347300  1
  C  C23  1  0.03590700  0.48662100  0.83347300  1
  C  C24  1  0.33607700  0.33607700  0.60615100  1
  C  C25  1  0.68845800  0.15544500  0.10849000  1
  C  C26  1  0.48306600  0.48306600  0.82600400  1
  C  C27  1  0.15544500  0.68845800  0.10849000  1
