# generated using pymatgen
data_Cu3NiC10
_symmetry_space_group_name_H-M   'P 1'
_cell_length_a   8.35539100
_cell_length_b   8.50524300
_cell_length_c   8.52062300
_cell_angle_alpha   90.00000000
_cell_angle_beta   90.00000000
_cell_angle_gamma   90.00000000
_symmetry_Int_Tables_number   1
_chemical_formula_structural   Cu3NiC10
_chemical_formula_sum   'Cu12 Ni4 C40'
_cell_volume   605.51492781
_cell_formula_units_Z   4
loop_
 _symmetry_equiv_pos_site_id
 _symmetry_equiv_pos_as_xyz
  1  'x, y, z'
loop_
 _atom_site_type_symbol
 _atom_site_label
 _atom_site_symmetry_multiplicity
 _atom_site_fract_x
 _atom_site_fract_y
 _atom_site_fract_z
 _atom_site_occupancy
  C  C0  1  0.74901000  0.74954000  0.75075200  1
  C  C1  1  0.50407700  0.50300100  0.50188400  1
  C  C2  1  0.49592300  0.00300100  0.99811600  1
  C  C3  1  0.25099000  0.24954000  0.74924800  1
  C  C4  1  0.24901000  0.75046000  0.24924800  1
  C  C5  1  0.00407700  0.99699900  0.49811600  1
  C  C6  1  0.99592300  0.49699900  0.00188400  1
  C  C7  1  0.75099000  0.25046000  0.25075200  1
  Ni  Ni8  1  0.61976800  0.37395700  0.87790600  1
  Ni  Ni9  1  0.38023200  0.87395700  0.62209400  1
  Ni  Ni10  1  0.11976800  0.12604300  0.12209400  1
  Ni  Ni11  1  0.88023200  0.62604300  0.37790600  1
  Cu  Cu12  1  0.63172200  0.12702800  0.62624900  1
  Cu  Cu13  1  0.62814200  0.87834000  0.37592300  1
  Cu  Cu14  1  0.62615600  0.62619400  0.12417200  1
  Cu  Cu15  1  0.37384400  0.12619400  0.37582800  1
  Cu  Cu16  1  0.37185800  0.37834000  0.12407700  1
  Cu  Cu17  1  0.36827800  0.62702800  0.87375100  1
  Cu  Cu18  1  0.13172200  0.37297200  0.37375100  1
  Cu  Cu19  1  0.12814200  0.62166000  0.62407700  1
  Cu  Cu20  1  0.12615600  0.87380600  0.87582800  1
  Cu  Cu21  1  0.87384400  0.37380600  0.62417200  1
  Cu  Cu22  1  0.87185800  0.12166000  0.87592300  1
  Cu  Cu23  1  0.86827800  0.87297200  0.12624900  1
  C  C24  1  0.63249400  0.36149400  0.63861700  1
  C  C25  1  0.62871900  0.14186100  0.86199400  1
  C  C26  1  0.64529900  0.87168600  0.13078800  1
  C  C27  1  0.61290200  0.89014100  0.61916900  1
  C  C28  1  0.64305200  0.63787800  0.36080900  1
  C  C29  1  0.61697500  0.11429100  0.39210800  1
  C  C30  1  0.61348100  0.38289500  0.10744600  1
  C  C31  1  0.60679000  0.61084300  0.88402900  1
  C  C32  1  0.39321000  0.11084300  0.61597100  1
  C  C33  1  0.38651900  0.88289500  0.39255400  1
  C  C34  1  0.38302500  0.61429100  0.10789200  1
  C  C35  1  0.35694800  0.13787800  0.13919100  1
  C  C36  1  0.38709800  0.39014100  0.88083100  1
  C  C37  1  0.35470100  0.37168600  0.36921200  1
  C  C38  1  0.37128100  0.64186100  0.63800600  1
  C  C39  1  0.36750600  0.86149400  0.86138300  1
  C  C40  1  0.13249400  0.13850600  0.36138300  1
  C  C41  1  0.12871900  0.35813900  0.13800600  1
  C  C42  1  0.14529900  0.62831400  0.86921200  1
  C  C43  1  0.11290200  0.60985900  0.38083100  1
  C  C44  1  0.14305200  0.86212200  0.63919100  1
  C  C45  1  0.11697500  0.38570900  0.60789200  1
  C  C46  1  0.11348100  0.11710500  0.89255400  1
  C  C47  1  0.10679000  0.88915700  0.11597100  1
  C  C48  1  0.89321000  0.38915700  0.38402900  1
  C  C49  1  0.88651900  0.61710500  0.60744600  1
  C  C50  1  0.88302500  0.88570900  0.89210800  1
  C  C51  1  0.85694800  0.36212200  0.86080900  1
  C  C52  1  0.88709800  0.10985900  0.11916900  1
  C  C53  1  0.85470100  0.12831400  0.63078800  1
  C  C54  1  0.87128100  0.85813900  0.36199400  1
  C  C55  1  0.86750600  0.63850600  0.13861700  1
