# generated using pymatgen
data_Cu4Ni2C13
_symmetry_space_group_name_H-M   'P 1'
_cell_length_a   7.80317000
_cell_length_b   12.23996300
_cell_length_c   12.43115700
_cell_angle_alpha   90.00000000
_cell_angle_beta   90.00000000
_cell_angle_gamma   90.00000000
_symmetry_Int_Tables_number   1
_chemical_formula_structural   Cu4Ni2C13
_chemical_formula_sum   'Cu16 Ni8 C52'
_cell_volume   1187.30617085
_cell_formula_units_Z   4
loop_
 _symmetry_equiv_pos_site_id
 _symmetry_equiv_pos_as_xyz
  1  'x, y, z'
loop_
 _atom_site_type_symbol
 _atom_site_label
 _atom_site_symmetry_multiplicity
 _atom_site_fract_x
 _atom_site_fract_y
 _atom_site_fract_z
 _atom_site_occupancy
  C  C0  1  0.25000000  0.10054300  0.28195800  1
  C  C1  1  0.25000000  0.39945700  0.78195800  1
  C  C2  1  0.75000000  0.89945700  0.71804200  1
  C  C3  1  0.75000000  0.60054300  0.21804200  1
  C  C4  1  0.14388300  0.91182000  0.19829200  1
  C  C5  1  0.35611700  0.58818000  0.69829200  1
  C  C6  1  0.64388300  0.08818000  0.80170800  1
  C  C7  1  0.85611700  0.41182000  0.30170800  1
  C  C8  1  0.85611700  0.08818000  0.80170800  1
  C  C9  1  0.64388300  0.41182000  0.30170800  1
  C  C10  1  0.35611700  0.91182000  0.19829200  1
  C  C11  1  0.14388300  0.58818000  0.69829200  1
  C  C12  1  0.25000000  0.90048600  0.31142200  1
  C  C13  1  0.25000000  0.59951400  0.81142200  1
  C  C14  1  0.75000000  0.09951400  0.68857800  1
  C  C15  1  0.75000000  0.40048600  0.18857800  1
  C  C16  1  0.14325600  0.14079900  0.47605300  1
  C  C17  1  0.35674400  0.35920100  0.97605300  1
  C  C18  1  0.64325600  0.85920100  0.52394700  1
  C  C19  1  0.85674400  0.64079900  0.02394700  1
  C  C20  1  0.85674400  0.85920100  0.52394700  1
  C  C21  1  0.64325600  0.64079900  0.02394700  1
  C  C22  1  0.35674400  0.14079900  0.47605300  1
  C  C23  1  0.14325600  0.35920100  0.97605300  1
  C  C24  1  0.25000000  0.02184100  0.48318600  1
  C  C25  1  0.25000000  0.47815900  0.98318600  1
  C  C26  1  0.75000000  0.97815900  0.51681400  1
  C  C27  1  0.75000000  0.52184100  0.01681400  1
  C  C28  1  0.79802800  0.09293000  0.22026900  1
  C  C29  1  0.70197200  0.40707000  0.72026900  1
  C  C30  1  0.29802800  0.90707000  0.77973100  1
  C  C31  1  0.20197200  0.59293000  0.27973100  1
  C  C32  1  0.20197200  0.90707000  0.77973100  1
  C  C33  1  0.29802800  0.59293000  0.27973100  1
  C  C34  1  0.70197200  0.09293000  0.22026900  1
  C  C35  1  0.79802800  0.40707000  0.72026900  1
  C  C36  1  0.00486000  0.31225800  0.30321200  1
  C  C37  1  0.49514000  0.18774200  0.80321200  1
  C  C38  1  0.50486000  0.68774200  0.69678800  1
  C  C39  1  0.99514000  0.81225800  0.19678800  1
  C  C40  1  0.99514000  0.68774200  0.69678800  1
  C  C41  1  0.50486000  0.81225800  0.19678800  1
  C  C42  1  0.49514000  0.31225800  0.30321200  1
  C  C43  1  0.00486000  0.18774200  0.80321200  1
  C  C44  1  0.03881100  0.17912400  0.13583900  1
  C  C45  1  0.46118900  0.32087600  0.63583900  1
  C  C46  1  0.53881100  0.82087600  0.86416100  1
  C  C47  1  0.96118900  0.67912400  0.36416100  1
  C  C48  1  0.96118900  0.82087600  0.86416100  1
  C  C49  1  0.53881100  0.67912400  0.36416100  1
  C  C50  1  0.46118900  0.17912400  0.13583900  1
  C  C51  1  0.03881100  0.32087600  0.63583900  1
  Ni  Ni52  1  0.25000000  0.18380400  0.78892300  1
  Ni  Ni53  1  0.25000000  0.31619600  0.28892300  1
  Ni  Ni54  1  0.75000000  0.81619600  0.21107700  1
  Ni  Ni55  1  0.75000000  0.68380400  0.71107700  1
  Ni  Ni56  1  0.25000000  0.81107900  0.49645300  1
  Ni  Ni57  1  0.25000000  0.68892100  0.99645300  1
  Ni  Ni58  1  0.75000000  0.18892100  0.50354700  1
  Ni  Ni59  1  0.75000000  0.31107900  0.00354700  1
  Cu  Cu60  1  0.25000000  0.94334700  0.23867900  1
  Cu  Cu61  1  0.25000000  0.55665300  0.73867900  1
  Cu  Cu62  1  0.75000000  0.05665300  0.76132100  1
  Cu  Cu63  1  0.75000000  0.44334700  0.26132100  1
  Cu  Cu64  1  0.25000000  0.09946900  0.44938000  1
  Cu  Cu65  1  0.25000000  0.40053100  0.94938000  1
  Cu  Cu66  1  0.75000000  0.90053100  0.55062000  1
  Cu  Cu67  1  0.75000000  0.59946900  0.05062000  1
  Cu  Cu68  1  0.17883700  0.02993100  0.01148700  1
  Cu  Cu69  1  0.32116300  0.47006900  0.51148700  1
  Cu  Cu70  1  0.67883700  0.97006900  0.98851300  1
  Cu  Cu71  1  0.82116300  0.52993100  0.48851300  1
  Cu  Cu72  1  0.82116300  0.97006900  0.98851300  1
  Cu  Cu73  1  0.67883700  0.52993100  0.48851300  1
  Cu  Cu74  1  0.32116300  0.02993100  0.01148700  1
  Cu  Cu75  1  0.17883700  0.47006900  0.51148700  1
