# generated using pymatgen
data_Cu2NiC33
_symmetry_space_group_name_H-M   'P 1'
_cell_length_a   8.47950031
_cell_length_b   8.47950031
_cell_length_c   8.47950028
_cell_angle_alpha   61.39974871
_cell_angle_beta   61.39974871
_cell_angle_gamma   61.39975122
_symmetry_Int_Tables_number   1
_chemical_formula_structural   Cu2NiC33
_chemical_formula_sum   'Cu2 Ni1 C33'
_cell_volume   444.67317044
_cell_formula_units_Z   1
loop_
 _symmetry_equiv_pos_site_id
 _symmetry_equiv_pos_as_xyz
  1  'x, y, z'
loop_
 _atom_site_type_symbol
 _atom_site_label
 _atom_site_symmetry_multiplicity
 _atom_site_fract_x
 _atom_site_fract_y
 _atom_site_fract_z
 _atom_site_occupancy
  Ni  Ni0  1  0.85674100  0.85674100  0.85674100  1
  C  C1  1  0.35636500  0.35636500  0.35636500  1
  C  C2  1  0.14213000  0.14213000  0.14213000  1
  C  C3  1  0.64327200  0.64327200  0.64327200  1
  Cu  Cu4  1  0.99884900  0.99884900  0.99884900  1
  Cu  Cu5  1  0.49879900  0.49879900  0.49879900  1
  C  C6  1  0.75228400  0.04622800  0.45256600  1
  C  C7  1  0.04622800  0.45256600  0.75228400  1
  C  C8  1  0.45256600  0.75228400  0.04622800  1
  C  C9  1  0.54227400  0.25298300  0.95668700  1
  C  C10  1  0.95668700  0.54227400  0.25298300  1
  C  C11  1  0.25298300  0.95668700  0.54227400  1
  C  C12  1  0.88120200  0.49622700  0.68865100  1
  C  C13  1  0.49622700  0.68865100  0.88120200  1
  C  C14  1  0.68865100  0.88120200  0.49622700  1
  C  C15  1  0.91047500  0.06101700  0.25213100  1
  C  C16  1  0.81676200  0.01868900  0.60233300  1
  C  C17  1  0.58925900  0.24415700  0.42927800  1
  C  C18  1  0.06101700  0.25213100  0.91047500  1
  C  C19  1  0.24415700  0.42927800  0.58925900  1
  C  C20  1  0.38163100  0.18560000  0.99795300  1
  C  C21  1  0.42927800  0.58925900  0.24415700  1
  C  C22  1  0.73643200  0.09920200  0.95037300  1
  C  C23  1  0.99795300  0.38163100  0.18560000  1
  C  C24  1  0.01868900  0.60233300  0.81676200  1
  C  C25  1  0.25213100  0.91047500  0.06101700  1
  C  C26  1  0.55378000  0.41472200  0.75849700  1
  C  C27  1  0.60233300  0.81676200  0.01868900  1
  C  C28  1  0.75849700  0.55378000  0.41472200  1
  C  C29  1  0.95037300  0.73643200  0.09920200  1
  C  C30  1  0.41472200  0.75849700  0.55378000  1
  C  C31  1  0.18560000  0.99795300  0.38163100  1
  C  C32  1  0.09920200  0.95037300  0.73643200  1
  C  C33  1  0.33355200  0.11136400  0.48751900  1
  C  C34  1  0.48751900  0.33355200  0.11136400  1
  C  C35  1  0.11136400  0.48751900  0.33355200  1
