# generated using pymatgen
data_CuNiC10
_symmetry_space_group_name_H-M   'P 1'
_cell_length_a   3.16164600
_cell_length_b   8.25987400
_cell_length_c   14.30769806
_cell_angle_alpha   89.97790294
_cell_angle_beta   90.00000000
_cell_angle_gamma   90.00000000
_symmetry_Int_Tables_number   1
_chemical_formula_structural   CuNiC10
_chemical_formula_sum   'Cu3 Ni3 C30'
_cell_volume   373.64261117
_cell_formula_units_Z   3
loop_
 _symmetry_equiv_pos_site_id
 _symmetry_equiv_pos_as_xyz
  1  'x, y, z'
loop_
 _atom_site_type_symbol
 _atom_site_label
 _atom_site_symmetry_multiplicity
 _atom_site_fract_x
 _atom_site_fract_y
 _atom_site_fract_z
 _atom_site_occupancy
  C  C0  1  0.50000000  0.70763600  0.00855100  1
  C  C1  1  0.50000000  0.66104900  0.64143500  1
  C  C2  1  0.50000000  0.63522400  0.34971500  1
  C  C3  1  0.50000000  0.20641400  0.50835500  1
  C  C4  1  0.50000000  0.15754000  0.14302200  1
  C  C5  1  0.50000000  0.13231000  0.84881600  1
  Ni  Ni6  1  0.00000000  0.36700000  0.99417000  1
  Ni  Ni7  1  0.00000000  0.32617700  0.68538900  1
  Ni  Ni8  1  0.00000000  0.30815000  0.32024000  1
  Cu  Cu9  1  0.00000000  0.86233400  0.49597000  1
  Cu  Cu10  1  0.00000000  0.82398100  0.18401400  1
  Cu  Cu11  1  0.00000000  0.81279000  0.82032800  1
  C  C12  1  0.50000000  0.99727300  0.33390500  1
  C  C13  1  0.00000000  0.99877400  0.00082200  1
  C  C14  1  0.50000000  0.99792200  0.66674100  1
  C  C15  1  0.50000000  0.50252700  0.83274300  1
  C  C16  1  0.00000000  0.50110300  0.49913100  1
  C  C17  1  0.50000000  0.50201600  0.16671900  1
  C  C18  1  0.50000000  0.98628600  0.56961300  1
  C  C19  1  0.50000000  0.98070000  0.23693500  1
  C  C20  1  0.50000000  0.86165900  0.39148200  1
  C  C21  1  0.50000000  0.85880900  0.72157100  1
  C  C22  1  0.00000000  0.84627800  0.04219800  1
  C  C23  1  0.50000000  0.65545100  0.87354100  1
  C  C24  1  0.50000000  0.65288700  0.21001300  1
  C  C25  1  0.00000000  0.63867900  0.55581400  1
  C  C26  1  0.00000000  0.51849000  0.40251600  1
  C  C27  1  0.50000000  0.49171000  0.06977400  1
  C  C28  1  0.50000000  0.48709800  0.73579900  1
  C  C29  1  0.50000000  0.36350200  0.88816500  1
  C  C30  1  0.50000000  0.36136200  0.21978900  1
  C  C31  1  0.00000000  0.34726500  0.53919800  1
  C  C32  1  0.50000000  0.15118800  0.37400200  1
  C  C33  1  0.50000000  0.14901500  0.70925100  1
  C  C34  1  0.00000000  0.13675100  0.05667500  1
  C  C35  1  0.00000000  0.01265200  0.90359800  1
