# generated using pymatgen
data_Cu2Ni2C21
_symmetry_space_group_name_H-M   'P 1'
_cell_length_a   6.68731000
_cell_length_b   8.97397999
_cell_length_c   10.46054342
_cell_angle_alpha   90.26436814
_cell_angle_beta   90.25765964
_cell_angle_gamma   90.59874483
_symmetry_Int_Tables_number   1
_chemical_formula_structural   Cu2Ni2C21
_chemical_formula_sum   'Cu4 Ni4 C42'
_cell_volume   627.70845121
_cell_formula_units_Z   2
loop_
 _symmetry_equiv_pos_site_id
 _symmetry_equiv_pos_as_xyz
  1  'x, y, z'
loop_
 _atom_site_type_symbol
 _atom_site_label
 _atom_site_symmetry_multiplicity
 _atom_site_fract_x
 _atom_site_fract_y
 _atom_site_fract_z
 _atom_site_occupancy
  C  C0  1  0.73197000  0.92530000  0.38637400  1
  C  C1  1  0.73927300  0.91055400  0.87609400  1
  C  C2  1  0.99699800  0.73533100  0.12059500  1
  C  C3  1  0.50442600  0.73457600  0.12088100  1
  C  C4  1  0.98906700  0.73905100  0.62940600  1
  C  C5  1  0.01093300  0.26094900  0.37059400  1
  C  C6  1  0.49557400  0.26542400  0.87911900  1
  C  C7  1  0.00300200  0.26466900  0.87940500  1
  C  C8  1  0.26072700  0.08944600  0.12390600  1
  C  C9  1  0.26803000  0.07470000  0.61362600  1
  C  C10  1  0.26185600  0.64685200  0.39876200  1
  C  C11  1  0.25346700  0.65265100  0.88379800  1
  C  C12  1  0.74653300  0.34734900  0.11620200  1
  C  C13  1  0.73814400  0.35314800  0.60123800  1
  Ni  Ni14  1  0.75335200  0.58512800  0.35544000  1
  Ni  Ni15  1  0.75218800  0.57646400  0.85220800  1
  Ni  Ni16  1  0.24781200  0.42353600  0.14779200  1
  Ni  Ni17  1  0.24664800  0.41487200  0.64456000  1
  Cu  Cu18  1  0.24019300  0.92844000  0.36303000  1
  Cu  Cu19  1  0.24537700  0.94541800  0.86685500  1
  Cu  Cu20  1  0.75462300  0.05458200  0.13314500  1
  Cu  Cu21  1  0.75980700  0.07156000  0.63697000  1
  C  C22  1  0.75227700  0.91052300  0.14234000  1
  C  C23  1  0.77147300  0.93177900  0.64927800  1
  C  C24  1  0.24320300  0.86438200  0.47530200  1
  C  C25  1  0.25590600  0.88289000  0.97967400  1
  C  C26  1  0.25388300  0.83528900  0.26546600  1
  C  C27  1  0.23614800  0.86249900  0.76533200  1
  C  C28  1  0.93888400  0.68263100  0.39501300  1
  C  C29  1  0.56199700  0.67682800  0.38669000  1
  C  C30  1  0.93610900  0.67864800  0.88118000  1
  C  C31  1  0.56912900  0.67407900  0.88408700  1
  C  C32  1  0.24671400  0.57070200  0.07214700  1
  C  C33  1  0.24445400  0.56576300  0.57228800  1
  C  C34  1  0.75736700  0.55542400  0.20996200  1
  C  C35  1  0.75873800  0.53261900  0.70562400  1
  C  C36  1  0.24126200  0.46738100  0.29437600  1
  C  C37  1  0.24263300  0.44457600  0.79003800  1
  C  C38  1  0.75554600  0.43423700  0.42771200  1
  C  C39  1  0.75328600  0.42929800  0.92785300  1
  C  C40  1  0.43087100  0.32592100  0.11591300  1
  C  C41  1  0.06389100  0.32135200  0.11882000  1
  C  C42  1  0.43800300  0.32317200  0.61331000  1
  C  C43  1  0.06111600  0.31736900  0.60498700  1
  C  C44  1  0.76385200  0.13750100  0.23466800  1
  C  C45  1  0.74611700  0.16471100  0.73453400  1
  C  C46  1  0.74409400  0.11711000  0.02032600  1
  C  C47  1  0.75679700  0.13561800  0.52469800  1
  C  C48  1  0.22852700  0.06822100  0.35072200  1
  C  C49  1  0.24772300  0.08947700  0.85766000  1
