# generated using pymatgen
data_Cu4NiC2
_symmetry_space_group_name_H-M   'P 1'
_cell_length_a   9.88716397
_cell_length_b   9.87910707
_cell_length_c   9.80412939
_cell_angle_alpha   60.30498320
_cell_angle_beta   60.22321361
_cell_angle_gamma   59.47180319
_symmetry_Int_Tables_number   1
_chemical_formula_structural   Cu4NiC2
_chemical_formula_sum   'Cu32 Ni8 C16'
_cell_volume   677.06122359
_cell_formula_units_Z   8
loop_
 _symmetry_equiv_pos_site_id
 _symmetry_equiv_pos_as_xyz
  1  'x, y, z'
loop_
 _atom_site_type_symbol
 _atom_site_label
 _atom_site_symmetry_multiplicity
 _atom_site_fract_x
 _atom_site_fract_y
 _atom_site_fract_z
 _atom_site_occupancy
  C  C0  1  0.83337100  0.41074200  0.57261900  1
  C  C1  1  0.06726900  0.67847800  0.41582500  1
  C  C2  1  0.67847800  0.06726900  0.83842700  1
  C  C3  1  0.06673300  0.67738100  0.83925800  1
  C  C4  1  0.83417500  0.41157300  0.18273100  1
  C  C5  1  0.41074200  0.83337100  0.18326700  1
  C  C6  1  0.41157300  0.83417500  0.57152200  1
  C  C7  1  0.67175400  0.67175400  0.82824600  1
  C  C8  1  0.67738100  0.06673300  0.41662900  1
  C  C9  1  0.42175400  0.42175400  0.57824600  1
  C  C10  1  0.75250100  0.24727000  0.00068300  1
  C  C11  1  0.24931700  0.25045400  0.49749900  1
  C  C12  1  0.24727000  0.75250100  0.99954600  1
  C  C13  1  0.25045400  0.24931700  0.00273000  1
  C  C14  1  0.87344100  0.87344100  0.62655900  1
  C  C15  1  0.62344100  0.62344100  0.37655900  1
  Ni  Ni16  1  0.46610500  0.11277300  0.20954200  1
  Ni  Ni17  1  0.11277300  0.46610500  0.21158000  1
  Ni  Ni18  1  0.46302600  0.46292700  0.21400300  1
  Ni  Ni19  1  0.46292700  0.46302600  0.86004300  1
  Ni  Ni20  1  0.04045800  0.03842000  0.78389500  1
  Ni  Ni21  1  0.03842000  0.04045800  0.13722700  1
  Ni  Ni22  1  0.38995700  0.03599700  0.78707300  1
  Ni  Ni23  1  0.03599700  0.38995700  0.78697400  1
  Cu  Cu24  1  0.89487100  0.15510700  0.80844000  1
  Cu  Cu25  1  0.10673200  0.35198500  0.35567900  1
  Cu  Cu26  1  0.35198500  0.10673200  0.18560300  1
  Cu  Cu27  1  0.06024200  0.39387300  0.64233900  1
  Cu  Cu28  1  0.10841800  0.44156000  0.09489300  1
  Cu  Cu29  1  0.80736900  0.80711800  0.56352100  1
  Cu  Cu30  1  0.80711800  0.80736900  0.82199200  1
  Cu  Cu31  1  0.11708100  0.60535700  0.18568000  1
  Cu  Cu32  1  0.60535700  0.11708100  0.09188200  1
  Cu  Cu33  1  0.34693600  0.43795800  0.35681700  1
  Cu  Cu34  1  0.43795800  0.34693600  0.85829000  1
  Cu  Cu35  1  0.79971000  0.06579100  0.56705800  1
  Cu  Cu36  1  0.06579100  0.79971000  0.56744100  1
  Cu  Cu37  1  0.06439700  0.89432100  0.89801500  1
  Cu  Cu38  1  0.89432100  0.06439700  0.14326800  1
  Cu  Cu39  1  0.34645400  0.60766100  0.85612700  1
  Cu  Cu40  1  0.15510700  0.89487100  0.14158200  1
  Cu  Cu41  1  0.60606400  0.43737700  0.85832000  1
  Cu  Cu42  1  0.43737700  0.60606400  0.09823900  1
  Cu  Cu43  1  0.68647900  0.42800800  0.44263100  1
  Cu  Cu44  1  0.42800800  0.68647900  0.44288200  1
  Cu  Cu45  1  0.06432000  0.15811800  0.13291900  1
  Cu  Cu46  1  0.15811800  0.06432000  0.64464300  1
  Cu  Cu47  1  0.89318300  0.39171000  0.90306400  1
  Cu  Cu48  1  0.39171000  0.89318300  0.81204200  1
  Cu  Cu49  1  0.68255900  0.68294200  0.18420900  1
  Cu  Cu50  1  0.68294200  0.68255900  0.45029000  1
  Cu  Cu51  1  0.39387300  0.06024200  0.90354600  1
  Cu  Cu52  1  0.44156000  0.10841800  0.35512900  1
  Cu  Cu53  1  0.39168000  0.15176100  0.64393600  1
  Cu  Cu54  1  0.15176100  0.39168000  0.81262300  1
  Cu  Cu55  1  0.60766100  0.34645400  0.18975800  1
