# generated using pymatgen
data_Cu3Ni5C26
_symmetry_space_group_name_H-M   'P 1'
_cell_length_a   6.03617616
_cell_length_b   6.03617616
_cell_length_c   9.91802606
_cell_angle_alpha   89.44824164
_cell_angle_beta   89.44824164
_cell_angle_gamma   59.49207961
_symmetry_Int_Tables_number   1
_chemical_formula_structural   Cu3Ni5C26
_chemical_formula_sum   'Cu3 Ni5 C26'
_cell_volume   311.32024348
_cell_formula_units_Z   1
loop_
 _symmetry_equiv_pos_site_id
 _symmetry_equiv_pos_as_xyz
  1  'x, y, z'
loop_
 _atom_site_type_symbol
 _atom_site_label
 _atom_site_symmetry_multiplicity
 _atom_site_fract_x
 _atom_site_fract_y
 _atom_site_fract_z
 _atom_site_occupancy
  C  C0  1  0.19855100  0.19855100  0.45802200  1
  C  C1  1  0.00635800  0.00635800  0.52772300  1
  C  C2  1  0.60806100  0.19309200  0.45297800  1
  C  C3  1  0.33361400  0.33361400  0.23946800  1
  C  C4  1  0.19309200  0.60806100  0.45297800  1
  C  C5  1  0.80776900  0.39633300  0.95732600  1
  C  C6  1  0.39633300  0.80776900  0.95732600  1
  C  C7  1  0.67164100  0.67164100  0.73874200  1
  C  C8  1  0.80342900  0.80342900  0.95547900  1
  C  C9  1  0.00002200  0.00002200  0.02706600  1
  Ni  Ni10  1  0.17247000  0.66664100  0.72874200  1
  Ni  Ni11  1  0.33534500  0.33534500  0.98688200  1
  Ni  Ni12  1  0.66664100  0.17247000  0.72874200  1
  Ni  Ni13  1  0.67057800  0.67057800  0.48587100  1
  Ni  Ni14  1  0.83129800  0.83129800  0.22920100  1
  Cu  Cu15  1  0.17099700  0.17099700  0.72746500  1
  Cu  Cu16  1  0.83088000  0.33620700  0.22744800  1
  Cu  Cu17  1  0.33620700  0.83088000  0.22744800  1
  C  C18  1  0.15884900  0.15884900  0.10906600  1
  C  C19  1  0.49376600  0.01626000  0.84535600  1
  C  C20  1  0.67824800  0.16103800  0.11358100  1
  C  C21  1  0.00541100  0.00541100  0.84090500  1
  C  C22  1  0.33350200  0.33350200  0.60905700  1
  C  C23  1  0.01626000  0.49376600  0.84535600  1
  C  C24  1  0.49606900  0.49606900  0.84515900  1
  C  C25  1  0.84537300  0.32574100  0.61143500  1
  C  C26  1  0.16103800  0.67824800  0.11358100  1
  C  C27  1  0.50952500  0.50952500  0.34594600  1
  C  C28  1  0.32574100  0.84537300  0.61143500  1
  C  C29  1  0.98704200  0.50361600  0.34292100  1
  C  C30  1  0.66331000  0.66331000  0.11091500  1
  C  C31  1  0.50361600  0.98704200  0.34292100  1
  C  C32  1  0.84587600  0.84587600  0.60901200  1
  C  C33  1  0.00237300  0.00237300  0.34043600  1
