# generated using pymatgen
data_CuNiC5
_symmetry_space_group_name_H-M   'P 1'
_cell_length_a   27.05664900
_cell_length_b   8.27067000
_cell_length_c   14.11013991
_cell_angle_alpha   55.09819939
_cell_angle_beta   90.00000000
_cell_angle_gamma   90.00000000
_symmetry_Int_Tables_number   1
_chemical_formula_structural   CuNiC5
_chemical_formula_sum   'Cu8 Ni8 C40'
_cell_volume   2589.58864135
_cell_formula_units_Z   8
loop_
 _symmetry_equiv_pos_site_id
 _symmetry_equiv_pos_as_xyz
  1  'x, y, z'
loop_
 _atom_site_type_symbol
 _atom_site_label
 _atom_site_symmetry_multiplicity
 _atom_site_fract_x
 _atom_site_fract_y
 _atom_site_fract_z
 _atom_site_occupancy
  Ni  Ni0  1  0.97198300  0.15724300  0.25053600  1
  Ni  Ni1  1  0.24005700  0.14924500  0.01158000  1
  Ni  Ni2  1  0.47198300  0.84275700  0.24946400  1
  Ni  Ni3  1  0.74005700  0.85075500  0.48842000  1
  Ni  Ni4  1  0.25994300  0.14924500  0.51158000  1
  Ni  Ni5  1  0.52801700  0.15724300  0.75053600  1
  Ni  Ni6  1  0.75994300  0.85075500  0.98842000  1
  Ni  Ni7  1  0.02801700  0.84275700  0.74946400  1
  Cu  Cu8  1  0.12849600  0.80346000  0.44300900  1
  Cu  Cu9  1  0.62849600  0.19654000  0.05699100  1
  Cu  Cu10  1  0.38693200  0.65579900  0.60917800  1
  Cu  Cu11  1  0.88693200  0.34420100  0.89082200  1
  Cu  Cu12  1  0.11306800  0.65579900  0.10917800  1
  Cu  Cu13  1  0.61306800  0.34420100  0.39082200  1
  Cu  Cu14  1  0.37150400  0.80346000  0.94300900  1
  Cu  Cu15  1  0.87150400  0.19654000  0.55699100  1
  C  C16  1  0.37500600  0.05945200  0.39608800  1
  C  C17  1  0.14368400  0.46670700  0.99076600  1
  C  C18  1  0.33822700  0.39436700  0.05187000  1
  C  C19  1  0.57552400  0.14774500  0.26537000  1
  C  C20  1  0.90944700  0.75895500  0.67515200  1
  C  C21  1  0.14972100  0.83061500  0.64460300  1
  C  C22  1  0.22619900  0.99653600  0.32845800  1
  C  C23  1  0.28685400  0.63243600  0.70710500  1
  C  C24  1  0.52390900  0.28871800  0.96179400  1
  C  C25  1  0.99652600  0.32669200  0.94505800  1
  C  C26  1  0.72619900  0.00346400  0.17154200  1
  C  C27  1  0.49652600  0.67330800  0.55494200  1
  C  C28  1  0.02390900  0.71128200  0.53820600  1
  C  C29  1  0.78685400  0.36756400  0.79289500  1
  C  C30  1  0.07552400  0.85225500  0.23463000  1
  C  C31  1  0.83822700  0.60563300  0.44813000  1
  C  C32  1  0.64972100  0.16938500  0.85539700  1
  C  C33  1  0.40944700  0.24104500  0.82484800  1
  C  C34  1  0.64368400  0.53329300  0.50923400  1
  C  C35  1  0.87500600  0.94054800  0.10391200  1
  C  C36  1  0.12499400  0.05945200  0.89608800  1
  C  C37  1  0.35631600  0.46670700  0.49076600  1
  C  C38  1  0.59055300  0.75895500  0.17515200  1
  C  C39  1  0.35027900  0.83061500  0.14460300  1
  C  C40  1  0.16177300  0.39436700  0.55187000  1
  C  C41  1  0.92447600  0.14774500  0.76537000  1
  C  C42  1  0.21314600  0.63243600  0.20710500  1
  C  C43  1  0.97609100  0.28871800  0.46179400  1
  C  C44  1  0.50347400  0.32669200  0.44505800  1
  C  C45  1  0.27380100  0.99653600  0.82845800  1
  C  C46  1  0.00347400  0.67330800  0.05494200  1
  C  C47  1  0.47609100  0.71128200  0.03820600  1
  C  C48  1  0.71314600  0.36756400  0.29289500  1
  C  C49  1  0.77380100  0.00346400  0.67154200  1
  C  C50  1  0.85027900  0.16938500  0.35539700  1
  C  C51  1  0.09055300  0.24104500  0.32484800  1
  C  C52  1  0.42447600  0.85225500  0.73463000  1
  C  C53  1  0.66177300  0.60563300  0.94813000  1
  C  C54  1  0.85631600  0.53329300  0.00923400  1
  C  C55  1  0.62499400  0.94054800  0.60391200  1
