# generated using pymatgen
data_Cu4NiC23
_symmetry_space_group_name_H-M   'P 1'
_cell_length_a   10.02301376
_cell_length_b   10.01654409
_cell_length_c   9.98430602
_cell_angle_alpha   60.14923859
_cell_angle_beta   60.08485749
_cell_angle_gamma   59.76590392
_symmetry_Int_Tables_number   1
_chemical_formula_structural   Cu4NiC23
_chemical_formula_sum   'Cu8 Ni2 C46'
_cell_volume   708.77435254
_cell_formula_units_Z   2
loop_
 _symmetry_equiv_pos_site_id
 _symmetry_equiv_pos_as_xyz
  1  'x, y, z'
loop_
 _atom_site_type_symbol
 _atom_site_label
 _atom_site_symmetry_multiplicity
 _atom_site_fract_x
 _atom_site_fract_y
 _atom_site_fract_z
 _atom_site_occupancy
  C  C0  1  0.96355800  0.96355800  0.53644200  1
  C  C1  1  0.96368500  0.53631500  0.53631500  1
  C  C2  1  0.53618700  0.96381300  0.53618700  1
  C  C3  1  0.71547600  0.28452400  0.28452400  1
  C  C4  1  0.96381300  0.53618700  0.96381300  1
  C  C5  1  0.28471000  0.71529000  0.28471000  1
  C  C6  1  0.53644200  0.53644200  0.96355800  1
  C  C7  1  0.53631500  0.96368500  0.96368500  1
  C  C8  1  0.71529000  0.28471000  0.71529000  1
  C  C9  1  0.28452400  0.71547600  0.71547600  1
  C  C10  1  0.12706200  0.12723300  0.12052100  1
  C  C11  1  0.12052100  0.62518400  0.12706200  1
  C  C12  1  0.62518400  0.12052100  0.12723300  1
  C  C13  1  0.12723300  0.12706200  0.62518400  1
  Ni  Ni14  1  0.50000000  0.50000000  0.50000000  1
  Ni  Ni15  1  0.75000000  0.75000000  0.75000000  1
  Cu  Cu16  1  0.98723700  0.33779500  0.33812900  1
  Cu  Cu17  1  0.91210900  0.91350000  0.26417000  1
  Cu  Cu18  1  0.91350000  0.91210900  0.91022200  1
  Cu  Cu19  1  0.91022200  0.26417000  0.91350000  1
  Cu  Cu20  1  0.33779500  0.98723700  0.33683900  1
  Cu  Cu21  1  0.33683900  0.33812900  0.33779500  1
  Cu  Cu22  1  0.33812900  0.33683900  0.98723700  1
  Cu  Cu23  1  0.26417000  0.91022200  0.91210900  1
  C  C24  1  0.98001800  0.22642900  0.48187600  1
  C  C25  1  0.02475400  0.77056600  0.26803700  1
  C  C26  1  0.99263600  0.47566200  0.30998000  1
  C  C27  1  0.94157300  0.02474000  0.26768000  1
  C  C28  1  0.98048800  0.31294600  0.22592700  1
  C  C29  1  0.58562700  0.29019600  0.56241900  1
  C  C30  1  0.56241900  0.56175800  0.58562700  1
  C  C31  1  0.76996100  0.94405400  0.26734800  1
  C  C32  1  0.01863800  0.26734800  0.94405400  1
  C  C33  1  0.94405400  0.76996100  0.01863800  1
  C  C34  1  0.29019600  0.58562700  0.56175800  1
  C  C35  1  0.56175800  0.56241900  0.29019600  1
  C  C36  1  0.31294600  0.98048800  0.48063900  1
  C  C37  1  0.48063900  0.22592700  0.31294600  1
  C  C38  1  0.02474000  0.94157300  0.76600700  1
  C  C39  1  0.76600700  0.26768000  0.02474000  1
  C  C40  1  0.22172200  0.30998000  0.47566200  1
  C  C41  1  0.47566200  0.99263600  0.22172200  1
  C  C42  1  0.77056600  0.02475400  0.93664300  1
  C  C43  1  0.93664300  0.26803700  0.77056600  1
  C  C44  1  0.67857400  0.67892300  0.96040000  1
  C  C45  1  0.96040000  0.68210200  0.67857400  1
  C  C46  1  0.22642900  0.98001800  0.31167700  1
  C  C47  1  0.31167700  0.48187600  0.22642900  1
  C  C48  1  0.48187600  0.31167700  0.98001800  1
  C  C49  1  0.68210200  0.96040000  0.67892300  1
  C  C50  1  0.67892300  0.67857400  0.68210200  1
  C  C51  1  0.26803700  0.93664300  0.02475400  1
  C  C52  1  0.30998000  0.22172200  0.99263600  1
  C  C53  1  0.26768000  0.76600700  0.94157300  1
  C  C54  1  0.22592700  0.48063900  0.98048800  1
  C  C55  1  0.26734800  0.01863800  0.76996100  1
