# generated using pymatgen
data_Cu2(NiC5)3
_symmetry_space_group_name_H-M   'P 1'
_cell_length_a   5.43121657
_cell_length_b   10.42443563
_cell_length_c   8.01812733
_cell_angle_alpha   70.04015692
_cell_angle_beta   74.76881902
_cell_angle_gamma   96.31876830
_symmetry_Int_Tables_number   1
_chemical_formula_structural   Cu2(NiC5)3
_chemical_formula_sum   'Cu4 Ni6 C30'
_cell_volume   401.59890147
_cell_formula_units_Z   2
loop_
 _symmetry_equiv_pos_site_id
 _symmetry_equiv_pos_as_xyz
  1  'x, y, z'
loop_
 _atom_site_type_symbol
 _atom_site_label
 _atom_site_symmetry_multiplicity
 _atom_site_fract_x
 _atom_site_fract_y
 _atom_site_fract_z
 _atom_site_occupancy
  C  C0  1  0.99994000  0.99999500  0.50000600  1
  C  C1  1  0.49995200  0.50000300  0.00000900  1
  C  C2  1  0.56726800  0.07594600  0.30696600  1
  C  C3  1  0.06723700  0.57598100  0.80701300  1
  C  C4  1  0.43262900  0.92401500  0.69303400  1
  C  C5  1  0.93266800  0.42402600  0.19307000  1
  C  C6  1  0.69583300  0.19712700  0.60423200  1
  C  C7  1  0.19589600  0.69708400  0.10429600  1
  C  C8  1  0.30412700  0.80292100  0.39569600  1
  C  C9  1  0.80397900  0.30289000  0.89581100  1
  Ni  Ni10  1  0.00028500  0.49991500  0.50042500  1
  Ni  Ni11  1  0.59701600  0.59721100  0.30037600  1
  Ni  Ni12  1  0.40302500  0.40281600  0.69964900  1
  Ni  Ni13  1  0.50022800  0.00016200  0.99967700  1
  Ni  Ni14  1  0.09687200  0.09715400  0.80030700  1
  Ni  Ni15  1  0.90326300  0.90283400  0.19962300  1
  Cu  Cu16  1  0.30654000  0.29898400  0.40267700  1
  Cu  Cu17  1  0.80651600  0.79899500  0.90269300  1
  Cu  Cu18  1  0.69344100  0.70102500  0.59728800  1
  Cu  Cu19  1  0.19345800  0.20097900  0.09733500  1
  C  C20  1  0.61706300  0.39188900  0.44128400  1
  C  C21  1  0.11707700  0.89191700  0.94120600  1
  C  C22  1  0.38283100  0.60811800  0.55875400  1
  C  C23  1  0.88287600  0.10810500  0.05875000  1
  C  C24  1  0.06817500  0.29786500  0.64396700  1
  C  C25  1  0.56820700  0.79798500  0.14388400  1
  C  C26  1  0.93182500  0.70199800  0.35613400  1
  C  C27  1  0.43178900  0.20209500  0.85601500  1
  C  C28  1  0.99193600  0.21195800  0.34691500  1
  C  C29  1  0.49186800  0.71193600  0.84695300  1
  C  C30  1  0.00803900  0.78802600  0.65308600  1
  C  C31  1  0.50806900  0.28805400  0.15304500  1
  C  C32  1  0.23588500  0.00716100  0.23908400  1
  C  C33  1  0.73555100  0.50709800  0.73934700  1
  C  C34  1  0.76441900  0.99285400  0.76058000  1
  C  C35  1  0.26429200  0.49287500  0.26084200  1
  C  C36  1  0.34970200  0.10886300  0.54552100  1
  C  C37  1  0.84972800  0.60883400  0.04557900  1
  C  C38  1  0.65030800  0.89115300  0.45442200  1
  C  C39  1  0.15019000  0.39115200  0.95445100  1
