# generated using pymatgen
data_Cu2NiC2
_symmetry_space_group_name_H-M   'P 1'
_cell_length_a   17.32021900
_cell_length_b   5.48013500
_cell_length_c   6.41978252
_cell_angle_alpha   86.23702092
_cell_angle_beta   90.00000000
_cell_angle_gamma   90.00000000
_symmetry_Int_Tables_number   1
_chemical_formula_structural   Cu2NiC2
_chemical_formula_sum   'Cu8 Ni4 C8'
_cell_volume   608.03368307
_cell_formula_units_Z   4
loop_
 _symmetry_equiv_pos_site_id
 _symmetry_equiv_pos_as_xyz
  1  'x, y, z'
loop_
 _atom_site_type_symbol
 _atom_site_label
 _atom_site_symmetry_multiplicity
 _atom_site_fract_x
 _atom_site_fract_y
 _atom_site_fract_z
 _atom_site_occupancy
  Ni  Ni0  1  0.94214700  0.85631200  0.75529700  1
  Ni  Ni1  1  0.44214700  0.64368800  0.24470300  1
  Ni  Ni2  1  0.05785300  0.14368800  0.24470300  1
  Ni  Ni3  1  0.55785300  0.35631200  0.75529700  1
  Cu  Cu4  1  0.45535500  0.77175200  0.65439700  1
  Cu  Cu5  1  0.95535500  0.72824800  0.34560300  1
  Cu  Cu6  1  0.54464500  0.22824800  0.34560300  1
  Cu  Cu7  1  0.04464500  0.27175200  0.65439700  1
  Cu  Cu8  1  0.32020200  0.48123500  0.62717000  1
  Cu  Cu9  1  0.82020200  0.01876500  0.37283000  1
  Cu  Cu10  1  0.67979800  0.51876500  0.37283000  1
  Cu  Cu11  1  0.17979800  0.98123500  0.62717000  1
  C  C12  1  0.37779600  0.62527800  0.76876600  1
  C  C13  1  0.87779600  0.87472200  0.23123400  1
  C  C14  1  0.62220400  0.37472200  0.23123400  1
  C  C15  1  0.12220400  0.12527800  0.76876600  1
  C  C16  1  0.33628700  0.46469400  0.39601900  1
  C  C17  1  0.83628700  0.03530600  0.60398100  1
  C  C18  1  0.66371300  0.53530600  0.60398100  1
  C  C19  1  0.16371300  0.96469400  0.39601900  1
