# generated using pymatgen
data_CuNiC5
_symmetry_space_group_name_H-M   'P 1'
_cell_length_a   8.01311900
_cell_length_b   8.63778500
_cell_length_c   17.34467685
_cell_angle_alpha   60.34661146
_cell_angle_beta   90.00000000
_cell_angle_gamma   90.00000000
_symmetry_Int_Tables_number   1
_chemical_formula_structural   CuNiC5
_chemical_formula_sum   'Cu12 Ni12 C60'
_cell_volume   1043.29496191
_cell_formula_units_Z   12
loop_
 _symmetry_equiv_pos_site_id
 _symmetry_equiv_pos_as_xyz
  1  'x, y, z'
loop_
 _atom_site_type_symbol
 _atom_site_label
 _atom_site_symmetry_multiplicity
 _atom_site_fract_x
 _atom_site_fract_y
 _atom_site_fract_z
 _atom_site_occupancy
  C  C0  1  0.47176300  0.21925800  0.05718500  1
  C  C1  1  0.53367100  0.86363400  0.40442800  1
  C  C2  1  0.34903800  0.50556700  0.74941500  1
  C  C3  1  0.84903800  0.49443300  0.75058500  1
  C  C4  1  0.03367100  0.13636600  0.09557200  1
  C  C5  1  0.97176300  0.78074200  0.44281500  1
  C  C6  1  0.02823700  0.21925800  0.55718500  1
  C  C7  1  0.96632900  0.86363400  0.90442800  1
  C  C8  1  0.15096200  0.50556700  0.24941500  1
  C  C9  1  0.65096200  0.49443300  0.25058500  1
  C  C10  1  0.46632900  0.13636600  0.59557200  1
  C  C11  1  0.52823700  0.78074200  0.94281500  1
  Ni  Ni12  1  0.76926600  0.85962400  0.59483100  1
  Ni  Ni13  1  0.70964500  0.17962400  0.22861100  1
  Ni  Ni14  1  0.77391000  0.45590700  0.92884800  1
  Ni  Ni15  1  0.27391000  0.54409300  0.57115200  1
  Ni  Ni16  1  0.20964500  0.82037600  0.27138900  1
  Ni  Ni17  1  0.26926600  0.14037600  0.90516900  1
  Ni  Ni18  1  0.73073400  0.85962400  0.09483100  1
  Ni  Ni19  1  0.79035500  0.17962400  0.72861100  1
  Ni  Ni20  1  0.72609000  0.45590700  0.42884800  1
  Ni  Ni21  1  0.22609000  0.54409300  0.07115200  1
  Ni  Ni22  1  0.29035500  0.82037600  0.77138900  1
  Ni  Ni23  1  0.23073400  0.14037600  0.40516900  1
  Cu  Cu24  1  0.16324600  0.85606800  0.59335000  1
  Cu  Cu25  1  0.32581300  0.18972100  0.22549200  1
  Cu  Cu26  1  0.16846700  0.46715500  0.92347600  1
  Cu  Cu27  1  0.66846700  0.53284500  0.57652400  1
  Cu  Cu28  1  0.82581300  0.81027900  0.27450800  1
  Cu  Cu29  1  0.66324600  0.14393200  0.90665000  1
  Cu  Cu30  1  0.33675400  0.85606800  0.09335000  1
  Cu  Cu31  1  0.17418700  0.18972100  0.72549200  1
  Cu  Cu32  1  0.33153300  0.46715500  0.42347600  1
  Cu  Cu33  1  0.83153300  0.53284500  0.07652400  1
  Cu  Cu34  1  0.67418700  0.81027900  0.77450800  1
  Cu  Cu35  1  0.83675400  0.14393200  0.40665000  1
  C  C36  1  0.01700900  0.06983800  0.39266200  1
  C  C37  1  0.85638300  0.31528000  0.13815900  1
  C  C38  1  0.72671800  0.96639800  0.47380300  1
  C  C39  1  0.77061600  0.62039600  0.80608700  1
  C  C40  1  0.28177000  0.41928800  0.01177100  1
  C  C41  1  0.50293400  0.22836000  0.17116700  1
  C  C42  1  0.36468000  0.08795000  0.33331300  1
  C  C43  1  0.26473300  0.74171500  0.68719600  1
  C  C44  1  0.98792100  0.36539600  0.96138000  1
  C  C45  1  0.12967400  0.72818600  0.54854400  1
  C  C46  1  0.26031800  0.38763000  0.86565700  1
  C  C47  1  0.20889000  0.06568100  0.19924200  1
  C  C48  1  0.76031800  0.61237000  0.63434300  1
  C  C49  1  0.70889000  0.93431900  0.30075800  1
  C  C50  1  0.62967400  0.27181400  0.95145600  1
  C  C51  1  0.48792100  0.63460400  0.53862000  1
  C  C52  1  0.76473300  0.25828500  0.81280400  1
  C  C53  1  0.86468000  0.91205000  0.16668700  1
  C  C54  1  0.00293400  0.77164000  0.32883300  1
  C  C55  1  0.27061600  0.37960400  0.69391300  1
  C  C56  1  0.78177000  0.58071200  0.48822900  1
  C  C57  1  0.22671800  0.03360200  0.02619700  1
  C  C58  1  0.35638300  0.68472000  0.36184100  1
  C  C59  1  0.51700900  0.93016200  0.10733800  1
  C  C60  1  0.48299100  0.06983800  0.89266200  1
  C  C61  1  0.64361700  0.31528000  0.63815900  1
  C  C62  1  0.77328200  0.96639800  0.97380300  1
  C  C63  1  0.21823000  0.41928800  0.51177100  1
  C  C64  1  0.72938400  0.62039600  0.30608700  1
  C  C65  1  0.99706600  0.22836000  0.67116700  1
  C  C66  1  0.13532000  0.08795000  0.83331300  1
  C  C67  1  0.23526700  0.74171500  0.18719600  1
  C  C68  1  0.51207900  0.36539600  0.46138000  1
  C  C69  1  0.37032600  0.72818600  0.04854400  1
  C  C70  1  0.29111000  0.06568100  0.69924200  1
  C  C71  1  0.23968200  0.38763000  0.36565700  1
  C  C72  1  0.79111000  0.93431900  0.80075800  1
  C  C73  1  0.73968200  0.61237000  0.13434300  1
  C  C74  1  0.87032600  0.27181400  0.45145600  1
  C  C75  1  0.01207900  0.63460400  0.03862000  1
  C  C76  1  0.73526700  0.25828500  0.31280400  1
  C  C77  1  0.63532000  0.91205000  0.66668700  1
  C  C78  1  0.49706600  0.77164000  0.82883300  1
  C  C79  1  0.71823000  0.58071200  0.98822900  1
  C  C80  1  0.22938400  0.37960400  0.19391300  1
  C  C81  1  0.27328200  0.03360200  0.52619700  1
  C  C82  1  0.14361700  0.68472000  0.86184100  1
  C  C83  1  0.98299100  0.93016200  0.60733800  1
