# generated using pymatgen
data_Cu9NiC20
_symmetry_space_group_name_H-M   'P 1'
_cell_length_a   5.82458704
_cell_length_b   5.82458704
_cell_length_c   24.04637747
_cell_angle_alpha   83.15110207
_cell_angle_beta   83.15110207
_cell_angle_gamma   59.80262735
_symmetry_Int_Tables_number   1
_chemical_formula_structural   Cu9NiC20
_chemical_formula_sum   'Cu18 Ni2 C40'
_cell_volume   698.38483439
_cell_formula_units_Z   2
loop_
 _symmetry_equiv_pos_site_id
 _symmetry_equiv_pos_as_xyz
  1  'x, y, z'
loop_
 _atom_site_type_symbol
 _atom_site_label
 _atom_site_symmetry_multiplicity
 _atom_site_fract_x
 _atom_site_fract_y
 _atom_site_fract_z
 _atom_site_occupancy
  Ni  Ni0  1  0.50000000  0.50000000  0.00000000  1
  Ni  Ni1  1  0.50000000  0.50000000  0.50000000  1
  Cu  Cu2  1  0.29835300  0.29835300  0.10000300  1
  Cu  Cu3  1  0.00000000  0.50000000  0.00000000  1
  Cu  Cu4  1  0.40278500  0.89479600  0.79908500  1
  Cu  Cu5  1  0.50000000  0.00000000  0.00000000  1
  Cu  Cu6  1  0.70164700  0.70164700  0.89999700  1
  Cu  Cu7  1  0.89894600  0.89894600  0.79938800  1
  Cu  Cu8  1  0.89479600  0.40278500  0.79908500  1
  Cu  Cu9  1  0.29793800  0.79584500  0.60003600  1
  Cu  Cu10  1  0.29696200  0.29696200  0.60012800  1
  Cu  Cu11  1  0.09734100  0.09734100  0.69965400  1
  Cu  Cu12  1  0.20415500  0.70206200  0.39996400  1
  Cu  Cu13  1  0.70206200  0.20415500  0.39996400  1
  Cu  Cu14  1  0.59721500  0.10520400  0.20091500  1
  Cu  Cu15  1  0.79584500  0.29793800  0.60003600  1
  Cu  Cu16  1  0.10105400  0.10105400  0.20061200  1
  Cu  Cu17  1  0.70303800  0.70303800  0.39987200  1
  Cu  Cu18  1  0.90265900  0.90265900  0.30034600  1
  Cu  Cu19  1  0.10520400  0.59721500  0.20091500  1
  C  C20  1  0.16602500  0.61086900  0.04779700  1
  C  C21  1  0.61086900  0.16602500  0.04779700  1
  C  C22  1  0.57075400  0.57075400  0.84646200  1
  C  C23  1  0.17040600  0.17040600  0.04636200  1
  C  C24  1  0.34475900  0.34475900  0.95795700  1
  C  C25  1  0.65524100  0.65524100  0.04204300  1
  C  C26  1  0.23128400  0.78291800  0.75229000  1
  C  C27  1  0.83397500  0.38913100  0.95220300  1
  C  C28  1  0.38913100  0.83397500  0.95220300  1
  C  C29  1  0.57204200  0.00859000  0.84600900  1
  C  C30  1  0.00859000  0.57204200  0.84600900  1
  C  C31  1  0.41040700  0.96590200  0.64680100  1
  C  C32  1  0.96774800  0.96774800  0.64695400  1
  C  C33  1  0.14387100  0.14387100  0.55903600  1
  C  C34  1  0.74607300  0.74607300  0.75814800  1
  C  C35  1  0.82959400  0.82959400  0.95363800  1
  C  C36  1  0.22758600  0.22758600  0.75208600  1
  C  C37  1  0.05225100  0.05225100  0.84031200  1
  C  C38  1  0.44999100  0.44999100  0.64114500  1
  C  C39  1  0.62951500  0.18001800  0.55383300  1
  C  C40  1  0.78291800  0.23128400  0.75229000  1
  C  C41  1  0.58959300  0.03409800  0.35319900  1
  C  C42  1  0.18001800  0.62951500  0.55383300  1
  C  C43  1  0.96590200  0.41040700  0.64680100  1
  C  C44  1  0.37048500  0.81998200  0.44616700  1
  C  C45  1  0.55000900  0.55000900  0.35885500  1
  C  C46  1  0.36762100  0.36762100  0.44501900  1
  C  C47  1  0.25392700  0.25392700  0.24185200  1
  C  C48  1  0.63237900  0.63237900  0.55498100  1
  C  C49  1  0.85612900  0.85612900  0.44096400  1
  C  C50  1  0.03225200  0.03225200  0.35304600  1
  C  C51  1  0.42924600  0.42924600  0.15353800  1
  C  C52  1  0.03409800  0.58959300  0.35319900  1
  C  C53  1  0.42795800  0.99141000  0.15399100  1
  C  C54  1  0.99141000  0.42795800  0.15399100  1
  C  C55  1  0.76871600  0.21708200  0.24771000  1
  C  C56  1  0.81998200  0.37048500  0.44616700  1
  C  C57  1  0.21708200  0.76871600  0.24771000  1
  C  C58  1  0.77241400  0.77241400  0.24791400  1
  C  C59  1  0.94774900  0.94774900  0.15968800  1
