# generated using pymatgen
data_Cu16Ni3C28
_symmetry_space_group_name_H-M   'P 1'
_cell_length_a   8.47533200
_cell_length_b   11.41946579
_cell_length_c   11.61948106
_cell_angle_alpha   107.54670920
_cell_angle_beta   89.42269221
_cell_angle_gamma   94.65876523
_symmetry_Int_Tables_number   1
_chemical_formula_structural   Cu16Ni3C28
_chemical_formula_sum   'Cu32 Ni6 C56'
_cell_volume   1068.58671039
_cell_formula_units_Z   2
loop_
 _symmetry_equiv_pos_site_id
 _symmetry_equiv_pos_as_xyz
  1  'x, y, z'
loop_
 _atom_site_type_symbol
 _atom_site_label
 _atom_site_symmetry_multiplicity
 _atom_site_fract_x
 _atom_site_fract_y
 _atom_site_fract_z
 _atom_site_occupancy
  C  C0  1  0.85156000  0.65271800  0.57453400  1
  C  C1  1  0.14844000  0.34728200  0.42546600  1
  C  C2  1  0.68022300  0.94929600  0.86745700  1
  C  C3  1  0.31977700  0.05070400  0.13254300  1
  C  C4  1  0.26131000  0.71167800  0.78386500  1
  C  C5  1  0.73869000  0.28832200  0.21613500  1
  C  C6  1  0.47618600  0.80690700  0.01962900  1
  C  C7  1  0.52381400  0.19309300  0.98037100  1
  C  C8  1  0.02253500  0.89442300  0.76041600  1
  C  C9  1  0.97746500  0.10557700  0.23958400  1
  C  C10  1  0.02196300  0.47201200  0.68566900  1
  C  C11  1  0.97803700  0.52798800  0.31433100  1
  C  C12  1  0.52589000  0.76792700  0.61955100  1
  C  C13  1  0.47411000  0.23207300  0.38044900  1
  C  C14  1  0.89117900  0.83800400  0.17860000  1
  C  C15  1  0.10882100  0.16199600  0.82140000  1
  C  C16  1  0.75080200  0.72282700  0.12281300  1
  C  C17  1  0.24919800  0.27717300  0.87718700  1
  C  C18  1  0.92389000  0.69412900  0.18564100  1
  C  C19  1  0.07611000  0.30587100  0.81435900  1
  C  C20  1  0.43626500  0.69763700  0.20905100  1
  C  C21  1  0.56373500  0.30236300  0.79094900  1
  C  C22  1  0.26623900  0.63279300  0.25557400  1
  C  C23  1  0.73376100  0.36720700  0.74442600  1
  C  C24  1  0.41483600  0.70342600  0.35765400  1
  C  C25  1  0.58516400  0.29657400  0.64234600  1
  C  C26  1  0.34334500  0.07465200  0.53186800  1
  C  C27  1  0.65665500  0.92534800  0.46813200  1
  C  C28  1  0.21981600  0.00096600  0.61374000  1
  C  C29  1  0.78018400  0.99903400  0.38626000  1
  C  C30  1  0.37886600  0.93231900  0.53855600  1
  C  C31  1  0.62113400  0.06768100  0.46144400  1
  C  C32  1  0.92660800  0.61279300  0.96796500  1
  C  C33  1  0.07339200  0.38720700  0.03203500  1
  C  C34  1  0.90123300  0.76514700  0.96068200  1
  C  C35  1  0.09876700  0.23485300  0.03931800  1
  C  C36  1  0.07698600  0.73557300  0.02673000  1
  C  C37  1  0.92301400  0.26442700  0.97327000  1
  C  C38  1  0.43619700  0.47614400  0.14995500  1
  C  C39  1  0.56380300  0.52385600  0.85004500  1
  C  C40  1  0.59438900  0.55211000  0.25219200  1
  C  C41  1  0.40561100  0.44789000  0.74780800  1
  C  C42  1  0.42330700  0.48370700  0.30604400  1
  C  C43  1  0.57669300  0.51629300  0.69395600  1
  C  C44  1  0.10667000  0.99465700  0.41453400  1
  C  C45  1  0.89333000  0.00534300  0.58546600  1
  C  C46  1  0.26636700  0.90810500  0.34595500  1
  C  C47  1  0.73363300  0.09189500  0.65404500  1
  C  C48  1  0.12638800  0.84708900  0.43427100  1
  C  C49  1  0.87361200  0.15291100  0.56572900  1
  C  C50  1  0.19073900  0.93104200  0.42526200  1
  C  C51  1  0.80926100  0.06895800  0.57473800  1
  C  C52  1  0.46581300  0.53237500  0.24243600  1
  C  C53  1  0.53418700  0.46762500  0.75756400  1
  C  C54  1  0.94948700  0.71156200  0.01371800  1
  C  C55  1  0.05051300  0.28843800  0.98628200  1
  Ni  Ni56  1  0.28976500  0.99027600  0.53563200  1
  Ni  Ni57  1  0.71023500  0.00972400  0.46436800  1
  Ni  Ni58  1  0.38963200  0.65037100  0.26882400  1
  Ni  Ni59  1  0.61036800  0.34962900  0.73117600  1
  Ni  Ni60  1  0.87336400  0.74295200  0.13392000  1
  Ni  Ni61  1  0.12663600  0.25704800  0.86608000  1
  Cu  Cu62  1  0.54081300  0.73285200  0.09458600  1
  Cu  Cu63  1  0.45918700  0.26714800  0.90541400  1
  Cu  Cu64  1  0.38968400  0.72163200  0.90375100  1
  Cu  Cu65  1  0.61031600  0.27836800  0.09624900  1
  Cu  Cu66  1  0.57935500  0.88019900  0.72933700  1
  Cu  Cu67  1  0.42064500  0.11980100  0.27066300  1
  Cu  Cu68  1  0.96109300  0.79353600  0.64262800  1
  Cu  Cu69  1  0.03890700  0.20646400  0.35737200  1
  Cu  Cu70  1  0.36740300  0.70720900  0.65139600  1
  Cu  Cu71  1  0.63259700  0.29279100  0.34860400  1
  Cu  Cu72  1  0.88234200  0.92841600  0.84805500  1
  Cu  Cu73  1  0.11765800  0.07158400  0.15194500  1
  Cu  Cu74  1  0.14269600  0.83664500  0.82293900  1
  Cu  Cu75  1  0.85730400  0.16335500  0.17706100  1
  Cu  Cu76  1  0.09710200  0.00686100  0.72999700  1
  Cu  Cu77  1  0.90289800  0.99313900  0.27000300  1
  Cu  Cu78  1  0.14493800  0.57302200  0.76127300  1
  Cu  Cu79  1  0.85506200  0.42697800  0.23872700  1
  Cu  Cu80  1  0.64929200  0.67055100  0.59831400  1
  Cu  Cu81  1  0.35070800  0.32944900  0.40168600  1
  Cu  Cu82  1  0.89618700  0.53510100  0.63350200  1
  Cu  Cu83  1  0.10381300  0.46489900  0.36649800  1
  Cu  Cu84  1  0.50512700  0.81025900  0.50805700  1
  Cu  Cu85  1  0.49487300  0.18974100  0.49194300  1
  Cu  Cu86  1  0.94329300  0.39693500  0.76141200  1
  Cu  Cu87  1  0.05670700  0.60306500  0.23858800  1
  Cu  Cu88  1  0.61274800  0.88552000  0.98014900  1
  Cu  Cu89  1  0.38725200  0.11448000  0.01985100  1
  Cu  Cu90  1  0.35357900  0.89419300  0.09285000  1
  Cu  Cu91  1  0.64642100  0.10580700  0.90715000  1
  Cu  Cu92  1  0.11193700  0.38733100  0.57975800  1
  Cu  Cu93  1  0.88806300  0.61266900  0.42024200  1
