# generated using pymatgen
data_CuNiC10
_symmetry_space_group_name_H-M   'P 1'
_cell_length_a   6.90575653
_cell_length_b   6.90575653
_cell_length_c   11.81135579
_cell_angle_alpha   81.17482240
_cell_angle_beta   81.17482240
_cell_angle_gamma   73.14852518
_symmetry_Int_Tables_number   1
_chemical_formula_structural   CuNiC10
_chemical_formula_sum   'Cu4 Ni4 C40'
_cell_volume   529.16124436
_cell_formula_units_Z   4
loop_
 _symmetry_equiv_pos_site_id
 _symmetry_equiv_pos_as_xyz
  1  'x, y, z'
loop_
 _atom_site_type_symbol
 _atom_site_label
 _atom_site_symmetry_multiplicity
 _atom_site_fract_x
 _atom_site_fract_y
 _atom_site_fract_z
 _atom_site_occupancy
  C  C0  1  0.97092000  0.70857400  0.79367900  1
  C  C1  1  0.29142600  0.02908000  0.70632100  1
  C  C2  1  0.02908000  0.29142600  0.20632100  1
  C  C3  1  0.70857400  0.97092000  0.29367900  1
  C  C4  1  0.84405300  0.74692300  0.93286800  1
  C  C5  1  0.25307700  0.15594700  0.56713200  1
  C  C6  1  0.15594700  0.25307700  0.06713200  1
  C  C7  1  0.74692300  0.84405300  0.43286800  1
  C  C8  1  0.96302000  0.24171100  0.91726700  1
  C  C9  1  0.75828900  0.03698000  0.58273300  1
  C  C10  1  0.03698000  0.75828900  0.08273300  1
  C  C11  1  0.24171100  0.96302000  0.41726700  1
  C  C12  1  0.74597900  0.29995000  0.54644200  1
  C  C13  1  0.70005000  0.25402100  0.95355800  1
  C  C14  1  0.25402100  0.70005000  0.45355800  1
  C  C15  1  0.29995000  0.74597900  0.04644200  1
  Ni  Ni16  1  0.84997900  0.27993100  0.08444200  1
  Ni  Ni17  1  0.72006900  0.15002100  0.41555800  1
  Ni  Ni18  1  0.15002100  0.72006900  0.91555800  1
  Ni  Ni19  1  0.27993100  0.84997900  0.58444200  1
  Cu  Cu20  1  0.61331900  0.32068100  0.17600500  1
  Cu  Cu21  1  0.67931900  0.38668100  0.32399500  1
  Cu  Cu22  1  0.38668100  0.67931900  0.82399500  1
  Cu  Cu23  1  0.32068100  0.61331900  0.67600500  1
  C  C24  1  0.02065000  0.27796400  0.12174000  1
  C  C25  1  0.72203600  0.97935000  0.37826000  1
  C  C26  1  0.97935000  0.72203600  0.87826000  1
  C  C27  1  0.27796400  0.02065000  0.62174000  1
  C  C28  1  0.83621500  0.25646900  0.97719100  1
  C  C29  1  0.74353100  0.16378500  0.52280900  1
  C  C30  1  0.16378500  0.74353100  0.02280900  1
  C  C31  1  0.25646900  0.83621500  0.47719100  1
  C  C32  1  0.40931200  0.17916600  0.87680900  1
  C  C33  1  0.82083400  0.59068800  0.62319100  1
  C  C34  1  0.59068800  0.82083400  0.12319100  1
  C  C35  1  0.17916600  0.40931200  0.37680900  1
  C  C36  1  0.57361600  0.13718200  0.81251400  1
  C  C37  1  0.86281800  0.42638400  0.68748600  1
  C  C38  1  0.42638400  0.86281800  0.18748600  1
  C  C39  1  0.13718200  0.57361600  0.31251400  1
  C  C40  1  0.24306800  0.17483700  0.84349000  1
  C  C41  1  0.82516300  0.75693200  0.65651000  1
  C  C42  1  0.75693200  0.82516300  0.15651000  1
  C  C43  1  0.17483700  0.24306800  0.34349000  1
  C  C44  1  0.40427400  0.23065700  0.97716400  1
  C  C45  1  0.76934300  0.59572600  0.52283600  1
  C  C46  1  0.59572600  0.76934300  0.02283600  1
  C  C47  1  0.23065700  0.40427400  0.47716400  1
