# generated using pymatgen
data_Cu3(NiC5)4
_symmetry_space_group_name_H-M   'P 1'
_cell_length_a   10.20360900
_cell_length_b   9.52033900
_cell_length_c   13.30824047
_cell_angle_alpha   53.51099294
_cell_angle_beta   90.00000000
_cell_angle_gamma   90.00000000
_symmetry_Int_Tables_number   1
_chemical_formula_structural   Cu3(NiC5)4
_chemical_formula_sum   'Cu12 Ni16 C80'
_cell_volume   1039.36294217
_cell_formula_units_Z   4
loop_
 _symmetry_equiv_pos_site_id
 _symmetry_equiv_pos_as_xyz
  1  'x, y, z'
loop_
 _atom_site_type_symbol
 _atom_site_label
 _atom_site_symmetry_multiplicity
 _atom_site_fract_x
 _atom_site_fract_y
 _atom_site_fract_z
 _atom_site_occupancy
  C  C0  1  0.42959000  0.85221100  0.61947100  1
  C  C1  1  0.07041000  0.85221100  0.11947100  1
  C  C2  1  0.57041000  0.14778900  0.38052900  1
  C  C3  1  0.92959000  0.14778900  0.88052900  1
  C  C4  1  0.38721900  0.94091800  0.39806300  1
  C  C5  1  0.11278100  0.94091800  0.89806300  1
  C  C6  1  0.61278100  0.05908200  0.60193700  1
  C  C7  1  0.88721900  0.05908200  0.10193700  1
  C  C8  1  0.20143400  0.78641300  0.56361900  1
  C  C9  1  0.29856600  0.78641300  0.06361900  1
  C  C10  1  0.79856600  0.21358700  0.43638100  1
  C  C11  1  0.70143400  0.21358700  0.93638100  1
  C  C12  1  0.19595100  0.71467200  0.71269000  1
  C  C13  1  0.30404900  0.71467200  0.21269000  1
  C  C14  1  0.80404900  0.28532800  0.28731000  1
  C  C15  1  0.69595100  0.28532800  0.78731000  1
  C  C16  1  0.26348800  0.59320800  0.67511500  1
  C  C17  1  0.23651200  0.59320800  0.17511500  1
  C  C18  1  0.73651200  0.40679200  0.32488500  1
  C  C19  1  0.76348800  0.40679200  0.82488500  1
  C  C20  1  0.42331400  0.58466400  0.86123100  1
  C  C21  1  0.07668600  0.58466400  0.36123100  1
  C  C22  1  0.57668600  0.41533600  0.13876900  1
  C  C23  1  0.92331400  0.41533600  0.63876900  1
  C  C24  1  0.42931500  0.77035400  0.84780700  1
  C  C25  1  0.07068500  0.77035400  0.34780700  1
  C  C26  1  0.57068500  0.22964600  0.15219300  1
  C  C27  1  0.92931500  0.22964600  0.65219300  1
  C  C28  1  0.56454100  0.68766400  0.83140300  1
  C  C29  1  0.93545900  0.68766400  0.33140300  1
  C  C30  1  0.43545900  0.31233600  0.16859700  1
  C  C31  1  0.06454100  0.31233600  0.66859700  1
  C  C32  1  0.38147400  0.09421300  0.65416400  1
  C  C33  1  0.11852600  0.09421300  0.15416400  1
  C  C34  1  0.61852600  0.90578700  0.34583600  1
  C  C35  1  0.88147400  0.90578700  0.84583600  1
  C  C36  1  0.25782500  0.95366100  0.71287400  1
  C  C37  1  0.24217500  0.95366100  0.21287400  1
  C  C38  1  0.74217500  0.04633900  0.28712600  1
  C  C39  1  0.75782500  0.04633900  0.78712600  1
  C  C40  1  0.26440200  0.11019500  0.56043600  1
  C  C41  1  0.23559800  0.11019500  0.06043600  1
  C  C42  1  0.73559800  0.88980500  0.43956400  1
  C  C43  1  0.76440200  0.88980500  0.93956400  1
  C  C44  1  0.51377000  0.66516300  0.54659500  1
  C  C45  1  0.98623000  0.66516300  0.04659500  1
  C  C46  1  0.48623000  0.33483700  0.45340500  1
  C  C47  1  0.01377000  0.33483700  0.95340500  1
  C  C48  1  0.50916900  0.53703900  0.70113600  1
  C  C49  1  0.99083100  0.53703900  0.20113600  1
  C  C50  1  0.49083100  0.46296100  0.29886400  1
  C  C51  1  0.00916900  0.46296100  0.79886400  1
  C  C52  1  0.63527500  0.67341400  0.62792300  1
  C  C53  1  0.86472500  0.67341400  0.12792300  1
  C  C54  1  0.36472500  0.32658600  0.37207700  1
  C  C55  1  0.13527500  0.32658600  0.87207700  1
  C  C56  1  0.01203900  0.87284400  0.46557900  1
  C  C57  1  0.48796100  0.87284400  0.96557900  1
  C  C58  1  0.98796100  0.12715600  0.53442100  1
  C  C59  1  0.51203900  0.12715600  0.03442100  1
  C  C60  1  0.10080100  0.04105300  0.39258100  1
  C  C61  1  0.39919900  0.04105300  0.89258100  1
  C  C62  1  0.89919900  0.95894700  0.60741900  1
  C  C63  1  0.60080100  0.95894700  0.10741900  1
  C  C64  1  0.28938500  0.48321800  0.53926000  1
  C  C65  1  0.21061500  0.48321800  0.03926000  1
  C  C66  1  0.71061500  0.51678200  0.46074000  1
  C  C67  1  0.78938500  0.51678200  0.96074000  1
  C  C68  1  0.31482800  0.34538800  0.68260900  1
  C  C69  1  0.18517200  0.34538800  0.18260900  1
  C  C70  1  0.68517200  0.65461200  0.31739100  1
  C  C71  1  0.81482800  0.65461200  0.81739100  1
  Ni  Ni72  1  0.25307300  0.71901400  0.64684400  1
  Ni  Ni73  1  0.24692700  0.71901400  0.14684400  1
  Ni  Ni74  1  0.74692700  0.28098600  0.35315600  1
  Ni  Ni75  1  0.75307300  0.28098600  0.85315600  1
  Ni  Ni76  1  0.46527500  0.70653700  0.81297400  1
  Ni  Ni77  1  0.03472500  0.70653700  0.31297400  1
  Ni  Ni78  1  0.53472500  0.29346300  0.18702600  1
  Ni  Ni79  1  0.96527500  0.29346300  0.68702600  1
  Ni  Ni80  1  0.32094500  0.02376600  0.63802300  1
  Ni  Ni81  1  0.17905500  0.02376600  0.13802300  1
  Ni  Ni82  1  0.67905500  0.97623400  0.36197700  1
  Ni  Ni83  1  0.82094500  0.97623400  0.86197700  1
  Ni  Ni84  1  0.53532000  0.65935400  0.62447900  1
  Ni  Ni85  1  0.96468000  0.65935400  0.12447900  1
  Ni  Ni86  1  0.46468000  0.34064600  0.37552100  1
  Ni  Ni87  1  0.03532000  0.34064600  0.87552100  1
  C  C88  1  0.39733200  0.72961300  0.36765800  1
  C  C89  1  0.10266800  0.72961300  0.86765800  1
  C  C90  1  0.60266800  0.27038700  0.63234200  1
  C  C91  1  0.89733200  0.27038700  0.13234200  1
  C  C92  1  0.37570900  0.29952100  0.88095200  1
  C  C93  1  0.12429100  0.29952100  0.38095200  1
  C  C94  1  0.62429100  0.70047900  0.11904800  1
  C  C95  1  0.87570900  0.70047900  0.61904800  1
  Cu  Cu96  1  0.40610700  0.00549800  0.43296000  1
  Cu  Cu97  1  0.09389300  0.00549800  0.93296000  1
  Cu  Cu98  1  0.59389300  0.99450200  0.56704000  1
  Cu  Cu99  1  0.90610700  0.99450200  0.06704000  1
  Cu  Cu100  1  0.09046800  0.92494900  0.41130700  1
  Cu  Cu101  1  0.40953200  0.92494900  0.91130700  1
  Cu  Cu102  1  0.90953200  0.07505100  0.58869300  1
  Cu  Cu103  1  0.59046800  0.07505100  0.08869300  1
  Cu  Cu104  1  0.24577000  0.39402100  0.61898100  1
  Cu  Cu105  1  0.25423000  0.39402100  0.11898100  1
  Cu  Cu106  1  0.75423000  0.60597900  0.38101900  1
  Cu  Cu107  1  0.74577000  0.60597900  0.88101900  1
