# generated using pymatgen
data_Cu2Ni3C23
_symmetry_space_group_name_H-M   'P 1'
_cell_length_a   6.28107844
_cell_length_b   6.28107844
_cell_length_c   10.00688808
_cell_angle_alpha   89.56636794
_cell_angle_beta   89.56636794
_cell_angle_gamma   59.46384355
_symmetry_Int_Tables_number   1
_chemical_formula_structural   Cu2Ni3C23
_chemical_formula_sum   'Cu2 Ni3 C23'
_cell_volume   340.02419277
_cell_formula_units_Z   1
loop_
 _symmetry_equiv_pos_site_id
 _symmetry_equiv_pos_as_xyz
  1  'x, y, z'
loop_
 _atom_site_type_symbol
 _atom_site_label
 _atom_site_symmetry_multiplicity
 _atom_site_fract_x
 _atom_site_fract_y
 _atom_site_fract_z
 _atom_site_occupancy
  C  C0  1  0.66971400  0.66971400  0.09716400  1
  C  C1  1  0.99521800  0.99521800  0.01597900  1
  C  C2  1  0.99907800  0.99907800  0.50522300  1
  C  C3  1  0.32713500  0.32713500  0.59467300  1
  Ni  Ni4  1  0.82924700  0.82924700  0.78674100  1
  Ni  Ni5  1  0.17192600  0.66246400  0.29002000  1
  Ni  Ni6  1  0.66246400  0.17192600  0.29002000  1
  Cu  Cu7  1  0.67468000  0.67468000  0.50353500  1
  Cu  Cu8  1  0.34967100  0.34967100  0.01978400  1
  C  C9  1  0.33771200  0.83181700  0.78545800  1
  C  C10  1  0.83181700  0.33771200  0.78545800  1
  C  C11  1  0.17288400  0.17288400  0.28320700  1
  C  C12  1  0.34618200  0.83694500  0.41171200  1
  C  C13  1  0.51451900  0.51451900  0.66087600  1
  C  C14  1  0.65943700  0.65943700  0.89785600  1
  C  C15  1  0.00156800  0.00156800  0.68870500  1
  C  C16  1  0.00631400  0.00631400  0.19907600  1
  C  C17  1  0.83694500  0.34618200  0.41171200  1
  C  C18  1  0.50939600  0.95351800  0.65106000  1
  C  C19  1  0.95351800  0.50939600  0.65106000  1
  C  C20  1  0.15928300  0.15928300  0.90149200  1
  C  C21  1  0.82893700  0.82893700  0.41967800  1
  C  C22  1  0.04150300  0.47265400  0.14476200  1
  C  C23  1  0.47265400  0.04150300  0.14476200  1
  C  C24  1  0.32735100  0.32735100  0.39414100  1
  C  C25  1  0.17622700  0.66156400  0.90899100  1
  C  C26  1  0.48194400  0.48194400  0.14008100  1
  C  C27  1  0.66156400  0.17622700  0.90899100  1
