# generated using pymatgen
data_Cu3NiC32
_symmetry_space_group_name_H-M   'P 1'
_cell_length_a   8.73006913
_cell_length_b   8.73006913
_cell_length_c   8.73006949
_cell_angle_alpha   59.97171730
_cell_angle_beta   59.97171730
_cell_angle_gamma   59.97171106
_symmetry_Int_Tables_number   1
_chemical_formula_structural   Cu3NiC32
_chemical_formula_sum   'Cu3 Ni1 C32'
_cell_volume   470.17487996
_cell_formula_units_Z   1
loop_
 _symmetry_equiv_pos_site_id
 _symmetry_equiv_pos_as_xyz
  1  'x, y, z'
loop_
 _atom_site_type_symbol
 _atom_site_label
 _atom_site_symmetry_multiplicity
 _atom_site_fract_x
 _atom_site_fract_y
 _atom_site_fract_z
 _atom_site_occupancy
  C  C0  1  0.99572600  0.99572600  0.99572600  1
  C  C1  1  0.49945100  0.49945100  0.49945100  1
  Ni  Ni2  1  0.14375500  0.14375500  0.14375500  1
  Cu  Cu3  1  0.64321700  0.64321700  0.64321700  1
  Cu  Cu4  1  0.85474500  0.85474500  0.85474500  1
  Cu  Cu5  1  0.35688200  0.35688200  0.35688200  1
  C  C6  1  0.95630500  0.25259900  0.54817900  1
  C  C7  1  0.54817900  0.95630500  0.25259900  1
  C  C8  1  0.25259900  0.54817900  0.95630500  1
  C  C9  1  0.74470000  0.46204100  0.04156600  1
  C  C10  1  0.46204100  0.04156600  0.74470000  1
  C  C11  1  0.04156600  0.74470000  0.46204100  1
  C  C12  1  0.50624700  0.11489000  0.30755900  1
  C  C13  1  0.30755900  0.50624700  0.11489000  1
  C  C14  1  0.11489000  0.30755900  0.50624700  1
  C  C15  1  0.93993700  0.08654500  0.73601600  1
  C  C16  1  0.00106100  0.19137200  0.38280100  1
  C  C17  1  0.76446700  0.41193400  0.55654300  1
  C  C18  1  0.73601600  0.93993700  0.08654500  1
  C  C19  1  0.55654300  0.76446700  0.41193300  1
  C  C20  1  0.80837200  0.61488300  0.00580300  1
  C  C21  1  0.41193400  0.55654300  0.76446700  1
  C  C22  1  0.91280000  0.26502000  0.06141700  1
  C  C23  1  0.61488300  0.00580300  0.80837200  1
  C  C24  1  0.38280100  0.00106100  0.19137200  1
  C  C25  1  0.08654500  0.73601600  0.93993700  1
  C  C26  1  0.58756000  0.44003500  0.23575700  1
  C  C27  1  0.19137200  0.38280100  0.00106100  1
  C  C28  1  0.44003500  0.23575700  0.58756000  1
  C  C29  1  0.26502000  0.06141700  0.91280000  1
  C  C30  1  0.23575700  0.58756000  0.44003500  1
  C  C31  1  0.00580300  0.80837200  0.61488300  1
  C  C32  1  0.06141700  0.91280000  0.26502000  1
  C  C33  1  0.88320100  0.69457000  0.49205700  1
  C  C34  1  0.69457000  0.49205700  0.88320100  1
  C  C35  1  0.49205700  0.88320100  0.69457000  1
