# generated using pymatgen
data_Cu10Ni3C19
_symmetry_space_group_name_H-M   'P 1'
_cell_length_a   10.93383300
_cell_length_b   8.43874500
_cell_length_c   15.57102535
_cell_angle_alpha   77.23348784
_cell_angle_beta   90.00000000
_cell_angle_gamma   90.00000000
_symmetry_Int_Tables_number   1
_chemical_formula_structural   Cu10Ni3C19
_chemical_formula_sum   'Cu40 Ni12 C76'
_cell_volume   1401.18745634
_cell_formula_units_Z   4
loop_
 _symmetry_equiv_pos_site_id
 _symmetry_equiv_pos_as_xyz
  1  'x, y, z'
loop_
 _atom_site_type_symbol
 _atom_site_label
 _atom_site_symmetry_multiplicity
 _atom_site_fract_x
 _atom_site_fract_y
 _atom_site_fract_z
 _atom_site_occupancy
  C  C0  1  0.69326700  0.63334200  0.57670900  1
  C  C1  1  0.19326700  0.36665800  0.92329100  1
  C  C2  1  0.30673300  0.36665800  0.42329100  1
  C  C3  1  0.80673300  0.63334200  0.07670900  1
  C  C4  1  0.73574800  0.36065300  0.43501300  1
  C  C5  1  0.23574800  0.63934700  0.06498700  1
  C  C6  1  0.26425200  0.63934700  0.56498700  1
  C  C7  1  0.76425200  0.36065300  0.93501300  1
  C  C8  1  0.91759100  0.37111600  0.66349100  1
  C  C9  1  0.41759100  0.62888400  0.83650900  1
  C  C10  1  0.08240900  0.62888400  0.33650900  1
  C  C11  1  0.58240900  0.37111600  0.16349100  1
  C  C12  1  0.09778600  0.76127900  0.44340800  1
  C  C13  1  0.59778600  0.23872100  0.05659200  1
  C  C14  1  0.90221400  0.23872100  0.55659200  1
  C  C15  1  0.40221400  0.76127900  0.94340800  1
  C  C16  1  0.49055300  0.79978000  0.49764600  1
  C  C17  1  0.99055300  0.20022000  0.00235400  1
  C  C18  1  0.50944700  0.20022000  0.50235400  1
  C  C19  1  0.00944700  0.79978000  0.99764600  1
  C  C20  1  0.59264800  0.79912000  0.42168200  1
  C  C21  1  0.09264800  0.20088000  0.07831800  1
  C  C22  1  0.40735200  0.20088000  0.57831800  1
  C  C23  1  0.90735200  0.79912000  0.92168200  1
  C  C24  1  0.74201000  0.77530900  0.70716300  1
  C  C25  1  0.24201000  0.22469100  0.79283700  1
  C  C26  1  0.25799000  0.22469100  0.29283700  1
  C  C27  1  0.75799000  0.77530900  0.20716300  1
  C  C28  1  0.59462300  0.82124300  0.67334200  1
  C  C29  1  0.09462300  0.17875700  0.82665800  1
  C  C30  1  0.40537700  0.17875700  0.32665800  1
  C  C31  1  0.90537700  0.82124300  0.17334200  1
  C  C32  1  0.71025800  0.17214900  0.55796400  1
  C  C33  1  0.21025800  0.82785100  0.94203600  1
  C  C34  1  0.28974200  0.82785100  0.44203600  1
  C  C35  1  0.78974200  0.17214900  0.05796400  1
  C  C36  1  0.48497700  0.55915000  0.65435300  1
  C  C37  1  0.98497700  0.44085000  0.84564700  1
  C  C38  1  0.51502300  0.44085000  0.34564700  1
  C  C39  1  0.01502300  0.55915000  0.15435300  1
  C  C40  1  0.51212500  0.44058300  0.58824100  1
  C  C41  1  0.01212500  0.55941700  0.91175900  1
  C  C42  1  0.48787500  0.55941700  0.41175900  1
  C  C43  1  0.98787500  0.44058300  0.08824100  1
  C  C44  1  0.58721100  0.35969700  0.72020900  1
  C  C45  1  0.08721100  0.64030300  0.77979100  1
  C  C46  1  0.41278900  0.64030300  0.27979100  1
  C  C47  1  0.91278900  0.35969700  0.22020900  1
  C  C48  1  0.91841400  0.76527100  0.52166300  1
  C  C49  1  0.41841400  0.23472900  0.97833700  1
  C  C50  1  0.08158600  0.23472900  0.47833700  1
  C  C51  1  0.58158600  0.76527100  0.02166300  1
  C  C52  1  0.82687100  0.76132600  0.43774800  1
  C  C53  1  0.32687100  0.23867400  0.06225200  1
  C  C54  1  0.17312900  0.23867400  0.56225200  1
  C  C55  1  0.67312900  0.76132600  0.93774800  1
  C  C56  1  0.81299400  0.90935300  0.49134700  1
  C  C57  1  0.31299400  0.09064700  0.00865300  1
  C  C58  1  0.18700600  0.09064700  0.50865300  1
  C  C59  1  0.68700600  0.90935300  0.99134700  1
  C  C60  1  0.54914700  0.79474600  0.28746700  1
  C  C61  1  0.04914700  0.20525400  0.21253300  1
  C  C62  1  0.45085300  0.20525400  0.71253300  1
  C  C63  1  0.95085300  0.79474600  0.78746700  1
  C  C64  1  0.60616100  0.95618400  0.30142000  1
  C  C65  1  0.10616100  0.04381600  0.19858000  1
  C  C66  1  0.39383900  0.04381600  0.69858000  1
  C  C67  1  0.89383900  0.95618400  0.80142000  1
  C  C68  1  0.68278000  0.22322600  0.77072600  1
  C  C69  1  0.18278000  0.77677400  0.72927400  1
  C  C70  1  0.31722000  0.77677400  0.22927400  1
  C  C71  1  0.81722000  0.22322600  0.27072600  1
  C  C72  1  0.59685900  0.28579700  0.87708700  1
  C  C73  1  0.09685900  0.71420300  0.62291300  1
  C  C74  1  0.40314100  0.71420300  0.12291300  1
  C  C75  1  0.90314100  0.28579700  0.37708700  1
  Ni  Ni76  1  0.67727800  0.76642000  0.66075600  1
  Ni  Ni77  1  0.17727800  0.23358000  0.83924400  1
  Ni  Ni78  1  0.32272200  0.23358000  0.33924400  1
  Ni  Ni79  1  0.82272200  0.76642000  0.16075600  1
  Ni  Ni80  1  0.55339700  0.49067200  0.63512900  1
  Ni  Ni81  1  0.05339700  0.50932800  0.86487100  1
  Ni  Ni82  1  0.44660300  0.50932800  0.36487100  1
  Ni  Ni83  1  0.94660300  0.49067200  0.13512900  1
  Ni  Ni84  1  0.83127400  0.78837500  0.49855700  1
  Ni  Ni85  1  0.33127400  0.21162500  0.00144300  1
  Ni  Ni86  1  0.16872600  0.21162500  0.50144300  1
  Ni  Ni87  1  0.66872600  0.78837500  0.99855700  1
  Cu  Cu88  1  0.72837800  0.49041800  0.49119700  1
  Cu  Cu89  1  0.22837800  0.50958200  0.00880300  1
  Cu  Cu90  1  0.27162200  0.50958200  0.50880300  1
  Cu  Cu91  1  0.77162200  0.49041800  0.99119700  1
  Cu  Cu92  1  0.67460100  0.19108500  0.49838500  1
  Cu  Cu93  1  0.17460100  0.80891500  0.00161500  1
  Cu  Cu94  1  0.32539900  0.80891500  0.50161500  1
  Cu  Cu95  1  0.82539900  0.19108500  0.99838500  1
  Cu  Cu96  1  0.88288600  0.30286600  0.43899600  1
  Cu  Cu97  1  0.38288600  0.69713400  0.06100400  1
  Cu  Cu98  1  0.11711400  0.69713400  0.56100400  1
  Cu  Cu99  1  0.61711400  0.30286600  0.93899600  1
  Cu  Cu100  1  0.86921900  0.22414400  0.61713600  1
  Cu  Cu101  1  0.36921900  0.77585600  0.88286400  1
  Cu  Cu102  1  0.13078100  0.77585600  0.38286400  1
  Cu  Cu103  1  0.63078100  0.22414400  0.11713600  1
  Cu  Cu104  1  0.82629800  0.51182700  0.65326100  1
  Cu  Cu105  1  0.32629800  0.48817300  0.84673900  1
  Cu  Cu106  1  0.17370200  0.48817300  0.34673900  1
  Cu  Cu107  1  0.67370200  0.51182700  0.15326100  1
  Cu  Cu108  1  0.88682500  0.27169200  0.76878200  1
  Cu  Cu109  1  0.38682500  0.72830800  0.73121800  1
  Cu  Cu110  1  0.11317500  0.72830800  0.23121800  1
  Cu  Cu111  1  0.61317500  0.27169200  0.26878200  1
  Cu  Cu112  1  0.95560400  0.12684900  0.79318200  1
  Cu  Cu113  1  0.45560400  0.87315100  0.70681800  1
  Cu  Cu114  1  0.04439600  0.87315100  0.20681800  1
  Cu  Cu115  1  0.54439600  0.12684900  0.29318200  1
  Cu  Cu116  1  0.57883300  0.78347700  0.48787600  1
  Cu  Cu117  1  0.07883300  0.21652300  0.01212400  1
  Cu  Cu118  1  0.42116700  0.21652300  0.51212400  1
  Cu  Cu119  1  0.92116700  0.78347700  0.98787600  1
  Cu  Cu120  1  0.61904400  0.83424600  0.31721300  1
  Cu  Cu121  1  0.11904400  0.16575400  0.18278700  1
  Cu  Cu122  1  0.38095600  0.16575400  0.68278700  1
  Cu  Cu123  1  0.88095600  0.83424600  0.81721300  1
  Cu  Cu124  1  0.59844100  0.26091300  0.77622100  1
  Cu  Cu125  1  0.09844100  0.73908700  0.72377900  1
  Cu  Cu126  1  0.40155900  0.73908700  0.22377900  1
  Cu  Cu127  1  0.90155900  0.26091300  0.27622100  1
