# generated using pymatgen
data_Cu(NiC)2
_symmetry_space_group_name_H-M   'P 1'
_cell_length_a   8.22850200
_cell_length_b   8.23174694
_cell_length_c   8.20165704
_cell_angle_alpha   109.35059315
_cell_angle_beta   109.37143837
_cell_angle_gamma   109.57881552
_symmetry_Int_Tables_number   1
_chemical_formula_structural   Cu(NiC)2
_chemical_formula_sum   'Cu8 Ni16 C16'
_cell_volume   428.24678886
_cell_formula_units_Z   8
loop_
 _symmetry_equiv_pos_site_id
 _symmetry_equiv_pos_as_xyz
  1  'x, y, z'
loop_
 _atom_site_type_symbol
 _atom_site_label
 _atom_site_symmetry_multiplicity
 _atom_site_fract_x
 _atom_site_fract_y
 _atom_site_fract_z
 _atom_site_occupancy
  C  C0  1  0.50032000  0.00048200  0.98643800  1
  C  C1  1  0.74793100  0.29890900  0.53853200  1
  C  C2  1  0.21213100  0.95672900  0.24996400  1
  C  C3  1  0.71214100  0.46423600  0.24699100  1
  C  C4  1  0.24093200  0.20444900  0.94629700  1
  C  C5  1  0.01304400  0.51478900  0.01006400  1
  C  C6  1  0.96689000  0.26103700  0.20485800  1
  C  C7  1  0.50146000  0.49772600  0.51188300  1
  C  C8  1  0.53998300  0.74717400  0.30033000  1
  C  C9  1  0.99612900  0.99639800  0.50791200  1
  C  C10  1  0.45599500  0.25829300  0.71420700  1
  C  C11  1  0.03412200  0.73639600  0.78419500  1
  C  C12  1  0.75407700  0.79104800  0.04397800  1
  C  C13  1  0.79545400  0.04172800  0.76042200  1
  C  C14  1  0.28685000  0.54130100  0.74580800  1
  C  C15  1  0.25308000  0.70151500  0.46288400  1
  Ni  Ni16  1  0.72489900  0.99266000  0.95342600  1
  Ni  Ni17  1  0.51110600  0.23356700  0.96034000  1
  Ni  Ni18  1  0.45812400  0.22349500  0.45022400  1
  Ni  Ni19  1  0.77397700  0.54831800  0.53691200  1
  Ni  Ni20  1  0.77317600  0.72740300  0.26633000  1
  Ni  Ni21  1  0.05280700  0.27573600  0.01203500  1
  Ni  Ni22  1  0.95770800  0.50668000  0.23304400  1
  Ni  Ni23  1  0.22388600  0.44830700  0.46070100  1
  Ni  Ni24  1  0.55091400  0.53948700  0.77798000  1
  Ni  Ni25  1  0.27900000  0.74033100  0.22544200  1
  Ni  Ni26  1  0.54110900  0.77333800  0.54650500  1
  Ni  Ni27  1  0.95139300  0.72636100  0.99281100  1
  Ni  Ni28  1  0.98863300  0.95030900  0.72335800  1
  Ni  Ni29  1  0.22299200  0.27048500  0.73293200  1
  Ni  Ni30  1  0.03744600  0.48679700  0.76172200  1
  Ni  Ni31  1  0.27052900  0.77953800  0.72755400  1
  Cu  Cu32  1  0.27386100  0.00758200  0.04944000  1
  Cu  Cu33  1  0.76814800  0.04262100  0.49021400  1
  Cu  Cu34  1  0.72987700  0.22169500  0.27725600  1
  Cu  Cu35  1  0.44859300  0.46187100  0.22067800  1
  Cu  Cu36  1  0.22504400  0.95607300  0.50269400  1
  Cu  Cu37  1  0.72327500  0.25826600  0.76727500  1
  Cu  Cu38  1  0.01114500  0.04964400  0.27462500  1
  Cu  Cu39  1  0.49182100  0.76722700  0.04174300  1
