# generated using pymatgen
data_Cu3(Ni9C5)2
_symmetry_space_group_name_H-M   'P 1'
_cell_length_a   8.16604300
_cell_length_b   9.04909100
_cell_length_c   11.69050600
_cell_angle_alpha   90.00000000
_cell_angle_beta   90.00000000
_cell_angle_gamma   90.00000000
_symmetry_Int_Tables_number   1
_chemical_formula_structural   Cu3(Ni9C5)2
_chemical_formula_sum   'Cu6 Ni36 C20'
_cell_volume   863.87305308
_cell_formula_units_Z   2
loop_
 _symmetry_equiv_pos_site_id
 _symmetry_equiv_pos_as_xyz
  1  'x, y, z'
loop_
 _atom_site_type_symbol
 _atom_site_label
 _atom_site_symmetry_multiplicity
 _atom_site_fract_x
 _atom_site_fract_y
 _atom_site_fract_z
 _atom_site_occupancy
  C  C0  1  0.00000000  0.66061400  0.50000000  1
  C  C1  1  0.50000000  0.33938600  0.00000000  1
  Ni  Ni2  1  0.72187900  0.47719900  0.59630700  1
  Ni  Ni3  1  0.72187900  0.47719900  0.40369300  1
  Ni  Ni4  1  0.27812100  0.47719900  0.59630700  1
  Ni  Ni5  1  0.27812100  0.47719900  0.40369300  1
  Ni  Ni6  1  0.77812100  0.52280100  0.90369300  1
  Ni  Ni7  1  0.77812100  0.52280100  0.09630700  1
  Ni  Ni8  1  0.22187900  0.52280100  0.90369300  1
  Ni  Ni9  1  0.22187900  0.52280100  0.09630700  1
  Ni  Ni10  1  0.70635700  0.62643500  0.66339500  1
  Ni  Ni11  1  0.70635700  0.62643500  0.33660500  1
  Ni  Ni12  1  0.29364300  0.62643500  0.66339500  1
  Ni  Ni13  1  0.29364300  0.62643500  0.33660500  1
  Ni  Ni14  1  0.79364300  0.37356500  0.83660500  1
  Ni  Ni15  1  0.79364300  0.37356500  0.16339500  1
  Ni  Ni16  1  0.20635700  0.37356500  0.83660500  1
  Ni  Ni17  1  0.20635700  0.37356500  0.16339500  1
  Ni  Ni18  1  0.00000000  0.32163500  0.43192300  1
  Ni  Ni19  1  0.00000000  0.32163500  0.56807700  1
  Ni  Ni20  1  0.50000000  0.67836500  0.06807700  1
  Ni  Ni21  1  0.50000000  0.67836500  0.93192300  1
  Ni  Ni22  1  0.27427900  0.87165300  0.43336800  1
  Ni  Ni23  1  0.27427900  0.87165300  0.56663200  1
  Ni  Ni24  1  0.72572100  0.87165300  0.43336800  1
  Ni  Ni25  1  0.72572100  0.87165300  0.56663200  1
  Ni  Ni26  1  0.22572100  0.12834700  0.06663200  1
  Ni  Ni27  1  0.22572100  0.12834700  0.93336800  1
  Ni  Ni28  1  0.77427900  0.12834700  0.06663200  1
  Ni  Ni29  1  0.77427900  0.12834700  0.93336800  1
  Ni  Ni30  1  0.00000000  0.89987400  0.70446500  1
  Ni  Ni31  1  0.00000000  0.89987400  0.29553500  1
  Ni  Ni32  1  0.50000000  0.10012600  0.79553500  1
  Ni  Ni33  1  0.50000000  0.10012600  0.20446500  1
  Ni  Ni34  1  0.00000000  0.74508900  0.76380600  1
  Ni  Ni35  1  0.00000000  0.74508900  0.23619400  1
  Ni  Ni36  1  0.50000000  0.25491100  0.73619400  1
  Ni  Ni37  1  0.50000000  0.25491100  0.26380600  1
  Cu  Cu38  1  0.50000000  0.82431000  0.73557400  1
  Cu  Cu39  1  0.50000000  0.82431000  0.26442600  1
  Cu  Cu40  1  0.00000000  0.17569000  0.76442600  1
  Cu  Cu41  1  0.00000000  0.17569000  0.23557400  1
  Cu  Cu42  1  0.00000000  0.69486400  0.00000000  1
  Cu  Cu43  1  0.50000000  0.30513600  0.50000000  1
  C  C44  1  0.78653000  0.56113900  0.62547900  1
  C  C45  1  0.78653000  0.56113900  0.37452100  1
  C  C46  1  0.21347000  0.56113900  0.62547900  1
  C  C47  1  0.21347000  0.56113900  0.37452100  1
  C  C48  1  0.71347000  0.43886100  0.87452100  1
  C  C49  1  0.71347000  0.43886100  0.12547900  1
  C  C50  1  0.28653000  0.43886100  0.87452100  1
  C  C51  1  0.28653000  0.43886100  0.12547900  1
  C  C52  1  0.00000000  0.38571700  0.50000000  1
  C  C53  1  0.50000000  0.61428300  0.00000000  1
  C  C54  1  0.20163000  0.86191800  0.50000000  1
  C  C55  1  0.79837000  0.86191800  0.50000000  1
  C  C56  1  0.29837000  0.13808200  0.00000000  1
  C  C57  1  0.70163000  0.13808200  0.00000000  1
  C  C58  1  0.00000000  0.79281500  0.68857200  1
  C  C59  1  0.00000000  0.79281500  0.31142800  1
  C  C60  1  0.50000000  0.20718500  0.81142800  1
  C  C61  1  0.50000000  0.20718500  0.18857200  1
