# generated using pymatgen
data_Cu8Ni2C5
_symmetry_space_group_name_H-M   'P 1'
_cell_length_a   4.86149300
_cell_length_b   7.91669400
_cell_length_c   10.70950876
_cell_angle_alpha   65.20026964
_cell_angle_beta   90.00000000
_cell_angle_gamma   90.00000000
_symmetry_Int_Tables_number   1
_chemical_formula_structural   Cu8Ni2C5
_chemical_formula_sum   'Cu16 Ni4 C10'
_cell_volume   374.16522553
_cell_formula_units_Z   2
loop_
 _symmetry_equiv_pos_site_id
 _symmetry_equiv_pos_as_xyz
  1  'x, y, z'
loop_
 _atom_site_type_symbol
 _atom_site_label
 _atom_site_symmetry_multiplicity
 _atom_site_fract_x
 _atom_site_fract_y
 _atom_site_fract_z
 _atom_site_occupancy
  C  C0  1  0.47390500  0.88562200  0.90534800  1
  C  C1  1  0.50000000  0.50000000  0.50000000  1
  C  C2  1  0.52609500  0.11437800  0.09465200  1
  C  C3  1  0.48413900  0.70591200  0.68321800  1
  C  C4  1  0.51586100  0.29408800  0.31678200  1
  C  C5  1  0.00000000  0.50000000  0.00000000  1
  C  C6  1  0.01586100  0.70591200  0.18321800  1
  C  C7  1  0.02609500  0.88562200  0.40534800  1
  C  C8  1  0.97390500  0.11437800  0.59465200  1
  C  C9  1  0.98413900  0.29408800  0.81678200  1
  Ni  Ni10  1  0.17457000  0.71333700  0.02471300  1
  Ni  Ni11  1  0.32543000  0.71333700  0.52471300  1
  Ni  Ni12  1  0.67457000  0.28666300  0.47528700  1
  Ni  Ni13  1  0.82543000  0.28666300  0.97528700  1
  Cu  Cu14  1  0.21745400  0.51545000  0.81379600  1
  Cu  Cu15  1  0.19915800  0.91715300  0.21113500  1
  Cu  Cu16  1  0.19832500  0.12455700  0.41814200  1
  Cu  Cu17  1  0.18234800  0.31179100  0.64299300  1
  Cu  Cu18  1  0.30167500  0.12455700  0.91814200  1
  Cu  Cu19  1  0.31765200  0.31179100  0.14299300  1
  Cu  Cu20  1  0.30084200  0.91715300  0.71113500  1
  Cu  Cu21  1  0.28254600  0.51545000  0.31379600  1
  Cu  Cu22  1  0.69832500  0.87544300  0.08185800  1
  Cu  Cu23  1  0.69915800  0.08284700  0.28886500  1
  Cu  Cu24  1  0.71745400  0.48455000  0.68620400  1
  Cu  Cu25  1  0.68234800  0.68820900  0.85700700  1
  Cu  Cu26  1  0.78254600  0.48455000  0.18620400  1
  Cu  Cu27  1  0.81765200  0.68820900  0.35700700  1
  Cu  Cu28  1  0.80084200  0.08284700  0.78886500  1
  Cu  Cu29  1  0.80167500  0.87544300  0.58185800  1
