# generated using pymatgen
data_Cu5NiC8
_symmetry_space_group_name_H-M   'P 1'
_cell_length_a   4.89491601
_cell_length_b   5.77897000
_cell_length_c   18.05511104
_cell_angle_alpha   89.99995479
_cell_angle_beta   90.00727164
_cell_angle_gamma   89.99988199
_symmetry_Int_Tables_number   1
_chemical_formula_structural   Cu5NiC8
_chemical_formula_sum   'Cu20 Ni4 C32'
_cell_volume   510.73526326
_cell_formula_units_Z   4
loop_
 _symmetry_equiv_pos_site_id
 _symmetry_equiv_pos_as_xyz
  1  'x, y, z'
loop_
 _atom_site_type_symbol
 _atom_site_label
 _atom_site_symmetry_multiplicity
 _atom_site_fract_x
 _atom_site_fract_y
 _atom_site_fract_z
 _atom_site_occupancy
  C  C0  1  0.52776500  0.50000600  0.51234600  1
  C  C1  1  0.02741800  0.99999900  0.98756700  1
  C  C2  1  0.52712600  0.49999600  0.01254500  1
  C  C3  1  0.02721400  0.99999800  0.48736800  1
  C  C4  1  0.09645500  0.49999900  0.40056700  1
  C  C5  1  0.09601000  0.49999700  0.90059500  1
  C  C6  1  0.59623900  0.00000000  0.09939400  1
  C  C7  1  0.59614100  0.00000100  0.59941700  1
  C  C8  1  0.81947500  0.50000000  0.27160000  1
  C  C9  1  0.81949900  0.50000100  0.77161400  1
  C  C10  1  0.31946100  0.00000000  0.22842200  1
  C  C11  1  0.31947800  0.00000000  0.72841700  1
  C  C12  1  0.46377800  0.50000000  0.27314200  1
  C  C13  1  0.46378400  0.50000100  0.77315000  1
  C  C14  1  0.96377000  0.00000000  0.22687100  1
  C  C15  1  0.96376900  0.00000100  0.72686800  1
  C  C16  1  0.63698200  0.64762700  0.20685000  1
  C  C17  1  0.63691500  0.64762800  0.70685900  1
  C  C18  1  0.63698300  0.35237300  0.20685100  1
  C  C19  1  0.63691600  0.35237200  0.70685900  1
  C  C20  1  0.13699600  0.85237000  0.29316700  1
  C  C21  1  0.13695700  0.85237000  0.79316300  1
  C  C22  1  0.13699500  0.14763000  0.29316700  1
  C  C23  1  0.13695700  0.14763000  0.79316300  1
  C  C24  1  0.07910600  0.63524500  0.09704400  1
  C  C25  1  0.07975200  0.63529500  0.59702400  1
  C  C26  1  0.07911000  0.36475500  0.09704400  1
  C  C27  1  0.07975600  0.36470600  0.59702400  1
  C  C28  1  0.57913200  0.86475800  0.40297200  1
  C  C29  1  0.57940800  0.86472700  0.90298300  1
  C  C30  1  0.57913100  0.13524200  0.40297300  1
  C  C31  1  0.57940800  0.13527200  0.90298300  1
  Ni  Ni32  1  0.63976900  0.50000000  0.23933900  1
  Ni  Ni33  1  0.63971400  0.50000000  0.73934900  1
  Ni  Ni34  1  0.13974700  0.00000000  0.26068200  1
  Ni  Ni35  1  0.13973300  0.00000000  0.76067600  1
  Cu  Cu36  1  0.79029300  0.50000100  0.41788800  1
  Cu  Cu37  1  0.78989300  0.49999900  0.91799700  1
  Cu  Cu38  1  0.29011300  0.99999900  0.08202900  1
  Cu  Cu39  1  0.28997800  0.99999900  0.58203800  1
  Cu  Cu40  1  0.14128000  0.49999800  0.31520600  1
  Cu  Cu41  1  0.14051300  0.50000300  0.81521900  1
  Cu  Cu42  1  0.64089100  0.00000200  0.18476700  1
  Cu  Cu43  1  0.64062700  0.00000200  0.68479900  1
  Cu  Cu44  1  0.20053400  0.50000100  0.10324200  1
  Cu  Cu45  1  0.20114900  0.50000100  0.60312300  1
  Cu  Cu46  1  0.70057900  0.00000000  0.39679800  1
  Cu  Cu47  1  0.70080600  0.00000000  0.89683300  1
  Cu  Cu48  1  0.24250200  0.71577500  0.43636800  1
  Cu  Cu49  1  0.24218700  0.71581000  0.93635300  1
  Cu  Cu50  1  0.24250200  0.28422300  0.43636700  1
  Cu  Cu51  1  0.24217900  0.28418200  0.93635500  1
  Cu  Cu52  1  0.74226300  0.78418500  0.06362400  1
  Cu  Cu53  1  0.74230300  0.78419900  0.56365800  1
  Cu  Cu54  1  0.74226400  0.21581400  0.06362300  1
  Cu  Cu55  1  0.74229800  0.21580300  0.56365800  1
