# generated using pymatgen
data_Cu4Ni3C14
_symmetry_space_group_name_H-M   'P 1'
_cell_length_a   7.64027800
_cell_length_b   11.33640100
_cell_length_c   26.94894900
_cell_angle_alpha   90.00000000
_cell_angle_beta   90.00000000
_cell_angle_gamma   90.00000000
_symmetry_Int_Tables_number   1
_chemical_formula_structural   Cu4Ni3C14
_chemical_formula_sum   'Cu32 Ni24 C112'
_cell_volume   2334.13619602
_cell_formula_units_Z   8
loop_
 _symmetry_equiv_pos_site_id
 _symmetry_equiv_pos_as_xyz
  1  'x, y, z'
loop_
 _atom_site_type_symbol
 _atom_site_label
 _atom_site_symmetry_multiplicity
 _atom_site_fract_x
 _atom_site_fract_y
 _atom_site_fract_z
 _atom_site_occupancy
  C  C0  1  0.76678500  0.49056300  0.03548000  1
  C  C1  1  0.26678500  0.00943700  0.96452000  1
  C  C2  1  0.23321500  0.99056300  0.46452000  1
  C  C3  1  0.73321500  0.50943700  0.53548000  1
  C  C4  1  0.23321500  0.50943700  0.96452000  1
  C  C5  1  0.73321500  0.99056300  0.03548000  1
  C  C6  1  0.76678500  0.00943700  0.53548000  1
  C  C7  1  0.26678500  0.49056300  0.46452000  1
  C  C8  1  0.73000100  0.48245100  0.20665500  1
  C  C9  1  0.23000100  0.01754900  0.79334500  1
  C  C10  1  0.26999900  0.98245100  0.29334500  1
  C  C11  1  0.76999900  0.51754900  0.70665500  1
  C  C12  1  0.26999900  0.51754900  0.79334500  1
  C  C13  1  0.76999900  0.98245100  0.20665500  1
  C  C14  1  0.73000100  0.01754900  0.70665500  1
  C  C15  1  0.23000100  0.48245100  0.29334500  1
  C  C16  1  0.86594400  0.02755600  0.37551100  1
  C  C17  1  0.36594400  0.47244400  0.62448900  1
  C  C18  1  0.13405600  0.52755600  0.12448900  1
  C  C19  1  0.63405600  0.97244400  0.87551100  1
  C  C20  1  0.13405600  0.97244400  0.62448900  1
  C  C21  1  0.63405600  0.52755600  0.37551100  1
  C  C22  1  0.86594400  0.47244400  0.87551100  1
  C  C23  1  0.36594400  0.02755600  0.12448900  1
  Ni  Ni24  1  0.60991700  0.24395400  0.45993900  1
  Ni  Ni25  1  0.10991700  0.25604600  0.54006100  1
  Ni  Ni26  1  0.39008300  0.74395400  0.04006100  1
  Ni  Ni27  1  0.89008300  0.75604600  0.95993900  1
  Ni  Ni28  1  0.39008300  0.75604600  0.54006100  1
  Ni  Ni29  1  0.89008300  0.74395400  0.45993900  1
  Ni  Ni30  1  0.60991700  0.25604600  0.95993900  1
  Ni  Ni31  1  0.10991700  0.24395400  0.04006100  1
  Ni  Ni32  1  0.59544500  0.24883900  0.29155100  1
  Ni  Ni33  1  0.09544500  0.25116100  0.70844900  1
  Ni  Ni34  1  0.40455500  0.74883900  0.20844900  1
  Ni  Ni35  1  0.90455500  0.75116100  0.79155100  1
  Ni  Ni36  1  0.40455500  0.75116100  0.70844900  1
  Ni  Ni37  1  0.90455500  0.74883900  0.29155100  1
  Ni  Ni38  1  0.59544500  0.25116100  0.79155100  1
  Ni  Ni39  1  0.09544500  0.24883900  0.20844900  1
  Ni  Ni40  1  0.83909300  0.22210100  0.12279600  1
  Ni  Ni41  1  0.33909300  0.27789900  0.87720400  1
  Ni  Ni42  1  0.16090700  0.72210100  0.37720400  1
  Ni  Ni43  1  0.66090700  0.77789900  0.62279600  1
  Ni  Ni44  1  0.16090700  0.77789900  0.87720400  1
  Ni  Ni45  1  0.66090700  0.72210100  0.12279600  1
  Ni  Ni46  1  0.83909300  0.27789900  0.62279600  1
  Ni  Ni47  1  0.33909300  0.22210100  0.37720400  1
  Cu  Cu48  1  0.94997500  0.19764600  0.27700800  1
  Cu  Cu49  1  0.44997500  0.30235400  0.72299200  1
  Cu  Cu50  1  0.05002500  0.69764600  0.22299200  1
  Cu  Cu51  1  0.55002500  0.80235400  0.77700800  1
  Cu  Cu52  1  0.05002500  0.80235400  0.72299200  1
  Cu  Cu53  1  0.55002500  0.69764600  0.27700800  1
  Cu  Cu54  1  0.94997500  0.30235400  0.77700800  1
  Cu  Cu55  1  0.44997500  0.19764600  0.22299200  1
  Cu  Cu56  1  0.93248200  0.24481200  0.97326600  1
  Cu  Cu57  1  0.43248200  0.25518800  0.02673400  1
  Cu  Cu58  1  0.06751800  0.74481200  0.52673400  1
  Cu  Cu59  1  0.56751800  0.75518800  0.47326600  1
  Cu  Cu60  1  0.06751800  0.75518800  0.02673400  1
  Cu  Cu61  1  0.56751800  0.74481200  0.97326600  1
  Cu  Cu62  1  0.93248200  0.25518800  0.47326600  1
  Cu  Cu63  1  0.43248200  0.24481200  0.52673400  1
  Cu  Cu64  1  0.88482000  0.32772500  0.34540300  1
  Cu  Cu65  1  0.38482000  0.17227500  0.65459700  1
  Cu  Cu66  1  0.11518000  0.82772500  0.15459700  1
  Cu  Cu67  1  0.61518000  0.67227500  0.84540300  1
  Cu  Cu68  1  0.11518000  0.67227500  0.65459700  1
  Cu  Cu69  1  0.61518000  0.82772500  0.34540300  1
  Cu  Cu70  1  0.88482000  0.17227500  0.84540300  1
  Cu  Cu71  1  0.38482000  0.32772500  0.15459700  1
  Cu  Cu72  1  0.53707400  0.38183000  0.12398800  1
  Cu  Cu73  1  0.03707400  0.11817000  0.87601200  1
  Cu  Cu74  1  0.46292600  0.88183000  0.37601200  1
  Cu  Cu75  1  0.96292600  0.61817000  0.62398800  1
  Cu  Cu76  1  0.46292600  0.61817000  0.87601200  1
  Cu  Cu77  1  0.96292600  0.88183000  0.12398800  1
  Cu  Cu78  1  0.53707400  0.11817000  0.62398800  1
  Cu  Cu79  1  0.03707400  0.38183000  0.37601200  1
  C  C80  1  0.60300600  0.37603800  0.45603600  1
  C  C81  1  0.10300600  0.12396200  0.54396400  1
  C  C82  1  0.39699400  0.87603800  0.04396400  1
  C  C83  1  0.89699400  0.62396200  0.95603600  1
  C  C84  1  0.39699400  0.62396200  0.54396400  1
  C  C85  1  0.89699400  0.87603800  0.45603600  1
  C  C86  1  0.60300600  0.12396200  0.95603600  1
  C  C87  1  0.10300600  0.37603800  0.04396400  1
  C  C88  1  0.56213400  0.37881000  0.28639400  1
  C  C89  1  0.06213400  0.12119000  0.71360600  1
  C  C90  1  0.43786600  0.87881000  0.21360600  1
  C  C91  1  0.93786600  0.62119000  0.78639400  1
  C  C92  1  0.43786600  0.62119000  0.71360600  1
  C  C93  1  0.93786600  0.87881000  0.28639400  1
  C  C94  1  0.56213400  0.12119000  0.78639400  1
  C  C95  1  0.06213400  0.37881000  0.21360600  1
  C  C96  1  0.77397000  0.20930700  0.31032000  1
  C  C97  1  0.27397000  0.29069300  0.68968000  1
  C  C98  1  0.22603000  0.70930700  0.18968000  1
  C  C99  1  0.72603000  0.79069300  0.81032000  1
  C  C100  1  0.22603000  0.79069300  0.68968000  1
  C  C101  1  0.72603000  0.70930700  0.31032000  1
  C  C102  1  0.77397000  0.29069300  0.81032000  1
  C  C103  1  0.27397000  0.20930700  0.18968000  1
  C  C104  1  0.69293600  0.13414700  0.12024600  1
  C  C105  1  0.19293600  0.36585300  0.87975400  1
  C  C106  1  0.30706400  0.63414700  0.37975400  1
  C  C107  1  0.80706400  0.86585300  0.62024600  1
  C  C108  1  0.30706400  0.86585300  0.87975400  1
  C  C109  1  0.80706400  0.63414700  0.12024600  1
  C  C110  1  0.69293600  0.36585300  0.62024600  1
  C  C111  1  0.19293600  0.13414700  0.37975400  1
  C  C112  1  0.78552200  0.18288200  0.45283700  1
  C  C113  1  0.28552200  0.31711800  0.54716300  1
  C  C114  1  0.21447800  0.68288200  0.04716300  1
  C  C115  1  0.71447800  0.81711800  0.95283700  1
  C  C116  1  0.21447800  0.81711800  0.54716300  1
  C  C117  1  0.71447800  0.68288200  0.45283700  1
  C  C118  1  0.78552200  0.31711800  0.95283700  1
  C  C119  1  0.28552200  0.18288200  0.04716300  1
  C  C120  1  0.80380800  0.35196800  0.12051400  1
  C  C121  1  0.30380800  0.14803200  0.87948600  1
  C  C122  1  0.19619200  0.85196800  0.37948600  1
  C  C123  1  0.69619200  0.64803200  0.62051400  1
  C  C124  1  0.19619200  0.64803200  0.87948600  1
  C  C125  1  0.69619200  0.85196800  0.12051400  1
  C  C126  1  0.80380800  0.14803200  0.62051400  1
  C  C127  1  0.30380800  0.35196800  0.37948600  1
  C  C128  1  0.56304300  0.17802600  0.24118400  1
  C  C129  1  0.06304300  0.32197400  0.75881600  1
  C  C130  1  0.43695700  0.67802600  0.25881600  1
  C  C131  1  0.93695700  0.82197400  0.74118400  1
  C  C132  1  0.43695700  0.82197400  0.75881600  1
  C  C133  1  0.93695700  0.67802600  0.24118400  1
  C  C134  1  0.56304300  0.32197400  0.74118400  1
  C  C135  1  0.06304300  0.17802600  0.25881600  1
  C  C136  1  0.94591700  0.18874100  0.17335800  1
  C  C137  1  0.44591700  0.31125900  0.82664200  1
  C  C138  1  0.05408300  0.68874100  0.32664200  1
  C  C139  1  0.55408300  0.81125900  0.67335800  1
  C  C140  1  0.05408300  0.81125900  0.82664200  1
  C  C141  1  0.55408300  0.68874100  0.17335800  1
  C  C142  1  0.94591700  0.31125900  0.67335800  1
  C  C143  1  0.44591700  0.18874100  0.32664200  1
  C  C144  1  0.97836200  0.18142700  0.08030600  1
  C  C145  1  0.47836200  0.31857300  0.91969400  1
  C  C146  1  0.02163800  0.68142700  0.41969400  1
  C  C147  1  0.52163800  0.81857300  0.58030600  1
  C  C148  1  0.02163800  0.81857300  0.91969400  1
  C  C149  1  0.52163800  0.68142700  0.08030600  1
  C  C150  1  0.97836200  0.31857300  0.58030600  1
  C  C151  1  0.47836200  0.18142700  0.41969400  1
  C  C152  1  0.03450300  0.30441600  0.48881600  1
  C  C153  1  0.53450300  0.19558400  0.51118400  1
  C  C154  1  0.96549700  0.80441600  0.01118400  1
  C  C155  1  0.46549700  0.69558400  0.98881600  1
  C  C156  1  0.96549700  0.69558400  0.51118400  1
  C  C157  1  0.46549700  0.80441600  0.48881600  1
  C  C158  1  0.03450300  0.19558400  0.98881600  1
  C  C159  1  0.53450300  0.30441600  0.01118400  1
  C  C160  1  0.93287800  0.40374500  0.35698800  1
  C  C161  1  0.43287800  0.09625500  0.64301200  1
  C  C162  1  0.06712200  0.90374500  0.14301200  1
  C  C163  1  0.56712200  0.59625500  0.85698800  1
  C  C164  1  0.06712200  0.59625500  0.64301200  1
  C  C165  1  0.56712200  0.90374500  0.35698800  1
  C  C166  1  0.93287800  0.09625500  0.85698800  1
  C  C167  1  0.43287800  0.40374500  0.14301200  1
