# generated using pymatgen
data_Cu(NiC11)2
_symmetry_space_group_name_H-M   'P 1'
_cell_length_a   8.33840006
_cell_length_b   8.33840006
_cell_length_c   8.77404285
_cell_angle_alpha   75.88033809
_cell_angle_beta   75.88033809
_cell_angle_gamma   75.48648542
_symmetry_Int_Tables_number   1
_chemical_formula_structural   Cu(NiC11)2
_chemical_formula_sum   'Cu2 Ni4 C44'
_cell_volume   561.77661542
_cell_formula_units_Z   2
loop_
 _symmetry_equiv_pos_site_id
 _symmetry_equiv_pos_as_xyz
  1  'x, y, z'
loop_
 _atom_site_type_symbol
 _atom_site_label
 _atom_site_symmetry_multiplicity
 _atom_site_fract_x
 _atom_site_fract_y
 _atom_site_fract_z
 _atom_site_occupancy
  C  C0  1  0.13477500  0.86522500  0.25000000  1
  C  C1  1  0.86522500  0.13477500  0.75000000  1
  Ni  Ni2  1  0.59494100  0.74936100  0.92684100  1
  Ni  Ni3  1  0.25063900  0.40505900  0.57315900  1
  Ni  Ni4  1  0.40505900  0.25063900  0.07315900  1
  Ni  Ni5  1  0.74936100  0.59494100  0.42684100  1
  Cu  Cu6  1  0.22609300  0.77390700  0.75000000  1
  Cu  Cu7  1  0.77390700  0.22609300  0.25000000  1
  C  C8  1  0.33195500  0.08173000  0.82640500  1
  C  C9  1  0.91827000  0.66804500  0.67359500  1
  C  C10  1  0.66804500  0.91827000  0.17359500  1
  C  C11  1  0.08173000  0.33195500  0.32640500  1
  C  C12  1  0.49809800  0.50190200  0.75000000  1
  C  C13  1  0.50190200  0.49809800  0.25000000  1
  C  C14  1  0.42715200  0.87158200  0.45859600  1
  C  C15  1  0.12841800  0.57284800  0.04140400  1
  C  C16  1  0.57284800  0.12841800  0.54140400  1
  C  C17  1  0.87158200  0.42715200  0.95859600  1
  C  C18  1  0.28134400  0.02041700  0.52033100  1
  C  C19  1  0.97958300  0.71865600  0.97966900  1
  C  C20  1  0.71865600  0.97958300  0.47966900  1
  C  C21  1  0.02041700  0.28134400  0.02033100  1
  C  C22  1  0.00319400  0.80804100  0.67932200  1
  C  C23  1  0.19195900  0.99680600  0.82067800  1
  C  C24  1  0.99680600  0.19195900  0.32067800  1
  C  C25  1  0.80804100  0.00319400  0.17932200  1
  C  C26  1  0.30932300  0.89933500  0.51647400  1
  C  C27  1  0.10066500  0.69067700  0.98352600  1
  C  C28  1  0.69067700  0.10066500  0.48352600  1
  C  C29  1  0.89933500  0.30932300  0.01647400  1
  C  C30  1  0.47319600  0.67093400  0.80678500  1
  C  C31  1  0.32906600  0.52680400  0.69321500  1
  C  C32  1  0.52680400  0.32906600  0.19321500  1
  C  C33  1  0.67093400  0.47319600  0.30678500  1
  C  C34  1  0.52440600  0.34890700  0.88708100  1
  C  C35  1  0.65109300  0.47559400  0.61291900  1
  C  C36  1  0.47559400  0.65109300  0.11291900  1
  C  C37  1  0.34890700  0.52440600  0.38708100  1
  C  C38  1  0.78960200  0.62596600  0.83376600  1
  C  C39  1  0.37403400  0.21039800  0.66623400  1
  C  C40  1  0.21039800  0.37403400  0.16623400  1
  C  C41  1  0.62596600  0.78960200  0.33376600  1
  C  C42  1  0.72746300  0.82483200  0.03069800  1
  C  C43  1  0.17516800  0.27253700  0.46930200  1
  C  C44  1  0.27253700  0.17516800  0.96930200  1
  C  C45  1  0.82483200  0.72746300  0.53069800  1
  C  C46  1  0.50352700  0.95957400  0.84105100  1
  C  C47  1  0.04042600  0.49647300  0.65894900  1
  C  C48  1  0.49647300  0.04042600  0.15894900  1
  C  C49  1  0.95957400  0.50352700  0.34105100  1
