# generated using pymatgen
data_Cu2NiC10
_symmetry_space_group_name_H-M   'P 1'
_cell_length_a   6.17704600
_cell_length_b   8.47213200
_cell_length_c   13.57149100
_cell_angle_alpha   90.00000000
_cell_angle_beta   90.00000000
_cell_angle_gamma   90.00000000
_symmetry_Int_Tables_number   1
_chemical_formula_structural   Cu2NiC10
_chemical_formula_sum   'Cu8 Ni4 C40'
_cell_volume   710.23343317
_cell_formula_units_Z   4
loop_
 _symmetry_equiv_pos_site_id
 _symmetry_equiv_pos_as_xyz
  1  'x, y, z'
loop_
 _atom_site_type_symbol
 _atom_site_label
 _atom_site_symmetry_multiplicity
 _atom_site_fract_x
 _atom_site_fract_y
 _atom_site_fract_z
 _atom_site_occupancy
  C  C0  1  0.25000000  0.12799800  0.24966500  1
  C  C1  1  0.75000000  0.62799800  0.25033500  1
  C  C2  1  0.25000000  0.37200200  0.74966500  1
  C  C3  1  0.75000000  0.87200200  0.75033500  1
  C  C4  1  0.00000000  0.00000000  0.00000000  1
  C  C5  1  0.50000000  0.00000000  0.00000000  1
  C  C6  1  0.75000000  0.28993000  0.11281400  1
  C  C7  1  0.25000000  0.78993000  0.38718600  1
  C  C8  1  0.00000000  0.50000000  0.50000000  1
  C  C9  1  0.50000000  0.50000000  0.50000000  1
  C  C10  1  0.75000000  0.21007000  0.61281400  1
  C  C11  1  0.25000000  0.71007000  0.88718600  1
  Ni  Ni12  1  0.75000000  0.97759600  0.15436100  1
  Ni  Ni13  1  0.25000000  0.47759600  0.34563900  1
  Ni  Ni14  1  0.75000000  0.52240400  0.65436100  1
  Ni  Ni15  1  0.25000000  0.02240400  0.84563900  1
  Cu  Cu16  1  0.25000000  0.38333600  0.02647400  1
  Cu  Cu17  1  0.25000000  0.77427200  0.17048600  1
  Cu  Cu18  1  0.75000000  0.27427200  0.32951400  1
  Cu  Cu19  1  0.75000000  0.88333600  0.47352600  1
  Cu  Cu20  1  0.25000000  0.11666400  0.52647400  1
  Cu  Cu21  1  0.25000000  0.72572800  0.67048600  1
  Cu  Cu22  1  0.75000000  0.22572800  0.82951400  1
  Cu  Cu23  1  0.75000000  0.61666400  0.97352600  1
  C  C24  1  0.03106900  0.25456600  0.01815100  1
  C  C25  1  0.46893100  0.25456600  0.01815100  1
  C  C26  1  0.75000000  0.53185900  0.08920400  1
  C  C27  1  0.75000000  0.04151100  0.09489100  1
  C  C28  1  0.25000000  0.95845000  0.11013700  1
  C  C29  1  0.54191900  0.30122600  0.24593900  1
  C  C30  1  0.95808100  0.30122600  0.24593900  1
  C  C31  1  0.04191900  0.80122600  0.25406100  1
  C  C32  1  0.45808100  0.80122600  0.25406100  1
  C  C33  1  0.75000000  0.45845000  0.38986300  1
  C  C34  1  0.25000000  0.54151100  0.40510900  1
  C  C35  1  0.25000000  0.03185900  0.41079600  1
  C  C36  1  0.53106900  0.75456600  0.48184900  1
  C  C37  1  0.96893100  0.75456600  0.48184900  1
  C  C38  1  0.03106900  0.24543400  0.51815100  1
  C  C39  1  0.46893100  0.24543400  0.51815100  1
  C  C40  1  0.75000000  0.96814100  0.58920400  1
  C  C41  1  0.75000000  0.45848900  0.59489100  1
  C  C42  1  0.25000000  0.54155000  0.61013700  1
  C  C43  1  0.54191900  0.19877400  0.74593900  1
  C  C44  1  0.95808100  0.19877400  0.74593900  1
  C  C45  1  0.04191900  0.69877400  0.75406100  1
  C  C46  1  0.45808100  0.69877400  0.75406100  1
  C  C47  1  0.75000000  0.04155000  0.88986300  1
  C  C48  1  0.25000000  0.95848900  0.90510900  1
  C  C49  1  0.25000000  0.46814100  0.91079600  1
  C  C50  1  0.53106900  0.74543400  0.98184900  1
  C  C51  1  0.96893100  0.74543400  0.98184900  1
